MODEL 1
REMARK VINA RESULT:      -9.1      0.000      0.000
REMARK SMILES C[C@@H](CCCO)Nc1ccc(C(=O)NCCCCNC(=O)c2ccc(-c3c4nc(c(-c5c(F)cc(S(=O)(=O)[O-])cc5F)c5ccc([nH]5)c(-c5c(F)cc(S(=O)(=O)[O-])cc5F)c5nc(c(-c6c(F)cc(S(=O)(=O)[O-])cc6F)c6ccc3[nH]6)C=C5)C=C4)cc2)o1
REMARK SMILES IDX 15 1 14 2 12 3 13 4 11 6 8 7 9 8 88 9 10 10 7 11 2 13 1 14
REMARK SMILES IDX 3 15 4 16 5 17 6 18 16 20 17 21 18 22 19 23 20 24 21 26
REMARK SMILES IDX 22 27 23 28 87 29 24 30 86 31 25 32 26 33 27 34 80 35 28 36
REMARK SMILES IDX 85 37 79 38 81 39 29 40 84 41 78 42 77 43 30 45 64 46 43 47
REMARK SMILES IDX 63 48 44 49 47 50 62 51 82 52 45 53 46 54 61 56 83 57 48 58
REMARK SMILES IDX 31 59 32 60 41 61 33 62 34 63 40 64 42 65 35 66 36 67 37 68
REMARK SMILES IDX 38 69 39 70 65 71 66 72 75 73 67 74 68 75 74 76 76 77 69 78
REMARK SMILES IDX 70 79 71 80 72 81 73 82 49 83 50 84 59 85 51 86 52 87 58 88
REMARK SMILES IDX 60 89 53 90 54 91 55 92 56 93 57 94
REMARK H PARENT 14 5 7 12 6 19 19 25 81 44 47 55
REMARK Flexibility Score: inf
ROOT
ATOM      1  C   UNL A   1      42.477  19.616  25.835  1.00  0.00     0.116 C 
ENDROOT
BRANCH   1   2
ATOM      2  N   UNL A   1      43.854  19.312  25.512  1.00  0.00    -0.349 N 
ATOM      3  C   UNL A   1      44.910  20.142  25.208  1.00  0.00     0.287 C 
ATOM      4  O   UNL A   1      45.997  19.589  25.046  1.00  0.00    -0.266 OA
ATOM      5  H   UNL A   1      44.073  18.352  25.508  1.00  0.00     0.163 HD
BRANCH   3   6
ATOM      6  C   UNL A   1      44.737  21.583  25.127  1.00  0.00     0.194 A 
ATOM      7  C   UNL A   1      44.528  23.569  26.072  1.00  0.00     0.194 A 
ATOM      8  C   UNL A   1      44.341  23.768  24.728  1.00  0.00     0.070 A 
ATOM      9  O   UNL A   1      44.802  22.268  26.317  1.00  0.00    -0.436 OA
ATOM     10  C   UNL A   1      44.520  22.503  24.115  1.00  0.00     0.058 A 
BRANCH   7  11
ATOM     11  N   UNL A   1      44.493  24.353  27.160  1.00  0.00    -0.354 N 
ATOM     12  H   UNL A   1      43.698  24.324  27.740  1.00  0.00     0.163 HD
BRANCH  11  13
ATOM     13  C   UNL A   1      45.585  25.244  27.517  1.00  0.00     0.079 C 
ATOM     14  C   UNL A   1      46.874  24.428  27.633  1.00  0.00     0.031 C 
BRANCH  13  15
ATOM     15  C   UNL A   1      45.720  26.425  26.542  1.00  0.00     0.027 C 
BRANCH  15  16
ATOM     16  C   UNL A   1      44.945  27.707  26.872  1.00  0.00     0.030 C 
BRANCH  16  17
ATOM     17  C   UNL A   1      43.628  27.896  26.131  1.00  0.00     0.156 C 
BRANCH  17  18
ATOM     18  O   UNL A   1      43.800  27.702  24.736  1.00  0.00    -0.396 OA
ATOM     19  H   UNL A   1      44.572  28.204  24.433  1.00  0.00     0.210 HD
ENDBRANCH  17  18
ENDBRANCH  16  17
ENDBRANCH  15  16
ENDBRANCH  13  15
ENDBRANCH  11  13
ENDBRANCH   7  11
ENDBRANCH   3   6
ENDBRANCH   1   2
BRANCH   1  20
ATOM     20  C   UNL A   1      42.290  19.771  27.343  1.00  0.00     0.023 C 
BRANCH  20  21
ATOM     21  C   UNL A   1      41.298  20.871  27.738  1.00  0.00     0.023 C 
BRANCH  21  22
ATOM     22  C   UNL A   1      41.176  22.022  26.740  1.00  0.00     0.116 C 
BRANCH  22  23
ATOM     23  N   UNL A   1      39.898  22.049  26.043  1.00  0.00    -0.352 N 
ATOM     24  C   UNL A   1      38.951  23.044  26.035  1.00  0.00     0.251 C 
ATOM     25  H   UNL A   1      39.686  21.251  25.506  1.00  0.00     0.163 HD
ATOM     26  O   UNL A   1      37.874  22.868  25.474  1.00  0.00    -0.269 OA
BRANCH  24  27
ATOM     27  C   UNL A   1      39.228  24.310  26.746  1.00  0.00     0.039 A 
ATOM     28  C   UNL A   1      38.779  24.457  28.060  1.00  0.00     0.014 A 
ATOM     29  C   UNL A   1      39.965  25.325  26.131  1.00  0.00     0.014 A 
ATOM     30  C   UNL A   1      39.131  25.598  28.783  1.00  0.00     0.010 A 
ATOM     31  C   UNL A   1      40.370  26.429  26.874  1.00  0.00     0.010 A 
ATOM     32  C   UNL A   1      39.962  26.575  28.209  1.00  0.00    -0.014 A 
BRANCH  32  33
ATOM     33  C   UNL A   1      40.422  27.751  28.990  1.00  0.00     0.031 A 
ATOM     34  C   UNL A   1      41.767  27.729  29.661  1.00  0.00     0.074 A 
ATOM     35  C   UNL A   1      39.601  28.807  29.148  1.00  0.00     0.049 A 
ATOM     36  N   UNL A   1      42.313  28.623  30.445  1.00  0.00    -0.248 NA
ATOM     37  C   UNL A   1      42.598  26.533  29.444  1.00  0.00     0.031 C 
ATOM     38  C   UNL A   1      38.253  28.926  28.585  1.00  0.00     0.029 A 
ATOM     39  N   UNL A   1      39.773  29.981  29.837  1.00  0.00    -0.354 N 
ATOM     40  C   UNL A   1      43.542  28.096  30.822  1.00  0.00     0.074 A 
ATOM     41  C   UNL A   1      43.639  26.780  30.226  1.00  0.00     0.031 C 
ATOM     42  C   UNL A   1      37.732  30.113  28.932  1.00  0.00     0.029 A 
ATOM     43  C   UNL A   1      38.690  30.826  29.771  1.00  0.00     0.049 A 
ATOM     44  H   UNL A   1      40.595  30.197  30.334  1.00  0.00     0.167 HD
ATOM     45  C   UNL A   1      44.514  28.666  31.573  1.00  0.00     0.037 A 
ATOM     46  C   UNL A   1      38.491  32.037  30.327  1.00  0.00     0.037 A 
ATOM     47  C   UNL A   1      44.422  29.984  32.144  1.00  0.00     0.049 A 
ATOM     48  C   UNL A   1      39.584  32.647  31.164  1.00  0.00     0.074 A 
ATOM     49  C   UNL A   1      45.369  30.671  32.883  1.00  0.00     0.029 A 
ATOM     50  N   UNL A   1      43.317  30.818  32.038  1.00  0.00    -0.354 N 
ATOM     51  N   UNL A   1      40.762  32.156  31.465  1.00  0.00    -0.248 NA
ATOM     52  C   UNL A   1      39.321  33.976  31.733  1.00  0.00     0.031 C 
ATOM     53  C   UNL A   1      44.824  31.905  33.253  1.00  0.00     0.029 A 
ATOM     54  C   UNL A   1      43.554  32.006  32.709  1.00  0.00     0.049 A 
ATOM     55  H   UNL A   1      42.487  30.597  31.556  1.00  0.00     0.167 HD
ATOM     56  C   UNL A   1      41.393  33.129  32.233  1.00  0.00     0.074 A 
ATOM     57  C   UNL A   1      40.469  34.239  32.342  1.00  0.00     0.031 C 
ATOM     58  C   UNL A   1      42.626  33.106  32.796  1.00  0.00     0.037 A 
BRANCH  45  59
ATOM     59  C   UNL A   1      45.766  27.868  31.810  1.00  0.00     0.058 A 
ATOM     60  C   UNL A   1      45.905  27.039  32.935  1.00  0.00     0.135 A 
ATOM     61  C   UNL A   1      46.828  27.907  30.892  1.00  0.00     0.135 A 
ATOM     62  F   UNL A   1      44.928  26.976  33.853  1.00  0.00    -0.206 F 
ATOM     63  C   UNL A   1      47.064  26.303  33.158  1.00  0.00     0.059 A 
ATOM     64  C   UNL A   1      47.985  27.157  31.081  1.00  0.00     0.059 A 
ATOM     65  F   UNL A   1      46.748  28.683  29.799  1.00  0.00    -0.206 F 
ATOM     66  C   UNL A   1      48.099  26.370  32.226  1.00  0.00     0.060 A 
BRANCH  66  67
ATOM     67  S   UNL A   1      49.597  25.407  32.530  1.00  0.00     0.124 S 
ATOM     68  O   UNL A   1      50.490  26.426  33.072  1.00  0.00    -0.237 OA
ATOM     69  O   UNL A   1      49.134  24.401  33.480  1.00  0.00    -0.237 OA
ATOM     70  O   UNL A   1      49.950  24.902  31.208  1.00  0.00    -0.744 OA
ENDBRANCH  66  67
ENDBRANCH  45  59
BRANCH  46  71
ATOM     71  C   UNL A   1      37.217  32.767  30.091  1.00  0.00     0.058 A 
ATOM     72  C   UNL A   1      36.088  32.517  30.887  1.00  0.00     0.135 A 
ATOM     73  C   UNL A   1      37.098  33.723  29.072  1.00  0.00     0.135 A 
ATOM     74  F   UNL A   1      36.150  31.607  31.871  1.00  0.00    -0.206 F 
ATOM     75  C   UNL A   1      34.881  33.173  30.668  1.00  0.00     0.059 A 
ATOM     76  C   UNL A   1      35.909  34.411  28.849  1.00  0.00     0.059 A 
ATOM     77  F   UNL A   1      38.154  34.012  28.294  1.00  0.00    -0.206 F 
ATOM     78  C   UNL A   1      34.802  34.118  29.645  1.00  0.00     0.060 A 
BRANCH  78  79
ATOM     79  S   UNL A   1      33.240  34.991  29.392  1.00  0.00     0.124 S 
ATOM     80  O   UNL A   1      32.678  34.981  30.737  1.00  0.00    -0.237 OA
ATOM     81  O   UNL A   1      33.690  36.288  28.896  1.00  0.00    -0.237 OA
ATOM     82  O   UNL A   1      32.549  34.160  28.410  1.00  0.00    -0.744 OA
ENDBRANCH  78  79
ENDBRANCH  46  71
BRANCH  58  83
ATOM     83  C   UNL A   1      43.066  34.331  33.549  1.00  0.00     0.058 A 
ATOM     84  C   UNL A   1      42.940  34.424  34.943  1.00  0.00     0.135 A 
ATOM     85  C   UNL A   1      43.666  35.404  32.870  1.00  0.00     0.135 A 
ATOM     86  F   UNL A   1      42.366  33.429  35.638  1.00  0.00    -0.206 F 
ATOM     87  C   UNL A   1      43.376  35.548  35.638  1.00  0.00     0.059 A 
ATOM     88  C   UNL A   1      44.133  36.525  33.546  1.00  0.00     0.059 A 
ATOM     89  F   UNL A   1      43.818  35.360  31.537  1.00  0.00    -0.206 F 
ATOM     90  C   UNL A   1      43.972  36.594  34.930  1.00  0.00     0.060 A 
BRANCH  90  91
ATOM     91  S   UNL A   1      44.568  38.031  35.846  1.00  0.00     0.124 S 
ATOM     92  O   UNL A   1      43.744  37.974  37.049  1.00  0.00    -0.237 OA
ATOM     93  O   UNL A   1      45.982  37.720  36.031  1.00  0.00    -0.237 OA
ATOM     94  O   UNL A   1      44.290  39.146  34.946  1.00  0.00    -0.744 OA
ENDBRANCH  90  91
ENDBRANCH  58  83
ENDBRANCH  32  33
ENDBRANCH  24  27
ENDBRANCH  22  23
ENDBRANCH  21  22
ENDBRANCH  20  21
ENDBRANCH   1  20
TORSDOF 20
ENDMDL
MODEL 2
REMARK VINA RESULT:      -8.9      3.979     10.697
REMARK SMILES C[C@@H](CCCO)Nc1ccc(C(=O)NCCCCNC(=O)c2ccc(-c3c4nc(c(-c5c(F)cc(S(=O)(=O)[O-])cc5F)c5ccc([nH]5)c(-c5c(F)cc(S(=O)(=O)[O-])cc5F)c5nc(c(-c6c(F)cc(S(=O)(=O)[O-])cc6F)c6ccc3[nH]6)C=C5)C=C4)cc2)o1
REMARK SMILES IDX 15 1 14 2 12 3 13 4 11 6 8 7 9 8 88 9 10 10 7 11 2 13 1 14
REMARK SMILES IDX 3 15 4 16 5 17 6 18 16 20 17 21 18 22 19 23 20 24 21 26
REMARK SMILES IDX 22 27 23 28 87 29 24 30 86 31 25 32 26 33 27 34 80 35 28 36
REMARK SMILES IDX 85 37 79 38 81 39 29 40 84 41 78 42 77 43 30 45 64 46 43 47
REMARK SMILES IDX 63 48 44 49 47 50 62 51 82 52 45 53 46 54 61 56 83 57 48 58
REMARK SMILES IDX 31 59 32 60 41 61 33 62 34 63 40 64 42 65 35 66 36 67 37 68
REMARK SMILES IDX 38 69 39 70 65 71 66 72 75 73 67 74 68 75 74 76 76 77 69 78
REMARK SMILES IDX 70 79 71 80 72 81 73 82 49 83 50 84 59 85 51 86 52 87 58 88
REMARK SMILES IDX 60 89 53 90 54 91 55 92 56 93 57 94
REMARK H PARENT 14 5 7 12 6 19 19 25 81 44 47 55
REMARK Flexibility Score: inf
ROOT
ATOM      1  C   UNL A   1      31.746  27.834  24.313  1.00  0.00     0.116 C 
ENDROOT
BRANCH   1   2
ATOM      2  N   UNL A   1      30.901  27.222  25.315  1.00  0.00    -0.349 N 
ATOM      3  C   UNL A   1      30.570  25.903  25.529  1.00  0.00     0.287 C 
ATOM      4  O   UNL A   1      29.877  25.677  26.521  1.00  0.00    -0.266 OA
ATOM      5  H   UNL A   1      30.494  27.856  25.951  1.00  0.00     0.163 HD
BRANCH   3   6
ATOM      6  C   UNL A   1      31.052  24.853  24.648  1.00  0.00     0.194 A 
ATOM      7  C   UNL A   1      32.652  23.517  23.914  1.00  0.00     0.194 A 
ATOM      8  C   UNL A   1      31.576  23.306  23.090  1.00  0.00     0.070 A 
ATOM      9  O   UNL A   1      32.337  24.416  24.873  1.00  0.00    -0.436 OA
ATOM     10  C   UNL A   1      30.534  24.129  23.587  1.00  0.00     0.058 A 
BRANCH   7  11
ATOM     11  N   UNL A   1      33.908  23.048  23.971  1.00  0.00    -0.354 N 
ATOM     12  H   UNL A   1      34.583  23.425  23.362  1.00  0.00     0.163 HD
BRANCH  11  13
ATOM     13  C   UNL A   1      34.311  22.005  24.900  1.00  0.00     0.079 C 
ATOM     14  C   UNL A   1      33.648  20.689  24.488  1.00  0.00     0.031 C 
BRANCH  13  15
ATOM     15  C   UNL A   1      35.839  21.885  25.018  1.00  0.00     0.027 C 
BRANCH  15  16
ATOM     16  C   UNL A   1      36.545  22.799  26.027  1.00  0.00     0.030 C 
BRANCH  16  17
ATOM     17  C   UNL A   1      37.766  23.547  25.506  1.00  0.00     0.156 C 
BRANCH  17  18
ATOM     18  O   UNL A   1      38.963  22.902  25.907  1.00  0.00    -0.396 OA
ATOM     19  H   UNL A   1      39.706  23.521  25.829  1.00  0.00     0.210 HD
ENDBRANCH  17  18
ENDBRANCH  16  17
ENDBRANCH  15  16
ENDBRANCH  13  15
ENDBRANCH  11  13
ENDBRANCH   7  11
ENDBRANCH   3   6
ENDBRANCH   1   2
BRANCH   1  20
ATOM     20  C   UNL A   1      32.853  28.663  24.961  1.00  0.00     0.023 C 
BRANCH  20  21
ATOM     21  C   UNL A   1      33.675  27.899  26.005  1.00  0.00     0.023 C 
BRANCH  21  22
ATOM     22  C   UNL A   1      33.441  28.325  27.453  1.00  0.00     0.116 C 
BRANCH  22  23
ATOM     23  N   UNL A   1      33.378  29.769  27.627  1.00  0.00    -0.352 N 
ATOM     24  C   UNL A   1      34.374  30.626  28.029  1.00  0.00     0.251 C 
ATOM     25  H   UNL A   1      32.507  30.186  27.432  1.00  0.00     0.163 HD
ATOM     26  O   UNL A   1      34.128  31.811  28.226  1.00  0.00    -0.269 OA
BRANCH  24  27
ATOM     27  C   UNL A   1      35.733  30.093  28.261  1.00  0.00     0.039 A 
ATOM     28  C   UNL A   1      36.651  30.108  27.209  1.00  0.00     0.014 A 
ATOM     29  C   UNL A   1      36.109  29.625  29.523  1.00  0.00     0.014 A 
ATOM     30  C   UNL A   1      37.970  29.717  27.441  1.00  0.00     0.010 A 
ATOM     31  C   UNL A   1      37.440  29.300  29.768  1.00  0.00     0.010 A 
ATOM     32  C   UNL A   1      38.385  29.347  28.732  1.00  0.00    -0.014 A 
BRANCH  32  33
ATOM     33  C   UNL A   1      39.803  29.014  29.020  1.00  0.00     0.031 A 
ATOM     34  C   UNL A   1      40.715  30.054  29.609  1.00  0.00     0.074 A 
ATOM     35  C   UNL A   1      40.281  27.798  28.690  1.00  0.00     0.049 A 
ATOM     36  N   UNL A   1      41.997  29.980  29.860  1.00  0.00    -0.248 NA
ATOM     37  C   UNL A   1      40.113  31.358  29.932  1.00  0.00     0.031 C 
ATOM     38  C   UNL A   1      39.505  26.721  28.069  1.00  0.00     0.029 A 
ATOM     39  N   UNL A   1      41.539  27.265  28.819  1.00  0.00    -0.354 N 
ATOM     40  C   UNL A   1      42.357  31.226  30.361  1.00  0.00     0.074 A 
ATOM     41  C   UNL A   1      41.170  32.054  30.325  1.00  0.00     0.031 C 
ATOM     42  C   UNL A   1      40.297  25.651  27.894  1.00  0.00     0.029 A 
ATOM     43  C   UNL A   1      41.644  25.975  28.355  1.00  0.00     0.049 A 
ATOM     44  H   UNL A   1      42.296  27.761  29.208  1.00  0.00     0.167 HD
ATOM     45  C   UNL A   1      43.558  31.634  30.833  1.00  0.00     0.037 A 
ATOM     46  C   UNL A   1      42.707  25.148  28.302  1.00  0.00     0.037 A 
ATOM     47  C   UNL A   1      44.729  30.798  30.887  1.00  0.00     0.049 A 
ATOM     48  C   UNL A   1      44.034  25.628  28.826  1.00  0.00     0.074 A 
ATOM     49  C   UNL A   1      45.982  31.102  31.389  1.00  0.00     0.029 A 
ATOM     50  N   UNL A   1      44.790  29.490  30.426  1.00  0.00    -0.354 N 
ATOM     51  N   UNL A   1      44.342  26.792  29.347  1.00  0.00    -0.248 NA
ATOM     52  C   UNL A   1      45.155  24.681  28.761  1.00  0.00     0.031 C 
ATOM     53  C   UNL A   1      46.811  29.991  31.199  1.00  0.00     0.029 A 
ATOM     54  C   UNL A   1      46.063  28.979  30.619  1.00  0.00     0.049 A 
ATOM     55  H   UNL A   1      44.039  28.998  30.021  1.00  0.00     0.167 HD
ATOM     56  C   UNL A   1      45.685  26.706  29.698  1.00  0.00     0.074 A 
ATOM     57  C   UNL A   1      46.126  25.374  29.340  1.00  0.00     0.031 C 
ATOM     58  C   UNL A   1      46.481  27.645  30.267  1.00  0.00     0.037 A 
BRANCH  45  59
ATOM     59  C   UNL A   1      43.662  33.047  31.338  1.00  0.00     0.058 A 
ATOM     60  C   UNL A   1      44.107  34.090  30.511  1.00  0.00     0.135 A 
ATOM     61  C   UNL A   1      43.286  33.369  32.653  1.00  0.00     0.135 A 
ATOM     62  F   UNL A   1      44.494  33.836  29.251  1.00  0.00    -0.206 F 
ATOM     63  C   UNL A   1      44.207  35.397  30.978  1.00  0.00     0.059 A 
ATOM     64  C   UNL A   1      43.352  34.674  33.131  1.00  0.00     0.059 A 
ATOM     65  F   UNL A   1      42.853  32.410  33.486  1.00  0.00    -0.206 F 
ATOM     66  C   UNL A   1      43.829  35.678  32.290  1.00  0.00     0.060 A 
BRANCH  66  67
ATOM     67  S   UNL A   1      43.964  37.380  32.880  1.00  0.00     0.124 S 
ATOM     68  O   UNL A   1      42.919  37.417  33.898  1.00  0.00    -0.237 OA
ATOM     69  O   UNL A   1      45.335  37.430  33.377  1.00  0.00    -0.237 OA
ATOM     70  O   UNL A   1      43.704  38.175  31.684  1.00  0.00    -0.744 OA
ENDBRANCH  66  67
ENDBRANCH  45  59
BRANCH  46  71
ATOM     71  C   UNL A   1      42.557  23.773  27.756  1.00  0.00     0.058 A 
ATOM     72  C   UNL A   1      42.570  23.545  26.372  1.00  0.00     0.135 A 
ATOM     73  C   UNL A   1      42.397  22.663  28.599  1.00  0.00     0.135 A 
ATOM     74  F   UNL A   1      42.714  24.575  25.524  1.00  0.00    -0.206 F 
ATOM     75  C   UNL A   1      42.409  22.269  25.841  1.00  0.00     0.059 A 
ATOM     76  C   UNL A   1      42.259  21.374  28.094  1.00  0.00     0.059 A 
ATOM     77  F   UNL A   1      42.395  22.826  29.933  1.00  0.00    -0.206 F 
ATOM     78  C   UNL A   1      42.254  21.190  26.711  1.00  0.00     0.060 A 
BRANCH  78  79
ATOM     79  S   UNL A   1      42.082  19.532  26.014  1.00  0.00     0.124 S 
ATOM     80  O   UNL A   1      42.525  18.700  27.125  1.00  0.00    -0.237 OA
ATOM     81  O   UNL A   1      40.658  19.477  25.700  1.00  0.00    -0.237 OA
ATOM     82  O   UNL A   1      42.969  19.565  24.854  1.00  0.00    -0.744 OA
ENDBRANCH  78  79
ENDBRANCH  46  71
BRANCH  58  83
ATOM     83  C   UNL A   1      47.900  27.255  30.573  1.00  0.00     0.058 A 
ATOM     84  C   UNL A   1      48.261  26.693  31.807  1.00  0.00     0.135 A 
ATOM     85  C   UNL A   1      48.901  27.402  29.599  1.00  0.00     0.135 A 
ATOM     86  F   UNL A   1      47.344  26.539  32.773  1.00  0.00    -0.206 F 
ATOM     87  C   UNL A   1      49.572  26.308  32.072  1.00  0.00     0.059 A 
ATOM     88  C   UNL A   1      50.211  27.000  29.833  1.00  0.00     0.059 A 
ATOM     89  F   UNL A   1      48.605  27.926  28.399  1.00  0.00    -0.206 F 
ATOM     90  C   UNL A   1      50.540  26.465  31.078  1.00  0.00     0.060 A 
BRANCH  90  91
ATOM     91  S   UNL A   1      52.229  25.926  31.421  1.00  0.00     0.124 S 
ATOM     92  O   UNL A   1      52.010  24.570  31.912  1.00  0.00    -0.237 OA
ATOM     93  O   UNL A   1      52.863  26.031  30.111  1.00  0.00    -0.237 OA
ATOM     94  O   UNL A   1      52.696  26.887  32.415  1.00  0.00    -0.744 OA
ENDBRANCH  90  91
ENDBRANCH  58  83
ENDBRANCH  32  33
ENDBRANCH  24  27
ENDBRANCH  22  23
ENDBRANCH  21  22
ENDBRANCH  20  21
ENDBRANCH   1  20
TORSDOF 20
ENDMDL
MODEL 3
REMARK VINA RESULT:      -8.8      0.700      8.482
REMARK SMILES C[C@@H](CCCO)Nc1ccc(C(=O)NCCCCNC(=O)c2ccc(-c3c4nc(c(-c5c(F)cc(S(=O)(=O)[O-])cc5F)c5ccc([nH]5)c(-c5c(F)cc(S(=O)(=O)[O-])cc5F)c5nc(c(-c6c(F)cc(S(=O)(=O)[O-])cc6F)c6ccc3[nH]6)C=C5)C=C4)cc2)o1
REMARK SMILES IDX 15 1 14 2 12 3 13 4 11 6 8 7 9 8 88 9 10 10 7 11 2 13 1 14
REMARK SMILES IDX 3 15 4 16 5 17 6 18 16 20 17 21 18 22 19 23 20 24 21 26
REMARK SMILES IDX 22 27 23 28 87 29 24 30 86 31 25 32 26 33 27 34 80 35 28 36
REMARK SMILES IDX 85 37 79 38 81 39 29 40 84 41 78 42 77 43 30 45 64 46 43 47
REMARK SMILES IDX 63 48 44 49 47 50 62 51 82 52 45 53 46 54 61 56 83 57 48 58
REMARK SMILES IDX 31 59 32 60 41 61 33 62 34 63 40 64 42 65 35 66 36 67 37 68
REMARK SMILES IDX 38 69 39 70 65 71 66 72 75 73 67 74 68 75 74 76 76 77 69 78
REMARK SMILES IDX 70 79 71 80 72 81 73 82 49 83 50 84 59 85 51 86 52 87 58 88
REMARK SMILES IDX 60 89 53 90 54 91 55 92 56 93 57 94
REMARK H PARENT 14 5 7 12 6 19 19 25 81 44 47 55
REMARK Flexibility Score: inf
ROOT
ATOM      1  C   UNL A   1      42.513  19.521  25.839  1.00  0.00     0.116 C 
ENDROOT
BRANCH   1   2
ATOM      2  N   UNL A   1      43.775  18.850  25.619  1.00  0.00    -0.349 N 
ATOM      3  C   UNL A   1      44.988  19.335  25.183  1.00  0.00     0.287 C 
ATOM      4  O   UNL A   1      45.915  18.527  25.165  1.00  0.00    -0.266 OA
ATOM      5  H   UNL A   1      43.766  17.884  25.814  1.00  0.00     0.163 HD
BRANCH   3   6
ATOM      6  C   UNL A   1      45.150  20.731  24.811  1.00  0.00     0.194 A 
ATOM      7  C   UNL A   1      45.779  22.801  25.263  1.00  0.00     0.194 A 
ATOM      8  C   UNL A   1      45.177  22.849  24.032  1.00  0.00     0.070 A 
ATOM      9  O   UNL A   1      45.800  21.529  25.723  1.00  0.00    -0.436 OA
ATOM     10  C   UNL A   1      44.814  21.515  23.720  1.00  0.00     0.058 A 
BRANCH   7  11
ATOM     11  N   UNL A   1      46.327  23.708  26.086  1.00  0.00    -0.354 N 
ATOM     12  H   UNL A   1      47.303  23.834  26.069  1.00  0.00     0.163 HD
BRANCH  11  13
ATOM     13  C   UNL A   1      45.534  24.512  27.001  1.00  0.00     0.079 C 
ATOM     14  C   UNL A   1      46.089  24.346  28.417  1.00  0.00     0.031 C 
BRANCH  13  15
ATOM     15  C   UNL A   1      45.454  25.985  26.567  1.00  0.00     0.027 C 
BRANCH  15  16
ATOM     16  C   UNL A   1      44.059  26.583  26.346  1.00  0.00     0.030 C 
BRANCH  16  17
ATOM     17  C   UNL A   1      43.974  27.712  25.328  1.00  0.00     0.156 C 
BRANCH  17  18
ATOM     18  O   UNL A   1      42.970  27.447  24.362  1.00  0.00    -0.396 OA
ATOM     19  H   UNL A   1      43.268  27.756  23.492  1.00  0.00     0.210 HD
ENDBRANCH  17  18
ENDBRANCH  16  17
ENDBRANCH  15  16
ENDBRANCH  13  15
ENDBRANCH  11  13
ENDBRANCH   7  11
ENDBRANCH   3   6
ENDBRANCH   1   2
BRANCH   1  20
ATOM     20  C   UNL A   1      42.379  19.977  27.291  1.00  0.00     0.023 C 
BRANCH  20  21
ATOM     21  C   UNL A   1      41.272  21.012  27.520  1.00  0.00     0.023 C 
BRANCH  21  22
ATOM     22  C   UNL A   1      41.190  22.116  26.468  1.00  0.00     0.116 C 
BRANCH  22  23
ATOM     23  N   UNL A   1      39.885  22.211  25.831  1.00  0.00    -0.352 N 
ATOM     24  C   UNL A   1      38.951  23.214  25.942  1.00  0.00     0.251 C 
ATOM     25  H   UNL A   1      39.639  21.460  25.244  1.00  0.00     0.163 HD
ATOM     26  O   UNL A   1      37.850  23.093  25.416  1.00  0.00    -0.269 OA
BRANCH  24  27
ATOM     27  C   UNL A   1      39.275  24.417  26.735  1.00  0.00     0.039 A 
ATOM     28  C   UNL A   1      38.851  24.483  28.064  1.00  0.00     0.014 A 
ATOM     29  C   UNL A   1      40.033  25.453  26.181  1.00  0.00     0.014 A 
ATOM     30  C   UNL A   1      39.246  25.559  28.860  1.00  0.00     0.010 A 
ATOM     31  C   UNL A   1      40.481  26.489  26.994  1.00  0.00     0.010 A 
ATOM     32  C   UNL A   1      40.097  26.551  28.342  1.00  0.00    -0.014 A 
BRANCH  32  33
ATOM     33  C   UNL A   1      40.603  27.654  29.197  1.00  0.00     0.031 A 
ATOM     34  C   UNL A   1      39.767  28.885  29.410  1.00  0.00     0.074 A 
ATOM     35  C   UNL A   1      41.840  27.573  29.726  1.00  0.00     0.049 A 
ATOM     36  N   UNL A   1      40.063  29.983  30.056  1.00  0.00    -0.248 NA
ATOM     37  C   UNL A   1      38.431  28.895  28.790  1.00  0.00     0.031 C 
ATOM     38  C   UNL A   1      42.764  26.450  29.552  1.00  0.00     0.029 A 
ATOM     39  N   UNL A   1      42.539  28.457  30.510  1.00  0.00    -0.354 N 
ATOM     40  C   UNL A   1      38.960  30.816  29.914  1.00  0.00     0.074 A 
ATOM     41  C   UNL A   1      38.010  30.120  29.073  1.00  0.00     0.031 C 
ATOM     42  C   UNL A   1      43.897  26.702  30.227  1.00  0.00     0.029 A 
ATOM     43  C   UNL A   1      43.796  28.018  30.852  1.00  0.00     0.049 A 
ATOM     44  H   UNL A   1      42.174  29.324  30.799  1.00  0.00     0.167 HD
ATOM     45  C   UNL A   1      38.745  32.038  30.458  1.00  0.00     0.037 A 
ATOM     46  C   UNL A   1      44.760  28.611  31.583  1.00  0.00     0.037 A 
ATOM     47  C   UNL A   1      39.685  32.716  31.312  1.00  0.00     0.049 A 
ATOM     48  C   UNL A   1      44.501  29.972  32.170  1.00  0.00     0.074 A 
ATOM     49  C   UNL A   1      39.544  33.936  31.950  1.00  0.00     0.029 A 
ATOM     50  N   UNL A   1      40.939  32.230  31.653  1.00  0.00    -0.354 N 
ATOM     51  N   UNL A   1      43.429  30.722  32.070  1.00  0.00    -0.248 NA
ATOM     52  C   UNL A   1      45.579  30.565  32.972  1.00  0.00     0.031 C 
ATOM     53  C   UNL A   1      40.727  34.204  32.646  1.00  0.00     0.029 A 
ATOM     54  C   UNL A   1      41.588  33.132  32.480  1.00  0.00     0.049 A 
ATOM     55  H   UNL A   1      41.313  31.371  31.351  1.00  0.00     0.167 HD
ATOM     56  C   UNL A   1      43.693  31.862  32.822  1.00  0.00     0.074 A 
ATOM     57  C   UNL A   1      45.020  31.698  33.377  1.00  0.00     0.031 C 
ATOM     58  C   UNL A   1      42.906  32.946  33.034  1.00  0.00     0.037 A 
BRANCH  45  59
ATOM     59  C   UNL A   1      37.438  32.715  30.150  1.00  0.00     0.058 A 
ATOM     60  C   UNL A   1      37.332  33.678  29.134  1.00  0.00     0.135 A 
ATOM     61  C   UNL A   1      36.272  32.379  30.857  1.00  0.00     0.135 A 
ATOM     62  F   UNL A   1      38.419  34.048  28.438  1.00  0.00    -0.206 F 
ATOM     63  C   UNL A   1      36.124  34.307  28.850  1.00  0.00     0.059 A 
ATOM     64  C   UNL A   1      35.047  32.976  30.571  1.00  0.00     0.059 A 
ATOM     65  F   UNL A   1      36.316  31.464  31.839  1.00  0.00    -0.206 F 
ATOM     66  C   UNL A   1      34.988  33.950  29.576  1.00  0.00     0.060 A 
BRANCH  66  67
ATOM     67  S   UNL A   1      33.428  34.777  29.195  1.00  0.00     0.124 S 
ATOM     68  O   UNL A   1      32.844  34.919  30.524  1.00  0.00    -0.237 OA
ATOM     69  O   UNL A   1      33.876  36.014  28.564  1.00  0.00    -0.237 OA
ATOM     70  O   UNL A   1      32.752  33.834  28.309  1.00  0.00    -0.744 OA
ENDBRANCH  66  67
ENDBRANCH  45  59
BRANCH  46  71
ATOM     71  C   UNL A   1      46.051  27.912  31.824  1.00  0.00     0.058 A 
ATOM     72  C   UNL A   1      47.084  27.963  30.875  1.00  0.00     0.135 A 
ATOM     73  C   UNL A   1      46.280  27.181  32.999  1.00  0.00     0.135 A 
ATOM     74  F   UNL A   1      46.910  28.645  29.732  1.00  0.00    -0.206 F 
ATOM     75  C   UNL A   1      48.290  27.299  31.072  1.00  0.00     0.059 A 
ATOM     76  C   UNL A   1      47.487  26.529  33.231  1.00  0.00     0.059 A 
ATOM     77  F   UNL A   1      45.331  27.116  33.947  1.00  0.00    -0.206 F 
ATOM     78  C   UNL A   1      48.481  26.583  32.254  1.00  0.00     0.060 A 
BRANCH  78  79
ATOM     79  S   UNL A   1      50.064  25.753  32.517  1.00  0.00     0.124 S 
ATOM     80  O   UNL A   1      49.665  24.351  32.502  1.00  0.00    -0.237 OA
ATOM     81  O   UNL A   1      50.844  26.209  31.371  1.00  0.00    -0.237 OA
ATOM     82  O   UNL A   1      50.502  26.272  33.810  1.00  0.00    -0.744 OA
ENDBRANCH  78  79
ENDBRANCH  46  71
BRANCH  58  83
ATOM     83  C   UNL A   1      43.443  34.025  33.933  1.00  0.00     0.058 A 
ATOM     84  C   UNL A   1      43.225  34.006  35.319  1.00  0.00     0.135 A 
ATOM     85  C   UNL A   1      44.227  35.063  33.405  1.00  0.00     0.135 A 
ATOM     86  F   UNL A   1      42.476  33.040  35.872  1.00  0.00    -0.206 F 
ATOM     87  C   UNL A   1      43.749  34.992  36.149  1.00  0.00     0.059 A 
ATOM     88  C   UNL A   1      44.783  36.044  34.218  1.00  0.00     0.059 A 
ATOM     89  F   UNL A   1      44.473  35.121  32.086  1.00  0.00    -0.206 F 
ATOM     90  C   UNL A   1      44.528  36.006  35.589  1.00  0.00     0.060 A 
BRANCH  90  91
ATOM     91  S   UNL A   1      45.235  37.259  36.681  1.00  0.00     0.124 S 
ATOM     92  O   UNL A   1      46.651  36.909  36.650  1.00  0.00    -0.237 OA
ATOM     93  O   UNL A   1      44.874  38.502  36.006  1.00  0.00    -0.237 OA
ATOM     94  O   UNL A   1      44.557  37.023  37.952  1.00  0.00    -0.744 OA
ENDBRANCH  90  91
ENDBRANCH  58  83
ENDBRANCH  32  33
ENDBRANCH  24  27
ENDBRANCH  22  23
ENDBRANCH  21  22
ENDBRANCH  20  21
ENDBRANCH   1  20
TORSDOF 20
ENDMDL
