MODEL 1
REMARK VINA RESULT:     -11.2      0.000      0.000
REMARK SMILES CCC[C@@H](C(=O)N1CC[C@@](C)(C(=O)NCCCCNC(=O)c2ccc(-c3c4nc(c(-c5c(F)cc(S(=O)(=O)[O-])cc5F)c5ccc([nH]5)c(-c5c(F)cc(S(=O)(=O)[O-])cc5F)c5nc(c(-c6c(F)cc(S(=O)(=O)[O-])cc6F)c6ccc3[nH]6)C=C5)C=C4)cc2)C1)c1ccccc1
REMARK SMILES IDX 16 1 15 2 14 3 12 4 13 5 10 7 7 8 8 9 88 10 9 11 11 12 5 13
REMARK SMILES IDX 6 14 4 15 3 16 2 17 1 18 89 19 90 20 94 21 91 22 93 23 92 24
REMARK SMILES IDX 17 25 18 26 19 27 20 28 21 30 22 31 23 32 87 33 24 34 86 35
REMARK SMILES IDX 25 36 26 37 27 38 80 39 28 40 85 41 79 42 81 43 29 44 84 45
REMARK SMILES IDX 78 46 77 47 30 49 64 50 43 51 63 52 44 53 47 54 62 55 82 56
REMARK SMILES IDX 45 57 46 58 61 60 83 61 48 62 31 63 32 64 41 65 33 66 34 67
REMARK SMILES IDX 40 68 42 69 35 70 36 71 37 72 38 73 39 74 65 75 66 76 75 77
REMARK SMILES IDX 67 78 68 79 74 80 76 81 69 82 70 83 71 84 72 85 73 86 49 87
REMARK SMILES IDX 50 88 59 89 51 90 52 91 58 92 60 93 53 94 54 95 55 96 56 97
REMARK SMILES IDX 57 98
REMARK H PARENT 14 6 19 29 81 48 47 59
REMARK Flexibility Score: inf
ROOT
ATOM      1  C   UNL A   1      31.450  28.448  25.846  1.00  0.00     0.023 C 
ENDROOT
BRANCH   1   2
ATOM      2  C   UNL A   1      30.649  27.354  25.154  1.00  0.00     0.116 C 
BRANCH   2   3
ATOM      3  N   UNL A   1      30.702  27.426  23.703  1.00  0.00    -0.356 N 
ATOM      4  C   UNL A   1      31.459  26.719  22.813  1.00  0.00     0.227 C 
ATOM      5  O   UNL A   1      31.196  26.867  21.618  1.00  0.00    -0.274 OA
ATOM      6  H   UNL A   1      30.098  28.090  23.299  1.00  0.00     0.163 HD
BRANCH   4   7
ATOM      7  C   UNL A   1      32.594  25.804  23.295  1.00  0.00     0.066 C 
ATOM      8  N   UNL A   1      32.252  23.489  23.876  1.00  0.00    -0.341 N 
ATOM      9  C   UNL A   1      32.359  23.537  22.434  1.00  0.00     0.120 C 
ATOM     10  C   UNL A   1      32.099  24.825  24.390  1.00  0.00     0.136 C 
ATOM     11  C   UNL A   1      33.044  24.864  22.152  1.00  0.00     0.040 C 
ATOM     12  C   UNL A   1      33.752  26.628  23.897  1.00  0.00     0.024 C 
BRANCH   8  13
ATOM     13  C   UNL A   1      32.294  22.295  24.554  1.00  0.00     0.230 C 
ATOM     14  O   UNL A   1      31.383  22.059  25.362  1.00  0.00    -0.274 OA
BRANCH  13  15
ATOM     15  C   UNL A   1      33.508  21.301  24.460  1.00  0.00     0.108 C 
BRANCH  15  16
ATOM     16  C   UNL A   1      33.618  20.003  25.304  1.00  0.00     0.018 C 
BRANCH  16  17
ATOM     17  C   UNL A   1      33.524  18.614  24.639  1.00  0.00    -0.002 C 
ATOM     18  C   UNL A   1      32.574  18.471  23.464  1.00  0.00     0.004 C 
ENDBRANCH  16  17
ENDBRANCH  15  16
BRANCH  15  19
ATOM     19  C   UNL A   1      34.804  22.113  24.709  1.00  0.00    -0.036 A 
ATOM     20  C   UNL A   1      35.123  22.611  25.985  1.00  0.00     0.004 A 
ATOM     21  C   UNL A   1      35.657  22.418  23.638  1.00  0.00     0.004 A 
ATOM     22  C   UNL A   1      36.280  23.365  26.187  1.00  0.00     0.000 A 
ATOM     23  C   UNL A   1      36.807  23.184  23.841  1.00  0.00     0.000 A 
ATOM     24  C   UNL A   1      37.122  23.652  25.116  1.00  0.00     0.000 A 
ENDBRANCH  15  19
ENDBRANCH  13  15
ENDBRANCH   8  13
ENDBRANCH   4   7
ENDBRANCH   2   3
ENDBRANCH   1   2
BRANCH   1  25
ATOM     25  C   UNL A   1      32.143  28.028  27.141  1.00  0.00     0.023 C 
BRANCH  25  26
ATOM     26  C   UNL A   1      33.549  28.582  27.342  1.00  0.00     0.116 C 
BRANCH  26  27
ATOM     27  N   UNL A   1      33.556  29.984  27.737  1.00  0.00    -0.352 N 
ATOM     28  C   UNL A   1      34.574  30.722  28.303  1.00  0.00     0.251 C 
ATOM     29  H   UNL A   1      32.717  30.473  27.576  1.00  0.00     0.163 HD
ATOM     30  O   UNL A   1      34.369  31.858  28.698  1.00  0.00    -0.269 OA
BRANCH  28  31
ATOM     31  C   UNL A   1      35.908  30.101  28.457  1.00  0.00     0.039 A 
ATOM     32  C   UNL A   1      36.797  30.121  27.381  1.00  0.00     0.014 A 
ATOM     33  C   UNL A   1      36.292  29.557  29.685  1.00  0.00     0.014 A 
ATOM     34  C   UNL A   1      38.110  29.678  27.564  1.00  0.00     0.010 A 
ATOM     35  C   UNL A   1      37.616  29.185  29.884  1.00  0.00     0.010 A 
ATOM     36  C   UNL A   1      38.543  29.254  28.830  1.00  0.00    -0.014 A 
BRANCH  36  37
ATOM     37  C   UNL A   1      39.952  28.865  29.099  1.00  0.00     0.031 A 
ATOM     38  C   UNL A   1      40.915  29.901  29.607  1.00  0.00     0.074 A 
ATOM     39  C   UNL A   1      40.387  27.628  28.785  1.00  0.00     0.049 A 
ATOM     40  N   UNL A   1      42.219  29.852  29.684  1.00  0.00    -0.248 NA
ATOM     41  C   UNL A   1      40.333  31.176  30.058  1.00  0.00     0.031 C 
ATOM     42  C   UNL A   1      39.557  26.538  28.265  1.00  0.00     0.029 A 
ATOM     43  N   UNL A   1      41.650  27.086  28.830  1.00  0.00    -0.354 N 
ATOM     44  C   UNL A   1      42.614  31.093  30.167  1.00  0.00     0.074 A 
ATOM     45  C   UNL A   1      41.417  31.890  30.326  1.00  0.00     0.031 C 
ATOM     46  C   UNL A   1      40.330  25.463  28.038  1.00  0.00     0.029 A 
ATOM     47  C   UNL A   1      41.716  25.799  28.349  1.00  0.00     0.049 A 
ATOM     48  H   UNL A   1      42.432  27.573  29.175  1.00  0.00     0.167 HD
ATOM     49  C   UNL A   1      43.862  31.524  30.470  1.00  0.00     0.037 A 
ATOM     50  C   UNL A   1      42.779  24.992  28.151  1.00  0.00     0.037 A 
ATOM     51  C   UNL A   1      45.045  30.716  30.343  1.00  0.00     0.049 A 
ATOM     52  C   UNL A   1      44.158  25.496  28.493  1.00  0.00     0.074 A 
ATOM     53  C   UNL A   1      46.355  31.057  30.628  1.00  0.00     0.029 A 
ATOM     54  N   UNL A   1      45.057  29.397  29.916  1.00  0.00    -0.354 N 
ATOM     55  N   UNL A   1      44.513  26.674  28.950  1.00  0.00    -0.248 NA
ATOM     56  C   UNL A   1      45.280  24.567  28.294  1.00  0.00     0.031 C 
ATOM     57  C   UNL A   1      47.163  29.950  30.357  1.00  0.00     0.029 A 
ATOM     58  C   UNL A   1      46.351  28.908  29.939  1.00  0.00     0.049 A 
ATOM     59  H   UNL A   1      44.264  28.885  29.636  1.00  0.00     0.167 HD
ATOM     60  C   UNL A   1      45.891  26.608  29.134  1.00  0.00     0.074 A 
ATOM     61  C   UNL A   1      46.306  25.281  28.735  1.00  0.00     0.031 C 
ATOM     62  C   UNL A   1      46.734  27.564  29.589  1.00  0.00     0.037 A 
BRANCH  49  63
ATOM     63  C   UNL A   1      44.011  32.925  30.990  1.00  0.00     0.058 A 
ATOM     64  C   UNL A   1      43.992  33.196  32.367  1.00  0.00     0.135 A 
ATOM     65  C   UNL A   1      44.228  33.999  30.112  1.00  0.00     0.135 A 
ATOM     66  F   UNL A   1      43.767  32.207  33.248  1.00  0.00    -0.206 F 
ATOM     67  C   UNL A   1      44.165  34.485  32.856  1.00  0.00     0.059 A 
ATOM     68  C   UNL A   1      44.430  35.294  30.581  1.00  0.00     0.059 A 
ATOM     69  F   UNL A   1      44.251  33.794  28.785  1.00  0.00    -0.206 F 
ATOM     70  C   UNL A   1      44.386  35.528  31.955  1.00  0.00     0.060 A 
BRANCH  70  71
ATOM     71  S   UNL A   1      44.635  37.192  32.609  1.00  0.00     0.124 S 
ATOM     72  O   UNL A   1      43.904  37.998  31.636  1.00  0.00    -0.237 OA
ATOM     73  O   UNL A   1      44.032  37.099  33.935  1.00  0.00    -0.237 OA
ATOM     74  O   UNL A   1      46.086  37.349  32.591  1.00  0.00    -0.744 OA
ENDBRANCH  70  71
ENDBRANCH  49  63
BRANCH  50  75
ATOM     75  C   UNL A   1      42.597  23.622  27.597  1.00  0.00     0.058 A 
ATOM     76  C   UNL A   1      42.376  22.526  28.444  1.00  0.00     0.135 A 
ATOM     77  C   UNL A   1      42.676  23.377  26.218  1.00  0.00     0.135 A 
ATOM     78  F   UNL A   1      42.297  22.710  29.771  1.00  0.00    -0.206 F 
ATOM     79  C   UNL A   1      42.279  21.230  27.949  1.00  0.00     0.059 A 
ATOM     80  C   UNL A   1      42.556  22.092  25.696  1.00  0.00     0.059 A 
ATOM     81  F   UNL A   1      42.865  24.393  25.362  1.00  0.00    -0.206 F 
ATOM     82  C   UNL A   1      42.379  21.022  26.573  1.00  0.00     0.060 A 
BRANCH  82  83
ATOM     83  S   UNL A   1      42.254  19.336  25.937  1.00  0.00     0.124 S 
ATOM     84  O   UNL A   1      42.829  18.567  27.034  1.00  0.00    -0.237 OA
ATOM     85  O   UNL A   1      40.816  19.187  25.736  1.00  0.00    -0.237 OA
ATOM     86  O   UNL A   1      43.048  19.384  24.713  1.00  0.00    -0.744 OA
ENDBRANCH  82  83
ENDBRANCH  50  75
BRANCH  62  87
ATOM     87  C   UNL A   1      48.180  27.199  29.768  1.00  0.00     0.058 A 
ATOM     88  C   UNL A   1      49.104  27.303  28.718  1.00  0.00     0.135 A 
ATOM     89  C   UNL A   1      48.660  26.839  31.038  1.00  0.00     0.135 A 
ATOM     90  F   UNL A   1      48.691  27.637  27.486  1.00  0.00    -0.206 F 
ATOM     91  C   UNL A   1      50.459  27.066  28.923  1.00  0.00     0.059 A 
ATOM     92  C   UNL A   1      50.013  26.617  31.268  1.00  0.00     0.059 A 
ATOM     93  F   UNL A   1      47.814  26.733  32.075  1.00  0.00    -0.206 F 
ATOM     94  C   UNL A   1      50.906  26.732  30.203  1.00  0.00     0.060 A 
BRANCH  94  95
ATOM     95  S   UNL A   1      52.677  26.508  30.473  1.00  0.00     0.124 S 
ATOM     96  O   UNL A   1      53.161  26.328  29.109  1.00  0.00    -0.237 OA
ATOM     97  O   UNL A   1      53.055  27.759  31.121  1.00  0.00    -0.237 OA
ATOM     98  O   UNL A   1      52.744  25.324  31.324  1.00  0.00    -0.744 OA
ENDBRANCH  94  95
ENDBRANCH  62  87
ENDBRANCH  36  37
ENDBRANCH  28  31
ENDBRANCH  26  27
ENDBRANCH  25  26
ENDBRANCH   1  25
TORSDOF 19
ENDMDL
MODEL 2
REMARK VINA RESULT:     -11.2      0.748      2.147
REMARK SMILES CCC[C@@H](C(=O)N1CC[C@@](C)(C(=O)NCCCCNC(=O)c2ccc(-c3c4nc(c(-c5c(F)cc(S(=O)(=O)[O-])cc5F)c5ccc([nH]5)c(-c5c(F)cc(S(=O)(=O)[O-])cc5F)c5nc(c(-c6c(F)cc(S(=O)(=O)[O-])cc6F)c6ccc3[nH]6)C=C5)C=C4)cc2)C1)c1ccccc1
REMARK SMILES IDX 16 1 15 2 14 3 12 4 13 5 10 7 7 8 8 9 88 10 9 11 11 12 5 13
REMARK SMILES IDX 6 14 4 15 3 16 2 17 1 18 89 19 90 20 94 21 91 22 93 23 92 24
REMARK SMILES IDX 17 25 18 26 19 27 20 28 21 30 22 31 23 32 87 33 24 34 86 35
REMARK SMILES IDX 25 36 26 37 27 38 80 39 28 40 85 41 79 42 81 43 29 44 84 45
REMARK SMILES IDX 78 46 77 47 30 49 64 50 43 51 63 52 44 53 47 54 62 55 82 56
REMARK SMILES IDX 45 57 46 58 61 60 83 61 48 62 31 63 32 64 41 65 33 66 34 67
REMARK SMILES IDX 40 68 42 69 35 70 36 71 37 72 38 73 39 74 65 75 66 76 75 77
REMARK SMILES IDX 67 78 68 79 74 80 76 81 69 82 70 83 71 84 72 85 73 86 49 87
REMARK SMILES IDX 50 88 59 89 51 90 52 91 58 92 60 93 53 94 54 95 55 96 56 97
REMARK SMILES IDX 57 98
REMARK H PARENT 14 6 19 29 81 48 47 59
REMARK Flexibility Score: inf
ROOT
ATOM      1  C   UNL A   1      31.551  29.077  26.058  1.00  0.00     0.023 C 
ENDROOT
BRANCH   1   2
ATOM      2  C   UNL A   1      32.219  29.419  24.734  1.00  0.00     0.116 C 
BRANCH   2   3
ATOM      3  N   UNL A   1      31.346  29.253  23.584  1.00  0.00    -0.356 N 
ATOM      4  C   UNL A   1      31.300  28.259  22.649  1.00  0.00     0.227 C 
ATOM      5  O   UNL A   1      30.353  28.278  21.862  1.00  0.00    -0.274 OA
ATOM      6  H   UNL A   1      30.683  29.970  23.460  1.00  0.00     0.163 HD
BRANCH   4   7
ATOM      7  C   UNL A   1      32.398  27.187  22.584  1.00  0.00     0.066 C 
ATOM      8  N   UNL A   1      32.291  25.125  23.831  1.00  0.00    -0.341 N 
ATOM      9  C   UNL A   1      31.472  24.935  22.653  1.00  0.00     0.120 C 
ATOM     10  C   UNL A   1      32.616  26.521  23.966  1.00  0.00     0.136 C 
ATOM     11  C   UNL A   1      31.943  26.010  21.688  1.00  0.00     0.040 C 
ATOM     12  C   UNL A   1      33.745  27.800  22.145  1.00  0.00     0.024 C 
BRANCH   8  13
ATOM     13  C   UNL A   1      32.642  24.068  24.632  1.00  0.00     0.230 C 
ATOM     14  O   UNL A   1      31.976  23.879  25.662  1.00  0.00    -0.274 OA
BRANCH  13  15
ATOM     15  C   UNL A   1      33.925  23.193  24.381  1.00  0.00     0.108 C 
BRANCH  15  16
ATOM     16  C   UNL A   1      34.963  23.497  23.269  1.00  0.00     0.018 C 
BRANCH  16  17
ATOM     17  C   UNL A   1      36.346  22.813  23.266  1.00  0.00    -0.002 C 
ATOM     18  C   UNL A   1      37.112  22.795  24.577  1.00  0.00     0.004 C 
ENDBRANCH  16  17
ENDBRANCH  15  16
BRANCH  15  19
ATOM     19  C   UNL A   1      33.463  21.727  24.181  1.00  0.00    -0.036 A 
ATOM     20  C   UNL A   1      33.958  20.685  24.985  1.00  0.00     0.004 A 
ATOM     21  C   UNL A   1      32.578  21.407  23.140  1.00  0.00     0.004 A 
ATOM     22  C   UNL A   1      33.554  19.367  24.773  1.00  0.00     0.000 A 
ATOM     23  C   UNL A   1      32.185  20.085  22.922  1.00  0.00     0.000 A 
ATOM     24  C   UNL A   1      32.667  19.066  23.743  1.00  0.00     0.000 A 
ENDBRANCH  15  19
ENDBRANCH  13  15
ENDBRANCH   8  13
ENDBRANCH   4   7
ENDBRANCH   2   3
ENDBRANCH   1   2
BRANCH   1  25
ATOM     25  C   UNL A   1      32.370  28.185  26.990  1.00  0.00     0.023 C 
BRANCH  25  26
ATOM     26  C   UNL A   1      33.755  28.712  27.350  1.00  0.00     0.116 C 
BRANCH  26  27
ATOM     27  N   UNL A   1      33.730  30.073  27.865  1.00  0.00    -0.352 N 
ATOM     28  C   UNL A   1      34.727  30.779  28.505  1.00  0.00     0.251 C 
ATOM     29  H   UNL A   1      32.883  30.559  27.737  1.00  0.00     0.163 HD
ATOM     30  O   UNL A   1      34.495  31.872  28.994  1.00  0.00    -0.269 OA
BRANCH  28  31
ATOM     31  C   UNL A   1      36.071  30.173  28.622  1.00  0.00     0.039 A 
ATOM     32  C   UNL A   1      36.936  30.219  27.528  1.00  0.00     0.014 A 
ATOM     33  C   UNL A   1      36.488  29.615  29.833  1.00  0.00     0.014 A 
ATOM     34  C   UNL A   1      38.259  29.790  27.676  1.00  0.00     0.010 A 
ATOM     35  C   UNL A   1      37.820  29.257  29.998  1.00  0.00     0.010 A 
ATOM     36  C   UNL A   1      38.724  29.353  28.926  1.00  0.00    -0.014 A 
BRANCH  36  37
ATOM     37  C   UNL A   1      40.142  28.977  29.159  1.00  0.00     0.031 A 
ATOM     38  C   UNL A   1      41.116  30.030  29.612  1.00  0.00     0.074 A 
ATOM     39  C   UNL A   1      40.575  27.736  28.861  1.00  0.00     0.049 A 
ATOM     40  N   UNL A   1      42.421  29.990  29.648  1.00  0.00    -0.248 NA
ATOM     41  C   UNL A   1      40.540  31.314  30.050  1.00  0.00     0.031 C 
ATOM     42  C   UNL A   1      39.735  26.629  28.393  1.00  0.00     0.029 A 
ATOM     43  N   UNL A   1      41.841  27.201  28.879  1.00  0.00    -0.354 N 
ATOM     44  C   UNL A   1      42.825  31.245  30.089  1.00  0.00     0.074 A 
ATOM     45  C   UNL A   1      41.628  32.039  30.266  1.00  0.00     0.031 C 
ATOM     46  C   UNL A   1      40.507  25.553  28.168  1.00  0.00     0.029 A 
ATOM     47  C   UNL A   1      41.900  25.903  28.426  1.00  0.00     0.049 A 
ATOM     48  H   UNL A   1      42.632  27.701  29.187  1.00  0.00     0.167 HD
ATOM     49  C   UNL A   1      44.078  31.689  30.341  1.00  0.00     0.037 A 
ATOM     50  C   UNL A   1      42.961  25.098  28.215  1.00  0.00     0.037 A 
ATOM     51  C   UNL A   1      45.262  30.884  30.196  1.00  0.00     0.049 A 
ATOM     52  C   UNL A   1      44.347  25.617  28.500  1.00  0.00     0.074 A 
ATOM     53  C   UNL A   1      46.578  31.239  30.430  1.00  0.00     0.029 A 
ATOM     54  N   UNL A   1      45.268  29.556  29.800  1.00  0.00    -0.354 N 
ATOM     55  N   UNL A   1      44.710  26.807  28.917  1.00  0.00    -0.248 NA
ATOM     56  C   UNL A   1      45.467  24.689  28.288  1.00  0.00     0.031 C 
ATOM     57  C   UNL A   1      47.384  30.129  30.160  1.00  0.00     0.029 A 
ATOM     58  C   UNL A   1      46.565  29.073  29.794  1.00  0.00     0.049 A 
ATOM     59  H   UNL A   1      44.469  29.033  29.558  1.00  0.00     0.167 HD
ATOM     60  C   UNL A   1      46.092  26.753  29.058  1.00  0.00     0.074 A 
ATOM     61  C   UNL A   1      46.503  25.418  28.679  1.00  0.00     0.031 C 
ATOM     62  C   UNL A   1      46.945  27.724  29.464  1.00  0.00     0.037 A 
BRANCH  49  63
ATOM     63  C   UNL A   1      44.236  33.103  30.823  1.00  0.00     0.058 A 
ATOM     64  C   UNL A   1      44.401  34.165  29.921  1.00  0.00     0.135 A 
ATOM     65  C   UNL A   1      44.167  33.407  32.192  1.00  0.00     0.135 A 
ATOM     66  F   UNL A   1      44.493  33.925  28.603  1.00  0.00    -0.206 F 
ATOM     67  C   UNL A   1      44.511  35.479  30.359  1.00  0.00     0.059 A 
ATOM     68  C   UNL A   1      44.249  34.719  32.652  1.00  0.00     0.059 A 
ATOM     69  F   UNL A   1      44.014  32.427  33.097  1.00  0.00    -0.206 F 
ATOM     70  C   UNL A   1      44.431  35.747  31.727  1.00  0.00     0.060 A 
BRANCH  70  71
ATOM     71  S   UNL A   1      44.550  37.462  32.276  1.00  0.00     0.124 S 
ATOM     72  O   UNL A   1      44.440  38.179  31.009  1.00  0.00    -0.237 OA
ATOM     73  O   UNL A   1      43.407  37.583  33.174  1.00  0.00    -0.237 OA
ATOM     74  O   UNL A   1      45.860  37.522  32.919  1.00  0.00    -0.744 OA
ENDBRANCH  70  71
ENDBRANCH  49  63
BRANCH  50  75
ATOM     75  C   UNL A   1      42.769  23.714  27.699  1.00  0.00     0.058 A 
ATOM     76  C   UNL A   1      42.685  23.464  26.322  1.00  0.00     0.135 A 
ATOM     77  C   UNL A   1      42.629  22.624  28.571  1.00  0.00     0.135 A 
ATOM     78  F   UNL A   1      42.808  24.476  25.448  1.00  0.00    -0.206 F 
ATOM     79  C   UNL A   1      42.431  22.190  25.826  1.00  0.00     0.059 A 
ATOM     80  C   UNL A   1      42.400  21.335  28.098  1.00  0.00     0.059 A 
ATOM     81  F   UNL A   1      42.722  22.805  29.898  1.00  0.00    -0.206 F 
ATOM     82  C   UNL A   1      42.281  21.132  26.723  1.00  0.00     0.060 A 
BRANCH  82  83
ATOM     83  S   UNL A   1      41.950  19.480  26.074  1.00  0.00     0.124 S 
ATOM     84  O   UNL A   1      42.760  19.475  24.862  1.00  0.00    -0.237 OA
ATOM     85  O   UNL A   1      42.416  18.621  27.158  1.00  0.00    -0.237 OA
ATOM     86  O   UNL A   1      40.504  19.487  25.869  1.00  0.00    -0.744 OA
ENDBRANCH  82  83
ENDBRANCH  50  75
BRANCH  62  87
ATOM     87  C   UNL A   1      48.398  27.370  29.605  1.00  0.00     0.058 A 
ATOM     88  C   UNL A   1      49.303  27.532  28.548  1.00  0.00     0.135 A 
ATOM     89  C   UNL A   1      48.901  26.962  30.851  1.00  0.00     0.135 A 
ATOM     90  F   UNL A   1      48.868  27.914  27.337  1.00  0.00    -0.206 F 
ATOM     91  C   UNL A   1      50.665  27.304  28.722  1.00  0.00     0.059 A 
ATOM     92  C   UNL A   1      50.260  26.748  31.052  1.00  0.00     0.059 A 
ATOM     93  F   UNL A   1      48.073  26.799  31.895  1.00  0.00    -0.206 F 
ATOM     94  C   UNL A   1      51.135  26.921  29.979  1.00  0.00     0.060 A 
BRANCH  94  95
ATOM     95  S   UNL A   1      52.913  26.709  30.213  1.00  0.00     0.124 S 
ATOM     96  O   UNL A   1      52.953  25.630  31.195  1.00  0.00    -0.237 OA
ATOM     97  O   UNL A   1      53.366  26.361  28.870  1.00  0.00    -0.237 OA
ATOM     98  O   UNL A   1      53.350  28.014  30.696  1.00  0.00    -0.744 OA
ENDBRANCH  94  95
ENDBRANCH  62  87
ENDBRANCH  36  37
ENDBRANCH  28  31
ENDBRANCH  26  27
ENDBRANCH  25  26
ENDBRANCH   1  25
TORSDOF 19
ENDMDL
MODEL 3
REMARK VINA RESULT:     -10.7      2.385      8.611
REMARK SMILES CCC[C@@H](C(=O)N1CC[C@@](C)(C(=O)NCCCCNC(=O)c2ccc(-c3c4nc(c(-c5c(F)cc(S(=O)(=O)[O-])cc5F)c5ccc([nH]5)c(-c5c(F)cc(S(=O)(=O)[O-])cc5F)c5nc(c(-c6c(F)cc(S(=O)(=O)[O-])cc6F)c6ccc3[nH]6)C=C5)C=C4)cc2)C1)c1ccccc1
REMARK SMILES IDX 16 1 15 2 14 3 12 4 13 5 10 7 7 8 8 9 88 10 9 11 11 12 5 13
REMARK SMILES IDX 6 14 4 15 3 16 2 17 1 18 89 19 90 20 94 21 91 22 93 23 92 24
REMARK SMILES IDX 17 25 18 26 19 27 20 28 21 30 22 31 23 32 87 33 24 34 86 35
REMARK SMILES IDX 25 36 26 37 27 38 80 39 28 40 85 41 79 42 81 43 29 44 84 45
REMARK SMILES IDX 78 46 77 47 30 49 64 50 43 51 63 52 44 53 47 54 62 55 82 56
REMARK SMILES IDX 45 57 46 58 61 60 83 61 48 62 31 63 32 64 41 65 33 66 34 67
REMARK SMILES IDX 40 68 42 69 35 70 36 71 37 72 38 73 39 74 65 75 66 76 75 77
REMARK SMILES IDX 67 78 68 79 74 80 76 81 69 82 70 83 71 84 72 85 73 86 49 87
REMARK SMILES IDX 50 88 59 89 51 90 52 91 58 92 60 93 53 94 54 95 55 96 56 97
REMARK SMILES IDX 57 98
REMARK H PARENT 14 6 19 29 81 48 47 59
REMARK Flexibility Score: inf
ROOT
ATOM      1  C   UNL A   1      32.810  28.812  27.157  1.00  0.00     0.023 C 
ENDROOT
BRANCH   1   2
ATOM      2  C   UNL A   1      32.965  27.381  26.659  1.00  0.00     0.116 C 
BRANCH   2   3
ATOM      3  N   UNL A   1      31.863  26.938  25.821  1.00  0.00    -0.356 N 
ATOM      4  C   UNL A   1      31.876  26.343  24.592  1.00  0.00     0.227 C 
ATOM      5  O   UNL A   1      30.800  25.922  24.166  1.00  0.00    -0.274 OA
ATOM      6  H   UNL A   1      30.967  27.090  26.199  1.00  0.00     0.163 HD
BRANCH   4   7
ATOM      7  C   UNL A   1      33.177  26.231  23.784  1.00  0.00     0.066 C 
ATOM      8  N   UNL A   1      34.397  24.165  23.544  1.00  0.00    -0.341 N 
ATOM      9  C   UNL A   1      33.320  24.118  22.580  1.00  0.00     0.120 C 
ATOM     10  C   UNL A   1      34.175  25.256  24.457  1.00  0.00     0.136 C 
ATOM     11  C   UNL A   1      32.900  25.569  22.413  1.00  0.00     0.040 C 
ATOM     12  C   UNL A   1      33.876  27.603  23.666  1.00  0.00     0.024 C 
BRANCH   8  13
ATOM     13  C   UNL A   1      35.425  23.255  23.509  1.00  0.00     0.230 C 
ATOM     14  O   UNL A   1      36.143  23.238  22.498  1.00  0.00    -0.274 OA
BRANCH  13  15
ATOM     15  C   UNL A   1      35.631  22.153  24.611  1.00  0.00     0.108 C 
BRANCH  15  16
ATOM     16  C   UNL A   1      34.562  21.803  25.681  1.00  0.00     0.018 C 
BRANCH  16  17
ATOM     17  C   UNL A   1      34.460  22.607  26.994  1.00  0.00    -0.002 C 
ATOM     18  C   UNL A   1      33.360  22.214  27.962  1.00  0.00     0.004 C 
ENDBRANCH  16  17
ENDBRANCH  15  16
BRANCH  15  19
ATOM     19  C   UNL A   1      36.939  22.485  25.371  1.00  0.00    -0.036 A 
ATOM     20  C   UNL A   1      37.177  23.769  25.895  1.00  0.00     0.004 A 
ATOM     21  C   UNL A   1      37.943  21.514  25.496  1.00  0.00     0.004 A 
ATOM     22  C   UNL A   1      38.373  24.060  26.553  1.00  0.00     0.000 A 
ATOM     23  C   UNL A   1      39.145  21.812  26.143  1.00  0.00     0.000 A 
ATOM     24  C   UNL A   1      39.357  23.082  26.677  1.00  0.00     0.000 A 
ENDBRANCH  15  19
ENDBRANCH  13  15
ENDBRANCH   8  13
ENDBRANCH   4   7
ENDBRANCH   2   3
ENDBRANCH   1   2
BRANCH   1  25
ATOM     25  C   UNL A   1      34.006  29.726  26.892  1.00  0.00     0.023 C 
BRANCH  25  26
ATOM     26  C   UNL A   1      35.277  29.380  27.661  1.00  0.00     0.116 C 
BRANCH  26  27
ATOM     27  N   UNL A   1      35.392  30.098  28.922  1.00  0.00    -0.352 N 
ATOM     28  C   UNL A   1      36.492  30.251  29.739  1.00  0.00     0.251 C 
ATOM     29  H   UNL A   1      34.567  30.536  29.236  1.00  0.00     0.163 HD
ATOM     30  O   UNL A   1      36.382  30.775  30.835  1.00  0.00    -0.269 OA
BRANCH  28  31
ATOM     31  C   UNL A   1      37.801  29.737  29.279  1.00  0.00     0.039 A 
ATOM     32  C   UNL A   1      38.129  29.824  27.924  1.00  0.00     0.014 A 
ATOM     33  C   UNL A   1      38.720  29.229  30.200  1.00  0.00     0.014 A 
ATOM     34  C   UNL A   1      39.419  29.486  27.505  1.00  0.00     0.010 A 
ATOM     35  C   UNL A   1      40.021  28.963  29.792  1.00  0.00     0.010 A 
ATOM     36  C   UNL A   1      40.389  29.101  28.443  1.00  0.00    -0.014 A 
BRANCH  36  37
ATOM     37  C   UNL A   1      41.798  28.824  28.061  1.00  0.00     0.031 A 
ATOM     38  C   UNL A   1      42.206  27.416  27.729  1.00  0.00     0.074 A 
ATOM     39  C   UNL A   1      42.724  29.803  28.120  1.00  0.00     0.049 A 
ATOM     40  N   UNL A   1      43.404  26.908  27.604  1.00  0.00    -0.248 NA
ATOM     41  C   UNL A   1      41.117  26.441  27.547  1.00  0.00     0.031 C 
ATOM     42  C   UNL A   1      42.460  31.207  28.450  1.00  0.00     0.029 A 
ATOM     43  N   UNL A   1      44.085  29.760  27.934  1.00  0.00    -0.354 N 
ATOM     44  C   UNL A   1      43.215  25.555  27.353  1.00  0.00     0.074 A 
ATOM     45  C   UNL A   1      41.789  25.310  27.386  1.00  0.00     0.031 C 
ATOM     46  C   UNL A   1      43.619  31.887  28.444  1.00  0.00     0.029 A 
ATOM     47  C   UNL A   1      44.712  30.963  28.160  1.00  0.00     0.049 A 
ATOM     48  H   UNL A   1      44.565  28.944  27.664  1.00  0.00     0.167 HD
ATOM     49  C   UNL A   1      44.145  24.604  27.099  1.00  0.00     0.037 A 
ATOM     50  C   UNL A   1      46.023  31.278  28.167  1.00  0.00     0.037 A 
ATOM     51  C   UNL A   1      45.559  24.860  27.033  1.00  0.00     0.049 A 
ATOM     52  C   UNL A   1      47.040  30.202  27.885  1.00  0.00     0.074 A 
ATOM     53  C   UNL A   1      46.584  23.967  26.778  1.00  0.00     0.029 A 
ATOM     54  N   UNL A   1      46.144  26.105  27.202  1.00  0.00    -0.354 N 
ATOM     55  N   UNL A   1      46.843  28.927  27.649  1.00  0.00    -0.248 NA
ATOM     56  C   UNL A   1      48.454  30.603  27.868  1.00  0.00     0.031 C 
ATOM     57  C   UNL A   1      47.792  24.669  26.809  1.00  0.00     0.029 A 
ATOM     58  C   UNL A   1      47.515  26.006  27.046  1.00  0.00     0.049 A 
ATOM     59  H   UNL A   1      45.657  26.937  27.404  1.00  0.00     0.167 HD
ATOM     60  C   UNL A   1      48.103  28.386  27.414  1.00  0.00     0.074 A 
ATOM     61  C   UNL A   1      49.055  29.468  27.540  1.00  0.00     0.031 C 
ATOM     62  C   UNL A   1      48.440  27.107  27.122  1.00  0.00     0.037 A 
BRANCH  49  63
ATOM     63  C   UNL A   1      43.664  23.204  26.850  1.00  0.00     0.058 A 
ATOM     64  C   UNL A   1      43.742  22.623  25.575  1.00  0.00     0.135 A 
ATOM     65  C   UNL A   1      43.171  22.415  27.902  1.00  0.00     0.135 A 
ATOM     66  F   UNL A   1      44.188  23.342  24.531  1.00  0.00    -0.206 F 
ATOM     67  C   UNL A   1      43.332  21.315  25.346  1.00  0.00     0.059 A 
ATOM     68  C   UNL A   1      42.779  21.095  27.701  1.00  0.00     0.059 A 
ATOM     69  F   UNL A   1      43.072  22.924  29.140  1.00  0.00    -0.206 F 
ATOM     70  C   UNL A   1      42.854  20.557  26.416  1.00  0.00     0.060 A 
BRANCH  70  71
ATOM     71  S   UNL A   1      42.350  18.852  26.105  1.00  0.00     0.124 S 
ATOM     72  O   UNL A   1      43.301  18.454  25.071  1.00  0.00    -0.237 OA
ATOM     73  O   UNL A   1      42.536  18.228  27.410  1.00  0.00    -0.237 OA
ATOM     74  O   UNL A   1      40.964  18.984  25.665  1.00  0.00    -0.744 OA
ENDBRANCH  70  71
ENDBRANCH  49  63
BRANCH  50  75
ATOM     75  C   UNL A   1      46.465  32.671  28.457  1.00  0.00     0.058 A 
ATOM     76  C   UNL A   1      46.691  33.096  29.774  1.00  0.00     0.135 A 
ATOM     77  C   UNL A   1      46.634  33.611  27.429  1.00  0.00     0.135 A 
ATOM     78  F   UNL A   1      46.538  32.233  30.792  1.00  0.00    -0.206 F 
ATOM     79  C   UNL A   1      47.030  34.412  30.069  1.00  0.00     0.059 A 
ATOM     80  C   UNL A   1      46.998  34.928  27.696  1.00  0.00     0.059 A 
ATOM     81  F   UNL A   1      46.451  33.251  26.149  1.00  0.00    -0.206 F 
ATOM     82  C   UNL A   1      47.174  35.323  29.022  1.00  0.00     0.060 A 
BRANCH  82  83
ATOM     83  S   UNL A   1      47.613  37.031  29.410  1.00  0.00     0.124 S 
ATOM     84  O   UNL A   1      47.892  36.944  30.839  1.00  0.00    -0.237 OA
ATOM     85  O   UNL A   1      48.767  37.258  28.546  1.00  0.00    -0.237 OA
ATOM     86  O   UNL A   1      46.412  37.775  29.044  1.00  0.00    -0.744 OA
ENDBRANCH  82  83
ENDBRANCH  50  75
BRANCH  62  87
ATOM     87  C   UNL A   1      49.883  26.809  26.833  1.00  0.00     0.058 A 
ATOM     88  C   UNL A   1      50.753  26.337  27.825  1.00  0.00     0.135 A 
ATOM     89  C   UNL A   1      50.367  26.900  25.517  1.00  0.00     0.135 A 
ATOM     90  F   UNL A   1      50.338  26.240  29.097  1.00  0.00    -0.206 F 
ATOM     91  C   UNL A   1      52.058  25.962  27.522  1.00  0.00     0.059 A 
ATOM     92  C   UNL A   1      51.660  26.511  25.189  1.00  0.00     0.059 A 
ATOM     93  F   UNL A   1      49.568  27.340  24.532  1.00  0.00    -0.206 F 
ATOM     94  C   UNL A   1      52.500  26.044  26.200  1.00  0.00     0.060 A 
BRANCH  94  95
ATOM     95  S   UNL A   1      54.168  25.475  25.806  1.00  0.00     0.124 S 
ATOM     96  O   UNL A   1      54.670  25.104  27.124  1.00  0.00    -0.237 OA
ATOM     97  O   UNL A   1      53.913  24.368  24.890  1.00  0.00    -0.237 OA
ATOM     98  O   UNL A   1      54.793  26.648  25.203  1.00  0.00    -0.744 OA
ENDBRANCH  94  95
ENDBRANCH  62  87
ENDBRANCH  36  37
ENDBRANCH  28  31
ENDBRANCH  26  27
ENDBRANCH  25  26
ENDBRANCH   1  25
TORSDOF 19
ENDMDL
