MODEL 1
REMARK VINA RESULT:     -13.9      0.000      0.000
REMARK SMILES O=C(NCCCCNC(=O)c1ccccc1C(=O)Nc1ccc(N2C(=O)[C@H]3[C@@H]4CC[C@@H](C4)[C@@H]3C2=O)cc1)c1ccc(-c2c3nc(c(-c4c(F)cc(S(=O)(=O)[O-])cc4F)c4ccc([nH]4)c(-c4c(F)cc(S(=O)(=O)[O-])cc4F)c4nc(c(-c5c(F)cc(S(=O)(=O)[O-])cc5F)c5ccc2[nH]5)C=C4)C=C3)cc1
REMARK SMILES IDX 5 1 4 2 3 3 1 4 2 5 38 7 39 8 103 9 40 10 102 11 41 12 42 13
REMARK SMILES IDX 43 14 96 15 44 16 101 17 95 18 97 19 45 20 100 21 94 22
REMARK SMILES IDX 93 23 46 25 80 26 59 27 79 28 60 29 63 30 78 31 98 32 61 33
REMARK SMILES IDX 62 34 77 36 99 37 64 38 47 39 48 40 57 41 49 42 50 43 56 44
REMARK SMILES IDX 58 45 51 46 52 47 53 48 54 49 55 50 81 51 82 52 91 53 83 54
REMARK SMILES IDX 84 55 90 56 92 57 85 58 86 59 87 60 88 61 89 62 65 63 66 64
REMARK SMILES IDX 75 65 67 66 68 67 74 68 76 69 69 70 70 71 71 72 72 73 73 74
REMARK SMILES IDX 6 75 7 76 8 77 9 78 10 80 11 81 12 82 16 83 13 84 15 85
REMARK SMILES IDX 14 86 17 87 18 88 19 89 20 91 21 92 37 93 22 94 36 95 23 96
REMARK SMILES IDX 24 97 25 98 34 99 26 100 27 101 33 102 35 103 28 104 31 105
REMARK SMILES IDX 29 106 32 107 30 108
REMARK H PARENT 3 6 97 24 63 35 8 79 19 90
REMARK Flexibility Score: inf
ROOT
ATOM      1  C   UNL A   1      34.249  31.756  27.740  1.00  0.00     0.023 C 
ENDROOT
BRANCH   1   2
ATOM      2  C   UNL A   1      35.596  31.766  28.457  1.00  0.00     0.116 C 
BRANCH   2   3
ATOM      3  N   UNL A   1      35.499  31.365  29.849  1.00  0.00    -0.352 N 
ATOM      4  O   UNL A   1      35.989  30.262  31.742  1.00  0.00    -0.269 OA
ATOM      5  C   UNL A   1      36.356  30.625  30.626  1.00  0.00     0.251 C 
ATOM      6  H   UNL A   1      34.686  31.674  30.311  1.00  0.00     0.163 HD
BRANCH   5   7
ATOM      7  C   UNL A   1      37.700  30.236  30.136  1.00  0.00     0.039 A 
ATOM      8  C   UNL A   1      37.944  29.978  28.785  1.00  0.00     0.014 A 
ATOM      9  C   UNL A   1      38.757  30.191  31.049  1.00  0.00     0.014 A 
ATOM     10  C   UNL A   1      39.207  29.553  28.371  1.00  0.00     0.010 A 
ATOM     11  C   UNL A   1      40.041  29.835  30.621  1.00  0.00     0.010 A 
ATOM     12  C   UNL A   1      40.273  29.483  29.283  1.00  0.00    -0.014 A 
BRANCH  12  13
ATOM     13  C   UNL A   1      41.630  29.088  28.819  1.00  0.00     0.031 A 
ATOM     14  C   UNL A   1      42.756  30.087  28.776  1.00  0.00     0.074 A 
ATOM     15  C   UNL A   1      41.848  27.816  28.430  1.00  0.00     0.049 A 
ATOM     16  N   UNL A   1      43.996  29.915  28.396  1.00  0.00    -0.248 NA
ATOM     17  C   UNL A   1      42.446  31.459  29.206  1.00  0.00     0.031 C 
ATOM     18  C   UNL A   1      40.837  26.758  28.409  1.00  0.00     0.029 A 
ATOM     19  N   UNL A   1      42.988  27.196  27.984  1.00  0.00    -0.354 N 
ATOM     20  C   UNL A   1      44.612  31.155  28.522  1.00  0.00     0.074 A 
ATOM     21  C   UNL A   1      43.598  32.077  28.989  1.00  0.00     0.031 C 
ATOM     22  C   UNL A   1      41.409  25.613  28.006  1.00  0.00     0.029 A 
ATOM     23  C   UNL A   1      42.811  25.865  27.693  1.00  0.00     0.049 A 
ATOM     24  H   UNL A   1      43.850  27.661  27.882  1.00  0.00     0.167 HD
ATOM     25  C   UNL A   1      45.902  31.492  28.278  1.00  0.00     0.037 A 
ATOM     26  C   UNL A   1      43.675  24.948  27.218  1.00  0.00     0.037 A 
ATOM     27  C   UNL A   1      46.911  30.570  27.823  1.00  0.00     0.049 A 
ATOM     28  C   UNL A   1      45.096  25.348  26.938  1.00  0.00     0.074 A 
ATOM     29  C   UNL A   1      48.255  30.809  27.591  1.00  0.00     0.029 A 
ATOM     30  N   UNL A   1      46.687  29.234  27.521  1.00  0.00    -0.354 N 
ATOM     31  N   UNL A   1      45.668  26.517  27.102  1.00  0.00    -0.248 NA
ATOM     32  C   UNL A   1      45.986  24.307  26.408  1.00  0.00     0.031 C 
ATOM     33  C   UNL A   1      48.834  29.628  27.110  1.00  0.00     0.029 A 
ATOM     34  C   UNL A   1      47.862  28.642  27.084  1.00  0.00     0.049 A 
ATOM     35  H   UNL A   1      45.821  28.774  27.605  1.00  0.00     0.167 HD
ATOM     36  C   UNL A   1      46.992  26.348  26.711  1.00  0.00     0.074 A 
ATOM     37  C   UNL A   1      47.137  24.961  26.315  1.00  0.00     0.031 C 
ATOM     38  C   UNL A   1      47.994  27.261  26.688  1.00  0.00     0.037 A 
BRANCH  25  39
ATOM     39  C   UNL A   1      46.292  32.932  28.484  1.00  0.00     0.058 A 
ATOM     40  C   UNL A   1      46.767  33.400  29.719  1.00  0.00     0.135 A 
ATOM     41  C   UNL A   1      46.202  33.852  27.426  1.00  0.00     0.135 A 
ATOM     42  F   UNL A   1      46.863  32.567  30.767  1.00  0.00    -0.206 F 
ATOM     43  C   UNL A   1      47.101  34.738  29.911  1.00  0.00     0.059 A 
ATOM     44  C   UNL A   1      46.555  35.189  27.589  1.00  0.00     0.059 A 
ATOM     45  F   UNL A   1      45.760  33.457  26.222  1.00  0.00    -0.206 F 
ATOM     46  C   UNL A   1      46.983  35.627  28.841  1.00  0.00     0.060 A 
BRANCH  46  47
ATOM     47  S   UNL A   1      47.390  37.365  29.112  1.00  0.00     0.124 S 
ATOM     48  O   UNL A   1      46.124  37.883  29.621  1.00  0.00    -0.237 OA
ATOM     49  O   UNL A   1      48.478  37.287  30.081  1.00  0.00    -0.237 OA
ATOM     50  O   UNL A   1      47.772  37.835  27.783  1.00  0.00    -0.744 OA
ENDBRANCH  46  47
ENDBRANCH  25  39
BRANCH  26  51
ATOM     51  C   UNL A   1      43.211  23.554  26.997  1.00  0.00     0.058 A 
ATOM     52  C   UNL A   1      42.937  23.085  25.705  1.00  0.00     0.135 A 
ATOM     53  C   UNL A   1      43.087  22.651  28.065  1.00  0.00     0.135 A 
ATOM     54  F   UNL A   1      43.035  23.914  24.655  1.00  0.00    -0.206 F 
ATOM     55  C   UNL A   1      42.559  21.767  25.476  1.00  0.00     0.059 A 
ATOM     56  C   UNL A   1      42.733  21.322  27.857  1.00  0.00     0.059 A 
ATOM     57  F   UNL A   1      43.353  23.051  29.318  1.00  0.00    -0.206 F 
ATOM     58  C   UNL A   1      42.468  20.890  26.559  1.00  0.00     0.060 A 
BRANCH  58  59
ATOM     59  S   UNL A   1      42.060  19.160  26.240  1.00  0.00     0.124 S 
ATOM     60  O   UNL A   1      42.987  18.832  25.165  1.00  0.00    -0.237 OA
ATOM     61  O   UNL A   1      42.332  18.536  27.532  1.00  0.00    -0.237 OA
ATOM     62  O   UNL A   1      40.649  19.213  25.865  1.00  0.00    -0.744 OA
ENDBRANCH  58  59
ENDBRANCH  26  51
BRANCH  38  63
ATOM     63  C   UNL A   1      49.347  26.783  26.239  1.00  0.00     0.058 A 
ATOM     64  C   UNL A   1      49.771  26.917  24.907  1.00  0.00     0.135 A 
ATOM     65  C   UNL A   1      50.243  26.218  27.160  1.00  0.00     0.135 A 
ATOM     66  F   UNL A   1      48.949  27.442  23.986  1.00  0.00    -0.206 F 
ATOM     67  C   UNL A   1      51.031  26.487  24.500  1.00  0.00     0.059 A 
ATOM     68  C   UNL A   1      51.516  25.802  26.779  1.00  0.00     0.059 A 
ATOM     69  F   UNL A   1      49.889  26.075  28.447  1.00  0.00    -0.206 F 
ATOM     70  C   UNL A   1      51.896  25.930  25.444  1.00  0.00     0.060 A 
BRANCH  70  71
ATOM     71  S   UNL A   1      53.539  25.402  24.911  1.00  0.00     0.124 S 
ATOM     72  O   UNL A   1      53.455  23.957  25.091  1.00  0.00    -0.237 OA
ATOM     73  O   UNL A   1      53.586  25.868  23.528  1.00  0.00    -0.237 OA
ATOM     74  O   UNL A   1      54.433  26.100  25.831  1.00  0.00    -0.744 OA
ENDBRANCH  70  71
ENDBRANCH  38  63
ENDBRANCH  12  13
ENDBRANCH   5   7
ENDBRANCH   2   3
ENDBRANCH   1   2
BRANCH   1  75
ATOM     75  C   UNL A   1      33.674  30.363  27.458  1.00  0.00     0.023 C 
BRANCH  75  76
ATOM     76  C   UNL A   1      33.002  30.205  26.093  1.00  0.00     0.116 C 
BRANCH  76  77
ATOM     77  N   UNL A   1      33.773  29.376  25.190  1.00  0.00    -0.352 N 
ATOM     78  C   UNL A   1      33.346  28.392  24.342  1.00  0.00     0.252 C 
ATOM     79  H   UNL A   1      34.743  29.546  25.184  1.00  0.00     0.163 HD
ATOM     80  O   UNL A   1      34.165  27.650  23.801  1.00  0.00    -0.269 OA
BRANCH  78  81
ATOM     81  C   UNL A   1      31.915  28.095  24.149  1.00  0.00     0.052 A 
ATOM     82  C   UNL A   1      31.438  28.545  22.895  1.00  0.00     0.014 A 
ATOM     83  C   UNL A   1      31.039  27.458  25.040  1.00  0.00     0.052 A 
ATOM     84  C   UNL A   1      30.130  28.307  22.486  1.00  0.00     0.001 A 
ATOM     85  C   UNL A   1      29.718  27.213  24.591  1.00  0.00     0.014 A 
ATOM     86  C   UNL A   1      29.271  27.622  23.331  1.00  0.00     0.001 A 
BRANCH  83  87
ATOM     87  C   UNL A   1      31.333  26.861  26.376  1.00  0.00     0.256 C 
ATOM     88  O   UNL A   1      31.282  27.624  27.348  1.00  0.00    -0.269 OA
ATOM     89  N   UNL A   1      31.560  25.535  26.652  1.00  0.00    -0.322 N 
ATOM     90  H   UNL A   1      31.598  25.329  27.614  1.00  0.00     0.170 HD
BRANCH  89  91
ATOM     91  C   UNL A   1      31.747  24.429  25.827  1.00  0.00     0.041 A 
ATOM     92  C   UNL A   1      32.919  24.418  25.066  1.00  0.00     0.028 A 
ATOM     93  C   UNL A   1      30.883  23.342  25.794  1.00  0.00     0.028 A 
ATOM     94  C   UNL A   1      33.364  23.225  24.507  1.00  0.00     0.029 A 
ATOM     95  C   UNL A   1      31.271  22.182  25.118  1.00  0.00     0.029 A 
ATOM     96  C   UNL A   1      32.560  22.089  24.573  1.00  0.00     0.052 A 
BRANCH  96  97
ATOM     97  N   UNL A   1      33.100  20.824  24.279  1.00  0.00    -0.250 N 
ATOM     98  C   UNL A   1      32.561  19.943  23.336  1.00  0.00     0.237 C 
ATOM     99  C   UNL A   1      34.052  20.200  25.116  1.00  0.00     0.237 C 
ATOM    100  O   UNL A   1      31.821  20.152  22.391  1.00  0.00    -0.274 OA
ATOM    101  C   UNL A   1      32.937  18.610  23.882  1.00  0.00     0.095 C 
ATOM    102  C   UNL A   1      34.331  18.913  24.404  1.00  0.00     0.095 C 
ATOM    103  O   UNL A   1      34.597  20.593  26.128  1.00  0.00    -0.274 OA
ATOM    104  C   UNL A   1      33.101  17.200  23.316  1.00  0.00     0.002 C 
ATOM    105  C   UNL A   1      34.797  17.514  24.786  1.00  0.00     0.002 C 
ATOM    106  C   UNL A   1      32.692  16.283  24.492  1.00  0.00     0.005 C 
ATOM    107  C   UNL A   1      34.621  16.914  23.368  1.00  0.00     0.009 C 
ATOM    108  C   UNL A   1      33.754  16.664  25.566  1.00  0.00     0.005 C 
ENDBRANCH  96  97
ENDBRANCH  89  91
ENDBRANCH  83  87
ENDBRANCH  78  81
ENDBRANCH  76  77
ENDBRANCH  75  76
ENDBRANCH   1  75
TORSDOF 17
ENDMDL
MODEL 2
REMARK VINA RESULT:     -13.7      5.026      8.471
REMARK SMILES O=C(NCCCCNC(=O)c1ccccc1C(=O)Nc1ccc(N2C(=O)[C@H]3[C@@H]4CC[C@@H](C4)[C@@H]3C2=O)cc1)c1ccc(-c2c3nc(c(-c4c(F)cc(S(=O)(=O)[O-])cc4F)c4ccc([nH]4)c(-c4c(F)cc(S(=O)(=O)[O-])cc4F)c4nc(c(-c5c(F)cc(S(=O)(=O)[O-])cc5F)c5ccc2[nH]5)C=C4)C=C3)cc1
REMARK SMILES IDX 5 1 4 2 3 3 1 4 2 5 38 7 39 8 103 9 40 10 102 11 41 12 42 13
REMARK SMILES IDX 43 14 96 15 44 16 101 17 95 18 97 19 45 20 100 21 94 22
REMARK SMILES IDX 93 23 46 25 80 26 59 27 79 28 60 29 63 30 78 31 98 32 61 33
REMARK SMILES IDX 62 34 77 36 99 37 64 38 47 39 48 40 57 41 49 42 50 43 56 44
REMARK SMILES IDX 58 45 51 46 52 47 53 48 54 49 55 50 81 51 82 52 91 53 83 54
REMARK SMILES IDX 84 55 90 56 92 57 85 58 86 59 87 60 88 61 89 62 65 63 66 64
REMARK SMILES IDX 75 65 67 66 68 67 74 68 76 69 69 70 70 71 71 72 72 73 73 74
REMARK SMILES IDX 6 75 7 76 8 77 9 78 10 80 11 81 12 82 16 83 13 84 15 85
REMARK SMILES IDX 14 86 17 87 18 88 19 89 20 91 21 92 37 93 22 94 36 95 23 96
REMARK SMILES IDX 24 97 25 98 34 99 26 100 27 101 33 102 35 103 28 104 31 105
REMARK SMILES IDX 29 106 32 107 30 108
REMARK H PARENT 3 6 97 24 63 35 8 79 19 90
REMARK Flexibility Score: inf
ROOT
ATOM      1  C   UNL A   1      34.450  32.633  30.517  1.00  0.00     0.023 C 
ENDROOT
BRANCH   1   2
ATOM      2  C   UNL A   1      34.610  32.607  28.999  1.00  0.00     0.116 C 
BRANCH   2   3
ATOM      3  N   UNL A   1      33.986  31.449  28.385  1.00  0.00    -0.352 N 
ATOM      4  O   UNL A   1      33.836  29.475  27.324  1.00  0.00    -0.269 OA
ATOM      5  C   UNL A   1      34.528  30.254  27.977  1.00  0.00     0.251 C 
ATOM      6  H   UNL A   1      33.016  31.533  28.237  1.00  0.00     0.163 HD
BRANCH   5   7
ATOM      7  C   UNL A   1      35.933  29.900  28.287  1.00  0.00     0.039 A 
ATOM      8  C   UNL A   1      36.303  29.368  29.524  1.00  0.00     0.014 A 
ATOM      9  C   UNL A   1      36.896  30.049  27.283  1.00  0.00     0.014 A 
ATOM     10  C   UNL A   1      37.646  29.106  29.800  1.00  0.00     0.010 A 
ATOM     11  C   UNL A   1      38.232  29.718  27.537  1.00  0.00     0.010 A 
ATOM     12  C   UNL A   1      38.626  29.272  28.807  1.00  0.00    -0.014 A 
BRANCH  12  13
ATOM     13  C   UNL A   1      40.045  28.932  29.093  1.00  0.00     0.031 A 
ATOM     14  C   UNL A   1      40.951  29.910  29.793  1.00  0.00     0.074 A 
ATOM     15  C   UNL A   1      40.523  27.730  28.715  1.00  0.00     0.049 A 
ATOM     16  N   UNL A   1      42.213  29.779  30.117  1.00  0.00    -0.248 NA
ATOM     17  C   UNL A   1      40.368  31.206  30.171  1.00  0.00     0.031 C 
ATOM     18  C   UNL A   1      39.752  26.701  28.014  1.00  0.00     0.029 A 
ATOM     19  N   UNL A   1      41.765  27.167  28.869  1.00  0.00    -0.354 N 
ATOM     20  C   UNL A   1      42.581  30.977  30.717  1.00  0.00     0.074 A 
ATOM     21  C   UNL A   1      41.414  31.833  30.689  1.00  0.00     0.031 C 
ATOM     22  C   UNL A   1      40.527  25.621  27.830  1.00  0.00     0.029 A 
ATOM     23  C   UNL A   1      41.860  25.897  28.353  1.00  0.00     0.049 A 
ATOM     24  H   UNL A   1      42.516  27.629  29.307  1.00  0.00     0.167 HD
ATOM     25  C   UNL A   1      43.778  31.328  31.250  1.00  0.00     0.037 A 
ATOM     26  C   UNL A   1      42.905  25.049  28.296  1.00  0.00     0.037 A 
ATOM     27  C   UNL A   1      44.935  30.470  31.285  1.00  0.00     0.049 A 
ATOM     28  C   UNL A   1      44.227  25.467  28.875  1.00  0.00     0.074 A 
ATOM     29  C   UNL A   1      46.177  30.722  31.843  1.00  0.00     0.029 A 
ATOM     30  N   UNL A   1      44.997  29.198  30.735  1.00  0.00    -0.354 N 
ATOM     31  N   UNL A   1      44.544  26.589  29.475  1.00  0.00    -0.248 NA
ATOM     32  C   UNL A   1      45.331  24.504  28.770  1.00  0.00     0.031 C 
ATOM     33  C   UNL A   1      47.002  29.618  31.594  1.00  0.00     0.029 A 
ATOM     34  C   UNL A   1      46.262  28.661  30.919  1.00  0.00     0.049 A 
ATOM     35  H   UNL A   1      44.252  28.743  30.280  1.00  0.00     0.167 HD
ATOM     36  C   UNL A   1      45.881  26.462  29.834  1.00  0.00     0.074 A 
ATOM     37  C   UNL A   1      46.308  25.148  29.396  1.00  0.00     0.031 C 
ATOM     38  C   UNL A   1      46.678  27.354  30.474  1.00  0.00     0.037 A 
BRANCH  25  39
ATOM     39  C   UNL A   1      43.900  32.715  31.823  1.00  0.00     0.058 A 
ATOM     40  C   UNL A   1      43.623  32.984  33.172  1.00  0.00     0.135 A 
ATOM     41  C   UNL A   1      44.313  33.786  31.014  1.00  0.00     0.135 A 
ATOM     42  F   UNL A   1      43.214  32.000  33.988  1.00  0.00    -0.206 F 
ATOM     43  C   UNL A   1      43.712  34.273  33.691  1.00  0.00     0.059 A 
ATOM     44  C   UNL A   1      44.433  35.079  31.517  1.00  0.00     0.059 A 
ATOM     45  F   UNL A   1      44.596  33.585  29.717  1.00  0.00    -0.206 F 
ATOM     46  C   UNL A   1      44.110  35.316  32.852  1.00  0.00     0.060 A 
BRANCH  46  47
ATOM     47  S   UNL A   1      44.192  36.987  33.530  1.00  0.00     0.124 S 
ATOM     48  O   UNL A   1      42.889  37.101  34.179  1.00  0.00    -0.237 OA
ATOM     49  O   UNL A   1      45.340  36.908  34.427  1.00  0.00    -0.237 OA
ATOM     50  O   UNL A   1      44.380  37.824  32.348  1.00  0.00    -0.744 OA
ENDBRANCH  46  47
ENDBRANCH  25  39
BRANCH  26  51
ATOM     51  C   UNL A   1      42.726  23.711  27.676  1.00  0.00     0.058 A 
ATOM     52  C   UNL A   1      42.940  23.521  26.304  1.00  0.00     0.135 A 
ATOM     53  C   UNL A   1      42.392  22.589  28.451  1.00  0.00     0.135 A 
ATOM     54  F   UNL A   1      43.254  24.565  25.522  1.00  0.00    -0.206 F 
ATOM     55  C   UNL A   1      42.833  22.264  25.720  1.00  0.00     0.059 A 
ATOM     56  C   UNL A   1      42.302  21.318  27.893  1.00  0.00     0.059 A 
ATOM     57  F   UNL A   1      42.191  22.721  29.772  1.00  0.00    -0.206 F 
ATOM     58  C   UNL A   1      42.522  21.166  26.526  1.00  0.00     0.060 A 
BRANCH  58  59
ATOM     59  S   UNL A   1      42.470  19.526  25.772  1.00  0.00     0.124 S 
ATOM     60  O   UNL A   1      43.409  19.680  24.667  1.00  0.00    -0.237 OA
ATOM     61  O   UNL A   1      42.909  18.669  26.869  1.00  0.00    -0.237 OA
ATOM     62  O   UNL A   1      41.068  19.375  25.394  1.00  0.00    -0.744 OA
ENDBRANCH  58  59
ENDBRANCH  26  51
BRANCH  38  63
ATOM     63  C   UNL A   1      48.091  26.929  30.759  1.00  0.00     0.058 A 
ATOM     64  C   UNL A   1      49.160  27.325  29.938  1.00  0.00     0.135 A 
ATOM     65  C   UNL A   1      48.386  26.147  31.887  1.00  0.00     0.135 A 
ATOM     66  F   UNL A   1      48.931  28.066  28.842  1.00  0.00    -0.206 F 
ATOM     67  C   UNL A   1      50.468  26.943  30.215  1.00  0.00     0.059 A 
ATOM     68  C   UNL A   1      49.690  25.772  32.196  1.00  0.00     0.059 A 
ATOM     69  F   UNL A   1      47.401  25.748  32.708  1.00  0.00    -0.206 F 
ATOM     70  C   UNL A   1      50.724  26.165  31.346  1.00  0.00     0.060 A 
BRANCH  70  71
ATOM     71  S   UNL A   1      52.429  25.697  31.713  1.00  0.00     0.124 S 
ATOM     72  O   UNL A   1      53.078  25.923  30.427  1.00  0.00    -0.237 OA
ATOM     73  O   UNL A   1      52.789  26.630  32.777  1.00  0.00    -0.237 OA
ATOM     74  O   UNL A   1      52.316  24.301  32.124  1.00  0.00    -0.744 OA
ENDBRANCH  70  71
ENDBRANCH  38  63
ENDBRANCH  12  13
ENDBRANCH   5   7
ENDBRANCH   2   3
ENDBRANCH   1   2
BRANCH   1  75
ATOM     75  C   UNL A   1      34.845  33.953  31.188  1.00  0.00     0.023 C 
BRANCH  75  76
ATOM     76  C   UNL A   1      35.219  33.841  32.667  1.00  0.00     0.116 C 
BRANCH  76  77
ATOM     77  N   UNL A   1      35.619  32.498  33.035  1.00  0.00    -0.352 N 
ATOM     78  C   UNL A   1      36.875  31.987  33.204  1.00  0.00     0.252 C 
ATOM     79  H   UNL A   1      34.881  31.864  33.186  1.00  0.00     0.163 HD
ATOM     80  O   UNL A   1      37.033  30.771  33.314  1.00  0.00    -0.269 OA
BRANCH  78  81
ATOM     81  C   UNL A   1      38.080  32.833  33.125  1.00  0.00     0.052 A 
ATOM     82  C   UNL A   1      38.233  33.433  31.852  1.00  0.00     0.014 A 
ATOM     83  C   UNL A   1      39.031  33.073  34.128  1.00  0.00     0.052 A 
ATOM     84  C   UNL A   1      39.270  34.321  31.586  1.00  0.00     0.001 A 
ATOM     85  C   UNL A   1      40.066  33.995  33.836  1.00  0.00     0.014 A 
ATOM     86  C   UNL A   1      40.181  34.617  32.588  1.00  0.00     0.001 A 
BRANCH  83  87
ATOM     87  C   UNL A   1      39.042  32.596  35.541  1.00  0.00     0.256 C 
ATOM     88  O   UNL A   1      38.377  33.251  36.353  1.00  0.00    -0.269 OA
ATOM     89  N   UNL A   1      39.634  31.453  36.019  1.00  0.00    -0.322 N 
ATOM     90  H   UNL A   1      39.409  31.248  36.955  1.00  0.00     0.170 HD
BRANCH  89  91
ATOM     91  C   UNL A   1      40.493  30.530  35.428  1.00  0.00     0.041 A 
ATOM     92  C   UNL A   1      41.533  30.053  36.230  1.00  0.00     0.028 A 
ATOM     93  C   UNL A   1      40.313  30.027  34.145  1.00  0.00     0.028 A 
ATOM     94  C   UNL A   1      42.204  28.891  35.866  1.00  0.00     0.029 A 
ATOM     95  C   UNL A   1      41.082  28.938  33.726  1.00  0.00     0.029 A 
ATOM     96  C   UNL A   1      41.944  28.301  34.630  1.00  0.00     0.052 A 
BRANCH  96  97
ATOM     97  N   UNL A   1      42.385  26.992  34.367  1.00  0.00    -0.250 N 
ATOM     98  C   UNL A   1      41.855  25.850  34.978  1.00  0.00     0.237 C 
ATOM     99  C   UNL A   1      43.598  26.728  33.692  1.00  0.00     0.237 C 
ATOM    100  O   UNL A   1      40.785  25.674  35.531  1.00  0.00    -0.274 OA
ATOM    101  C   UNL A   1      43.016  24.919  34.989  1.00  0.00     0.095 C 
ATOM    102  C   UNL A   1      43.630  25.233  33.635  1.00  0.00     0.095 C 
ATOM    103  O   UNL A   1      44.410  27.483  33.196  1.00  0.00    -0.274 OA
ATOM    104  C   UNL A   1      43.206  23.405  35.089  1.00  0.00     0.002 C 
ATOM    105  C   UNL A   1      44.699  24.150  33.555  1.00  0.00     0.002 C 
ATOM    106  C   UNL A   1      44.551  23.254  35.837  1.00  0.00     0.005 C 
ATOM    107  C   UNL A   1      43.710  22.965  33.694  1.00  0.00     0.009 C 
ATOM    108  C   UNL A   1      45.534  23.954  34.852  1.00  0.00     0.005 C 
ENDBRANCH  96  97
ENDBRANCH  89  91
ENDBRANCH  83  87
ENDBRANCH  78  81
ENDBRANCH  76  77
ENDBRANCH  75  76
ENDBRANCH   1  75
TORSDOF 17
ENDMDL
MODEL 3
REMARK VINA RESULT:     -13.4      4.971     11.304
REMARK SMILES O=C(NCCCCNC(=O)c1ccccc1C(=O)Nc1ccc(N2C(=O)[C@H]3[C@@H]4CC[C@@H](C4)[C@@H]3C2=O)cc1)c1ccc(-c2c3nc(c(-c4c(F)cc(S(=O)(=O)[O-])cc4F)c4ccc([nH]4)c(-c4c(F)cc(S(=O)(=O)[O-])cc4F)c4nc(c(-c5c(F)cc(S(=O)(=O)[O-])cc5F)c5ccc2[nH]5)C=C4)C=C3)cc1
REMARK SMILES IDX 5 1 4 2 3 3 1 4 2 5 38 7 39 8 103 9 40 10 102 11 41 12 42 13
REMARK SMILES IDX 43 14 96 15 44 16 101 17 95 18 97 19 45 20 100 21 94 22
REMARK SMILES IDX 93 23 46 25 80 26 59 27 79 28 60 29 63 30 78 31 98 32 61 33
REMARK SMILES IDX 62 34 77 36 99 37 64 38 47 39 48 40 57 41 49 42 50 43 56 44
REMARK SMILES IDX 58 45 51 46 52 47 53 48 54 49 55 50 81 51 82 52 91 53 83 54
REMARK SMILES IDX 84 55 90 56 92 57 85 58 86 59 87 60 88 61 89 62 65 63 66 64
REMARK SMILES IDX 75 65 67 66 68 67 74 68 76 69 69 70 70 71 71 72 72 73 73 74
REMARK SMILES IDX 6 75 7 76 8 77 9 78 10 80 11 81 12 82 16 83 13 84 15 85
REMARK SMILES IDX 14 86 17 87 18 88 19 89 20 91 21 92 37 93 22 94 36 95 23 96
REMARK SMILES IDX 24 97 25 98 34 99 26 100 27 101 33 102 35 103 28 104 31 105
REMARK SMILES IDX 29 106 32 107 30 108
REMARK H PARENT 3 6 97 24 63 35 8 79 19 90
REMARK Flexibility Score: inf
ROOT
ATOM      1  C   UNL A   1      35.688  33.241  28.362  1.00  0.00     0.023 C 
ENDROOT
BRANCH   1   2
ATOM      2  C   UNL A   1      34.648  32.518  29.214  1.00  0.00     0.116 C 
BRANCH   2   3
ATOM      3  N   UNL A   1      34.061  31.375  28.539  1.00  0.00    -0.352 N 
ATOM      4  O   UNL A   1      33.974  29.452  27.382  1.00  0.00    -0.269 OA
ATOM      5  C   UNL A   1      34.639  30.216  28.079  1.00  0.00     0.251 C 
ATOM      6  H   UNL A   1      33.090  31.440  28.386  1.00  0.00     0.163 HD
BRANCH   5   7
ATOM      7  C   UNL A   1      36.051  29.886  28.385  1.00  0.00     0.039 A 
ATOM      8  C   UNL A   1      36.438  29.399  29.635  1.00  0.00     0.014 A 
ATOM      9  C   UNL A   1      37.001  30.008  27.366  1.00  0.00     0.014 A 
ATOM     10  C   UNL A   1      37.787  29.158  29.905  1.00  0.00     0.010 A 
ATOM     11  C   UNL A   1      38.343  29.698  27.616  1.00  0.00     0.010 A 
ATOM     12  C   UNL A   1      38.754  29.299  28.896  1.00  0.00    -0.014 A 
BRANCH  12  13
ATOM     13  C   UNL A   1      40.180  28.981  29.178  1.00  0.00     0.031 A 
ATOM     14  C   UNL A   1      40.766  27.646  28.802  1.00  0.00     0.074 A 
ATOM     15  C   UNL A   1      40.953  29.905  29.782  1.00  0.00     0.049 A 
ATOM     16  N   UNL A   1      41.984  27.202  28.977  1.00  0.00    -0.248 NA
ATOM     17  C   UNL A   1      39.864  26.682  28.154  1.00  0.00     0.031 C 
ATOM     18  C   UNL A   1      40.501  31.229  30.213  1.00  0.00     0.029 A 
ATOM     19  N   UNL A   1      42.279  29.876  30.134  1.00  0.00    -0.354 N 
ATOM     20  C   UNL A   1      41.994  25.903  28.480  1.00  0.00     0.074 A 
ATOM     21  C   UNL A   1      40.650  25.623  28.020  1.00  0.00     0.031 C 
ATOM     22  C   UNL A   1      41.538  31.898  30.739  1.00  0.00     0.029 A 
ATOM     23  C   UNL A   1      42.715  31.036  30.729  1.00  0.00     0.049 A 
ATOM     24  H   UNL A   1      42.862  29.098  29.977  1.00  0.00     0.167 HD
ATOM     25  C   UNL A   1      43.029  25.030  28.406  1.00  0.00     0.037 A 
ATOM     26  C   UNL A   1      43.923  31.368  31.222  1.00  0.00     0.037 A 
ATOM     27  C   UNL A   1      44.367  25.315  28.856  1.00  0.00     0.049 A 
ATOM     28  C   UNL A   1      45.049  30.378  31.147  1.00  0.00     0.074 A 
ATOM     29  C   UNL A   1      45.491  24.509  28.782  1.00  0.00     0.029 A 
ATOM     30  N   UNL A   1      44.764  26.494  29.471  1.00  0.00    -0.354 N 
ATOM     31  N   UNL A   1      45.049  29.169  30.637  1.00  0.00    -0.248 NA
ATOM     32  C   UNL A   1      46.339  30.794  31.714  1.00  0.00     0.031 C 
ATOM     33  C   UNL A   1      46.556  25.185  29.389  1.00  0.00     0.029 A 
ATOM     34  C   UNL A   1      46.108  26.429  29.801  1.00  0.00     0.049 A 
ATOM     35  H   UNL A   1      44.176  27.265  29.646  1.00  0.00     0.167 HD
ATOM     36  C   UNL A   1      46.341  28.686  30.806  1.00  0.00     0.074 A 
ATOM     37  C   UNL A   1      47.098  29.738  31.455  1.00  0.00     0.031 C 
ATOM     38  C   UNL A   1      46.852  27.481  30.451  1.00  0.00     0.037 A 
BRANCH  25  39
ATOM     39  C   UNL A   1      42.744  23.667  27.832  1.00  0.00     0.058 A 
ATOM     40  C   UNL A   1      42.534  22.548  28.653  1.00  0.00     0.135 A 
ATOM     41  C   UNL A   1      42.667  23.482  26.442  1.00  0.00     0.135 A 
ATOM     42  F   UNL A   1      42.607  22.665  29.987  1.00  0.00    -0.206 F 
ATOM     43  C   UNL A   1      42.298  21.285  28.116  1.00  0.00     0.059 A 
ATOM     44  C   UNL A   1      42.407  22.233  25.883  1.00  0.00     0.059 A 
ATOM     45  F   UNL A   1      42.854  24.519  25.610  1.00  0.00    -0.206 F 
ATOM     46  C   UNL A   1      42.245  21.137  26.729  1.00  0.00     0.060 A 
BRANCH  46  47
ATOM     47  S   UNL A   1      41.967  19.489  26.045  1.00  0.00     0.124 S 
ATOM     48  O   UNL A   1      42.865  19.498  24.895  1.00  0.00    -0.237 OA
ATOM     49  O   UNL A   1      42.361  18.619  27.148  1.00  0.00    -0.237 OA
ATOM     50  O   UNL A   1      40.541  19.489  25.729  1.00  0.00    -0.744 OA
ENDBRANCH  46  47
ENDBRANCH  25  39
BRANCH  26  51
ATOM     51  C   UNL A   1      44.122  32.716  31.816  1.00  0.00     0.058 A 
ATOM     52  C   UNL A   1      44.201  32.884  33.205  1.00  0.00     0.135 A 
ATOM     53  C   UNL A   1      44.294  33.849  31.005  1.00  0.00     0.135 A 
ATOM     54  F   UNL A   1      44.036  31.830  34.019  1.00  0.00    -0.206 F 
ATOM     55  C   UNL A   1      44.445  34.129  33.773  1.00  0.00     0.059 A 
ATOM     56  C   UNL A   1      44.562  35.101  31.550  1.00  0.00     0.059 A 
ATOM     57  F   UNL A   1      44.241  33.734  29.670  1.00  0.00    -0.206 F 
ATOM     58  C   UNL A   1      44.634  35.231  32.936  1.00  0.00     0.060 A 
BRANCH  58  59
ATOM     59  S   UNL A   1      45.036  36.826  33.681  1.00  0.00     0.124 S 
ATOM     60  O   UNL A   1      44.156  37.725  32.945  1.00  0.00    -0.237 OA
ATOM     61  O   UNL A   1      44.697  36.605  35.083  1.00  0.00    -0.237 OA
ATOM     62  O   UNL A   1      46.463  36.972  33.407  1.00  0.00    -0.744 OA
ENDBRANCH  58  59
ENDBRANCH  26  51
BRANCH  38  63
ATOM     63  C   UNL A   1      48.308  27.242  30.737  1.00  0.00     0.058 A 
ATOM     64  C   UNL A   1      48.735  26.635  31.929  1.00  0.00     0.135 A 
ATOM     65  C   UNL A   1      49.285  27.590  29.791  1.00  0.00     0.135 A 
ATOM     66  F   UNL A   1      47.842  26.290  32.870  1.00  0.00    -0.206 F 
ATOM     67  C   UNL A   1      50.083  26.401  32.182  1.00  0.00     0.059 A 
ATOM     68  C   UNL A   1      50.637  27.345  30.014  1.00  0.00     0.059 A 
ATOM     69  F   UNL A   1      48.928  28.166  28.632  1.00  0.00    -0.206 F 
ATOM     70  C   UNL A   1      51.028  26.761  31.218  1.00  0.00     0.060 A 
BRANCH  70  71
ATOM     71  S   UNL A   1      52.772  26.427  31.543  1.00  0.00     0.124 S 
ATOM     72  O   UNL A   1      52.702  25.145  32.233  1.00  0.00    -0.237 OA
ATOM     73  O   UNL A   1      53.342  26.394  30.199  1.00  0.00    -0.237 OA
ATOM     74  O   UNL A   1      53.186  27.562  32.364  1.00  0.00    -0.744 OA
ENDBRANCH  70  71
ENDBRANCH  38  63
ENDBRANCH  12  13
ENDBRANCH   5   7
ENDBRANCH   2   3
ENDBRANCH   1   2
BRANCH   1  75
ATOM     75  C   UNL A   1      37.063  33.409  29.020  1.00  0.00     0.023 C 
BRANCH  75  76
ATOM     76  C   UNL A   1      37.144  32.945  30.475  1.00  0.00     0.116 C 
BRANCH  76  77
ATOM     77  N   UNL A   1      36.573  33.907  31.395  1.00  0.00    -0.352 N 
ATOM     78  C   UNL A   1      37.084  34.390  32.568  1.00  0.00     0.252 C 
ATOM     79  H   UNL A   1      35.692  34.265  31.139  1.00  0.00     0.163 HD
ATOM     80  O   UNL A   1      36.369  35.046  33.325  1.00  0.00    -0.269 OA
BRANCH  78  81
ATOM     81  C   UNL A   1      38.439  34.040  33.032  1.00  0.00     0.052 A 
ATOM     82  C   UNL A   1      39.410  34.981  32.612  1.00  0.00     0.014 A 
ATOM     83  C   UNL A   1      38.829  32.928  33.793  1.00  0.00     0.052 A 
ATOM     84  C   UNL A   1      40.742  34.872  32.996  1.00  0.00     0.001 A 
ATOM     85  C   UNL A   1      40.189  32.853  34.185  1.00  0.00     0.014 A 
ATOM     86  C   UNL A   1      41.130  33.813  33.801  1.00  0.00     0.001 A 
BRANCH  83  87
ATOM     87  C   UNL A   1      37.980  31.853  34.383  1.00  0.00     0.256 C 
ATOM     88  O   UNL A   1      36.820  32.163  34.680  1.00  0.00    -0.269 OA
ATOM     89  N   UNL A   1      38.319  30.532  34.543  1.00  0.00    -0.322 N 
ATOM     90  H   UNL A   1      37.570  29.959  34.824  1.00  0.00     0.170 HD
BRANCH  89  91
ATOM     91  C   UNL A   1      39.523  29.851  34.382  1.00  0.00     0.041 A 
ATOM     92  C   UNL A   1      40.396  29.876  35.473  1.00  0.00     0.028 A 
ATOM     93  C   UNL A   1      39.841  29.112  33.250  1.00  0.00     0.028 A 
ATOM     94  C   UNL A   1      41.430  28.950  35.547  1.00  0.00     0.029 A 
ATOM     95  C   UNL A   1      40.961  28.276  33.273  1.00  0.00     0.029 A 
ATOM     96  C   UNL A   1      41.686  28.112  34.463  1.00  0.00     0.052 A 
BRANCH  96  97
ATOM     97  N   UNL A   1      42.520  26.990  34.619  1.00  0.00    -0.250 N 
ATOM     98  C   UNL A   1      43.801  26.885  34.065  1.00  0.00     0.237 C 
ATOM     99  C   UNL A   1      42.033  25.750  35.089  1.00  0.00     0.237 C 
ATOM    100  O   UNL A   1      44.569  27.748  33.681  1.00  0.00    -0.274 OA
ATOM    101  C   UNL A   1      43.942  25.419  33.848  1.00  0.00     0.095 C 
ATOM    102  C   UNL A   1      43.259  24.891  35.099  1.00  0.00     0.095 C 
ATOM    103  O   UNL A   1      40.927  25.427  35.474  1.00  0.00    -0.274 OA
ATOM    104  C   UNL A   1      45.106  24.443  33.678  1.00  0.00     0.002 C 
ATOM    105  C   UNL A   1      43.570  23.405  34.983  1.00  0.00     0.002 C 
ATOM    106  C   UNL A   1      44.542  23.362  32.727  1.00  0.00     0.005 C 
ATOM    107  C   UNL A   1      45.110  23.584  34.965  1.00  0.00     0.009 C 
ATOM    108  C   UNL A   1      43.358  22.798  33.567  1.00  0.00     0.005 C 
ENDBRANCH  96  97
ENDBRANCH  89  91
ENDBRANCH  83  87
ENDBRANCH  78  81
ENDBRANCH  76  77
ENDBRANCH  75  76
ENDBRANCH   1  75
TORSDOF 17
ENDMDL
