MODEL 1
REMARK VINA RESULT:     -13.1      0.000      0.000
REMARK SMILES O=C(NCCCCNC(=O)[C@@H]1CCCC[C@H]1C(=O)Nc1cccc(-c2nnc(-c3ccccc3)o2)c1)c1ccc(-c2c3nc(c(-c4c(F)cc(S(=O)(=O)[O-])cc4F)c4ccc([nH]4)c(-c4c(F)cc(S(=O)(=O)[O-])cc4F)c4nc(c(-c5c(F)cc(S(=O)(=O)[O-])cc5F)c5ccc2[nH]5)C=C4)C=C3)cc1
REMARK SMILES IDX 6 1 5 2 4 3 3 4 1 5 2 6 37 8 38 9 102 10 39 11 101 12 40 13
REMARK SMILES IDX 41 14 42 15 95 16 43 17 100 18 94 19 96 20 44 21 99 22 93 23
REMARK SMILES IDX 92 24 45 26 79 27 58 28 78 29 59 30 62 31 77 32 97 33 60 34
REMARK SMILES IDX 61 35 76 37 98 38 63 39 46 40 47 41 56 42 48 43 49 44 55 45
REMARK SMILES IDX 57 46 50 47 51 48 52 49 53 50 54 51 80 52 81 53 90 54 82 55
REMARK SMILES IDX 83 56 89 57 91 58 84 59 85 60 86 61 87 62 88 63 64 64 65 65
REMARK SMILES IDX 74 66 66 67 67 68 73 69 75 70 68 71 69 72 70 73 71 74 72 75
REMARK SMILES IDX 7 76 8 77 9 78 10 80 11 81 12 82 16 83 13 84 15 85 14 86
REMARK SMILES IDX 17 87 18 88 19 89 20 91 21 92 36 93 22 94 24 95 23 96 25 97
REMARK SMILES IDX 26 98 35 99 27 100 28 101 29 102 30 103 34 104 31 105 33 106
REMARK SMILES IDX 32 107
REMARK H PARENT 3 7 96 25 62 36 8 79 19 90
REMARK Flexibility Score: inf
ROOT
ATOM      1  C   UNL A   1      37.378  22.298  24.597  1.00  0.00     0.023 C 
ENDROOT
BRANCH   1   2
ATOM      2  C   UNL A   1      37.890  21.063  25.335  1.00  0.00     0.023 C 
BRANCH   2   3
ATOM      3  C   UNL A   1      39.270  21.224  25.953  1.00  0.00     0.116 C 
BRANCH   3   4
ATOM      4  N   UNL A   1      40.049  19.995  25.948  1.00  0.00    -0.352 N 
ATOM      5  O   UNL A   1      41.911  18.725  26.052  1.00  0.00    -0.269 OA
ATOM      6  C   UNL A   1      41.399  19.837  26.151  1.00  0.00     0.251 C 
ATOM      7  H   UNL A   1      39.542  19.167  25.778  1.00  0.00     0.163 HD
BRANCH   6   8
ATOM      8  C   UNL A   1      42.234  21.023  26.434  1.00  0.00     0.039 A 
ATOM      9  C   UNL A   1      42.498  21.421  27.746  1.00  0.00     0.014 A 
ATOM     10  C   UNL A   1      42.700  21.782  25.358  1.00  0.00     0.014 A 
ATOM     11  C   UNL A   1      43.062  22.669  27.983  1.00  0.00     0.010 A 
ATOM     12  C   UNL A   1      43.342  22.996  25.599  1.00  0.00     0.010 A 
ATOM     13  C   UNL A   1      43.474  23.475  26.912  1.00  0.00    -0.014 A 
BRANCH  13  14
ATOM     14  C   UNL A   1      44.017  24.831  27.172  1.00  0.00     0.031 A 
ATOM     15  C   UNL A   1      43.114  25.928  27.668  1.00  0.00     0.074 A 
ATOM     16  C   UNL A   1      45.329  25.062  26.982  1.00  0.00     0.049 A 
ATOM     17  N   UNL A   1      43.394  27.184  27.906  1.00  0.00    -0.248 NA
ATOM     18  C   UNL A   1      41.709  25.570  27.923  1.00  0.00     0.031 C 
ATOM     19  C   UNL A   1      46.301  24.070  26.519  1.00  0.00     0.029 A 
ATOM     20  N   UNL A   1      46.072  26.199  27.164  1.00  0.00    -0.354 N 
ATOM     21  C   UNL A   1      42.197  27.775  28.296  1.00  0.00     0.074 A 
ATOM     22  C   UNL A   1      41.184  26.741  28.253  1.00  0.00     0.031 C 
ATOM     23  C   UNL A   1      47.519  24.630  26.488  1.00  0.00     0.029 A 
ATOM     24  C   UNL A   1      47.405  26.034  26.870  1.00  0.00     0.049 A 
ATOM     25  H   UNL A   1      45.690  27.051  27.473  1.00  0.00     0.167 HD
ATOM     26  C   UNL A   1      41.966  29.060  28.659  1.00  0.00     0.037 A 
ATOM     27  C   UNL A   1      48.418  26.919  26.891  1.00  0.00     0.037 A 
ATOM     28  C   UNL A   1      42.989  30.072  28.729  1.00  0.00     0.049 A 
ATOM     29  C   UNL A   1      48.139  28.336  27.294  1.00  0.00     0.074 A 
ATOM     30  C   UNL A   1      42.869  31.395  29.114  1.00  0.00     0.029 A 
ATOM     31  N   UNL A   1      44.324  29.868  28.411  1.00  0.00    -0.354 N 
ATOM     32  N   UNL A   1      47.001  28.879  27.656  1.00  0.00    -0.248 NA
ATOM     33  C   UNL A   1      49.278  29.263  27.287  1.00  0.00     0.031 C 
ATOM     34  C   UNL A   1      44.127  32.001  28.998  1.00  0.00     0.029 A 
ATOM     35  C   UNL A   1      45.037  31.044  28.578  1.00  0.00     0.049 A 
ATOM     36  H   UNL A   1      44.709  29.013  28.110  1.00  0.00     0.167 HD
ATOM     37  C   UNL A   1      47.289  30.209  27.938  1.00  0.00     0.074 A 
ATOM     38  C   UNL A   1      48.710  30.383  27.712  1.00  0.00     0.031 C 
ATOM     39  C   UNL A   1      46.453  31.195  28.347  1.00  0.00     0.037 A 
BRANCH  26  40
ATOM     40  C   UNL A   1      40.547  29.447  28.973  1.00  0.00     0.058 A 
ATOM     41  C   UNL A   1      40.121  29.716  30.283  1.00  0.00     0.135 A 
ATOM     42  C   UNL A   1      39.596  29.550  27.944  1.00  0.00     0.135 A 
ATOM     43  F   UNL A   1      40.983  29.617  31.307  1.00  0.00    -0.206 F 
ATOM     44  C   UNL A   1      38.795  30.033  30.568  1.00  0.00     0.059 A 
ATOM     45  C   UNL A   1      38.271  29.889  28.201  1.00  0.00     0.059 A 
ATOM     46  F   UNL A   1      39.949  29.306  26.672  1.00  0.00    -0.206 F 
ATOM     47  C   UNL A   1      37.876  30.108  29.520  1.00  0.00     0.060 A 
BRANCH  47  48
ATOM     48  S   UNL A   1      36.152  30.488  29.901  1.00  0.00     0.124 S 
ATOM     49  O   UNL A   1      35.488  30.090  28.663  1.00  0.00    -0.237 OA
ATOM     50  O   UNL A   1      35.890  29.640  31.060  1.00  0.00    -0.237 OA
ATOM     51  O   UNL A   1      36.172  31.922  30.171  1.00  0.00    -0.744 OA
ENDBRANCH  47  48
ENDBRANCH  26  40
BRANCH  27  52
ATOM     52  C   UNL A   1      49.785  26.467  26.529  1.00  0.00     0.058 A 
ATOM     53  C   UNL A   1      50.660  25.976  27.507  1.00  0.00     0.135 A 
ATOM     54  C   UNL A   1      50.216  26.450  25.193  1.00  0.00     0.135 A 
ATOM     55  F   UNL A   1      50.293  25.977  28.797  1.00  0.00    -0.206 F 
ATOM     56  C   UNL A   1      51.916  25.477  27.175  1.00  0.00     0.059 A 
ATOM     57  C   UNL A   1      51.457  25.936  24.833  1.00  0.00     0.059 A 
ATOM     58  F   UNL A   1      49.405  26.892  24.220  1.00  0.00    -0.206 F 
ATOM     59  C   UNL A   1      52.300  25.453  25.833  1.00  0.00     0.060 A 
BRANCH  59  60
ATOM     60  S   UNL A   1      53.891  24.713  25.401  1.00  0.00     0.124 S 
ATOM     61  O   UNL A   1      54.317  25.560  24.293  1.00  0.00    -0.237 OA
ATOM     62  O   UNL A   1      54.645  24.856  26.642  1.00  0.00    -0.237 OA
ATOM     63  O   UNL A   1      53.535  23.341  25.050  1.00  0.00    -0.744 OA
ENDBRANCH  59  60
ENDBRANCH  27  52
BRANCH  39  64
ATOM     64  C   UNL A   1      47.064  32.541  28.607  1.00  0.00     0.058 A 
ATOM     65  C   UNL A   1      47.146  33.516  27.602  1.00  0.00     0.135 A 
ATOM     66  C   UNL A   1      47.546  32.867  29.885  1.00  0.00     0.135 A 
ATOM     67  F   UNL A   1      46.707  33.249  26.362  1.00  0.00    -0.206 F 
ATOM     68  C   UNL A   1      47.709  34.764  27.850  1.00  0.00     0.059 A 
ATOM     69  C   UNL A   1      48.092  34.115  30.159  1.00  0.00     0.059 A 
ATOM     70  F   UNL A   1      47.481  31.969  30.881  1.00  0.00    -0.206 F 
ATOM     71  C   UNL A   1      48.181  35.053  29.132  1.00  0.00     0.060 A 
BRANCH  71  72
ATOM     72  S   UNL A   1      48.892  36.682  29.449  1.00  0.00     0.124 S 
ATOM     73  O   UNL A   1      48.038  37.539  28.634  1.00  0.00    -0.237 OA
ATOM     74  O   UNL A   1      48.734  36.819  30.894  1.00  0.00    -0.237 OA
ATOM     75  O   UNL A   1      50.270  36.544  28.987  1.00  0.00    -0.744 OA
ENDBRANCH  71  72
ENDBRANCH  39  64
ENDBRANCH  13  14
ENDBRANCH   6   8
ENDBRANCH   3   4
ENDBRANCH   2   3
ENDBRANCH   1   2
BRANCH   1  76
ATOM     76  C   UNL A   1      36.036  22.841  25.096  1.00  0.00     0.116 C 
BRANCH  76  77
ATOM     77  N   UNL A   1      35.679  22.251  26.369  1.00  0.00    -0.356 N 
ATOM     78  C   UNL A   1      34.496  21.727  26.794  1.00  0.00     0.223 C 
ATOM     79  H   UNL A   1      36.406  22.225  27.033  1.00  0.00     0.163 HD
ATOM     80  O   UNL A   1      34.413  21.434  27.987  1.00  0.00    -0.275 OA
BRANCH  78  81
ATOM     81  C   UNL A   1      33.349  21.473  25.809  1.00  0.00     0.091 C 
ATOM     82  C   UNL A   1      33.843  20.966  24.444  1.00  0.00     0.014 C 
ATOM     83  C   UNL A   1      32.482  22.744  25.646  1.00  0.00     0.091 C 
ATOM     84  C   UNL A   1      32.710  20.793  23.442  1.00  0.00     0.001 C 
ATOM     85  C   UNL A   1      31.410  22.617  24.548  1.00  0.00     0.014 C 
ATOM     86  C   UNL A   1      31.976  22.103  23.230  1.00  0.00     0.001 C 
BRANCH  83  87
ATOM     87  C   UNL A   1      31.867  23.375  26.915  1.00  0.00     0.228 C 
ATOM     88  O   UNL A   1      31.666  22.663  27.909  1.00  0.00    -0.274 OA
ATOM     89  N   UNL A   1      31.703  24.720  27.116  1.00  0.00    -0.326 N 
ATOM     90  H   UNL A   1      31.350  24.966  28.001  1.00  0.00     0.169 HD
BRANCH  89  91
ATOM     91  C   UNL A   1      31.953  25.799  26.268  1.00  0.00     0.041 A 
ATOM     92  C   UNL A   1      33.279  26.131  25.985  1.00  0.00     0.026 A 
ATOM     93  C   UNL A   1      30.920  26.534  25.698  1.00  0.00     0.040 A 
ATOM     94  C   UNL A   1      33.560  27.082  25.005  1.00  0.00     0.003 A 
ATOM     95  C   UNL A   1      31.185  27.434  24.659  1.00  0.00     0.041 A 
ATOM     96  C   UNL A   1      32.516  27.699  24.313  1.00  0.00     0.014 A 
BRANCH  95  97
ATOM     97  C   UNL A   1      30.099  27.937  23.840  1.00  0.00     0.248 A 
ATOM     98  N   UNL A   1      28.975  27.336  23.511  1.00  0.00    -0.107 NA
ATOM     99  O   UNL A   1      30.156  29.240  23.418  1.00  0.00    -0.416 OA
ATOM    100  N   UNL A   1      28.212  28.274  22.855  1.00  0.00    -0.107 NA
ATOM    101  C   UNL A   1      28.942  29.369  22.784  1.00  0.00     0.248 A 
BRANCH 101 102
ATOM    102  C   UNL A   1      28.620  30.654  22.185  1.00  0.00     0.039 A 
ATOM    103  C   UNL A   1      28.756  31.826  22.945  1.00  0.00     0.014 A 
ATOM    104  C   UNL A   1      28.127  30.753  20.876  1.00  0.00     0.014 A 
ATOM    105  C   UNL A   1      28.401  33.066  22.412  1.00  0.00     0.001 A 
ATOM    106  C   UNL A   1      27.766  31.996  20.347  1.00  0.00     0.001 A 
ATOM    107  C   UNL A   1      27.906  33.152  21.115  1.00  0.00     0.000 A 
ENDBRANCH 101 102
ENDBRANCH  95  97
ENDBRANCH  89  91
ENDBRANCH  83  87
ENDBRANCH  78  81
ENDBRANCH  76  77
ENDBRANCH   1  76
TORSDOF 18
ENDMDL
MODEL 2
REMARK VINA RESULT:     -12.7      6.047      8.202
REMARK SMILES O=C(NCCCCNC(=O)[C@@H]1CCCC[C@H]1C(=O)Nc1cccc(-c2nnc(-c3ccccc3)o2)c1)c1ccc(-c2c3nc(c(-c4c(F)cc(S(=O)(=O)[O-])cc4F)c4ccc([nH]4)c(-c4c(F)cc(S(=O)(=O)[O-])cc4F)c4nc(c(-c5c(F)cc(S(=O)(=O)[O-])cc5F)c5ccc2[nH]5)C=C4)C=C3)cc1
REMARK SMILES IDX 6 1 5 2 4 3 3 4 1 5 2 6 37 8 38 9 102 10 39 11 101 12 40 13
REMARK SMILES IDX 41 14 42 15 95 16 43 17 100 18 94 19 96 20 44 21 99 22 93 23
REMARK SMILES IDX 92 24 45 26 79 27 58 28 78 29 59 30 62 31 77 32 97 33 60 34
REMARK SMILES IDX 61 35 76 37 98 38 63 39 46 40 47 41 56 42 48 43 49 44 55 45
REMARK SMILES IDX 57 46 50 47 51 48 52 49 53 50 54 51 80 52 81 53 90 54 82 55
REMARK SMILES IDX 83 56 89 57 91 58 84 59 85 60 86 61 87 62 88 63 64 64 65 65
REMARK SMILES IDX 74 66 66 67 67 68 73 69 75 70 68 71 69 72 70 73 71 74 72 75
REMARK SMILES IDX 7 76 8 77 9 78 10 80 11 81 12 82 16 83 13 84 15 85 14 86
REMARK SMILES IDX 17 87 18 88 19 89 20 91 21 92 36 93 22 94 24 95 23 96 25 97
REMARK SMILES IDX 26 98 35 99 27 100 28 101 29 102 30 103 34 104 31 105 33 106
REMARK SMILES IDX 32 107
REMARK H PARENT 3 7 96 25 62 36 8 79 19 90
REMARK Flexibility Score: inf
ROOT
ATOM      1  C   UNL A   1      37.795  22.299  25.048  1.00  0.00     0.023 C 
ENDROOT
BRANCH   1   2
ATOM      2  C   UNL A   1      37.787  23.680  25.699  1.00  0.00     0.023 C 
BRANCH   2   3
ATOM      3  C   UNL A   1      38.857  23.884  26.760  1.00  0.00     0.116 C 
BRANCH   3   4
ATOM      4  N   UNL A   1      40.198  24.010  26.208  1.00  0.00    -0.352 N 
ATOM      5  O   UNL A   1      42.216  24.961  25.873  1.00  0.00    -0.269 OA
ATOM      6  C   UNL A   1      41.147  24.968  26.477  1.00  0.00     0.251 C 
ATOM      7  H   UNL A   1      40.460  23.318  25.558  1.00  0.00     0.163 HD
BRANCH   6   8
ATOM      8  C   UNL A   1      40.846  26.033  27.455  1.00  0.00     0.039 A 
ATOM      9  C   UNL A   1      41.541  27.244  27.438  1.00  0.00     0.014 A 
ATOM     10  C   UNL A   1      39.897  25.777  28.448  1.00  0.00     0.014 A 
ATOM     11  C   UNL A   1      41.423  28.118  28.512  1.00  0.00     0.010 A 
ATOM     12  C   UNL A   1      39.719  26.695  29.482  1.00  0.00     0.010 A 
ATOM     13  C   UNL A   1      40.523  27.843  29.552  1.00  0.00    -0.014 A 
BRANCH  13  14
ATOM     14  C   UNL A   1      40.449  28.749  30.725  1.00  0.00     0.031 A 
ATOM     15  C   UNL A   1      39.404  29.831  30.784  1.00  0.00     0.074 A 
ATOM     16  C   UNL A   1      41.311  28.579  31.743  1.00  0.00     0.049 A 
ATOM     17  N   UNL A   1      39.214  30.746  31.699  1.00  0.00    -0.248 NA
ATOM     18  C   UNL A   1      38.453  29.899  29.663  1.00  0.00     0.031 C 
ATOM     19  C   UNL A   1      42.355  27.554  31.801  1.00  0.00     0.029 A 
ATOM     20  N   UNL A   1      41.441  29.255  32.928  1.00  0.00    -0.354 N 
ATOM     21  C   UNL A   1      38.152  31.523  31.247  1.00  0.00     0.074 A 
ATOM     22  C   UNL A   1      37.745  30.978  29.969  1.00  0.00     0.031 C 
ATOM     23  C   UNL A   1      42.994  27.645  32.976  1.00  0.00     0.029 A 
ATOM     24  C   UNL A   1      42.447  28.769  33.728  1.00  0.00     0.049 A 
ATOM     25  H   UNL A   1      40.869  30.015  33.182  1.00  0.00     0.167 HD
ATOM     26  C   UNL A   1      37.569  32.591  31.845  1.00  0.00     0.037 A 
ATOM     27  C   UNL A   1      42.890  29.193  34.926  1.00  0.00     0.037 A 
ATOM     28  C   UNL A   1      37.962  33.103  33.133  1.00  0.00     0.049 A 
ATOM     29  C   UNL A   1      42.231  30.378  35.569  1.00  0.00     0.074 A 
ATOM     30  C   UNL A   1      37.418  34.159  33.844  1.00  0.00     0.029 A 
ATOM     31  N   UNL A   1      38.994  32.593  33.906  1.00  0.00    -0.354 N 
ATOM     32  N   UNL A   1      41.231  31.103  35.127  1.00  0.00    -0.248 NA
ATOM     33  C   UNL A   1      42.762  30.805  36.869  1.00  0.00     0.031 C 
ATOM     34  C   UNL A   1      38.144  34.306  35.032  1.00  0.00     0.029 A 
ATOM     35  C   UNL A   1      39.114  33.318  35.079  1.00  0.00     0.049 A 
ATOM     36  H   UNL A   1      39.560  31.826  33.656  1.00  0.00     0.167 HD
ATOM     37  C   UNL A   1      41.000  32.064  36.103  1.00  0.00     0.074 A 
ATOM     38  C   UNL A   1      41.960  31.820  37.162  1.00  0.00     0.031 C 
ATOM     39  C   UNL A   1      40.077  33.057  36.121  1.00  0.00     0.037 A 
BRANCH  26  40
ATOM     40  C   UNL A   1      36.471  33.291  31.094  1.00  0.00     0.058 A 
ATOM     41  C   UNL A   1      36.730  34.083  29.964  1.00  0.00     0.135 A 
ATOM     42  C   UNL A   1      35.135  33.169  31.513  1.00  0.00     0.135 A 
ATOM     43  F   UNL A   1      37.988  34.249  29.529  1.00  0.00    -0.206 F 
ATOM     44  C   UNL A   1      35.710  34.761  29.301  1.00  0.00     0.059 A 
ATOM     45  C   UNL A   1      34.097  33.817  30.851  1.00  0.00     0.059 A 
ATOM     46  F   UNL A   1      34.831  32.422  32.586  1.00  0.00    -0.206 F 
ATOM     47  C   UNL A   1      34.398  34.628  29.759  1.00  0.00     0.060 A 
BRANCH  47  48
ATOM     48  S   UNL A   1      33.086  35.536  28.912  1.00  0.00     0.124 S 
ATOM     49  O   UNL A   1      32.316  36.051  30.041  1.00  0.00    -0.237 OA
ATOM     50  O   UNL A   1      33.832  36.532  28.149  1.00  0.00    -0.237 OA
ATOM     51  O   UNL A   1      32.422  34.510  28.115  1.00  0.00    -0.744 OA
ENDBRANCH  47  48
ENDBRANCH  26  40
BRANCH  27  52
ATOM     52  C   UNL A   1      44.006  28.471  35.585  1.00  0.00     0.058 A 
ATOM     53  C   UNL A   1      45.336  28.856  35.370  1.00  0.00     0.135 A 
ATOM     54  C   UNL A   1      43.763  27.430  36.496  1.00  0.00     0.135 A 
ATOM     55  F   UNL A   1      45.617  29.842  34.505  1.00  0.00    -0.206 F 
ATOM     56  C   UNL A   1      46.389  28.240  36.039  1.00  0.00     0.059 A 
ATOM     57  C   UNL A   1      44.796  26.814  37.194  1.00  0.00     0.059 A 
ATOM     58  F   UNL A   1      42.504  27.040  36.749  1.00  0.00    -0.206 F 
ATOM     59  C   UNL A   1      46.107  27.227  36.957  1.00  0.00     0.060 A 
BRANCH  59  60
ATOM     60  S   UNL A   1      47.471  26.501  37.893  1.00  0.00     0.124 S 
ATOM     61  O   UNL A   1      47.467  25.128  37.401  1.00  0.00    -0.237 OA
ATOM     62  O   UNL A   1      48.602  27.325  37.480  1.00  0.00    -0.237 OA
ATOM     63  O   UNL A   1      47.053  26.677  39.280  1.00  0.00    -0.744 OA
ENDBRANCH  59  60
ENDBRANCH  27  52
BRANCH  39  64
ATOM     64  C   UNL A   1      40.043  33.932  37.340  1.00  0.00     0.058 A 
ATOM     65  C   UNL A   1      40.797  35.112  37.418  1.00  0.00     0.135 A 
ATOM     66  C   UNL A   1      39.223  33.599  38.430  1.00  0.00     0.135 A 
ATOM     67  F   UNL A   1      41.602  35.469  36.405  1.00  0.00    -0.206 F 
ATOM     68  C   UNL A   1      40.757  35.922  38.548  1.00  0.00     0.059 A 
ATOM     69  C   UNL A   1      39.153  34.405  39.560  1.00  0.00     0.059 A 
ATOM     70  F   UNL A   1      38.477  32.483  38.398  1.00  0.00    -0.206 F 
ATOM     71  C   UNL A   1      39.933  35.559  39.616  1.00  0.00     0.060 A 
BRANCH  71  72
ATOM     72  S   UNL A   1      39.873  36.626  41.070  1.00  0.00     0.124 S 
ATOM     73  O   UNL A   1      41.201  37.228  41.047  1.00  0.00    -0.237 OA
ATOM     74  O   UNL A   1      38.764  37.522  40.758  1.00  0.00    -0.237 OA
ATOM     75  O   UNL A   1      39.625  35.690  42.164  1.00  0.00    -0.744 OA
ENDBRANCH  71  72
ENDBRANCH  39  64
ENDBRANCH  13  14
ENDBRANCH   6   8
ENDBRANCH   3   4
ENDBRANCH   2   3
ENDBRANCH   1   2
BRANCH   1  76
ATOM     76  C   UNL A   1      36.671  22.052  24.037  1.00  0.00     0.116 C 
BRANCH  76  77
ATOM     77  N   UNL A   1      35.942  23.273  23.765  1.00  0.00    -0.356 N 
ATOM     78  C   UNL A   1      34.640  23.593  24.004  1.00  0.00     0.223 C 
ATOM     79  H   UNL A   1      36.471  23.986  23.338  1.00  0.00     0.163 HD
ATOM     80  O   UNL A   1      34.227  24.649  23.526  1.00  0.00    -0.275 OA
BRANCH  78  81
ATOM     81  C   UNL A   1      33.757  22.691  24.876  1.00  0.00     0.091 C 
ATOM     82  C   UNL A   1      34.526  22.072  26.055  1.00  0.00     0.014 C 
ATOM     83  C   UNL A   1      33.085  21.594  24.016  1.00  0.00     0.091 C 
ATOM     84  C   UNL A   1      33.669  21.113  26.870  1.00  0.00     0.001 C 
ATOM     85  C   UNL A   1      32.315  20.552  24.847  1.00  0.00     0.014 C 
ATOM     86  C   UNL A   1      33.141  19.991  25.998  1.00  0.00     0.001 C 
BRANCH  83  87
ATOM     87  C   UNL A   1      32.236  22.037  22.803  1.00  0.00     0.228 C 
ATOM     88  O   UNL A   1      32.278  21.371  21.760  1.00  0.00    -0.274 OA
ATOM     89  N   UNL A   1      31.268  23.005  22.842  1.00  0.00    -0.326 N 
ATOM     90  H   UNL A   1      30.774  23.129  22.000  1.00  0.00     0.169 HD
BRANCH  89  91
ATOM     91  C   UNL A   1      30.868  23.844  23.882  1.00  0.00     0.041 A 
ATOM     92  C   UNL A   1      30.679  23.292  25.150  1.00  0.00     0.026 A 
ATOM     93  C   UNL A   1      30.666  25.206  23.684  1.00  0.00     0.040 A 
ATOM     94  C   UNL A   1      30.458  24.128  26.243  1.00  0.00     0.003 A 
ATOM     95  C   UNL A   1      30.521  26.063  24.781  1.00  0.00     0.041 A 
ATOM     96  C   UNL A   1      30.424  25.513  26.065  1.00  0.00     0.014 A 
BRANCH  95  97
ATOM     97  C   UNL A   1      30.655  27.496  24.604  1.00  0.00     0.248 A 
ATOM     98  N   UNL A   1      31.623  28.285  25.022  1.00  0.00    -0.107 NA
ATOM     99  O   UNL A   1      29.737  28.141  23.818  1.00  0.00    -0.416 OA
ATOM    100  N   UNL A   1      31.374  29.524  24.477  1.00  0.00    -0.107 NA
ATOM    101  C   UNL A   1      30.245  29.419  23.806  1.00  0.00     0.248 A 
BRANCH 101 102
ATOM    102  C   UNL A   1      29.523  30.432  23.052  1.00  0.00     0.039 A 
ATOM    103  C   UNL A   1      29.160  31.634  23.678  1.00  0.00     0.014 A 
ATOM    104  C   UNL A   1      29.134  30.220  21.722  1.00  0.00     0.014 A 
ATOM    105  C   UNL A   1      28.419  32.598  22.994  1.00  0.00     0.001 A 
ATOM    106  C   UNL A   1      28.386  31.186  21.041  1.00  0.00     0.001 A 
ATOM    107  C   UNL A   1      28.032  32.375  21.676  1.00  0.00     0.000 A 
ENDBRANCH 101 102
ENDBRANCH  95  97
ENDBRANCH  89  91
ENDBRANCH  83  87
ENDBRANCH  78  81
ENDBRANCH  76  77
ENDBRANCH   1  76
TORSDOF 18
ENDMDL
MODEL 3
REMARK VINA RESULT:     -12.7      6.026     10.707
REMARK SMILES O=C(NCCCCNC(=O)[C@@H]1CCCC[C@H]1C(=O)Nc1cccc(-c2nnc(-c3ccccc3)o2)c1)c1ccc(-c2c3nc(c(-c4c(F)cc(S(=O)(=O)[O-])cc4F)c4ccc([nH]4)c(-c4c(F)cc(S(=O)(=O)[O-])cc4F)c4nc(c(-c5c(F)cc(S(=O)(=O)[O-])cc5F)c5ccc2[nH]5)C=C4)C=C3)cc1
REMARK SMILES IDX 6 1 5 2 4 3 3 4 1 5 2 6 37 8 38 9 102 10 39 11 101 12 40 13
REMARK SMILES IDX 41 14 42 15 95 16 43 17 100 18 94 19 96 20 44 21 99 22 93 23
REMARK SMILES IDX 92 24 45 26 79 27 58 28 78 29 59 30 62 31 77 32 97 33 60 34
REMARK SMILES IDX 61 35 76 37 98 38 63 39 46 40 47 41 56 42 48 43 49 44 55 45
REMARK SMILES IDX 57 46 50 47 51 48 52 49 53 50 54 51 80 52 81 53 90 54 82 55
REMARK SMILES IDX 83 56 89 57 91 58 84 59 85 60 86 61 87 62 88 63 64 64 65 65
REMARK SMILES IDX 74 66 66 67 67 68 73 69 75 70 68 71 69 72 70 73 71 74 72 75
REMARK SMILES IDX 7 76 8 77 9 78 10 80 11 81 12 82 16 83 13 84 15 85 14 86
REMARK SMILES IDX 17 87 18 88 19 89 20 91 21 92 36 93 22 94 24 95 23 96 25 97
REMARK SMILES IDX 26 98 35 99 27 100 28 101 29 102 30 103 34 104 31 105 33 106
REMARK SMILES IDX 32 107
REMARK H PARENT 3 7 96 25 62 36 8 79 19 90
REMARK Flexibility Score: inf
ROOT
ATOM      1  C   UNL A   1      39.046  22.101  26.133  1.00  0.00     0.023 C 
ENDROOT
BRANCH   1   2
ATOM      2  C   UNL A   1      39.507  23.430  26.729  1.00  0.00     0.023 C 
BRANCH   2   3
ATOM      3  C   UNL A   1      40.992  23.497  27.050  1.00  0.00     0.116 C 
BRANCH   3   4
ATOM      4  N   UNL A   1      41.776  24.148  26.010  1.00  0.00    -0.352 N 
ATOM      5  O   UNL A   1      42.717  25.874  24.904  1.00  0.00    -0.269 OA
ATOM      6  C   UNL A   1      42.090  25.480  25.883  1.00  0.00     0.251 C 
ATOM      7  H   UNL A   1      42.129  23.556  25.307  1.00  0.00     0.163 HD
BRANCH   6   8
ATOM      8  C   UNL A   1      41.620  26.437  26.906  1.00  0.00     0.039 A 
ATOM      9  C   UNL A   1      42.028  27.772  26.885  1.00  0.00     0.014 A 
ATOM     10  C   UNL A   1      40.810  25.962  27.940  1.00  0.00     0.014 A 
ATOM     11  C   UNL A   1      41.784  28.582  27.988  1.00  0.00     0.010 A 
ATOM     12  C   UNL A   1      40.494  26.802  29.008  1.00  0.00     0.010 A 
ATOM     13  C   UNL A   1      41.028  28.099  29.067  1.00  0.00    -0.014 A 
BRANCH  13  14
ATOM     14  C   UNL A   1      40.825  28.948  30.266  1.00  0.00     0.031 A 
ATOM     15  C   UNL A   1      41.727  28.800  31.463  1.00  0.00     0.074 A 
ATOM     16  C   UNL A   1      39.842  29.866  30.264  1.00  0.00     0.049 A 
ATOM     17  N   UNL A   1      41.676  29.415  32.616  1.00  0.00    -0.248 NA
ATOM     18  C   UNL A   1      42.824  27.825  31.352  1.00  0.00     0.031 C 
ATOM     19  C   UNL A   1      38.918  30.108  29.154  1.00  0.00     0.029 A 
ATOM     20  N   UNL A   1      39.462  30.773  31.219  1.00  0.00    -0.354 N 
ATOM     21  C   UNL A   1      42.704  28.876  33.382  1.00  0.00     0.074 A 
ATOM     22  C   UNL A   1      43.356  27.874  32.565  1.00  0.00     0.031 C 
ATOM     23  C   UNL A   1      38.102  31.122  29.477  1.00  0.00     0.029 A 
ATOM     24  C   UNL A   1      38.404  31.561  30.835  1.00  0.00     0.049 A 
ATOM     25  H   UNL A   1      39.904  30.851  32.095  1.00  0.00     0.167 HD
ATOM     26  C   UNL A   1      43.071  29.190  34.649  1.00  0.00     0.037 A 
ATOM     27  C   UNL A   1      37.742  32.519  31.508  1.00  0.00     0.037 A 
ATOM     28  C   UNL A   1      42.434  30.213  35.439  1.00  0.00     0.049 A 
ATOM     29  C   UNL A   1      38.164  32.850  32.909  1.00  0.00     0.074 A 
ATOM     30  C   UNL A   1      42.747  30.633  36.720  1.00  0.00     0.029 A 
ATOM     31  N   UNL A   1      41.358  30.980  35.019  1.00  0.00    -0.354 N 
ATOM     32  N   UNL A   1      39.135  32.328  33.620  1.00  0.00    -0.248 NA
ATOM     33  C   UNL A   1      37.399  33.894  33.602  1.00  0.00     0.031 C 
ATOM     34  C   UNL A   1      41.837  31.633  37.086  1.00  0.00     0.029 A 
ATOM     35  C   UNL A   1      40.984  31.863  36.019  1.00  0.00     0.049 A 
ATOM     36  H   UNL A   1      40.923  30.909  34.138  1.00  0.00     0.167 HD
ATOM     37  C   UNL A   1      39.111  32.993  34.839  1.00  0.00     0.074 A 
ATOM     38  C   UNL A   1      38.033  33.959  34.765  1.00  0.00     0.031 C 
ATOM     39  C   UNL A   1      39.908  32.818  35.922  1.00  0.00     0.037 A 
BRANCH  26  40
ATOM     40  C   UNL A   1      44.189  28.394  35.264  1.00  0.00     0.058 A 
ATOM     41  C   UNL A   1      43.950  27.222  35.999  1.00  0.00     0.135 A 
ATOM     42  C   UNL A   1      45.522  28.812  35.115  1.00  0.00     0.135 A 
ATOM     43  F   UNL A   1      42.695  26.786  36.186  1.00  0.00    -0.206 F 
ATOM     44  C   UNL A   1      44.989  26.516  36.599  1.00  0.00     0.059 A 
ATOM     45  C   UNL A   1      46.578  28.108  35.686  1.00  0.00     0.059 A 
ATOM     46  F   UNL A   1      45.807  29.925  34.421  1.00  0.00    -0.206 F 
ATOM     47  C   UNL A   1      46.299  26.973  36.444  1.00  0.00     0.060 A 
BRANCH  47  48
ATOM     48  S   UNL A   1      47.637  26.068  37.253  1.00  0.00     0.124 S 
ATOM     49  O   UNL A   1      47.716  26.757  38.538  1.00  0.00    -0.237 OA
ATOM     50  O   UNL A   1      47.116  24.706  37.297  1.00  0.00    -0.237 OA
ATOM     51  O   UNL A   1      48.773  26.272  36.360  1.00  0.00    -0.744 OA
ENDBRANCH  47  48
ENDBRANCH  26  40
BRANCH  27  52
ATOM     52  C   UNL A   1      36.623  33.233  30.844  1.00  0.00     0.058 A 
ATOM     53  C   UNL A   1      35.299  33.039  31.262  1.00  0.00     0.135 A 
ATOM     54  C   UNL A   1      36.860  34.174  29.828  1.00  0.00     0.135 A 
ATOM     55  F   UNL A   1      35.025  32.147  32.226  1.00  0.00    -0.206 F 
ATOM     56  C   UNL A   1      34.247  33.757  30.702  1.00  0.00     0.059 A 
ATOM     57  C   UNL A   1      35.828  34.920  29.269  1.00  0.00     0.059 A 
ATOM     58  F   UNL A   1      38.113  34.407  29.409  1.00  0.00    -0.206 F 
ATOM     59  C   UNL A   1      34.524  34.702  29.713  1.00  0.00     0.060 A 
BRANCH  59  60
ATOM     60  S   UNL A   1      33.165  35.699  29.063  1.00  0.00     0.124 S 
ATOM     61  O   UNL A   1      32.543  36.183  30.290  1.00  0.00    -0.237 OA
ATOM     62  O   UNL A   1      33.870  36.699  28.266  1.00  0.00    -0.237 OA
ATOM     63  O   UNL A   1      32.384  34.736  28.293  1.00  0.00    -0.744 OA
ENDBRANCH  59  60
ENDBRANCH  27  52
BRANCH  39  64
ATOM     64  C   UNL A   1      39.662  33.716  37.100  1.00  0.00     0.058 A 
ATOM     65  C   UNL A   1      38.768  33.360  38.120  1.00  0.00     0.135 A 
ATOM     66  C   UNL A   1      40.352  34.932  37.221  1.00  0.00     0.135 A 
ATOM     67  F   UNL A   1      38.078  32.211  38.046  1.00  0.00    -0.206 F 
ATOM     68  C   UNL A   1      38.548  34.194  39.212  1.00  0.00     0.059 A 
ATOM     69  C   UNL A   1      40.163  35.770  38.314  1.00  0.00     0.059 A 
ATOM     70  F   UNL A   1      41.224  35.312  36.273  1.00  0.00    -0.206 F 
ATOM     71  C   UNL A   1      39.249  35.399  39.299  1.00  0.00     0.060 A 
BRANCH  71  72
ATOM     72  S   UNL A   1      38.972  36.465  40.729  1.00  0.00     0.124 S 
ATOM     73  O   UNL A   1      40.309  36.532  41.307  1.00  0.00    -0.237 OA
ATOM     74  O   UNL A   1      38.483  37.696  40.115  1.00  0.00    -0.237 OA
ATOM     75  O   UNL A   1      37.984  35.728  41.512  1.00  0.00    -0.744 OA
ENDBRANCH  71  72
ENDBRANCH  39  64
ENDBRANCH  13  14
ENDBRANCH   6   8
ENDBRANCH   3   4
ENDBRANCH   2   3
ENDBRANCH   1   2
BRANCH   1  76
ATOM     76  C   UNL A   1      37.569  22.048  25.733  1.00  0.00     0.116 C 
BRANCH  76  77
ATOM     77  N   UNL A   1      36.877  23.252  26.142  1.00  0.00    -0.356 N 
ATOM     78  C   UNL A   1      35.563  23.593  26.032  1.00  0.00     0.223 C 
ATOM     79  H   UNL A   1      37.447  23.934  26.567  1.00  0.00     0.163 HD
ATOM     80  O   UNL A   1      35.262  24.752  26.315  1.00  0.00    -0.275 OA
BRANCH  78  81
ATOM     81  C   UNL A   1      34.514  22.553  25.620  1.00  0.00     0.091 C 
ATOM     82  C   UNL A   1      34.288  21.482  26.699  1.00  0.00     0.014 C 
ATOM     83  C   UNL A   1      34.893  21.905  24.268  1.00  0.00     0.091 C 
ATOM     84  C   UNL A   1      33.307  20.406  26.255  1.00  0.00     0.001 C 
ATOM     85  C   UNL A   1      33.974  20.736  23.871  1.00  0.00     0.014 C 
ATOM     86  C   UNL A   1      33.796  19.721  24.994  1.00  0.00     0.001 C 
BRANCH  83  87
ATOM     87  C   UNL A   1      35.122  22.833  23.053  1.00  0.00     0.228 C 
ATOM     88  O   UNL A   1      36.088  22.624  22.306  1.00  0.00    -0.274 OA
ATOM     89  N   UNL A   1      34.224  23.764  22.604  1.00  0.00    -0.326 N 
ATOM     90  H   UNL A   1      34.494  24.235  21.783  1.00  0.00     0.169 HD
BRANCH  89  91
ATOM     91  C   UNL A   1      32.989  24.155  23.122  1.00  0.00     0.041 A 
ATOM     92  C   UNL A   1      31.882  23.337  22.894  1.00  0.00     0.026 A 
ATOM     93  C   UNL A   1      32.845  25.324  23.861  1.00  0.00     0.040 A 
ATOM     94  C   UNL A   1      30.679  23.603  23.547  1.00  0.00     0.003 A 
ATOM     95  C   UNL A   1      31.670  25.561  24.583  1.00  0.00     0.041 A 
ATOM     96  C   UNL A   1      30.587  24.686  24.424  1.00  0.00     0.014 A 
BRANCH  95  97
ATOM     97  C   UNL A   1      31.643  26.583  25.611  1.00  0.00     0.248 A 
ATOM     98  N   UNL A   1      30.832  26.684  26.643  1.00  0.00    -0.107 NA
ATOM     99  O   UNL A   1      32.635  27.528  25.611  1.00  0.00    -0.416 OA
ATOM    100  N   UNL A   1      31.302  27.730  27.403  1.00  0.00    -0.107 NA
ATOM    101  C   UNL A   1      32.338  28.228  26.757  1.00  0.00     0.248 A 
BRANCH 101 102
ATOM    102  C   UNL A   1      33.194  29.349  27.112  1.00  0.00     0.039 A 
ATOM    103  C   UNL A   1      34.553  29.124  27.378  1.00  0.00     0.014 A 
ATOM    104  C   UNL A   1      32.686  30.649  27.247  1.00  0.00     0.014 A 
ATOM    105  C   UNL A   1      35.384  30.172  27.775  1.00  0.00     0.001 A 
ATOM    106  C   UNL A   1      33.521  31.696  27.651  1.00  0.00     0.001 A 
ATOM    107  C   UNL A   1      34.869  31.457  27.912  1.00  0.00     0.000 A 
ENDBRANCH 101 102
ENDBRANCH  95  97
ENDBRANCH  89  91
ENDBRANCH  83  87
ENDBRANCH  78  81
ENDBRANCH  76  77
ENDBRANCH   1  76
TORSDOF 18
ENDMDL
