MODEL 1
REMARK VINA RESULT:     -11.2      0.000      0.000
REMARK SMILES COc1ccc(N2CC[C@H](C(=O)NCCCCNC(=O)c3ccc(-c4c5nc(c(-c6c(F)cc(S(=O)(=O)[O-])cc6F)c6ccc([nH]6)c(-c6c(F)cc(S(=O)(=O)[O-])cc6F)c6nc(c(-c7c(F)cc(S(=O)(=O)[O-])cc7F)c7ccc4[nH]7)C=C6)C=C5)cc3)C2=O)cc1
REMARK SMILES IDX 16 1 15 2 14 3 13 4 11 5 12 6 10 8 7 9 8 10 87 11 9 12 88 13
REMARK SMILES IDX 6 14 3 15 4 16 90 17 5 18 89 19 2 20 1 21 17 22 18 23 19 24
REMARK SMILES IDX 20 26 21 27 22 28 86 29 23 30 85 31 24 32 25 33 26 34 79 35
REMARK SMILES IDX 27 36 84 37 78 38 80 39 28 40 83 41 77 42 76 43 29 45 63 46
REMARK SMILES IDX 42 47 62 48 43 49 46 50 61 51 81 52 44 53 45 54 60 56 82 57
REMARK SMILES IDX 47 58 30 59 31 60 40 61 32 62 33 63 39 64 41 65 34 66 35 67
REMARK SMILES IDX 36 68 37 69 38 70 64 71 65 72 74 73 66 74 67 75 73 76 75 77
REMARK SMILES IDX 68 78 69 79 70 80 71 81 72 82 48 83 49 84 58 85 50 86 51 87
REMARK SMILES IDX 57 88 59 89 52 90 53 91 54 92 55 93 56 94
REMARK H PARENT 13 7 18 25 80 44 46 55
REMARK Flexibility Score: inf
ROOT
ATOM      1  C   UNL A   1      34.189  28.408  25.412  1.00  0.00     0.023 C 
ENDROOT
BRANCH   1   2
ATOM      2  C   UNL A   1      33.127  28.864  24.409  1.00  0.00     0.023 C 
BRANCH   2   3
ATOM      3  C   UNL A   1      33.445  28.551  22.943  1.00  0.00     0.116 C 
BRANCH   3   4
ATOM      4  N   UNL A   1      32.478  27.623  22.394  1.00  0.00    -0.355 N 
ATOM      5  C   UNL A   1      32.401  26.271  22.470  1.00  0.00     0.232 C 
ATOM      6  O   UNL A   1      31.500  25.758  21.793  1.00  0.00    -0.274 OA
ATOM      7  H   UNL A   1      31.755  28.046  21.878  1.00  0.00     0.163 HD
BRANCH   5   8
ATOM      8  C   UNL A   1      33.223  25.424  23.432  1.00  0.00     0.169 C 
ATOM      9  N   UNL A   1      33.224  23.166  24.166  1.00  0.00    -0.312 N 
ATOM     10  C   UNL A   1      32.825  23.927  25.315  1.00  0.00     0.127 C 
ATOM     11  C   UNL A   1      33.534  23.987  23.081  1.00  0.00     0.239 C 
ATOM     12  C   UNL A   1      32.451  25.279  24.759  1.00  0.00     0.045 C 
ATOM     13  O   UNL A   1      34.045  23.608  22.035  1.00  0.00    -0.274 OA
BRANCH   9  14
ATOM     14  C   UNL A   1      33.447  21.768  24.216  1.00  0.00     0.044 A 
ATOM     15  C   UNL A   1      33.865  18.983  24.363  1.00  0.00     0.119 A 
ATOM     16  C   UNL A   1      34.810  19.869  24.877  1.00  0.00     0.048 A 
ATOM     17  C   UNL A   1      32.698  19.484  23.795  1.00  0.00     0.048 A 
ATOM     18  C   UNL A   1      34.618  21.252  24.779  1.00  0.00     0.030 A 
ATOM     19  C   UNL A   1      32.490  20.866  23.733  1.00  0.00     0.030 A 
BRANCH  15  20
ATOM     20  O   UNL A   1      34.144  17.653  24.512  1.00  0.00    -0.497 OA
ATOM     21  C   UNL A   1      33.169  16.784  23.943  1.00  0.00     0.278 C 
ENDBRANCH  15  20
ENDBRANCH   9  14
ENDBRANCH   5   8
ENDBRANCH   3   4
ENDBRANCH   2   3
ENDBRANCH   1   2
BRANCH   1  22
ATOM     22  C   UNL A   1      33.759  28.447  26.871  1.00  0.00     0.116 C 
BRANCH  22  23
ATOM     23  N   UNL A   1      33.584  29.797  27.385  1.00  0.00    -0.352 N 
ATOM     24  C   UNL A   1      34.485  30.577  28.068  1.00  0.00     0.251 C 
ATOM     25  H   UNL A   1      32.703  30.206  27.222  1.00  0.00     0.163 HD
ATOM     26  O   UNL A   1      34.142  31.663  28.524  1.00  0.00    -0.269 OA
BRANCH  24  27
ATOM     27  C   UNL A   1      35.860  30.076  28.286  1.00  0.00     0.039 A 
ATOM     28  C   UNL A   1      36.783  30.171  27.241  1.00  0.00     0.014 A 
ATOM     29  C   UNL A   1      36.243  29.546  29.521  1.00  0.00     0.014 A 
ATOM     30  C   UNL A   1      38.109  29.789  27.456  1.00  0.00     0.010 A 
ATOM     31  C   UNL A   1      37.579  29.236  29.754  1.00  0.00     0.010 A 
ATOM     32  C   UNL A   1      38.524  29.350  28.724  1.00  0.00    -0.014 A 
BRANCH  32  33
ATOM     33  C   UNL A   1      39.939  28.988  28.988  1.00  0.00     0.031 A 
ATOM     34  C   UNL A   1      40.871  30.004  29.590  1.00  0.00     0.074 A 
ATOM     35  C   UNL A   1      40.397  27.773  28.632  1.00  0.00     0.049 A 
ATOM     36  N   UNL A   1      42.153  29.907  29.834  1.00  0.00    -0.248 NA
ATOM     37  C   UNL A   1      40.290  31.312  29.935  1.00  0.00     0.031 C 
ATOM     38  C   UNL A   1      39.600  26.720  27.998  1.00  0.00     0.029 A 
ATOM     39  N   UNL A   1      41.646  27.219  28.749  1.00  0.00    -0.354 N 
ATOM     40  C   UNL A   1      42.534  31.142  30.345  1.00  0.00     0.074 A 
ATOM     41  C   UNL A   1      41.361  31.988  30.324  1.00  0.00     0.031 C 
ATOM     42  C   UNL A   1      40.374  25.638  27.807  1.00  0.00     0.029 A 
ATOM     43  C   UNL A   1      41.725  25.930  28.276  1.00  0.00     0.049 A 
ATOM     44  H   UNL A   1      42.414  27.699  29.134  1.00  0.00     0.167 HD
ATOM     45  C   UNL A   1      43.745  31.529  30.814  1.00  0.00     0.037 A 
ATOM     46  C   UNL A   1      42.769  25.080  28.231  1.00  0.00     0.037 A 
ATOM     47  C   UNL A   1      44.901  30.672  30.860  1.00  0.00     0.049 A 
ATOM     48  C   UNL A   1      44.099  25.525  28.772  1.00  0.00     0.074 A 
ATOM     49  C   UNL A   1      46.163  30.952  31.354  1.00  0.00     0.029 A 
ATOM     50  N   UNL A   1      44.932  29.364  30.399  1.00  0.00    -0.354 N 
ATOM     51  N   UNL A   1      44.432  26.682  29.294  1.00  0.00    -0.248 NA
ATOM     52  C   UNL A   1      45.195  24.546  28.728  1.00  0.00     0.031 C 
ATOM     53  C   UNL A   1      46.965  29.821  31.169  1.00  0.00     0.029 A 
ATOM     54  C   UNL A   1      46.193  28.824  30.592  1.00  0.00     0.049 A 
ATOM     55  H   UNL A   1      44.171  28.889  29.994  1.00  0.00     0.167 HD
ATOM     56  C   UNL A   1      45.766  26.561  29.666  1.00  0.00     0.074 A 
ATOM     57  C   UNL A   1      46.177  25.215  29.316  1.00  0.00     0.031 C 
ATOM     58  C   UNL A   1      46.578  27.479  30.248  1.00  0.00     0.037 A 
BRANCH  45  59
ATOM     59  C   UNL A   1      43.867  32.938  31.321  1.00  0.00     0.058 A 
ATOM     60  C   UNL A   1      43.657  33.251  32.675  1.00  0.00     0.135 A 
ATOM     61  C   UNL A   1      44.192  33.989  30.450  1.00  0.00     0.135 A 
ATOM     62  F   UNL A   1      43.325  32.287  33.547  1.00  0.00    -0.206 F 
ATOM     63  C   UNL A   1      43.725  34.560  33.138  1.00  0.00     0.059 A 
ATOM     64  C   UNL A   1      44.293  35.303  30.897  1.00  0.00     0.059 A 
ATOM     65  F   UNL A   1      44.404  33.746  29.147  1.00  0.00    -0.206 F 
ATOM     66  C   UNL A   1      44.036  35.581  32.239  1.00  0.00     0.060 A 
BRANCH  66  67
ATOM     67  S   UNL A   1      44.098  37.281  32.847  1.00  0.00     0.124 S 
ATOM     68  O   UNL A   1      43.979  38.037  31.605  1.00  0.00    -0.237 OA
ATOM     69  O   UNL A   1      42.942  37.339  33.737  1.00  0.00    -0.237 OA
ATOM     70  O   UNL A   1      45.397  37.356  33.508  1.00  0.00    -0.744 OA
ENDBRANCH  66  67
ENDBRANCH  45  59
BRANCH  46  71
ATOM     71  C   UNL A   1      42.585  23.707  27.695  1.00  0.00     0.058 A 
ATOM     72  C   UNL A   1      42.660  23.463  26.316  1.00  0.00     0.135 A 
ATOM     73  C   UNL A   1      42.349  22.614  28.541  1.00  0.00     0.135 A 
ATOM     74  F   UNL A   1      42.879  24.478  25.466  1.00  0.00    -0.206 F 
ATOM     75  C   UNL A   1      42.493  22.185  25.791  1.00  0.00     0.059 A 
ATOM     76  C   UNL A   1      42.200  21.323  28.043  1.00  0.00     0.059 A 
ATOM     77  F   UNL A   1      42.286  22.793  29.871  1.00  0.00    -0.206 F 
ATOM     78  C   UNL A   1      42.265  21.120  26.664  1.00  0.00     0.060 A 
BRANCH  78  79
ATOM     79  S   UNL A   1      42.099  19.458  25.978  1.00  0.00     0.124 S 
ATOM     80  O   UNL A   1      42.922  19.552  24.779  1.00  0.00    -0.237 OA
ATOM     81  O   UNL A   1      42.631  18.627  27.053  1.00  0.00    -0.237 OA
ATOM     82  O   UNL A   1      40.662  19.331  25.752  1.00  0.00    -0.744 OA
ENDBRANCH  78  79
ENDBRANCH  46  71
BRANCH  58  83
ATOM     83  C   UNL A   1      47.977  27.046  30.579  1.00  0.00     0.058 A 
ATOM     84  C   UNL A   1      49.043  27.257  29.693  1.00  0.00     0.135 A 
ATOM     85  C   UNL A   1      48.260  26.450  31.819  1.00  0.00     0.135 A 
ATOM     86  F   UNL A   1      48.824  27.817  28.492  1.00  0.00    -0.206 F 
ATOM     87  C   UNL A   1      50.341  26.871  30.013  1.00  0.00     0.059 A 
ATOM     88  C   UNL A   1      49.553  26.077  32.170  1.00  0.00     0.059 A 
ATOM     89  F   UNL A   1      47.276  26.236  32.706  1.00  0.00    -0.206 F 
ATOM     90  C   UNL A   1      50.585  26.281  31.254  1.00  0.00     0.060 A 
BRANCH  90  91
ATOM     91  S   UNL A   1      52.277  25.810  31.675  1.00  0.00     0.124 S 
ATOM     92  O   UNL A   1      52.094  24.436  32.131  1.00  0.00    -0.237 OA
ATOM     93  O   UNL A   1      52.973  25.967  30.402  1.00  0.00    -0.237 OA
ATOM     94  O   UNL A   1      52.649  26.771  32.709  1.00  0.00    -0.744 OA
ENDBRANCH  90  91
ENDBRANCH  58  83
ENDBRANCH  32  33
ENDBRANCH  24  27
ENDBRANCH  22  23
ENDBRANCH   1  22
TORSDOF 16
ENDMDL
MODEL 2
REMARK VINA RESULT:     -11.2      3.637      6.762
REMARK SMILES COc1ccc(N2CC[C@H](C(=O)NCCCCNC(=O)c3ccc(-c4c5nc(c(-c6c(F)cc(S(=O)(=O)[O-])cc6F)c6ccc([nH]6)c(-c6c(F)cc(S(=O)(=O)[O-])cc6F)c6nc(c(-c7c(F)cc(S(=O)(=O)[O-])cc7F)c7ccc4[nH]7)C=C6)C=C5)cc3)C2=O)cc1
REMARK SMILES IDX 16 1 15 2 14 3 13 4 11 5 12 6 10 8 7 9 8 10 87 11 9 12 88 13
REMARK SMILES IDX 6 14 3 15 4 16 90 17 5 18 89 19 2 20 1 21 17 22 18 23 19 24
REMARK SMILES IDX 20 26 21 27 22 28 86 29 23 30 85 31 24 32 25 33 26 34 79 35
REMARK SMILES IDX 27 36 84 37 78 38 80 39 28 40 83 41 77 42 76 43 29 45 63 46
REMARK SMILES IDX 42 47 62 48 43 49 46 50 61 51 81 52 44 53 45 54 60 56 82 57
REMARK SMILES IDX 47 58 30 59 31 60 40 61 32 62 33 63 39 64 41 65 34 66 35 67
REMARK SMILES IDX 36 68 37 69 38 70 64 71 65 72 74 73 66 74 67 75 73 76 75 77
REMARK SMILES IDX 68 78 69 79 70 80 71 81 72 82 48 83 49 84 58 85 50 86 51 87
REMARK SMILES IDX 57 88 59 89 52 90 53 91 54 92 55 93 56 94
REMARK H PARENT 13 7 18 25 80 44 46 55
REMARK Flexibility Score: inf
ROOT
ATOM      1  C   UNL A   1      33.711  33.741  28.036  1.00  0.00     0.023 C 
ENDROOT
BRANCH   1   2
ATOM      2  C   UNL A   1      34.021  35.001  28.848  1.00  0.00     0.023 C 
BRANCH   2   3
ATOM      3  C   UNL A   1      33.133  35.211  30.078  1.00  0.00     0.116 C 
BRANCH   3   4
ATOM      4  N   UNL A   1      33.894  35.787  31.168  1.00  0.00    -0.355 N 
ATOM      5  C   UNL A   1      34.728  35.213  32.071  1.00  0.00     0.232 C 
ATOM      6  O   UNL A   1      35.145  35.971  32.956  1.00  0.00    -0.274 OA
ATOM      7  H   UNL A   1      33.787  36.760  31.271  1.00  0.00     0.163 HD
BRANCH   5   8
ATOM      8  C   UNL A   1      35.271  33.796  31.947  1.00  0.00     0.169 C 
ATOM      9  N   UNL A   1      37.078  32.560  32.866  1.00  0.00    -0.312 N 
ATOM     10  C   UNL A   1      37.405  32.714  31.478  1.00  0.00     0.127 C 
ATOM     11  C   UNL A   1      35.828  33.101  33.169  1.00  0.00     0.239 C 
ATOM     12  C   UNL A   1      36.482  33.805  30.993  1.00  0.00     0.045 C 
ATOM     13  O   UNL A   1      35.244  32.970  34.237  1.00  0.00    -0.274 OA
BRANCH   9  14
ATOM     14  C   UNL A   1      37.863  31.785  33.755  1.00  0.00     0.044 A 
ATOM     15  C   UNL A   1      39.464  30.281  35.522  1.00  0.00     0.119 A 
ATOM     16  C   UNL A   1      39.575  30.105  34.144  1.00  0.00     0.048 A 
ATOM     17  C   UNL A   1      38.572  31.224  36.022  1.00  0.00     0.048 A 
ATOM     18  C   UNL A   1      38.760  30.830  33.266  1.00  0.00     0.030 A 
ATOM     19  C   UNL A   1      37.786  31.975  35.141  1.00  0.00     0.030 A 
BRANCH  15  20
ATOM     20  O   UNL A   1      40.307  29.529  36.294  1.00  0.00    -0.497 OA
ATOM     21  C   UNL A   1      41.451  29.038  35.601  1.00  0.00     0.278 C 
ENDBRANCH  15  20
ENDBRANCH   9  14
ENDBRANCH   5   8
ENDBRANCH   3   4
ENDBRANCH   2   3
ENDBRANCH   1   2
BRANCH   1  22
ATOM     22  C   UNL A   1      34.529  32.514  28.411  1.00  0.00     0.116 C 
BRANCH  22  23
ATOM     23  N   UNL A   1      33.874  31.259  28.073  1.00  0.00    -0.352 N 
ATOM     24  C   UNL A   1      34.434  30.012  27.936  1.00  0.00     0.251 C 
ATOM     25  H   UNL A   1      32.903  31.310  27.922  1.00  0.00     0.163 HD
ATOM     26  O   UNL A   1      33.753  29.068  27.544  1.00  0.00    -0.269 OA
BRANCH  24  27
ATOM     27  C   UNL A   1      35.873  29.825  28.223  1.00  0.00     0.039 A 
ATOM     28  C   UNL A   1      36.255  29.420  29.505  1.00  0.00     0.014 A 
ATOM     29  C   UNL A   1      36.834  30.019  27.228  1.00  0.00     0.014 A 
ATOM     30  C   UNL A   1      37.599  29.150  29.770  1.00  0.00     0.010 A 
ATOM     31  C   UNL A   1      38.161  29.679  27.474  1.00  0.00     0.010 A 
ATOM     32  C   UNL A   1      38.557  29.246  28.747  1.00  0.00    -0.014 A 
BRANCH  32  33
ATOM     33  C   UNL A   1      39.982  28.914  28.994  1.00  0.00     0.031 A 
ATOM     34  C   UNL A   1      40.899  29.946  29.590  1.00  0.00     0.074 A 
ATOM     35  C   UNL A   1      40.462  27.710  28.626  1.00  0.00     0.049 A 
ATOM     36  N   UNL A   1      42.185  29.876  29.819  1.00  0.00    -0.248 NA
ATOM     37  C   UNL A   1      40.295  31.239  29.949  1.00  0.00     0.031 C 
ATOM     38  C   UNL A   1      39.681  26.644  27.995  1.00  0.00     0.029 A 
ATOM     39  N   UNL A   1      41.724  27.183  28.725  1.00  0.00    -0.354 N 
ATOM     40  C   UNL A   1      42.546  31.116  30.332  1.00  0.00     0.074 A 
ATOM     41  C   UNL A   1      41.355  31.937  30.329  1.00  0.00     0.031 C 
ATOM     42  C   UNL A   1      40.475  25.580  27.790  1.00  0.00     0.029 A 
ATOM     43  C   UNL A   1      41.825  25.898  28.245  1.00  0.00     0.049 A 
ATOM     44  H   UNL A   1      42.486  27.677  29.105  1.00  0.00     0.167 HD
ATOM     45  C   UNL A   1      43.753  31.526  30.790  1.00  0.00     0.037 A 
ATOM     46  C   UNL A   1      42.887  25.072  28.184  1.00  0.00     0.037 A 
ATOM     47  C   UNL A   1      44.928  30.694  30.818  1.00  0.00     0.049 A 
ATOM     48  C   UNL A   1      44.214  25.542  28.712  1.00  0.00     0.074 A 
ATOM     49  C   UNL A   1      46.189  30.999  31.299  1.00  0.00     0.029 A 
ATOM     50  N   UNL A   1      44.982  29.390  30.350  1.00  0.00    -0.354 N 
ATOM     51  N   UNL A   1      44.528  26.704  29.236  1.00  0.00    -0.248 NA
ATOM     52  C   UNL A   1      45.329  24.587  28.650  1.00  0.00     0.031 C 
ATOM     53  C   UNL A   1      47.013  29.886  31.100  1.00  0.00     0.029 A 
ATOM     54  C   UNL A   1      46.257  28.876  30.526  1.00  0.00     0.049 A 
ATOM     55  H   UNL A   1      44.227  28.900  29.952  1.00  0.00     0.167 HD
ATOM     56  C   UNL A   1      45.868  26.609  29.593  1.00  0.00     0.074 A 
ATOM     57  C   UNL A   1      46.303  25.274  29.230  1.00  0.00     0.031 C 
ATOM     58  C   UNL A   1      46.666  27.541  30.170  1.00  0.00     0.037 A 
BRANCH  45  59
ATOM     59  C   UNL A   1      43.851  32.935  31.303  1.00  0.00     0.058 A 
ATOM     60  C   UNL A   1      43.713  33.229  32.671  1.00  0.00     0.135 A 
ATOM     61  C   UNL A   1      44.080  34.005  30.424  1.00  0.00     0.135 A 
ATOM     62  F   UNL A   1      43.475  32.245  33.552  1.00  0.00    -0.206 F 
ATOM     63  C   UNL A   1      43.758  34.536  33.142  1.00  0.00     0.059 A 
ATOM     64  C   UNL A   1      44.156  35.319  30.878  1.00  0.00     0.059 A 
ATOM     65  F   UNL A   1      44.219  33.781  29.108  1.00  0.00    -0.206 F 
ATOM     66  C   UNL A   1      43.972  35.576  32.236  1.00  0.00     0.060 A 
BRANCH  66  67
ATOM     67  S   UNL A   1      44.005  37.271  32.857  1.00  0.00     0.124 S 
ATOM     68  O   UNL A   1      42.847  37.276  33.746  1.00  0.00    -0.237 OA
ATOM     69  O   UNL A   1      45.307  37.342  33.513  1.00  0.00    -0.237 OA
ATOM     70  O   UNL A   1      43.872  38.077  31.648  1.00  0.00    -0.744 OA
ENDBRANCH  66  67
ENDBRANCH  45  59
BRANCH  46  71
ATOM     71  C   UNL A   1      42.726  23.697  27.642  1.00  0.00     0.058 A 
ATOM     72  C   UNL A   1      42.458  22.619  28.499  1.00  0.00     0.135 A 
ATOM     73  C   UNL A   1      42.817  23.435  26.268  1.00  0.00     0.135 A 
ATOM     74  F   UNL A   1      42.366  22.820  29.822  1.00  0.00    -0.206 F 
ATOM     75  C   UNL A   1      42.301  21.324  28.013  1.00  0.00     0.059 A 
ATOM     76  C   UNL A   1      42.643  22.152  25.755  1.00  0.00     0.059 A 
ATOM     77  F   UNL A   1      43.055  24.437  25.406  1.00  0.00    -0.206 F 
ATOM     78  C   UNL A   1      42.394  21.101  26.639  1.00  0.00     0.060 A 
BRANCH  78  79
ATOM     79  S   UNL A   1      42.139  19.427  26.014  1.00  0.00     0.124 S 
ATOM     80  O   UNL A   1      42.642  18.621  27.119  1.00  0.00    -0.237 OA
ATOM     81  O   UNL A   1      40.695  19.392  25.804  1.00  0.00    -0.237 OA
ATOM     82  O   UNL A   1      42.941  19.400  24.794  1.00  0.00    -0.744 OA
ENDBRANCH  78  79
ENDBRANCH  46  71
BRANCH  58  83
ATOM     83  C   UNL A   1      48.078  27.137  30.483  1.00  0.00     0.058 A 
ATOM     84  C   UNL A   1      49.128  27.371  29.584  1.00  0.00     0.135 A 
ATOM     85  C   UNL A   1      48.389  26.546  31.719  1.00  0.00     0.135 A 
ATOM     86  F   UNL A   1      48.883  27.927  28.387  1.00  0.00    -0.206 F 
ATOM     87  C   UNL A   1      50.438  27.011  29.888  1.00  0.00     0.059 A 
ATOM     88  C   UNL A   1      49.694  26.200  32.053  1.00  0.00     0.059 A 
ATOM     89  F   UNL A   1      47.421  26.312  32.618  1.00  0.00    -0.206 F 
ATOM     90  C   UNL A   1      50.710  26.425  31.125  1.00  0.00     0.060 A 
BRANCH  90  91
ATOM     91  S   UNL A   1      52.416  25.988  31.523  1.00  0.00     0.124 S 
ATOM     92  O   UNL A   1      53.055  26.081  30.215  1.00  0.00    -0.237 OA
ATOM     93  O   UNL A   1      52.789  27.020  32.485  1.00  0.00    -0.237 OA
ATOM     94  O   UNL A   1      52.301  24.640  32.073  1.00  0.00    -0.744 OA
ENDBRANCH  90  91
ENDBRANCH  58  83
ENDBRANCH  32  33
ENDBRANCH  24  27
ENDBRANCH  22  23
ENDBRANCH   1  22
TORSDOF 16
ENDMDL
MODEL 3
REMARK VINA RESULT:     -11.1      3.733      6.474
REMARK SMILES COc1ccc(N2CC[C@H](C(=O)NCCCCNC(=O)c3ccc(-c4c5nc(c(-c6c(F)cc(S(=O)(=O)[O-])cc6F)c6ccc([nH]6)c(-c6c(F)cc(S(=O)(=O)[O-])cc6F)c6nc(c(-c7c(F)cc(S(=O)(=O)[O-])cc7F)c7ccc4[nH]7)C=C6)C=C5)cc3)C2=O)cc1
REMARK SMILES IDX 16 1 15 2 14 3 13 4 11 5 12 6 10 8 7 9 8 10 87 11 9 12 88 13
REMARK SMILES IDX 6 14 3 15 4 16 90 17 5 18 89 19 2 20 1 21 17 22 18 23 19 24
REMARK SMILES IDX 20 26 21 27 22 28 86 29 23 30 85 31 24 32 25 33 26 34 79 35
REMARK SMILES IDX 27 36 84 37 78 38 80 39 28 40 83 41 77 42 76 43 29 45 63 46
REMARK SMILES IDX 42 47 62 48 43 49 46 50 61 51 81 52 44 53 45 54 60 56 82 57
REMARK SMILES IDX 47 58 30 59 31 60 40 61 32 62 33 63 39 64 41 65 34 66 35 67
REMARK SMILES IDX 36 68 37 69 38 70 64 71 65 72 74 73 66 74 67 75 73 76 75 77
REMARK SMILES IDX 68 78 69 79 70 80 71 81 72 82 48 83 49 84 58 85 50 86 51 87
REMARK SMILES IDX 57 88 59 89 52 90 53 91 54 92 55 93 56 94
REMARK H PARENT 13 7 18 25 80 44 46 55
REMARK Flexibility Score: inf
ROOT
ATOM      1  C   UNL A   1      34.830  32.307  30.863  1.00  0.00     0.023 C 
ENDROOT
BRANCH   1   2
ATOM      2  C   UNL A   1      35.880  33.005  31.730  1.00  0.00     0.023 C 
BRANCH   2   3
ATOM      3  C   UNL A   1      37.160  32.199  31.971  1.00  0.00     0.116 C 
BRANCH   3   4
ATOM      4  N   UNL A   1      36.865  30.957  32.656  1.00  0.00    -0.355 N 
ATOM      5  C   UNL A   1      37.675  29.939  33.040  1.00  0.00     0.232 C 
ATOM      6  O   UNL A   1      37.092  28.956  33.515  1.00  0.00    -0.274 OA
ATOM      7  H   UNL A   1      35.915  30.831  32.881  1.00  0.00     0.163 HD
BRANCH   5   8
ATOM      8  C   UNL A   1      39.195  30.023  33.062  1.00  0.00     0.169 C 
ATOM      9  N   UNL A   1      40.977  28.722  33.940  1.00  0.00    -0.312 N 
ATOM     10  C   UNL A   1      40.986  29.931  34.713  1.00  0.00     0.127 C 
ATOM     11  C   UNL A   1      40.013  28.758  32.931  1.00  0.00     0.239 C 
ATOM     12  C   UNL A   1      39.648  30.569  34.430  1.00  0.00     0.045 C 
ATOM     13  O   UNL A   1      39.897  27.928  32.039  1.00  0.00    -0.274 OA
BRANCH   9  14
ATOM     14  C   UNL A   1      41.961  27.714  34.087  1.00  0.00     0.044 A 
ATOM     15  C   UNL A   1      43.942  25.735  34.420  1.00  0.00     0.119 A 
ATOM     16  C   UNL A   1      44.149  26.804  33.549  1.00  0.00     0.048 A 
ATOM     17  C   UNL A   1      42.757  25.664  35.145  1.00  0.00     0.048 A 
ATOM     18  C   UNL A   1      43.154  27.771  33.360  1.00  0.00     0.030 A 
ATOM     19  C   UNL A   1      41.781  26.653  34.984  1.00  0.00     0.030 A 
BRANCH  15  20
ATOM     20  O   UNL A   1      44.975  24.847  34.537  1.00  0.00    -0.497 OA
ATOM     21  C   UNL A   1      44.872  23.714  33.679  1.00  0.00     0.278 C 
ENDBRANCH  15  20
ENDBRANCH   9  14
ENDBRANCH   5   8
ENDBRANCH   3   4
ENDBRANCH   2   3
ENDBRANCH   1   2
BRANCH   1  22
ATOM     22  C   UNL A   1      34.949  32.566  29.369  1.00  0.00     0.116 C 
BRANCH  22  23
ATOM     23  N   UNL A   1      34.170  31.642  28.559  1.00  0.00    -0.352 N 
ATOM     24  C   UNL A   1      34.577  30.471  27.967  1.00  0.00     0.251 C 
ATOM     25  H   UNL A   1      33.227  31.889  28.416  1.00  0.00     0.163 HD
ATOM     26  O   UNL A   1      33.815  29.856  27.226  1.00  0.00    -0.269 OA
BRANCH  24  27
ATOM     27  C   UNL A   1      35.953  29.981  28.196  1.00  0.00     0.039 A 
ATOM     28  C   UNL A   1      36.910  30.174  27.196  1.00  0.00     0.014 A 
ATOM     29  C   UNL A   1      36.304  29.363  29.399  1.00  0.00     0.014 A 
ATOM     30  C   UNL A   1      38.236  29.801  27.429  1.00  0.00     0.010 A 
ATOM     31  C   UNL A   1      37.637  29.060  29.657  1.00  0.00     0.010 A 
ATOM     32  C   UNL A   1      38.615  29.272  28.674  1.00  0.00    -0.014 A 
BRANCH  32  33
ATOM     33  C   UNL A   1      40.027  28.917  28.962  1.00  0.00     0.031 A 
ATOM     34  C   UNL A   1      40.939  29.931  29.597  1.00  0.00     0.074 A 
ATOM     35  C   UNL A   1      40.501  27.710  28.598  1.00  0.00     0.049 A 
ATOM     36  N   UNL A   1      42.216  29.840  29.865  1.00  0.00    -0.248 NA
ATOM     37  C   UNL A   1      40.342  31.229  29.948  1.00  0.00     0.031 C 
ATOM     38  C   UNL A   1      39.726  26.660  27.933  1.00  0.00     0.029 A 
ATOM     39  N   UNL A   1      41.752  27.164  28.732  1.00  0.00    -0.354 N 
ATOM     40  C   UNL A   1      42.578  31.070  30.401  1.00  0.00     0.074 A 
ATOM     41  C   UNL A   1      41.399  31.908  30.368  1.00  0.00     0.031 C 
ATOM     42  C   UNL A   1      40.511  25.588  27.742  1.00  0.00     0.029 A 
ATOM     43  C   UNL A   1      41.850  25.882  28.243  1.00  0.00     0.049 A 
ATOM     44  H   UNL A   1      42.508  27.644  29.139  1.00  0.00     0.167 HD
ATOM     45  C   UNL A   1      43.776  31.459  30.899  1.00  0.00     0.037 A 
ATOM     46  C   UNL A   1      42.901  25.041  28.207  1.00  0.00     0.037 A 
ATOM     47  C   UNL A   1      44.937  30.610  30.956  1.00  0.00     0.049 A 
ATOM     48  C   UNL A   1      44.217  25.488  28.781  1.00  0.00     0.074 A 
ATOM     49  C   UNL A   1      46.187  30.893  31.480  1.00  0.00     0.029 A 
ATOM     50  N   UNL A   1      44.988  29.310  30.478  1.00  0.00    -0.354 N 
ATOM     51  N   UNL A   1      44.531  26.640  29.325  1.00  0.00    -0.248 NA
ATOM     52  C   UNL A   1      45.321  24.518  28.744  1.00  0.00     0.031 C 
ATOM     53  C   UNL A   1      47.001  29.770  31.295  1.00  0.00     0.029 A 
ATOM     54  C   UNL A   1      46.249  28.776  30.689  1.00  0.00     0.049 A 
ATOM     55  H   UNL A   1      44.238  28.834  30.052  1.00  0.00     0.167 HD
ATOM     56  C   UNL A   1      45.858  26.523  29.722  1.00  0.00     0.074 A 
ATOM     57  C   UNL A   1      46.285  25.186  29.361  1.00  0.00     0.031 C 
ATOM     58  C   UNL A   1      46.650  27.439  30.333  1.00  0.00     0.037 A 
BRANCH  45  59
ATOM     59  C   UNL A   1      43.877  32.862  31.429  1.00  0.00     0.058 A 
ATOM     60  C   UNL A   1      43.581  33.163  32.769  1.00  0.00     0.135 A 
ATOM     61  C   UNL A   1      44.269  33.918  30.592  1.00  0.00     0.135 A 
ATOM     62  F   UNL A   1      43.184  32.193  33.607  1.00  0.00    -0.206 F 
ATOM     63  C   UNL A   1      43.630  34.466  33.250  1.00  0.00     0.059 A 
ATOM     64  C   UNL A   1      44.352  35.227  31.059  1.00  0.00     0.059 A 
ATOM     65  F   UNL A   1      44.564  33.687  29.304  1.00  0.00    -0.206 F 
ATOM     66  C   UNL A   1      44.009  35.494  32.385  1.00  0.00     0.060 A 
BRANCH  66  67
ATOM     67  S   UNL A   1      44.047  37.186  33.014  1.00  0.00     0.124 S 
ATOM     68  O   UNL A   1      43.926  37.956  31.780  1.00  0.00    -0.237 OA
ATOM     69  O   UNL A   1      42.885  37.219  33.897  1.00  0.00    -0.237 OA
ATOM     70  O   UNL A   1      45.341  37.269  33.684  1.00  0.00    -0.744 OA
ENDBRANCH  66  67
ENDBRANCH  45  59
BRANCH  46  71
ATOM     71  C   UNL A   1      42.738  23.674  27.647  1.00  0.00     0.058 A 
ATOM     72  C   UNL A   1      42.438  22.591  28.486  1.00  0.00     0.135 A 
ATOM     73  C   UNL A   1      42.859  23.425  26.273  1.00  0.00     0.135 A 
ATOM     74  F   UNL A   1      42.317  22.779  29.809  1.00  0.00    -0.206 F 
ATOM     75  C   UNL A   1      42.278  21.303  27.984  1.00  0.00     0.059 A 
ATOM     76  C   UNL A   1      42.683  22.149  25.743  1.00  0.00     0.059 A 
ATOM     77  F   UNL A   1      43.128  24.433  25.427  1.00  0.00    -0.206 F 
ATOM     78  C   UNL A   1      42.402  21.092  26.610  1.00  0.00     0.060 A 
BRANCH  78  79
ATOM     79  S   UNL A   1      42.143  19.427  25.962  1.00  0.00     0.124 S 
ATOM     80  O   UNL A   1      40.702  19.417  25.742  1.00  0.00    -0.237 OA
ATOM     81  O   UNL A   1      42.972  19.432  24.760  1.00  0.00    -0.237 OA
ATOM     82  O   UNL A   1      42.625  18.570  27.041  1.00  0.00    -0.744 OA
ENDBRANCH  78  79
ENDBRANCH  46  71
BRANCH  58  83
ATOM     83  C   UNL A   1      48.046  27.011  30.686  1.00  0.00     0.058 A 
ATOM     84  C   UNL A   1      49.117  27.184  29.797  1.00  0.00     0.135 A 
ATOM     85  C   UNL A   1      48.321  26.461  31.949  1.00  0.00     0.135 A 
ATOM     86  F   UNL A   1      48.906  27.699  28.575  1.00  0.00    -0.206 F 
ATOM     87  C   UNL A   1      50.411  26.803  30.137  1.00  0.00     0.059 A 
ATOM     88  C   UNL A   1      49.611  26.095  32.319  1.00  0.00     0.059 A 
ATOM     89  F   UNL A   1      47.332  26.286  32.839  1.00  0.00    -0.206 F 
ATOM     90  C   UNL A   1      50.648  26.259  31.401  1.00  0.00     0.060 A 
BRANCH  90  91
ATOM     91  S   UNL A   1      52.335  25.795  31.846  1.00  0.00     0.124 S 
ATOM     92  O   UNL A   1      52.592  26.676  32.981  1.00  0.00    -0.237 OA
ATOM     93  O   UNL A   1      52.199  24.377  32.162  1.00  0.00    -0.237 OA
ATOM     94  O   UNL A   1      53.098  26.091  30.636  1.00  0.00    -0.744 OA
ENDBRANCH  90  91
ENDBRANCH  58  83
ENDBRANCH  32  33
ENDBRANCH  24  27
ENDBRANCH  22  23
ENDBRANCH   1  22
TORSDOF 16
ENDMDL
