MODEL 1
REMARK VINA RESULT:     -13.1      0.000      0.000
REMARK SMILES O=C(NCCCCNC(=O)c1ccc([C@H]2CCCN(C(=O)c3ccc4[nH]ccc4c3)C2)cc1)c1ccc(-c2c3nc(c(-c4c(F)cc(S(=O)(=O)[O-])cc4F)c4ccc([nH]4)c(-c4c(F)cc(S(=O)(=O)[O-])cc4F)c4nc(c(-c5c(F)cc(S(=O)(=O)[O-])cc5F)c5ccc2[nH]5)C=C4)C=C3)cc1
REMARK SMILES IDX 5 1 4 2 3 3 1 4 2 5 34 7 35 8 99 9 36 10 98 11 37 12 38 13
REMARK SMILES IDX 39 14 92 15 40 16 97 17 91 18 93 19 41 20 96 21 90 22 89 23
REMARK SMILES IDX 42 25 76 26 55 27 75 28 56 29 59 30 74 31 94 32 57 33 58 34
REMARK SMILES IDX 73 36 95 37 60 38 43 39 44 40 53 41 45 42 46 43 52 44 54 45
REMARK SMILES IDX 47 46 48 47 49 48 50 49 51 50 77 51 78 52 87 53 79 54 80 55
REMARK SMILES IDX 86 56 88 57 81 58 82 59 83 60 84 61 85 62 61 63 62 64 71 65
REMARK SMILES IDX 63 66 64 67 70 68 72 69 65 70 66 71 67 72 68 73 69 74 6 75
REMARK SMILES IDX 7 76 8 77 9 78 10 80 11 81 12 82 33 83 13 84 32 85 14 86
REMARK SMILES IDX 15 87 16 88 31 89 17 90 19 91 18 92 20 93 21 94 22 95 23 96
REMARK SMILES IDX 30 97 24 98 29 99 25 100 28 101 26 102 27 103
REMARK H PARENT 3 6 93 24 59 35 8 79 26 104
REMARK Flexibility Score: inf
ROOT
ATOM      1  C   UNL A   1      35.763  33.123  28.671  1.00  0.00     0.023 C 
ENDROOT
BRANCH   1   2
ATOM      2  C   UNL A   1      36.775  32.826  29.767  1.00  0.00     0.116 C 
BRANCH   2   3
ATOM      3  N   UNL A   1      36.274  31.914  30.787  1.00  0.00    -0.352 N 
ATOM      4  O   UNL A   1      36.165  29.990  31.968  1.00  0.00    -0.269 OA
ATOM      5  C   UNL A   1      36.775  30.687  31.164  1.00  0.00     0.251 C 
ATOM      6  H   UNL A   1      35.473  32.216  31.273  1.00  0.00     0.163 HD
BRANCH   5   7
ATOM      7  C   UNL A   1      38.037  30.206  30.557  1.00  0.00     0.039 A 
ATOM      8  C   UNL A   1      39.130  29.902  31.369  1.00  0.00     0.014 A 
ATOM      9  C   UNL A   1      38.146  30.111  29.167  1.00  0.00     0.014 A 
ATOM     10  C   UNL A   1      40.373  29.691  30.791  1.00  0.00     0.010 A 
ATOM     11  C   UNL A   1      39.379  29.783  28.588  1.00  0.00     0.010 A 
ATOM     12  C   UNL A   1      40.513  29.609  29.395  1.00  0.00    -0.014 A 
BRANCH  12  13
ATOM     13  C   UNL A   1      41.849  29.268  28.838  1.00  0.00     0.031 A 
ATOM     14  C   UNL A   1      42.980  30.263  28.817  1.00  0.00     0.074 A 
ATOM     15  C   UNL A   1      42.052  28.003  28.420  1.00  0.00     0.049 A 
ATOM     16  N   UNL A   1      44.220  30.083  28.439  1.00  0.00    -0.248 NA
ATOM     17  C   UNL A   1      42.686  31.632  29.266  1.00  0.00     0.031 C 
ATOM     18  C   UNL A   1      41.021  26.961  28.367  1.00  0.00     0.029 A 
ATOM     19  N   UNL A   1      43.188  27.362  27.999  1.00  0.00    -0.354 N 
ATOM     20  C   UNL A   1      44.853  31.311  28.595  1.00  0.00     0.074 A 
ATOM     21  C   UNL A   1      43.850  32.239  29.074  1.00  0.00     0.031 C 
ATOM     22  C   UNL A   1      41.583  25.799  28.007  1.00  0.00     0.029 A 
ATOM     23  C   UNL A   1      42.996  26.026  27.735  1.00  0.00     0.049 A 
ATOM     24  H   UNL A   1      44.056  27.813  27.895  1.00  0.00     0.167 HD
ATOM     25  C   UNL A   1      46.151  31.630  28.369  1.00  0.00     0.037 A 
ATOM     26  C   UNL A   1      43.856  25.084  27.306  1.00  0.00     0.037 A 
ATOM     27  C   UNL A   1      47.145  30.694  27.902  1.00  0.00     0.049 A 
ATOM     28  C   UNL A   1      45.288  25.463  27.076  1.00  0.00     0.074 A 
ATOM     29  C   UNL A   1      48.488  30.918  27.647  1.00  0.00     0.029 A 
ATOM     30  N   UNL A   1      46.908  29.354  27.624  1.00  0.00    -0.354 N 
ATOM     31  N   UNL A   1      45.866  26.630  27.239  1.00  0.00    -0.248 NA
ATOM     32  C   UNL A   1      46.185  24.404  26.600  1.00  0.00     0.031 C 
ATOM     33  C   UNL A   1      49.055  29.725  27.184  1.00  0.00     0.029 A 
ATOM     34  C   UNL A   1      48.076  28.744  27.191  1.00  0.00     0.049 A 
ATOM     35  H   UNL A   1      46.038  28.903  27.720  1.00  0.00     0.167 HD
ATOM     36  C   UNL A   1      47.195  26.445  26.883  1.00  0.00     0.074 A 
ATOM     37  C   UNL A   1      47.343  25.046  26.535  1.00  0.00     0.031 C 
ATOM     38  C   UNL A   1      48.201  27.354  26.835  1.00  0.00     0.037 A 
BRANCH  25  39
ATOM     39  C   UNL A   1      46.585  33.049  28.622  1.00  0.00     0.058 A 
ATOM     40  C   UNL A   1      46.517  34.029  27.618  1.00  0.00     0.135 A 
ATOM     41  C   UNL A   1      47.003  33.453  29.901  1.00  0.00     0.135 A 
ATOM     42  F   UNL A   1      46.139  33.696  26.375  1.00  0.00    -0.206 F 
ATOM     43  C   UNL A   1      46.859  35.355  27.870  1.00  0.00     0.059 A 
ATOM     44  C   UNL A   1      47.328  34.779  30.182  1.00  0.00     0.059 A 
ATOM     45  F   UNL A   1      47.086  32.559  30.898  1.00  0.00    -0.206 F 
ATOM     46  C   UNL A   1      47.261  35.721  29.157  1.00  0.00     0.060 A 
BRANCH  46  47
ATOM     47  S   UNL A   1      47.676  37.450  29.472  1.00  0.00     0.124 S 
ATOM     48  O   UNL A   1      46.352  38.064  29.518  1.00  0.00    -0.237 OA
ATOM     49  O   UNL A   1      48.384  37.376  30.745  1.00  0.00    -0.237 OA
ATOM     50  O   UNL A   1      48.496  37.819  28.322  1.00  0.00    -0.744 OA
ENDBRANCH  46  47
ENDBRANCH  25  39
BRANCH  26  51
ATOM     51  C   UNL A   1      43.369  23.704  27.048  1.00  0.00     0.058 A 
ATOM     52  C   UNL A   1      43.114  23.250  25.746  1.00  0.00     0.135 A 
ATOM     53  C   UNL A   1      43.170  22.804  28.106  1.00  0.00     0.135 A 
ATOM     54  F   UNL A   1      43.289  24.073  24.702  1.00  0.00    -0.206 F 
ATOM     55  C   UNL A   1      42.656  21.959  25.503  1.00  0.00     0.059 A 
ATOM     56  C   UNL A   1      42.744  21.500  27.887  1.00  0.00     0.059 A 
ATOM     57  F   UNL A   1      43.423  23.183  29.369  1.00  0.00    -0.206 F 
ATOM     58  C   UNL A   1      42.474  21.091  26.582  1.00  0.00     0.060 A 
BRANCH  58  59
ATOM     59  S   UNL A   1      41.917  19.404  26.263  1.00  0.00     0.124 S 
ATOM     60  O   UNL A   1      42.686  19.065  25.072  1.00  0.00    -0.237 OA
ATOM     61  O   UNL A   1      42.301  18.713  27.490  1.00  0.00    -0.237 OA
ATOM     62  O   UNL A   1      40.479  19.559  26.067  1.00  0.00    -0.744 OA
ENDBRANCH  58  59
ENDBRANCH  26  51
BRANCH  38  63
ATOM     63  C   UNL A   1      49.545  26.848  26.393  1.00  0.00     0.058 A 
ATOM     64  C   UNL A   1      49.996  27.026  25.075  1.00  0.00     0.135 A 
ATOM     65  C   UNL A   1      50.386  26.176  27.291  1.00  0.00     0.135 A 
ATOM     66  F   UNL A   1      49.224  27.657  24.176  1.00  0.00    -0.206 F 
ATOM     67  C   UNL A   1      51.219  26.517  24.652  1.00  0.00     0.059 A 
ATOM     68  C   UNL A   1      51.626  25.682  26.897  1.00  0.00     0.059 A 
ATOM     69  F   UNL A   1      50.006  25.988  28.565  1.00  0.00    -0.206 F 
ATOM     70  C   UNL A   1      52.024  25.841  25.569  1.00  0.00     0.060 A 
BRANCH  70  71
ATOM     71  S   UNL A   1      53.607  25.178  25.009  1.00  0.00     0.124 S 
ATOM     72  O   UNL A   1      53.447  23.756  25.295  1.00  0.00    -0.237 OA
ATOM     73  O   UNL A   1      53.619  25.542  23.596  1.00  0.00    -0.237 OA
ATOM     74  O   UNL A   1      54.581  25.880  25.840  1.00  0.00    -0.744 OA
ENDBRANCH  70  71
ENDBRANCH  38  63
ENDBRANCH  12  13
ENDBRANCH   5   7
ENDBRANCH   2   3
ENDBRANCH   1   2
BRANCH   1  75
ATOM     75  C   UNL A   1      35.490  31.971  27.712  1.00  0.00     0.023 C 
BRANCH  75  76
ATOM     76  C   UNL A   1      34.235  31.158  28.015  1.00  0.00     0.116 C 
BRANCH  76  77
ATOM     77  N   UNL A   1      33.023  31.760  27.478  1.00  0.00    -0.352 N 
ATOM     78  C   UNL A   1      32.050  31.195  26.685  1.00  0.00     0.251 C 
ATOM     79  H   UNL A   1      32.878  32.705  27.716  1.00  0.00     0.163 HD
ATOM     80  O   UNL A   1      31.151  31.865  26.209  1.00  0.00    -0.269 OA
BRANCH  78  81
ATOM     81  C   UNL A   1      32.138  29.753  26.381  1.00  0.00     0.039 A 
ATOM     82  C   UNL A   1      32.781  29.348  25.217  1.00  0.00     0.014 A 
ATOM     83  C   UNL A   1      31.632  28.810  27.275  1.00  0.00     0.014 A 
ATOM     84  C   UNL A   1      33.023  27.989  25.008  1.00  0.00     0.005 A 
ATOM     85  C   UNL A   1      31.903  27.458  27.076  1.00  0.00     0.005 A 
ATOM     86  C   UNL A   1      32.651  27.028  25.967  1.00  0.00    -0.043 A 
BRANCH  86  87
ATOM     87  C   UNL A   1      33.062  25.569  25.772  1.00  0.00     0.039 C 
ATOM     88  C   UNL A   1      32.173  24.619  26.616  1.00  0.00     0.012 C 
ATOM     89  C   UNL A   1      33.035  25.090  24.302  1.00  0.00     0.128 C 
ATOM     90  C   UNL A   1      32.549  23.148  26.419  1.00  0.00     0.022 C 
ATOM     91  N   UNL A   1      33.400  23.683  24.195  1.00  0.00    -0.338 N 
ATOM     92  C   UNL A   1      32.549  22.763  24.944  1.00  0.00     0.120 C 
BRANCH  91  93
ATOM     93  C   UNL A   1      34.555  23.345  23.499  1.00  0.00     0.253 C 
ATOM     94  O   UNL A   1      34.662  23.383  22.276  1.00  0.00    -0.269 OA
BRANCH  93  95
ATOM     95  C   UNL A   1      35.745  22.950  24.264  1.00  0.00     0.040 A 
ATOM     96  C   UNL A   1      36.077  21.595  24.316  1.00  0.00     0.016 A 
ATOM     97  C   UNL A   1      36.481  23.923  24.953  1.00  0.00     0.024 A 
ATOM     98  C   UNL A   1      37.186  21.169  25.049  1.00  0.00     0.027 A 
ATOM     99  C   UNL A   1      37.596  23.505  25.702  1.00  0.00     0.000 A 
ATOM    100  C   UNL A   1      37.924  22.147  25.730  1.00  0.00     0.045 A 
ATOM    101  C   UNL A   1      38.547  24.182  26.516  1.00  0.00     0.028 A 
ATOM    102  N   UNL A   1      39.039  22.018  26.528  1.00  0.00    -0.361 N 
ATOM    103  C   UNL A   1      39.419  23.241  27.012  1.00  0.00     0.083 A 
ATOM    104  H   UNL A   1      39.495  21.168  26.722  1.00  0.00     0.166 HD
ENDBRANCH  93  95
ENDBRANCH  91  93
ENDBRANCH  86  87
ENDBRANCH  78  81
ENDBRANCH  76  77
ENDBRANCH  75  76
ENDBRANCH   1  75
TORSDOF 17
ENDMDL
MODEL 2
REMARK VINA RESULT:     -12.8      5.981     11.978
REMARK SMILES O=C(NCCCCNC(=O)c1ccc([C@H]2CCCN(C(=O)c3ccc4[nH]ccc4c3)C2)cc1)c1ccc(-c2c3nc(c(-c4c(F)cc(S(=O)(=O)[O-])cc4F)c4ccc([nH]4)c(-c4c(F)cc(S(=O)(=O)[O-])cc4F)c4nc(c(-c5c(F)cc(S(=O)(=O)[O-])cc5F)c5ccc2[nH]5)C=C4)C=C3)cc1
REMARK SMILES IDX 5 1 4 2 3 3 1 4 2 5 34 7 35 8 99 9 36 10 98 11 37 12 38 13
REMARK SMILES IDX 39 14 92 15 40 16 97 17 91 18 93 19 41 20 96 21 90 22 89 23
REMARK SMILES IDX 42 25 76 26 55 27 75 28 56 29 59 30 74 31 94 32 57 33 58 34
REMARK SMILES IDX 73 36 95 37 60 38 43 39 44 40 53 41 45 42 46 43 52 44 54 45
REMARK SMILES IDX 47 46 48 47 49 48 50 49 51 50 77 51 78 52 87 53 79 54 80 55
REMARK SMILES IDX 86 56 88 57 81 58 82 59 83 60 84 61 85 62 61 63 62 64 71 65
REMARK SMILES IDX 63 66 64 67 70 68 72 69 65 70 66 71 67 72 68 73 69 74 6 75
REMARK SMILES IDX 7 76 8 77 9 78 10 80 11 81 12 82 33 83 13 84 32 85 14 86
REMARK SMILES IDX 15 87 16 88 31 89 17 90 19 91 18 92 20 93 21 94 22 95 23 96
REMARK SMILES IDX 30 97 24 98 29 99 25 100 28 101 26 102 27 103
REMARK H PARENT 3 6 93 24 59 35 8 79 26 104
REMARK Flexibility Score: inf
ROOT
ATOM      1  C   UNL A   1      41.716  22.168  26.875  1.00  0.00     0.023 C 
ENDROOT
BRANCH   1   2
ATOM      2  C   UNL A   1      42.418  23.487  27.157  1.00  0.00     0.116 C 
BRANCH   2   3
ATOM      3  N   UNL A   1      42.614  24.306  25.967  1.00  0.00    -0.352 N 
ATOM      4  O   UNL A   1      42.487  26.170  24.695  1.00  0.00    -0.269 OA
ATOM      5  C   UNL A   1      42.376  25.653  25.802  1.00  0.00     0.251 C 
ATOM      6  H   UNL A   1      42.963  23.833  25.177  1.00  0.00     0.163 HD
BRANCH   5   7
ATOM      7  C   UNL A   1      41.949  26.458  26.969  1.00  0.00     0.039 A 
ATOM      8  C   UNL A   1      42.594  27.660  27.261  1.00  0.00     0.014 A 
ATOM      9  C   UNL A   1      40.937  25.982  27.807  1.00  0.00     0.014 A 
ATOM     10  C   UNL A   1      42.362  28.282  28.478  1.00  0.00     0.010 A 
ATOM     11  C   UNL A   1      40.624  26.677  28.982  1.00  0.00     0.010 A 
ATOM     12  C   UNL A   1      41.362  27.812  29.347  1.00  0.00    -0.014 A 
BRANCH  12  13
ATOM     13  C   UNL A   1      41.083  28.588  30.585  1.00  0.00     0.031 A 
ATOM     14  C   UNL A   1      41.946  28.466  31.813  1.00  0.00     0.074 A 
ATOM     15  C   UNL A   1      40.069  29.476  30.556  1.00  0.00     0.049 A 
ATOM     16  N   UNL A   1      41.874  29.137  32.934  1.00  0.00    -0.248 NA
ATOM     17  C   UNL A   1      43.021  27.462  31.788  1.00  0.00     0.031 C 
ATOM     18  C   UNL A   1      39.146  29.660  29.430  1.00  0.00     0.029 A 
ATOM     19  N   UNL A   1      39.663  30.415  31.469  1.00  0.00    -0.354 N 
ATOM     20  C   UNL A   1      42.881  28.636  33.751  1.00  0.00     0.074 A 
ATOM     21  C   UNL A   1      43.535  27.580  33.005  1.00  0.00     0.031 C 
ATOM     22  C   UNL A   1      38.332  30.691  29.688  1.00  0.00     0.029 A 
ATOM     23  C   UNL A   1      38.624  31.197  31.023  1.00  0.00     0.049 A 
ATOM     24  H   UNL A   1      40.076  30.519  32.355  1.00  0.00     0.167 HD
ATOM     25  C   UNL A   1      43.234  29.028  35.000  1.00  0.00     0.037 A 
ATOM     26  C   UNL A   1      37.964  32.204  31.624  1.00  0.00     0.037 A 
ATOM     27  C   UNL A   1      42.582  30.090  35.728  1.00  0.00     0.049 A 
ATOM     28  C   UNL A   1      38.384  32.624  33.001  1.00  0.00     0.074 A 
ATOM     29  C   UNL A   1      42.868  30.566  36.998  1.00  0.00     0.029 A 
ATOM     30  N   UNL A   1      41.518  30.845  35.254  1.00  0.00    -0.354 N 
ATOM     31  N   UNL A   1      39.346  32.141  33.750  1.00  0.00    -0.248 NA
ATOM     32  C   UNL A   1      37.628  33.720  33.618  1.00  0.00     0.031 C 
ATOM     33  C   UNL A   1      41.958  31.584  37.303  1.00  0.00     0.029 A 
ATOM     34  C   UNL A   1      41.131  31.774  36.208  1.00  0.00     0.049 A 
ATOM     35  H   UNL A   1      41.100  30.736  34.369  1.00  0.00     0.167 HD
ATOM     36  C   UNL A   1      39.311  32.873  34.929  1.00  0.00     0.074 A 
ATOM     37  C   UNL A   1      38.257  33.857  34.776  1.00  0.00     0.031 C 
ATOM     38  C   UNL A   1      40.071  32.736  36.044  1.00  0.00     0.037 A 
BRANCH  25  39
ATOM     39  C   UNL A   1      44.376  28.313  35.669  1.00  0.00     0.058 A 
ATOM     40  C   UNL A   1      45.666  28.864  35.711  1.00  0.00     0.135 A 
ATOM     41  C   UNL A   1      44.164  27.097  36.342  1.00  0.00     0.135 A 
ATOM     42  F   UNL A   1      45.929  30.016  35.074  1.00  0.00    -0.206 F 
ATOM     43  C   UNL A   1      46.708  28.232  36.384  1.00  0.00     0.059 A 
ATOM     44  C   UNL A   1      45.187  26.458  37.041  1.00  0.00     0.059 A 
ATOM     45  F   UNL A   1      42.951  26.524  36.335  1.00  0.00    -0.206 F 
ATOM     46  C   UNL A   1      46.458  27.030  37.049  1.00  0.00     0.060 A 
BRANCH  46  47
ATOM     47  S   UNL A   1      47.815  26.236  37.938  1.00  0.00     0.124 S 
ATOM     48  O   UNL A   1      48.828  26.134  36.893  1.00  0.00    -0.237 OA
ATOM     49  O   UNL A   1      48.096  27.197  39.000  1.00  0.00    -0.237 OA
ATOM     50  O   UNL A   1      47.239  24.969  38.379  1.00  0.00    -0.744 OA
ENDBRANCH  46  47
ENDBRANCH  25  39
BRANCH  26  51
ATOM     51  C   UNL A   1      36.827  32.859  30.928  1.00  0.00     0.058 A 
ATOM     52  C   UNL A   1      35.497  32.538  31.237  1.00  0.00     0.135 A 
ATOM     53  C   UNL A   1      37.053  33.838  29.949  1.00  0.00     0.135 A 
ATOM     54  F   UNL A   1      35.230  31.608  32.166  1.00  0.00    -0.206 F 
ATOM     55  C   UNL A   1      34.431  33.149  30.585  1.00  0.00     0.059 A 
ATOM     56  C   UNL A   1      36.005  34.486  29.306  1.00  0.00     0.059 A 
ATOM     57  F   UNL A   1      38.307  34.198  29.633  1.00  0.00    -0.206 F 
ATOM     58  C   UNL A   1      34.697  34.123  29.619  1.00  0.00     0.060 A 
BRANCH  58  59
ATOM     59  S   UNL A   1      33.313  34.942  28.801  1.00  0.00     0.124 S 
ATOM     60  O   UNL A   1      32.521  35.386  29.942  1.00  0.00    -0.237 OA
ATOM     61  O   UNL A   1      33.981  35.993  28.039  1.00  0.00    -0.237 OA
ATOM     62  O   UNL A   1      32.722  33.877  27.996  1.00  0.00    -0.744 OA
ENDBRANCH  58  59
ENDBRANCH  26  51
BRANCH  38  63
ATOM     63  C   UNL A   1      39.783  33.681  37.176  1.00  0.00     0.058 A 
ATOM     64  C   UNL A   1      40.420  34.929  37.266  1.00  0.00     0.135 A 
ATOM     65  C   UNL A   1      38.868  33.334  38.181  1.00  0.00     0.135 A 
ATOM     66  F   UNL A   1      41.308  35.303  36.333  1.00  0.00    -0.206 F 
ATOM     67  C   UNL A   1      40.189  35.784  38.338  1.00  0.00     0.059 A 
ATOM     68  C   UNL A   1      38.602  34.186  39.248  1.00  0.00     0.059 A 
ATOM     69  F   UNL A   1      38.225  32.157  38.136  1.00  0.00    -0.206 F 
ATOM     70  C   UNL A   1      39.283  35.401  39.328  1.00  0.00     0.060 A 
BRANCH  70  71
ATOM     71  S   UNL A   1      38.997  36.515  40.719  1.00  0.00     0.124 S 
ATOM     72  O   UNL A   1      37.939  35.816  41.441  1.00  0.00    -0.237 OA
ATOM     73  O   UNL A   1      40.300  36.544  41.374  1.00  0.00    -0.237 OA
ATOM     74  O   UNL A   1      38.598  37.764  40.075  1.00  0.00    -0.744 OA
ENDBRANCH  70  71
ENDBRANCH  38  63
ENDBRANCH  12  13
ENDBRANCH   5   7
ENDBRANCH   2   3
ENDBRANCH   1   2
BRANCH   1  75
ATOM     75  C   UNL A   1      40.247  22.118  27.275  1.00  0.00     0.023 C 
BRANCH  75  76
ATOM     76  C   UNL A   1      39.257  22.196  26.117  1.00  0.00     0.116 C 
BRANCH  76  77
ATOM     77  N   UNL A   1      38.835  20.887  25.639  1.00  0.00    -0.352 N 
ATOM     78  C   UNL A   1      37.636  20.512  25.076  1.00  0.00     0.251 C 
ATOM     79  H   UNL A   1      39.502  20.168  25.731  1.00  0.00     0.163 HD
ATOM     80  O   UNL A   1      37.384  19.344  24.838  1.00  0.00    -0.269 OA
BRANCH  78  81
ATOM     81  C   UNL A   1      36.630  21.556  24.800  1.00  0.00     0.039 A 
ATOM     82  C   UNL A   1      35.629  21.791  25.737  1.00  0.00     0.014 A 
ATOM     83  C   UNL A   1      36.714  22.332  23.645  1.00  0.00     0.014 A 
ATOM     84  C   UNL A   1      34.782  22.887  25.570  1.00  0.00     0.005 A 
ATOM     85  C   UNL A   1      35.885  23.442  23.498  1.00  0.00     0.005 A 
ATOM     86  C   UNL A   1      34.941  23.772  24.486  1.00  0.00    -0.043 A 
BRANCH  86  87
ATOM     87  C   UNL A   1      34.090  25.040  24.415  1.00  0.00     0.039 C 
ATOM     88  C   UNL A   1      33.936  25.530  22.952  1.00  0.00     0.012 C 
ATOM     89  C   UNL A   1      32.681  24.898  25.037  1.00  0.00     0.128 C 
ATOM     90  C   UNL A   1      33.067  26.786  22.851  1.00  0.00     0.022 C 
ATOM     91  N   UNL A   1      31.914  26.130  24.901  1.00  0.00    -0.338 N 
ATOM     92  C   UNL A   1      31.715  26.588  23.528  1.00  0.00     0.120 C 
BRANCH  91  93
ATOM     93  C   UNL A   1      31.536  26.810  26.052  1.00  0.00     0.253 C 
ATOM     94  O   UNL A   1      30.662  26.428  26.827  1.00  0.00    -0.269 OA
BRANCH  93  95
ATOM     95  C   UNL A   1      32.242  28.051  26.399  1.00  0.00     0.040 A 
ATOM     96  C   UNL A   1      31.586  29.265  26.194  1.00  0.00     0.016 A 
ATOM     97  C   UNL A   1      33.558  27.989  26.877  1.00  0.00     0.024 A 
ATOM     98  C   UNL A   1      32.225  30.471  26.487  1.00  0.00     0.027 A 
ATOM     99  C   UNL A   1      34.215  29.197  27.168  1.00  0.00     0.000 A 
ATOM    100  C   UNL A   1      33.537  30.403  26.972  1.00  0.00     0.045 A 
ATOM    101  C   UNL A   1      35.517  29.523  27.645  1.00  0.00     0.028 A 
ATOM    102  N   UNL A   1      34.402  31.415  27.327  1.00  0.00    -0.361 N 
ATOM    103  C   UNL A   1      35.602  30.893  27.730  1.00  0.00     0.083 A 
ATOM    104  H   UNL A   1      34.187  32.374  27.295  1.00  0.00     0.166 HD
ENDBRANCH  93  95
ENDBRANCH  91  93
ENDBRANCH  86  87
ENDBRANCH  78  81
ENDBRANCH  76  77
ENDBRANCH  75  76
ENDBRANCH   1  75
TORSDOF 17
ENDMDL
MODEL 3
REMARK VINA RESULT:     -12.3      1.143      2.159
REMARK SMILES O=C(NCCCCNC(=O)c1ccc([C@H]2CCCN(C(=O)c3ccc4[nH]ccc4c3)C2)cc1)c1ccc(-c2c3nc(c(-c4c(F)cc(S(=O)(=O)[O-])cc4F)c4ccc([nH]4)c(-c4c(F)cc(S(=O)(=O)[O-])cc4F)c4nc(c(-c5c(F)cc(S(=O)(=O)[O-])cc5F)c5ccc2[nH]5)C=C4)C=C3)cc1
REMARK SMILES IDX 5 1 4 2 3 3 1 4 2 5 34 7 35 8 99 9 36 10 98 11 37 12 38 13
REMARK SMILES IDX 39 14 92 15 40 16 97 17 91 18 93 19 41 20 96 21 90 22 89 23
REMARK SMILES IDX 42 25 76 26 55 27 75 28 56 29 59 30 74 31 94 32 57 33 58 34
REMARK SMILES IDX 73 36 95 37 60 38 43 39 44 40 53 41 45 42 46 43 52 44 54 45
REMARK SMILES IDX 47 46 48 47 49 48 50 49 51 50 77 51 78 52 87 53 79 54 80 55
REMARK SMILES IDX 86 56 88 57 81 58 82 59 83 60 84 61 85 62 61 63 62 64 71 65
REMARK SMILES IDX 63 66 64 67 70 68 72 69 65 70 66 71 67 72 68 73 69 74 6 75
REMARK SMILES IDX 7 76 8 77 9 78 10 80 11 81 12 82 33 83 13 84 32 85 14 86
REMARK SMILES IDX 15 87 16 88 31 89 17 90 19 91 18 92 20 93 21 94 22 95 23 96
REMARK SMILES IDX 30 97 24 98 29 99 25 100 28 101 26 102 27 103
REMARK H PARENT 3 6 93 24 59 35 8 79 26 104
REMARK Flexibility Score: inf
ROOT
ATOM      1  C   UNL A   1      35.841  33.563  29.027  1.00  0.00     0.023 C 
ENDROOT
BRANCH   1   2
ATOM      2  C   UNL A   1      36.859  33.061  30.039  1.00  0.00     0.116 C 
BRANCH   2   3
ATOM      3  N   UNL A   1      36.308  32.108  30.993  1.00  0.00    -0.352 N 
ATOM      4  O   UNL A   1      36.109  30.120  32.052  1.00  0.00    -0.269 OA
ATOM      5  C   UNL A   1      36.757  30.842  31.301  1.00  0.00     0.251 C 
ATOM      6  H   UNL A   1      35.509  32.409  31.484  1.00  0.00     0.163 HD
BRANCH   5   7
ATOM      7  C   UNL A   1      38.012  30.352  30.686  1.00  0.00     0.039 A 
ATOM      8  C   UNL A   1      39.101  30.022  31.491  1.00  0.00     0.014 A 
ATOM      9  C   UNL A   1      38.118  30.277  29.294  1.00  0.00     0.014 A 
ATOM     10  C   UNL A   1      40.341  29.802  30.909  1.00  0.00     0.010 A 
ATOM     11  C   UNL A   1      39.345  29.941  28.709  1.00  0.00     0.010 A 
ATOM     12  C   UNL A   1      40.478  29.739  29.511  1.00  0.00    -0.014 A 
BRANCH  12  13
ATOM     13  C   UNL A   1      41.809  29.388  28.948  1.00  0.00     0.031 A 
ATOM     14  C   UNL A   1      42.947  30.373  28.922  1.00  0.00     0.074 A 
ATOM     15  C   UNL A   1      41.999  28.121  28.528  1.00  0.00     0.049 A 
ATOM     16  N   UNL A   1      44.185  30.184  28.539  1.00  0.00    -0.248 NA
ATOM     17  C   UNL A   1      42.666  31.744  29.374  1.00  0.00     0.031 C 
ATOM     18  C   UNL A   1      40.959  27.088  28.479  1.00  0.00     0.029 A 
ATOM     19  N   UNL A   1      43.128  27.471  28.100  1.00  0.00    -0.354 N 
ATOM     20  C   UNL A   1      44.828  31.407  28.692  1.00  0.00     0.074 A 
ATOM     21  C   UNL A   1      43.834  32.342  29.178  1.00  0.00     0.031 C 
ATOM     22  C   UNL A   1      41.510  25.922  28.115  1.00  0.00     0.029 A 
ATOM     23  C   UNL A   1      42.924  26.138  27.836  1.00  0.00     0.049 A 
ATOM     24  H   UNL A   1      43.999  27.916  27.993  1.00  0.00     0.167 HD
ATOM     25  C   UNL A   1      46.128  31.715  28.461  1.00  0.00     0.037 A 
ATOM     26  C   UNL A   1      43.774  25.189  27.403  1.00  0.00     0.037 A 
ATOM     27  C   UNL A   1      47.111  30.772  27.988  1.00  0.00     0.049 A 
ATOM     28  C   UNL A   1      45.209  25.557  27.166  1.00  0.00     0.074 A 
ATOM     29  C   UNL A   1      48.455  30.985  27.727  1.00  0.00     0.029 A 
ATOM     30  N   UNL A   1      46.862  29.435  27.710  1.00  0.00    -0.354 N 
ATOM     31  N   UNL A   1      45.797  26.719  27.327  1.00  0.00    -0.248 NA
ATOM     32  C   UNL A   1      46.095  24.491  26.685  1.00  0.00     0.031 C 
ATOM     33  C   UNL A   1      49.010  29.788  27.260  1.00  0.00     0.029 A 
ATOM     34  C   UNL A   1      48.023  28.815  27.271  1.00  0.00     0.049 A 
ATOM     35  H   UNL A   1      45.990  28.990  27.809  1.00  0.00     0.167 HD
ATOM     36  C   UNL A   1      47.122  26.524  26.965  1.00  0.00     0.074 A 
ATOM     37  C   UNL A   1      47.257  25.124  26.614  1.00  0.00     0.031 C 
ATOM     38  C   UNL A   1      48.135  27.424  26.913  1.00  0.00     0.037 A 
BRANCH  25  39
ATOM     39  C   UNL A   1      46.574  33.131  28.712  1.00  0.00     0.058 A 
ATOM     40  C   UNL A   1      47.125  33.520  29.943  1.00  0.00     0.135 A 
ATOM     41  C   UNL A   1      46.519  34.092  27.688  1.00  0.00     0.135 A 
ATOM     42  F   UNL A   1      47.189  32.648  30.961  1.00  0.00    -0.206 F 
ATOM     43  C   UNL A   1      47.595  34.814  30.155  1.00  0.00     0.059 A 
ATOM     44  C   UNL A   1      47.004  35.385  27.870  1.00  0.00     0.059 A 
ATOM     45  F   UNL A   1      46.001  33.775  26.492  1.00  0.00    -0.206 F 
ATOM     46  C   UNL A   1      47.532  35.739  29.110  1.00  0.00     0.060 A 
BRANCH  46  47
ATOM     47  S   UNL A   1      48.170  37.405  29.394  1.00  0.00     0.124 S 
ATOM     48  O   UNL A   1      48.876  37.664  28.142  1.00  0.00    -0.237 OA
ATOM     49  O   UNL A   1      46.950  38.176  29.604  1.00  0.00    -0.237 OA
ATOM     50  O   UNL A   1      49.020  37.248  30.571  1.00  0.00    -0.744 OA
ENDBRANCH  46  47
ENDBRANCH  25  39
BRANCH  26  51
ATOM     51  C   UNL A   1      43.275  23.814  27.145  1.00  0.00     0.058 A 
ATOM     52  C   UNL A   1      42.895  23.402  25.860  1.00  0.00     0.135 A 
ATOM     53  C   UNL A   1      43.189  22.876  28.186  1.00  0.00     0.135 A 
ATOM     54  F   UNL A   1      42.958  24.262  24.833  1.00  0.00    -0.206 F 
ATOM     55  C   UNL A   1      42.426  22.114  25.618  1.00  0.00     0.059 A 
ATOM     56  C   UNL A   1      42.755  21.574  27.963  1.00  0.00     0.059 A 
ATOM     57  F   UNL A   1      43.564  23.213  29.430  1.00  0.00    -0.206 F 
ATOM     58  C   UNL A   1      42.359  21.208  26.679  1.00  0.00     0.060 A 
BRANCH  58  59
ATOM     59  S   UNL A   1      41.786  19.527  26.357  1.00  0.00     0.124 S 
ATOM     60  O   UNL A   1      42.239  18.831  27.556  1.00  0.00    -0.237 OA
ATOM     61  O   UNL A   1      40.344  19.710  26.230  1.00  0.00    -0.237 OA
ATOM     62  O   UNL A   1      42.474  19.171  25.120  1.00  0.00    -0.744 OA
ENDBRANCH  58  59
ENDBRANCH  26  51
BRANCH  38  63
ATOM     63  C   UNL A   1      49.473  26.908  26.463  1.00  0.00     0.058 A 
ATOM     64  C   UNL A   1      49.861  26.958  25.114  1.00  0.00     0.135 A 
ATOM     65  C   UNL A   1      50.372  26.355  27.387  1.00  0.00     0.135 A 
ATOM     66  F   UNL A   1      49.032  27.471  24.192  1.00  0.00    -0.206 F 
ATOM     67  C   UNL A   1      51.079  26.438  24.691  1.00  0.00     0.059 A 
ATOM     68  C   UNL A   1      51.607  25.853  26.989  1.00  0.00     0.059 A 
ATOM     69  F   UNL A   1      50.054  26.293  28.689  1.00  0.00    -0.206 F 
ATOM     70  C   UNL A   1      51.942  25.881  25.635  1.00  0.00     0.060 A 
BRANCH  70  71
ATOM     71  S   UNL A   1      53.518  25.203  25.073  1.00  0.00     0.124 S 
ATOM     72  O   UNL A   1      54.457  25.850  25.985  1.00  0.00    -0.237 OA
ATOM     73  O   UNL A   1      53.331  23.769  25.269  1.00  0.00    -0.237 OA
ATOM     74  O   UNL A   1      53.595  25.635  23.681  1.00  0.00    -0.744 OA
ENDBRANCH  70  71
ENDBRANCH  38  63
ENDBRANCH  12  13
ENDBRANCH   5   7
ENDBRANCH   2   3
ENDBRANCH   1   2
BRANCH   1  75
ATOM     75  C   UNL A   1      35.537  32.603  27.883  1.00  0.00     0.023 C 
BRANCH  75  76
ATOM     76  C   UNL A   1      34.371  31.651  28.127  1.00  0.00     0.116 C 
BRANCH  76  77
ATOM     77  N   UNL A   1      33.113  32.140  27.581  1.00  0.00    -0.352 N 
ATOM     78  C   UNL A   1      32.172  31.470  26.832  1.00  0.00     0.251 C 
ATOM     79  H   UNL A   1      32.905  33.083  27.775  1.00  0.00     0.163 HD
ATOM     80  O   UNL A   1      31.222  32.052  26.339  1.00  0.00    -0.269 OA
BRANCH  78  81
ATOM     81  C   UNL A   1      32.357  30.025  26.597  1.00  0.00     0.039 A 
ATOM     82  C   UNL A   1      31.805  29.120  27.498  1.00  0.00     0.014 A 
ATOM     83  C   UNL A   1      33.028  29.572  25.462  1.00  0.00     0.014 A 
ATOM     84  C   UNL A   1      31.823  27.758  27.195  1.00  0.00     0.005 A 
ATOM     85  C   UNL A   1      33.016  28.214  25.150  1.00  0.00     0.005 A 
ATOM     86  C   UNL A   1      32.365  27.289  25.983  1.00  0.00    -0.043 A 
BRANCH  86  87
ATOM     87  C   UNL A   1      32.236  25.810  25.621  1.00  0.00     0.039 C 
ATOM     88  C   UNL A   1      30.904  25.218  26.152  1.00  0.00     0.012 C 
ATOM     89  C   UNL A   1      32.335  25.512  24.107  1.00  0.00     0.128 C 
ATOM     90  C   UNL A   1      30.738  23.742  25.782  1.00  0.00     0.022 C 
ATOM     91  N   UNL A   1      32.166  24.091  23.832  1.00  0.00    -0.338 N 
ATOM     92  C   UNL A   1      30.899  23.520  24.282  1.00  0.00     0.120 C 
BRANCH  91  93
ATOM     93  C   UNL A   1      33.229  23.388  23.279  1.00  0.00     0.253 C 
ATOM     94  O   UNL A   1      33.970  23.827  22.403  1.00  0.00    -0.269 OA
BRANCH  93  95
ATOM     95  C   UNL A   1      33.521  22.041  23.790  1.00  0.00     0.040 A 
ATOM     96  C   UNL A   1      34.685  21.856  24.537  1.00  0.00     0.016 A 
ATOM     97  C   UNL A   1      32.660  20.980  23.479  1.00  0.00     0.024 A 
ATOM     98  C   UNL A   1      35.016  20.590  25.024  1.00  0.00     0.027 A 
ATOM     99  C   UNL A   1      32.987  19.699  23.958  1.00  0.00     0.000 A 
ATOM    100  C   UNL A   1      34.148  19.534  24.718  1.00  0.00     0.045 A 
ATOM    101  C   UNL A   1      32.380  18.417  23.839  1.00  0.00     0.028 A 
ATOM    102  N   UNL A   1      34.228  18.200  25.049  1.00  0.00    -0.361 N 
ATOM    103  C   UNL A   1      33.167  17.515  24.518  1.00  0.00     0.083 A 
ATOM    104  H   UNL A   1      34.945  17.797  25.589  1.00  0.00     0.166 HD
ENDBRANCH  93  95
ENDBRANCH  91  93
ENDBRANCH  86  87
ENDBRANCH  78  81
ENDBRANCH  76  77
ENDBRANCH  75  76
ENDBRANCH   1  75
TORSDOF 17
ENDMDL
