MODEL 1
REMARK VINA RESULT:     -12.1      0.000      0.000
REMARK SMILES CC(C)NC(=O)c1cccc(NC(=O)[C@@H]2[C@H](C(=O)NCCCCNC(=O)c3ccc(-c4c5nc(c(-c6c(F)cc(S(=O)(=O)[O-])cc6F)c6ccc([nH]6)c(-c6c(F)cc(S(=O)(=O)[O-])cc6F)c6nc(c(-c7c(F)cc(S(=O)(=O)[O-])cc7F)c7ccc4[nH]7)C=C6)C=C5)cc3)C2(C)C)c1
REMARK SMILES IDX 21 1 20 2 19 3 17 4 18 5 16 7 15 8 93 9 94 10 95 11 13 12
REMARK SMILES IDX 12 13 14 15 11 16 7 17 8 18 96 19 9 20 10 21 5 22 4 23 6 25
REMARK SMILES IDX 2 26 1 27 3 28 22 29 23 30 24 31 25 32 26 34 27 35 28 36
REMARK SMILES IDX 92 37 29 38 91 39 30 40 31 41 32 42 85 43 33 44 90 45 84 46
REMARK SMILES IDX 86 47 34 48 89 49 83 50 82 51 35 53 69 54 48 55 68 56 49 57
REMARK SMILES IDX 52 58 67 59 87 60 50 61 51 62 66 64 88 65 53 66 36 67 37 68
REMARK SMILES IDX 46 69 38 70 39 71 45 72 47 73 40 74 41 75 42 76 43 77 44 78
REMARK SMILES IDX 70 79 71 80 80 81 72 82 73 83 79 84 81 85 74 86 75 87 76 88
REMARK SMILES IDX 77 89 78 90 54 91 55 92 64 93 56 94 57 95 63 96 65 97 58 98
REMARK SMILES IDX 59 99 60 100 61 101 62 102
REMARK H PARENT 19 6 12 14 4 24 24 33 86 52 52 63
REMARK Flexibility Score: inf
ROOT
ATOM      1  C   UNL A   1      33.515  28.260  24.583  1.00  0.00     0.023 C 
ENDROOT
BRANCH   1   2
ATOM      2  C   UNL A   1      33.669  26.969  23.782  1.00  0.00     0.116 C 
BRANCH   2   3
ATOM      3  N   UNL A   1      34.076  25.858  24.622  1.00  0.00    -0.356 N 
ATOM      4  C   UNL A   1      33.334  24.771  25.007  1.00  0.00     0.224 C 
ATOM      5  O   UNL A   1      33.711  24.048  25.919  1.00  0.00    -0.275 OA
ATOM      6  H   UNL A   1      35.001  25.889  24.958  1.00  0.00     0.163 HD
BRANCH   4   7
ATOM      7  C   UNL A   1      32.019  24.555  24.385  1.00  0.00     0.098 C 
ATOM      8  C   UNL A   1      30.961  23.606  24.811  1.00  0.00     0.098 C 
ATOM      9  C   UNL A   1      30.613  25.088  24.800  1.00  0.00    -0.011 C 
ATOM     10  C   UNL A   1      29.858  25.678  23.615  1.00  0.00     0.013 C 
ATOM     11  C   UNL A   1      29.958  25.550  26.083  1.00  0.00     0.013 C 
BRANCH   8  12
ATOM     12  C   UNL A   1      31.050  22.619  25.932  1.00  0.00     0.228 C 
ATOM     13  N   UNL A   1      31.895  21.567  26.209  1.00  0.00    -0.326 N 
ATOM     14  H   UNL A   1      31.756  21.282  27.141  1.00  0.00     0.169 HD
ATOM     15  O   UNL A   1      30.202  22.794  26.819  1.00  0.00    -0.274 OA
BRANCH  13  16
ATOM     16  C   UNL A   1      32.884  20.757  25.623  1.00  0.00     0.041 A 
ATOM     17  C   UNL A   1      33.390  18.819  24.230  1.00  0.00     0.041 A 
ATOM     18  C   UNL A   1      34.756  19.074  24.302  1.00  0.00     0.014 A 
ATOM     19  C   UNL A   1      32.457  19.633  24.901  1.00  0.00     0.040 A 
ATOM     20  C   UNL A   1      35.184  20.175  25.011  1.00  0.00     0.003 A 
ATOM     21  C   UNL A   1      34.245  20.994  25.644  1.00  0.00     0.026 A 
BRANCH  17  22
ATOM     22  C   UNL A   1      32.983  17.675  23.401  1.00  0.00     0.251 C 
ATOM     23  N   UNL A   1      32.938  16.426  23.959  1.00  0.00    -0.350 N 
ATOM     24  H   UNL A   1      32.588  15.717  23.373  1.00  0.00     0.164 HD
ATOM     25  O   UNL A   1      32.617  17.871  22.247  1.00  0.00    -0.269 OA
BRANCH  23  26
ATOM     26  C   UNL A   1      33.333  15.989  25.294  1.00  0.00     0.076 C 
ATOM     27  C   UNL A   1      32.563  14.741  25.708  1.00  0.00     0.030 C 
ATOM     28  C   UNL A   1      34.839  15.753  25.305  1.00  0.00     0.030 C 
ENDBRANCH  23  26
ENDBRANCH  17  22
ENDBRANCH  13  16
ENDBRANCH   8  12
ENDBRANCH   4   7
ENDBRANCH   2   3
ENDBRANCH   1   2
BRANCH   1  29
ATOM     29  C   UNL A   1      32.869  28.090  25.960  1.00  0.00     0.023 C 
BRANCH  29  30
ATOM     30  C   UNL A   1      33.768  28.417  27.151  1.00  0.00     0.116 C 
BRANCH  30  31
ATOM     31  N   UNL A   1      33.669  29.808  27.565  1.00  0.00    -0.352 N 
ATOM     32  C   UNL A   1      34.572  30.596  28.235  1.00  0.00     0.251 C 
ATOM     33  H   UNL A   1      32.824  30.254  27.327  1.00  0.00     0.163 HD
ATOM     34  O   UNL A   1      34.222  31.695  28.657  1.00  0.00    -0.269 OA
BRANCH  32  35
ATOM     35  C   UNL A   1      35.954  30.122  28.466  1.00  0.00     0.039 A 
ATOM     36  C   UNL A   1      36.864  30.152  27.406  1.00  0.00     0.014 A 
ATOM     37  C   UNL A   1      36.351  29.631  29.713  1.00  0.00     0.014 A 
ATOM     38  C   UNL A   1      38.187  29.753  27.616  1.00  0.00     0.010 A 
ATOM     39  C   UNL A   1      37.687  29.309  29.940  1.00  0.00     0.010 A 
ATOM     40  C   UNL A   1      38.621  29.365  28.894  1.00  0.00    -0.014 A 
BRANCH  40  41
ATOM     41  C   UNL A   1      40.046  29.025  29.150  1.00  0.00     0.031 A 
ATOM     42  C   UNL A   1      40.994  30.066  29.684  1.00  0.00     0.074 A 
ATOM     43  C   UNL A   1      40.501  27.792  28.842  1.00  0.00     0.049 A 
ATOM     44  N   UNL A   1      42.277  29.968  29.919  1.00  0.00    -0.248 NA
ATOM     45  C   UNL A   1      40.435  31.400  29.968  1.00  0.00     0.031 C 
ATOM     46  C   UNL A   1      39.696  26.715  28.259  1.00  0.00     0.029 A 
ATOM     47  N   UNL A   1      41.752  27.238  28.960  1.00  0.00    -0.354 N 
ATOM     48  C   UNL A   1      42.682  31.225  30.356  1.00  0.00     0.074 A 
ATOM     49  C   UNL A   1      41.519  32.082  30.315  1.00  0.00     0.031 C 
ATOM     50  C   UNL A   1      40.468  25.630  28.086  1.00  0.00     0.029 A 
ATOM     51  C   UNL A   1      41.830  25.941  28.505  1.00  0.00     0.049 A 
ATOM     52  H   UNL A   1      42.522  27.724  29.336  1.00  0.00     0.167 HD
ATOM     53  C   UNL A   1      43.909  31.621  30.770  1.00  0.00     0.037 A 
ATOM     54  C   UNL A   1      42.882  25.103  28.420  1.00  0.00     0.037 A 
ATOM     55  C   UNL A   1      45.053  30.749  30.850  1.00  0.00     0.049 A 
ATOM     56  C   UNL A   1      44.228  25.564  28.911  1.00  0.00     0.074 A 
ATOM     57  C   UNL A   1      46.314  31.035  31.346  1.00  0.00     0.029 A 
ATOM     58  N   UNL A   1      45.083  29.432  30.420  1.00  0.00    -0.354 N 
ATOM     59  N   UNL A   1      44.567  26.729  29.412  1.00  0.00    -0.248 NA
ATOM     60  C   UNL A   1      45.335  24.600  28.835  1.00  0.00     0.031 C 
ATOM     61  C   UNL A   1      47.122  29.911  31.160  1.00  0.00     0.029 A 
ATOM     62  C   UNL A   1      46.348  28.903  30.608  1.00  0.00     0.049 A 
ATOM     63  H   UNL A   1      44.318  28.945  30.036  1.00  0.00     0.167 HD
ATOM     64  C   UNL A   1      45.916  26.623  29.740  1.00  0.00     0.074 A 
ATOM     65  C   UNL A   1      46.326  25.279  29.395  1.00  0.00     0.031 C 
ATOM     66  C   UNL A   1      46.740  27.556  30.276  1.00  0.00     0.037 A 
BRANCH  53  67
ATOM     67  C   UNL A   1      44.097  33.056  31.178  1.00  0.00     0.058 A 
ATOM     68  C   UNL A   1      44.374  34.063  30.242  1.00  0.00     0.135 A 
ATOM     69  C   UNL A   1      43.897  33.441  32.515  1.00  0.00     0.135 A 
ATOM     70  F   UNL A   1      44.591  33.750  28.954  1.00  0.00    -0.206 F 
ATOM     71  C   UNL A   1      44.450  35.402  30.615  1.00  0.00     0.059 A 
ATOM     72  C   UNL A   1      43.941  34.776  32.906  1.00  0.00     0.059 A 
ATOM     73  F   UNL A   1      43.634  32.517  33.452  1.00  0.00    -0.206 F 
ATOM     74  C   UNL A   1      44.222  35.749  31.948  1.00  0.00     0.060 A 
BRANCH  74  75
ATOM     75  S   UNL A   1      44.271  37.495  32.404  1.00  0.00     0.124 S 
ATOM     76  O   UNL A   1      45.649  37.637  32.862  1.00  0.00    -0.237 OA
ATOM     77  O   UNL A   1      43.952  38.153  31.142  1.00  0.00    -0.237 OA
ATOM     78  O   UNL A   1      43.250  37.606  33.442  1.00  0.00    -0.744 OA
ENDBRANCH  74  75
ENDBRANCH  53  67
BRANCH  54  79
ATOM     79  C   UNL A   1      42.713  23.741  27.840  1.00  0.00     0.058 A 
ATOM     80  C   UNL A   1      42.821  23.517  26.459  1.00  0.00     0.135 A 
ATOM     81  C   UNL A   1      42.411  22.639  28.656  1.00  0.00     0.135 A 
ATOM     82  F   UNL A   1      43.105  24.537  25.635  1.00  0.00    -0.206 F 
ATOM     83  C   UNL A   1      42.597  22.261  25.904  1.00  0.00     0.059 A 
ATOM     84  C   UNL A   1      42.215  21.367  28.128  1.00  0.00     0.059 A 
ATOM     85  F   UNL A   1      42.317  22.792  29.987  1.00  0.00    -0.206 F 
ATOM     86  C   UNL A   1      42.290  21.192  26.747  1.00  0.00     0.060 A 
BRANCH  86  87
ATOM     87  S   UNL A   1      42.006  19.564  26.019  1.00  0.00     0.124 S 
ATOM     88  O   UNL A   1      42.852  19.625  24.833  1.00  0.00    -0.237 OA
ATOM     89  O   UNL A   1      42.455  18.670  27.081  1.00  0.00    -0.237 OA
ATOM     90  O   UNL A   1      40.567  19.556  25.769  1.00  0.00    -0.744 OA
ENDBRANCH  86  87
ENDBRANCH  54  79
BRANCH  66  91
ATOM     91  C   UNL A   1      48.159  27.149  30.569  1.00  0.00     0.058 A 
ATOM     92  C   UNL A   1      49.172  27.238  29.602  1.00  0.00     0.135 A 
ATOM     93  C   UNL A   1      48.518  26.716  31.857  1.00  0.00     0.135 A 
ATOM     94  F   UNL A   1      48.881  27.641  28.355  1.00  0.00    -0.206 F 
ATOM     95  C   UNL A   1      50.486  26.890  29.894  1.00  0.00     0.059 A 
ATOM     96  C   UNL A   1      49.831  26.393  32.180  1.00  0.00     0.059 A 
ATOM     97  F   UNL A   1      47.590  26.624  32.824  1.00  0.00    -0.206 F 
ATOM     98  C   UNL A   1      50.806  26.471  31.187  1.00  0.00     0.060 A 
BRANCH  98  99
ATOM     99  S   UNL A   1      52.523  26.054  31.560  1.00  0.00     0.124 S 
ATOM    100  O   UNL A   1      52.852  27.049  32.576  1.00  0.00    -0.237 OA
ATOM    101  O   UNL A   1      52.415  24.677  32.032  1.00  0.00    -0.237 OA
ATOM    102  O   UNL A   1      53.200  26.221  30.278  1.00  0.00    -0.744 OA
ENDBRANCH  98  99
ENDBRANCH  66  91
ENDBRANCH  40  41
ENDBRANCH  32  35
ENDBRANCH  30  31
ENDBRANCH  29  30
ENDBRANCH   1  29
TORSDOF 18
ENDMDL
MODEL 2
REMARK VINA RESULT:     -12.0      5.058     10.790
REMARK SMILES CC(C)NC(=O)c1cccc(NC(=O)[C@@H]2[C@H](C(=O)NCCCCNC(=O)c3ccc(-c4c5nc(c(-c6c(F)cc(S(=O)(=O)[O-])cc6F)c6ccc([nH]6)c(-c6c(F)cc(S(=O)(=O)[O-])cc6F)c6nc(c(-c7c(F)cc(S(=O)(=O)[O-])cc7F)c7ccc4[nH]7)C=C6)C=C5)cc3)C2(C)C)c1
REMARK SMILES IDX 21 1 20 2 19 3 17 4 18 5 16 7 15 8 93 9 94 10 95 11 13 12
REMARK SMILES IDX 12 13 14 15 11 16 7 17 8 18 96 19 9 20 10 21 5 22 4 23 6 25
REMARK SMILES IDX 2 26 1 27 3 28 22 29 23 30 24 31 25 32 26 34 27 35 28 36
REMARK SMILES IDX 92 37 29 38 91 39 30 40 31 41 32 42 85 43 33 44 90 45 84 46
REMARK SMILES IDX 86 47 34 48 89 49 83 50 82 51 35 53 69 54 48 55 68 56 49 57
REMARK SMILES IDX 52 58 67 59 87 60 50 61 51 62 66 64 88 65 53 66 36 67 37 68
REMARK SMILES IDX 46 69 38 70 39 71 45 72 47 73 40 74 41 75 42 76 43 77 44 78
REMARK SMILES IDX 70 79 71 80 80 81 72 82 73 83 79 84 81 85 74 86 75 87 76 88
REMARK SMILES IDX 77 89 78 90 54 91 55 92 64 93 56 94 57 95 63 96 65 97 58 98
REMARK SMILES IDX 59 99 60 100 61 101 62 102
REMARK H PARENT 19 6 12 14 4 24 24 33 86 52 52 63
REMARK Flexibility Score: inf
ROOT
ATOM      1  C   UNL A   1      37.003  22.215  25.330  1.00  0.00     0.023 C 
ENDROOT
BRANCH   1   2
ATOM      2  C   UNL A   1      35.642  22.079  26.009  1.00  0.00     0.116 C 
BRANCH   2   3
ATOM      3  N   UNL A   1      35.070  23.373  26.334  1.00  0.00    -0.356 N 
ATOM      4  C   UNL A   1      33.857  23.883  25.947  1.00  0.00     0.224 C 
ATOM      5  O   UNL A   1      33.612  25.075  26.075  1.00  0.00    -0.275 OA
ATOM      6  H   UNL A   1      35.621  23.956  26.904  1.00  0.00     0.163 HD
BRANCH   4   7
ATOM      7  C   UNL A   1      32.900  22.998  25.269  1.00  0.00     0.098 C 
ATOM      8  C   UNL A   1      31.418  23.029  25.356  1.00  0.00     0.098 C 
ATOM      9  C   UNL A   1      32.046  23.239  23.985  1.00  0.00    -0.011 C 
ATOM     10  C   UNL A   1      32.143  22.071  23.012  1.00  0.00     0.013 C 
ATOM     11  C   UNL A   1      31.486  24.443  23.259  1.00  0.00     0.013 C 
BRANCH   8  12
ATOM     12  C   UNL A   1      30.597  23.935  26.219  1.00  0.00     0.228 C 
ATOM     13  N   UNL A   1      29.966  25.140  26.004  1.00  0.00    -0.326 N 
ATOM     14  H   UNL A   1      29.361  25.323  26.759  1.00  0.00     0.169 HD
ATOM     15  O   UNL A   1      30.422  23.504  27.368  1.00  0.00    -0.274 OA
BRANCH  13  16
ATOM     16  C   UNL A   1      29.887  26.201  25.084  1.00  0.00     0.041 A 
ATOM     17  C   UNL A   1      31.013  28.090  24.030  1.00  0.00     0.041 A 
ATOM     18  C   UNL A   1      29.920  28.334  23.204  1.00  0.00     0.014 A 
ATOM     19  C   UNL A   1      30.997  27.051  24.980  1.00  0.00     0.040 A 
ATOM     20  C   UNL A   1      28.824  27.504  23.302  1.00  0.00     0.003 A 
ATOM     21  C   UNL A   1      28.835  26.455  24.226  1.00  0.00     0.026 A 
BRANCH  17  22
ATOM     22  C   UNL A   1      32.183  28.959  23.833  1.00  0.00     0.251 C 
ATOM     23  N   UNL A   1      32.611  29.749  24.866  1.00  0.00    -0.350 N 
ATOM     24  H   UNL A   1      33.440  30.250  24.695  1.00  0.00     0.164 HD
ATOM     25  O   UNL A   1      32.801  28.904  22.775  1.00  0.00    -0.269 OA
BRANCH  23  26
ATOM     26  C   UNL A   1      32.018  29.959  26.183  1.00  0.00     0.076 C 
ATOM     27  C   UNL A   1      33.082  29.899  27.273  1.00  0.00     0.030 C 
ATOM     28  C   UNL A   1      31.287  31.296  26.182  1.00  0.00     0.030 C 
ENDBRANCH  23  26
ENDBRANCH  17  22
ENDBRANCH  13  16
ENDBRANCH   8  12
ENDBRANCH   4   7
ENDBRANCH   2   3
ENDBRANCH   1   2
BRANCH   1  29
ATOM     29  C   UNL A   1      37.574  23.635  25.312  1.00  0.00     0.023 C 
BRANCH  29  30
ATOM     30  C   UNL A   1      38.450  24.005  26.507  1.00  0.00     0.116 C 
BRANCH  30  31
ATOM     31  N   UNL A   1      39.870  23.842  26.235  1.00  0.00    -0.352 N 
ATOM     32  C   UNL A   1      40.938  24.613  26.625  1.00  0.00     0.251 C 
ATOM     33  H   UNL A   1      40.102  23.057  25.688  1.00  0.00     0.163 HD
ATOM     34  O   UNL A   1      42.045  24.409  26.132  1.00  0.00    -0.269 OA
BRANCH  32  35
ATOM     35  C   UNL A   1      40.758  25.695  27.617  1.00  0.00     0.039 A 
ATOM     36  C   UNL A   1      39.717  25.595  28.544  1.00  0.00     0.014 A 
ATOM     37  C   UNL A   1      41.595  26.814  27.626  1.00  0.00     0.014 A 
ATOM     38  C   UNL A   1      39.560  26.582  29.519  1.00  0.00     0.010 A 
ATOM     39  C   UNL A   1      41.486  27.756  28.647  1.00  0.00     0.010 A 
ATOM     40  C   UNL A   1      40.465  27.653  29.605  1.00  0.00    -0.014 A 
BRANCH  40  41
ATOM     41  C   UNL A   1      40.362  28.661  30.694  1.00  0.00     0.031 A 
ATOM     42  C   UNL A   1      41.199  28.527  31.938  1.00  0.00     0.074 A 
ATOM     43  C   UNL A   1      39.466  29.665  30.586  1.00  0.00     0.049 A 
ATOM     44  N   UNL A   1      41.206  29.276  33.010  1.00  0.00    -0.248 NA
ATOM     45  C   UNL A   1      42.132  27.388  32.000  1.00  0.00     0.031 C 
ATOM     46  C   UNL A   1      38.553  29.866  29.458  1.00  0.00     0.029 A 
ATOM     47  N   UNL A   1      39.163  30.696  31.441  1.00  0.00    -0.354 N 
ATOM     48  C   UNL A   1      42.122  28.693  33.878  1.00  0.00     0.074 A 
ATOM     49  C   UNL A   1      42.623  27.503  33.227  1.00  0.00     0.031 C 
ATOM     50  C   UNL A   1      37.806  30.959  29.683  1.00  0.00     0.029 A 
ATOM     51  C   UNL A   1      38.155  31.515  30.986  1.00  0.00     0.049 A 
ATOM     52  H   UNL A   1      39.626  30.837  32.299  1.00  0.00     0.167 HD
ATOM     53  C   UNL A   1      42.521  29.122  35.099  1.00  0.00     0.037 A 
ATOM     54  C   UNL A   1      37.566  32.583  31.560  1.00  0.00     0.037 A 
ATOM     55  C   UNL A   1      42.051  30.332  35.721  1.00  0.00     0.049 A 
ATOM     56  C   UNL A   1      38.049  33.051  32.908  1.00  0.00     0.074 A 
ATOM     57  C   UNL A   1      42.468  30.900  36.915  1.00  0.00     0.029 A 
ATOM     58  N   UNL A   1      41.061  31.157  35.213  1.00  0.00    -0.354 N 
ATOM     59  N   UNL A   1      38.987  32.538  33.669  1.00  0.00    -0.248 NA
ATOM     60  C   UNL A   1      37.403  34.243  33.473  1.00  0.00     0.031 C 
ATOM     61  C   UNL A   1      41.688  32.032  37.156  1.00  0.00     0.029 A 
ATOM     62  C   UNL A   1      40.829  32.209  36.083  1.00  0.00     0.049 A 
ATOM     63  H   UNL A   1      40.591  31.016  34.359  1.00  0.00     0.167 HD
ATOM     64  C   UNL A   1      39.064  33.366  34.786  1.00  0.00     0.074 A 
ATOM     65  C   UNL A   1      38.090  34.418  34.593  1.00  0.00     0.031 C 
ATOM     66  C   UNL A   1      39.868  33.262  35.872  1.00  0.00     0.037 A 
BRANCH  53  67
ATOM     67  C   UNL A   1      43.522  28.292  35.857  1.00  0.00     0.058 A 
ATOM     68  C   UNL A   1      43.126  27.274  36.736  1.00  0.00     0.135 A 
ATOM     69  C   UNL A   1      44.897  28.456  35.619  1.00  0.00     0.135 A 
ATOM     70  F   UNL A   1      41.826  27.084  37.012  1.00  0.00    -0.206 F 
ATOM     71  C   UNL A   1      44.057  26.448  37.357  1.00  0.00     0.059 A 
ATOM     72  C   UNL A   1      45.845  27.624  36.209  1.00  0.00     0.059 A 
ATOM     73  F   UNL A   1      45.330  29.419  34.791  1.00  0.00    -0.206 F 
ATOM     74  C   UNL A   1      45.414  26.624  37.079  1.00  0.00     0.060 A 
BRANCH  74  75
ATOM     75  S   UNL A   1      46.604  25.508  37.852  1.00  0.00     0.124 S 
ATOM     76  O   UNL A   1      47.521  25.249  36.746  1.00  0.00    -0.237 OA
ATOM     77  O   UNL A   1      47.136  26.327  38.937  1.00  0.00    -0.237 OA
ATOM     78  O   UNL A   1      45.787  24.373  38.269  1.00  0.00    -0.744 OA
ENDBRANCH  74  75
ENDBRANCH  53  67
BRANCH  54  79
ATOM     79  C   UNL A   1      36.447  33.285  30.872  1.00  0.00     0.058 A 
ATOM     80  C   UNL A   1      36.679  34.135  29.779  1.00  0.00     0.135 A 
ATOM     81  C   UNL A   1      35.122  33.140  31.313  1.00  0.00     0.135 A 
ATOM     82  F   UNL A   1      37.928  34.311  29.320  1.00  0.00    -0.206 F 
ATOM     83  C   UNL A   1      35.647  34.846  29.176  1.00  0.00     0.059 A 
ATOM     84  C   UNL A   1      34.069  33.815  30.705  1.00  0.00     0.059 A 
ATOM     85  F   UNL A   1      34.839  32.323  32.340  1.00  0.00    -0.206 F 
ATOM     86  C   UNL A   1      34.344  34.683  29.649  1.00  0.00     0.060 A 
BRANCH  86  87
ATOM     87  S   UNL A   1      33.010  35.605  28.856  1.00  0.00     0.124 S 
ATOM     88  O   UNL A   1      32.265  36.093  30.011  1.00  0.00    -0.237 OA
ATOM     89  O   UNL A   1      33.742  36.611  28.094  1.00  0.00    -0.237 OA
ATOM     90  O   UNL A   1      32.334  34.590  28.052  1.00  0.00    -0.744 OA
ENDBRANCH  86  87
ENDBRANCH  54  79
BRANCH  66  91
ATOM     91  C   UNL A   1      39.766  34.336  36.921  1.00  0.00     0.058 A 
ATOM     92  C   UNL A   1      39.014  34.162  38.092  1.00  0.00     0.135 A 
ATOM     93  C   UNL A   1      40.482  35.537  36.774  1.00  0.00     0.135 A 
ATOM     94  F   UNL A   1      38.308  33.035  38.280  1.00  0.00    -0.206 F 
ATOM     95  C   UNL A   1      38.954  35.149  39.070  1.00  0.00     0.059 A 
ATOM     96  C   UNL A   1      40.462  36.524  37.753  1.00  0.00     0.059 A 
ATOM     97  F   UNL A   1      41.228  35.751  35.678  1.00  0.00    -0.206 F 
ATOM     98  C   UNL A   1      39.684  36.326  38.892  1.00  0.00     0.060 A 
BRANCH  98  99
ATOM     99  S   UNL A   1      39.624  37.584  40.185  1.00  0.00     0.124 S 
ATOM    100  O   UNL A   1      38.728  38.572  39.592  1.00  0.00    -0.237 OA
ATOM    101  O   UNL A   1      39.085  36.840  41.320  1.00  0.00    -0.237 OA
ATOM    102  O   UNL A   1      41.016  38.000  40.320  1.00  0.00    -0.744 OA
ENDBRANCH  98  99
ENDBRANCH  66  91
ENDBRANCH  40  41
ENDBRANCH  32  35
ENDBRANCH  30  31
ENDBRANCH  29  30
ENDBRANCH   1  29
TORSDOF 18
ENDMDL
MODEL 3
REMARK VINA RESULT:     -11.9      3.573      9.403
REMARK SMILES CC(C)NC(=O)c1cccc(NC(=O)[C@@H]2[C@H](C(=O)NCCCCNC(=O)c3ccc(-c4c5nc(c(-c6c(F)cc(S(=O)(=O)[O-])cc6F)c6ccc([nH]6)c(-c6c(F)cc(S(=O)(=O)[O-])cc6F)c6nc(c(-c7c(F)cc(S(=O)(=O)[O-])cc7F)c7ccc4[nH]7)C=C6)C=C5)cc3)C2(C)C)c1
REMARK SMILES IDX 21 1 20 2 19 3 17 4 18 5 16 7 15 8 93 9 94 10 95 11 13 12
REMARK SMILES IDX 12 13 14 15 11 16 7 17 8 18 96 19 9 20 10 21 5 22 4 23 6 25
REMARK SMILES IDX 2 26 1 27 3 28 22 29 23 30 24 31 25 32 26 34 27 35 28 36
REMARK SMILES IDX 92 37 29 38 91 39 30 40 31 41 32 42 85 43 33 44 90 45 84 46
REMARK SMILES IDX 86 47 34 48 89 49 83 50 82 51 35 53 69 54 48 55 68 56 49 57
REMARK SMILES IDX 52 58 67 59 87 60 50 61 51 62 66 64 88 65 53 66 36 67 37 68
REMARK SMILES IDX 46 69 38 70 39 71 45 72 47 73 40 74 41 75 42 76 43 77 44 78
REMARK SMILES IDX 70 79 71 80 80 81 72 82 73 83 79 84 81 85 74 86 75 87 76 88
REMARK SMILES IDX 77 89 78 90 54 91 55 92 64 93 56 94 57 95 63 96 65 97 58 98
REMARK SMILES IDX 59 99 60 100 61 101 62 102
REMARK H PARENT 19 6 12 14 4 24 24 33 86 52 52 63
REMARK Flexibility Score: inf
ROOT
ATOM      1  C   UNL A   1      36.631  20.237  25.023  1.00  0.00     0.023 C 
ENDROOT
BRANCH   1   2
ATOM      2  C   UNL A   1      36.441  21.611  25.661  1.00  0.00     0.116 C 
BRANCH   2   3
ATOM      3  N   UNL A   1      35.499  21.568  26.766  1.00  0.00    -0.356 N 
ATOM      4  C   UNL A   1      34.245  22.117  26.831  1.00  0.00     0.224 C 
ATOM      5  O   UNL A   1      33.667  22.229  27.904  1.00  0.00    -0.275 OA
ATOM      6  H   UNL A   1      35.800  21.083  27.568  1.00  0.00     0.163 HD
BRANCH   4   7
ATOM      7  C   UNL A   1      33.653  22.678  25.608  1.00  0.00     0.098 C 
ATOM      8  C   UNL A   1      32.553  23.669  25.507  1.00  0.00     0.098 C 
ATOM      9  C   UNL A   1      33.901  24.053  24.912  1.00  0.00    -0.011 C 
ATOM     10  C   UNL A   1      34.138  23.895  23.415  1.00  0.00     0.013 C 
ATOM     11  C   UNL A   1      34.367  25.424  25.346  1.00  0.00     0.013 C 
BRANCH   8  12
ATOM     12  C   UNL A   1      31.770  24.249  26.643  1.00  0.00     0.228 C 
ATOM     13  N   UNL A   1      31.320  25.516  26.940  1.00  0.00    -0.326 N 
ATOM     14  H   UNL A   1      30.671  25.460  27.678  1.00  0.00     0.169 HD
ATOM     15  O   UNL A   1      31.429  23.412  27.491  1.00  0.00    -0.274 OA
BRANCH  13  16
ATOM     16  C   UNL A   1      31.467  26.862  26.559  1.00  0.00     0.041 A 
ATOM     17  C   UNL A   1      31.277  28.523  24.783  1.00  0.00     0.041 A 
ATOM     18  C   UNL A   1      31.630  29.552  25.652  1.00  0.00     0.014 A 
ATOM     19  C   UNL A   1      31.217  27.185  25.218  1.00  0.00     0.040 A 
ATOM     20  C   UNL A   1      31.879  29.242  26.972  1.00  0.00     0.003 A 
ATOM     21  C   UNL A   1      31.783  27.914  27.397  1.00  0.00     0.026 A 
BRANCH  17  22
ATOM     22  C   UNL A   1      30.951  28.919  23.405  1.00  0.00     0.251 C 
ATOM     23  N   UNL A   1      31.655  28.371  22.367  1.00  0.00    -0.350 N 
ATOM     24  H   UNL A   1      31.339  28.620  21.469  1.00  0.00     0.164 HD
ATOM     25  O   UNL A   1      30.004  29.673  23.205  1.00  0.00    -0.269 OA
BRANCH  23  26
ATOM     26  C   UNL A   1      32.804  27.472  22.395  1.00  0.00     0.076 C 
ATOM     27  C   UNL A   1      32.687  26.406  21.312  1.00  0.00     0.030 C 
ATOM     28  C   UNL A   1      34.075  28.299  22.238  1.00  0.00     0.030 C 
ENDBRANCH  23  26
ENDBRANCH  17  22
ENDBRANCH  13  16
ENDBRANCH   8  12
ENDBRANCH   4   7
ENDBRANCH   2   3
ENDBRANCH   1   2
BRANCH   1  29
ATOM     29  C   UNL A   1      38.088  19.801  24.857  1.00  0.00     0.023 C 
BRANCH  29  30
ATOM     30  C   UNL A   1      39.047  20.295  25.938  1.00  0.00     0.116 C 
BRANCH  30  31
ATOM     31  N   UNL A   1      40.196  19.421  26.113  1.00  0.00    -0.352 N 
ATOM     32  C   UNL A   1      41.523  19.730  26.290  1.00  0.00     0.251 C 
ATOM     33  H   UNL A   1      39.992  18.457  26.103  1.00  0.00     0.163 HD
ATOM     34  O   UNL A   1      42.367  18.839  26.231  1.00  0.00    -0.269 OA
BRANCH  32  35
ATOM     35  C   UNL A   1      41.940  21.128  26.533  1.00  0.00     0.039 A 
ATOM     36  C   UNL A   1      42.233  21.528  27.839  1.00  0.00     0.014 A 
ATOM     37  C   UNL A   1      42.026  22.049  25.485  1.00  0.00     0.014 A 
ATOM     38  C   UNL A   1      42.675  22.831  28.083  1.00  0.00     0.010 A 
ATOM     39  C   UNL A   1      42.542  23.322  25.719  1.00  0.00     0.010 A 
ATOM     40  C   UNL A   1      42.871  23.729  27.021  1.00  0.00    -0.014 A 
BRANCH  40  41
ATOM     41  C   UNL A   1      43.426  25.088  27.258  1.00  0.00     0.031 A 
ATOM     42  C   UNL A   1      44.874  25.382  26.963  1.00  0.00     0.074 A 
ATOM     43  C   UNL A   1      42.639  26.043  27.797  1.00  0.00     0.049 A 
ATOM     44  N   UNL A   1      45.544  26.488  27.154  1.00  0.00    -0.248 NA
ATOM     45  C   UNL A   1      45.682  24.283  26.406  1.00  0.00     0.031 C 
ATOM     46  C   UNL A   1      41.237  25.864  28.184  1.00  0.00     0.029 A 
ATOM     47  N   UNL A   1      42.905  27.349  28.127  1.00  0.00    -0.354 N 
ATOM     48  C   UNL A   1      46.851  26.216  26.762  1.00  0.00     0.074 A 
ATOM     49  C   UNL A   1      46.890  24.827  26.361  1.00  0.00     0.031 C 
ATOM     50  C   UNL A   1      40.766  27.018  28.684  1.00  0.00     0.029 A 
ATOM     51  C   UNL A   1      41.837  28.008  28.691  1.00  0.00     0.049 A 
ATOM     52  H   UNL A   1      43.780  27.774  27.973  1.00  0.00     0.167 HD
ATOM     53  C   UNL A   1      47.914  27.053  26.726  1.00  0.00     0.037 A 
ATOM     54  C   UNL A   1      41.735  29.262  29.174  1.00  0.00     0.037 A 
ATOM     55  C   UNL A   1      47.856  28.446  27.084  1.00  0.00     0.049 A 
ATOM     56  C   UNL A   1      42.928  30.177  29.096  1.00  0.00     0.074 A 
ATOM     57  C   UNL A   1      48.858  29.398  26.989  1.00  0.00     0.029 A 
ATOM     58  N   UNL A   1      46.747  29.087  27.612  1.00  0.00    -0.354 N 
ATOM     59  N   UNL A   1      44.130  29.925  28.631  1.00  0.00    -0.248 NA
ATOM     60  C   UNL A   1      42.755  31.547  29.599  1.00  0.00     0.031 C 
ATOM     61  C   UNL A   1      48.373  30.597  27.514  1.00  0.00     0.029 A 
ATOM     62  C   UNL A   1      47.049  30.413  27.878  1.00  0.00     0.049 A 
ATOM     63  H   UNL A   1      45.873  28.664  27.774  1.00  0.00     0.167 HD
ATOM     64  C   UNL A   1      44.841  31.115  28.756  1.00  0.00     0.074 A 
ATOM     65  C   UNL A   1      43.934  32.087  29.325  1.00  0.00     0.031 C 
ATOM     66  C   UNL A   1      46.131  31.377  28.429  1.00  0.00     0.037 A 
BRANCH  53  67
ATOM     67  C   UNL A   1      49.241  26.504  26.277  1.00  0.00     0.058 A 
ATOM     68  C   UNL A   1      49.767  26.781  25.007  1.00  0.00     0.135 A 
ATOM     69  C   UNL A   1      50.040  25.772  27.172  1.00  0.00     0.135 A 
ATOM     70  F   UNL A   1      49.040  27.461  24.106  1.00  0.00    -0.206 F 
ATOM     71  C   UNL A   1      51.037  26.350  24.636  1.00  0.00     0.059 A 
ATOM     72  C   UNL A   1      51.324  25.355  26.833  1.00  0.00     0.059 A 
ATOM     73  F   UNL A   1      49.583  25.475  28.399  1.00  0.00    -0.206 F 
ATOM     74  C   UNL A   1      51.812  25.647  25.561  1.00  0.00     0.060 A 
BRANCH  74  75
ATOM     75  S   UNL A   1      53.478  25.142  25.082  1.00  0.00     0.124 S 
ATOM     76  O   UNL A   1      53.445  23.713  25.376  1.00  0.00    -0.237 OA
ATOM     77  O   UNL A   1      53.513  25.496  23.667  1.00  0.00    -0.237 OA
ATOM     78  O   UNL A   1      54.339  25.942  25.947  1.00  0.00    -0.744 OA
ENDBRANCH  74  75
ENDBRANCH  53  67
BRANCH  54  79
ATOM     79  C   UNL A   1      40.460  29.731  29.785  1.00  0.00     0.058 A 
ATOM     80  C   UNL A   1      39.348  30.058  28.993  1.00  0.00     0.135 A 
ATOM     81  C   UNL A   1      40.338  29.889  31.175  1.00  0.00     0.135 A 
ATOM     82  F   UNL A   1      39.413  29.929  27.660  1.00  0.00    -0.206 F 
ATOM     83  C   UNL A   1      38.177  30.562  29.552  1.00  0.00     0.059 A 
ATOM     84  C   UNL A   1      39.167  30.359  31.759  1.00  0.00     0.059 A 
ATOM     85  F   UNL A   1      41.363  29.570  31.981  1.00  0.00    -0.206 F 
ATOM     86  C   UNL A   1      38.098  30.713  30.938  1.00  0.00     0.060 A 
BRANCH  86  87
ATOM     87  S   UNL A   1      36.573  31.361  31.655  1.00  0.00     0.124 S 
ATOM     88  O   UNL A   1      36.113  30.222  32.441  1.00  0.00    -0.237 OA
ATOM     89  O   UNL A   1      37.055  32.511  32.414  1.00  0.00    -0.237 OA
ATOM     90  O   UNL A   1      35.765  31.688  30.483  1.00  0.00    -0.744 OA
ENDBRANCH  86  87
ENDBRANCH  54  79
BRANCH  66  91
ATOM     91  C   UNL A   1      46.632  32.781  28.635  1.00  0.00     0.058 A 
ATOM     92  C   UNL A   1      47.246  33.182  29.830  1.00  0.00     0.135 A 
ATOM     93  C   UNL A   1      46.544  33.721  27.594  1.00  0.00     0.135 A 
ATOM     94  F   UNL A   1      47.351  32.324  30.857  1.00  0.00    -0.206 F 
ATOM     95  C   UNL A   1      47.735  34.474  29.997  1.00  0.00     0.059 A 
ATOM     96  C   UNL A   1      47.054  35.008  27.727  1.00  0.00     0.059 A 
ATOM     97  F   UNL A   1      45.976  33.386  26.424  1.00  0.00    -0.206 F 
ATOM     98  C   UNL A   1      47.637  35.379  28.938  1.00  0.00     0.060 A 
BRANCH  98  99
ATOM     99  S   UNL A   1      48.306  37.041  29.156  1.00  0.00     0.124 S 
ATOM    100  O   UNL A   1      47.191  37.723  29.807  1.00  0.00    -0.237 OA
ATOM    101  O   UNL A   1      49.477  36.799  29.993  1.00  0.00    -0.237 OA
ATOM    102  O   UNL A   1      48.595  37.473  27.792  1.00  0.00    -0.744 OA
ENDBRANCH  98  99
ENDBRANCH  66  91
ENDBRANCH  40  41
ENDBRANCH  32  35
ENDBRANCH  30  31
ENDBRANCH  29  30
ENDBRANCH   1  29
TORSDOF 18
ENDMDL
