MODEL 1
REMARK VINA RESULT:     -11.5      0.000      0.000
REMARK SMILES O=C(NCCCCNC(=O)C1(NC(=O)c2c[nH]c(=O)c(Cl)c2)CCCCC1)c1ccc(-c2c3nc(c(-c4c(F)cc(S(=O)(=O)[O-])cc4F)c4ccc([nH]4)c(-c4c(F)cc(S(=O)(=O)[O-])cc4F)c4nc(c(-c5c(F)cc(S(=O)(=O)[O-])cc5F)c5ccc2[nH]5)C=C4)C=C3)cc1
REMARK SMILES IDX 5 1 4 2 3 3 1 4 2 5 28 7 29 8 93 9 30 10 92 11 31 12 32 13
REMARK SMILES IDX 33 14 86 15 34 16 91 17 85 18 87 19 35 20 90 21 84 22 83 23
REMARK SMILES IDX 36 25 70 26 49 27 69 28 50 29 53 30 68 31 88 32 51 33 52 34
REMARK SMILES IDX 67 36 89 37 54 38 37 39 38 40 47 41 39 42 40 43 46 44 48 45
REMARK SMILES IDX 41 46 42 47 43 48 44 49 45 50 71 51 72 52 81 53 73 54 74 55
REMARK SMILES IDX 80 56 82 57 75 58 76 59 77 60 78 61 79 62 55 63 56 64 65 65
REMARK SMILES IDX 57 66 58 67 64 68 66 69 59 70 60 71 61 72 62 73 63 74 6 75
REMARK SMILES IDX 7 76 8 77 9 78 10 80 11 81 23 82 27 83 24 84 26 85 25 86
REMARK SMILES IDX 12 87 13 88 14 90 15 91 16 92 22 93 17 94 20 95 18 96 21 98
REMARK SMILES IDX 19 99
REMARK H PARENT 3 6 87 24 53 35 8 79 12 89 17 97
REMARK Flexibility Score: inf
ROOT
ATOM      1  C   UNL A   1      33.435  28.025  25.515  1.00  0.00     0.023 C 
ENDROOT
BRANCH   1   2
ATOM      2  C   UNL A   1      33.660  28.236  27.007  1.00  0.00     0.116 C 
BRANCH   2   3
ATOM      3  N   UNL A   1      33.489  29.621  27.423  1.00  0.00    -0.352 N 
ATOM      4  O   UNL A   1      34.093  31.565  28.398  1.00  0.00    -0.269 OA
ATOM      5  C   UNL A   1      34.412  30.452  28.014  1.00  0.00     0.251 C 
ATOM      6  H   UNL A   1      32.599  30.012  27.262  1.00  0.00     0.163 HD
BRANCH   5   7
ATOM      7  C   UNL A   1      35.784  29.940  28.211  1.00  0.00     0.039 A 
ATOM      8  C   UNL A   1      36.167  29.428  29.451  1.00  0.00     0.014 A 
ATOM      9  C   UNL A   1      36.705  30.056  27.168  1.00  0.00     0.014 A 
ATOM     10  C   UNL A   1      37.508  29.176  29.697  1.00  0.00     0.010 A 
ATOM     11  C   UNL A   1      38.041  29.722  27.396  1.00  0.00     0.010 A 
ATOM     12  C   UNL A   1      38.460  29.324  28.675  1.00  0.00    -0.014 A 
BRANCH  12  13
ATOM     13  C   UNL A   1      39.885  29.036  28.972  1.00  0.00     0.031 A 
ATOM     14  C   UNL A   1      40.507  27.723  28.581  1.00  0.00     0.074 A 
ATOM     15  C   UNL A   1      40.626  29.998  29.554  1.00  0.00     0.049 A 
ATOM     16  N   UNL A   1      41.745  27.326  28.727  1.00  0.00    -0.248 NA
ATOM     17  C   UNL A   1      39.629  26.723  27.955  1.00  0.00     0.031 C 
ATOM     18  C   UNL A   1      40.121  31.304  29.983  1.00  0.00     0.029 A 
ATOM     19  N   UNL A   1      41.962  30.043  29.856  1.00  0.00    -0.354 N 
ATOM     20  C   UNL A   1      41.790  26.023  28.242  1.00  0.00     0.074 A 
ATOM     21  C   UNL A   1      40.449  25.691  27.810  1.00  0.00     0.031 C 
ATOM     22  C   UNL A   1      41.143  32.044  30.437  1.00  0.00     0.029 A 
ATOM     23  C   UNL A   1      42.362  31.247  30.384  1.00  0.00     0.049 A 
ATOM     24  H   UNL A   1      42.574  29.286  29.709  1.00  0.00     0.167 HD
ATOM     25  C   UNL A   1      42.854  25.188  28.162  1.00  0.00     0.037 A 
ATOM     26  C   UNL A   1      43.578  31.663  30.782  1.00  0.00     0.037 A 
ATOM     27  C   UNL A   1      44.191  25.544  28.562  1.00  0.00     0.049 A 
ATOM     28  C   UNL A   1      44.743  30.727  30.657  1.00  0.00     0.074 A 
ATOM     29  C   UNL A   1      45.345  24.782  28.492  1.00  0.00     0.029 A 
ATOM     30  N   UNL A   1      44.557  26.769  29.103  1.00  0.00    -0.354 N 
ATOM     31  N   UNL A   1      44.767  29.503  30.184  1.00  0.00    -0.248 NA
ATOM     32  C   UNL A   1      46.044  31.225  31.118  1.00  0.00     0.031 C 
ATOM     33  C   UNL A   1      46.401  25.534  29.018  1.00  0.00     0.029 A 
ATOM     34  C   UNL A   1      45.915  26.779  29.381  1.00  0.00     0.049 A 
ATOM     35  H   UNL A   1      43.942  27.520  29.265  1.00  0.00     0.167 HD
ATOM     36  C   UNL A   1      46.090  29.088  30.278  1.00  0.00     0.074 A 
ATOM     37  C   UNL A   1      46.836  30.199  30.836  1.00  0.00     0.031 C 
ATOM     38  C   UNL A   1      46.637  27.896  29.935  1.00  0.00     0.037 A 
BRANCH  25  39
ATOM     39  C   UNL A   1      42.613  23.798  27.641  1.00  0.00     0.058 A 
ATOM     40  C   UNL A   1      42.579  23.513  26.267  1.00  0.00     0.135 A 
ATOM     41  C   UNL A   1      42.449  22.725  28.534  1.00  0.00     0.135 A 
ATOM     42  F   UNL A   1      42.714  24.503  25.370  1.00  0.00    -0.206 F 
ATOM     43  C   UNL A   1      42.365  22.222  25.795  1.00  0.00     0.059 A 
ATOM     44  C   UNL A   1      42.255  21.421  28.085  1.00  0.00     0.059 A 
ATOM     45  F   UNL A   1      42.472  22.939  29.859  1.00  0.00    -0.206 F 
ATOM     46  C   UNL A   1      42.200  21.183  26.713  1.00  0.00     0.060 A 
BRANCH  46  47
ATOM     47  S   UNL A   1      41.919  19.510  26.089  1.00  0.00     0.124 S 
ATOM     48  O   UNL A   1      42.770  19.498  24.903  1.00  0.00    -0.237 OA
ATOM     49  O   UNL A   1      42.369  18.679  27.200  1.00  0.00    -0.237 OA
ATOM     50  O   UNL A   1      40.483  19.481  25.830  1.00  0.00    -0.744 OA
ENDBRANCH  46  47
ENDBRANCH  25  39
BRANCH  26  51
ATOM     51  C   UNL A   1      43.743  33.037  31.321  1.00  0.00     0.058 A 
ATOM     52  C   UNL A   1      43.932  34.130  30.464  1.00  0.00     0.135 A 
ATOM     53  C   UNL A   1      43.671  33.288  32.700  1.00  0.00     0.135 A 
ATOM     54  F   UNL A   1      44.008  33.938  29.138  1.00  0.00    -0.206 F 
ATOM     55  C   UNL A   1      44.054  35.425  30.954  1.00  0.00     0.059 A 
ATOM     56  C   UNL A   1      43.765  34.577  33.213  1.00  0.00     0.059 A 
ATOM     57  F   UNL A   1      43.469  32.277  33.559  1.00  0.00    -0.206 F 
ATOM     58  C   UNL A   1      43.966  35.638  32.331  1.00  0.00     0.060 A 
BRANCH  58  59
ATOM     59  S   UNL A   1      44.063  37.329  32.960  1.00  0.00     0.124 S 
ATOM     60  O   UNL A   1      44.024  38.103  31.725  1.00  0.00    -0.237 OA
ATOM     61  O   UNL A   1      42.877  37.415  33.806  1.00  0.00    -0.237 OA
ATOM     62  O   UNL A   1      45.335  37.345  33.677  1.00  0.00    -0.744 OA
ENDBRANCH  58  59
ENDBRANCH  26  51
BRANCH  38  63
ATOM     63  C   UNL A   1      48.118  27.750  30.131  1.00  0.00     0.058 A 
ATOM     64  C   UNL A   1      48.659  27.312  31.350  1.00  0.00     0.135 A 
ATOM     65  C   UNL A   1      49.005  28.034  29.081  1.00  0.00     0.135 A 
ATOM     66  F   UNL A   1      47.851  27.035  32.387  1.00  0.00    -0.206 F 
ATOM     67  C   UNL A   1      50.032  27.192  31.533  1.00  0.00     0.059 A 
ATOM     68  C   UNL A   1      50.381  27.899  29.235  1.00  0.00     0.059 A 
ATOM     69  F   UNL A   1      48.535  28.446  27.893  1.00  0.00    -0.206 F 
ATOM     70  C   UNL A   1      50.885  27.493  30.470  1.00  0.00     0.060 A 
BRANCH  70  71
ATOM     71  S   UNL A   1      52.666  27.325  30.710  1.00  0.00     0.124 S 
ATOM     72  O   UNL A   1      53.186  27.964  29.505  1.00  0.00    -0.237 OA
ATOM     73  O   UNL A   1      52.887  28.051  31.956  1.00  0.00    -0.237 OA
ATOM     74  O   UNL A   1      52.862  25.881  30.790  1.00  0.00    -0.744 OA
ENDBRANCH  70  71
ENDBRANCH  38  63
ENDBRANCH  12  13
ENDBRANCH   5   7
ENDBRANCH   2   3
ENDBRANCH   1   2
BRANCH   1  75
ATOM     75  C   UNL A   1      34.051  26.739  24.953  1.00  0.00     0.023 C 
BRANCH  75  76
ATOM     76  C   UNL A   1      33.202  25.487  25.193  1.00  0.00     0.116 C 
BRANCH  76  77
ATOM     77  N   UNL A   1      33.489  24.490  24.184  1.00  0.00    -0.354 N 
ATOM     78  C   UNL A   1      34.678  23.878  23.929  1.00  0.00     0.245 C 
ATOM     79  H   UNL A   1      32.733  24.223  23.613  1.00  0.00     0.163 HD
ATOM     80  O   UNL A   1      34.980  23.800  22.730  1.00  0.00    -0.272 OA
BRANCH  78  81
ATOM     81  C   UNL A   1      35.544  23.150  25.023  1.00  0.00     0.119 C 
ATOM     82  C   UNL A   1      36.260  21.975  24.291  1.00  0.00     0.038 C 
ATOM     83  C   UNL A   1      36.606  24.087  25.652  1.00  0.00     0.038 C 
ATOM     84  C   UNL A   1      37.409  21.325  25.059  1.00  0.00     0.003 C 
ATOM     85  C   UNL A   1      37.752  23.394  26.391  1.00  0.00     0.003 C 
ATOM     86  C   UNL A   1      38.427  22.354  25.520  1.00  0.00     0.000 C 
BRANCH  81  87
ATOM     87  N   UNL A   1      34.723  22.612  26.148  1.00  0.00    -0.338 N 
ATOM     88  C   UNL A   1      34.103  21.429  26.400  1.00  0.00     0.253 C 
ATOM     89  H   UNL A   1      34.603  23.266  26.876  1.00  0.00     0.164 HD
ATOM     90  O   UNL A   1      33.814  21.153  27.565  1.00  0.00    -0.269 OA
BRANCH  88  91
ATOM     91  C   UNL A   1      33.592  20.578  25.300  1.00  0.00     0.057 A 
ATOM     92  C   UNL A   1      32.656  21.031  24.454  1.00  0.00     0.099 A 
ATOM     93  C   UNL A   1      34.174  19.264  25.082  1.00  0.00     0.041 A 
ATOM     94  N   UNL A   1      32.172  20.218  23.454  1.00  0.00    -0.327 N 
ATOM     95  C   UNL A   1      33.729  18.466  24.101  1.00  0.00     0.106 A 
ATOM     96  C   UNL A   1      32.613  18.931  23.216  1.00  0.00     0.266 A 
ATOM     97  H   UNL A   1      31.466  20.578  22.870  1.00  0.00     0.169 HD
ATOM     98  Cl  UNL A   1      34.412  16.913  23.821  1.00  0.00    -0.078 Cl
ATOM     99  O   UNL A   1      32.113  18.238  22.339  1.00  0.00    -0.268 OA
ENDBRANCH  88  91
ENDBRANCH  81  87
ENDBRANCH  78  81
ENDBRANCH  76  77
ENDBRANCH  75  76
ENDBRANCH   1  75
TORSDOF 16
ENDMDL
MODEL 2
REMARK VINA RESULT:     -11.5      0.637      8.213
REMARK SMILES O=C(NCCCCNC(=O)C1(NC(=O)c2c[nH]c(=O)c(Cl)c2)CCCCC1)c1ccc(-c2c3nc(c(-c4c(F)cc(S(=O)(=O)[O-])cc4F)c4ccc([nH]4)c(-c4c(F)cc(S(=O)(=O)[O-])cc4F)c4nc(c(-c5c(F)cc(S(=O)(=O)[O-])cc5F)c5ccc2[nH]5)C=C4)C=C3)cc1
REMARK SMILES IDX 5 1 4 2 3 3 1 4 2 5 28 7 29 8 93 9 30 10 92 11 31 12 32 13
REMARK SMILES IDX 33 14 86 15 34 16 91 17 85 18 87 19 35 20 90 21 84 22 83 23
REMARK SMILES IDX 36 25 70 26 49 27 69 28 50 29 53 30 68 31 88 32 51 33 52 34
REMARK SMILES IDX 67 36 89 37 54 38 37 39 38 40 47 41 39 42 40 43 46 44 48 45
REMARK SMILES IDX 41 46 42 47 43 48 44 49 45 50 71 51 72 52 81 53 73 54 74 55
REMARK SMILES IDX 80 56 82 57 75 58 76 59 77 60 78 61 79 62 55 63 56 64 65 65
REMARK SMILES IDX 57 66 58 67 64 68 66 69 59 70 60 71 61 72 62 73 63 74 6 75
REMARK SMILES IDX 7 76 8 77 9 78 10 80 11 81 23 82 27 83 24 84 26 85 25 86
REMARK SMILES IDX 12 87 13 88 14 90 15 91 16 92 22 93 17 94 20 95 18 96 21 98
REMARK SMILES IDX 19 99
REMARK H PARENT 3 6 87 24 53 35 8 79 12 89 17 97
REMARK Flexibility Score: inf
ROOT
ATOM      1  C   UNL A   1      33.235  27.940  25.821  1.00  0.00     0.023 C 
ENDROOT
BRANCH   1   2
ATOM      2  C   UNL A   1      33.470  28.259  27.292  1.00  0.00     0.116 C 
BRANCH   2   3
ATOM      3  N   UNL A   1      33.351  29.677  27.599  1.00  0.00    -0.352 N 
ATOM      4  O   UNL A   1      34.050  31.680  28.369  1.00  0.00    -0.269 OA
ATOM      5  C   UNL A   1      34.324  30.532  28.064  1.00  0.00     0.251 C 
ATOM      6  H   UNL A   1      32.461  30.076  27.455  1.00  0.00     0.163 HD
BRANCH   5   7
ATOM      7  C   UNL A   1      35.694  30.004  28.224  1.00  0.00     0.039 A 
ATOM      8  C   UNL A   1      36.117  29.527  29.465  1.00  0.00     0.014 A 
ATOM      9  C   UNL A   1      36.576  30.071  27.144  1.00  0.00     0.014 A 
ATOM     10  C   UNL A   1      37.463  29.261  29.668  1.00  0.00     0.010 A 
ATOM     11  C   UNL A   1      37.915  29.723  27.331  1.00  0.00     0.010 A 
ATOM     12  C   UNL A   1      38.376  29.360  28.606  1.00  0.00    -0.014 A 
BRANCH  12  13
ATOM     13  C   UNL A   1      39.807  29.058  28.858  1.00  0.00     0.031 A 
ATOM     14  C   UNL A   1      40.699  30.055  29.546  1.00  0.00     0.074 A 
ATOM     15  C   UNL A   1      40.280  27.848  28.503  1.00  0.00     0.049 A 
ATOM     16  N   UNL A   1      41.958  29.935  29.882  1.00  0.00    -0.248 NA
ATOM     17  C   UNL A   1      40.108  31.356  29.897  1.00  0.00     0.031 C 
ATOM     18  C   UNL A   1      39.504  26.809  27.821  1.00  0.00     0.029 A 
ATOM     19  N   UNL A   1      41.509  27.274  28.692  1.00  0.00    -0.354 N 
ATOM     20  C   UNL A   1      42.320  31.151  30.452  1.00  0.00     0.074 A 
ATOM     21  C   UNL A   1      41.150  32.001  30.404  1.00  0.00     0.031 C 
ATOM     22  C   UNL A   1      40.255  25.705  27.703  1.00  0.00     0.029 A 
ATOM     23  C   UNL A   1      41.580  25.975  28.249  1.00  0.00     0.049 A 
ATOM     24  H   UNL A   1      42.267  27.745  29.106  1.00  0.00     0.167 HD
ATOM     25  C   UNL A   1      43.517  31.518  30.970  1.00  0.00     0.037 A 
ATOM     26  C   UNL A   1      42.599  25.098  28.276  1.00  0.00     0.037 A 
ATOM     27  C   UNL A   1      44.664  30.650  31.043  1.00  0.00     0.049 A 
ATOM     28  C   UNL A   1      43.905  25.522  28.881  1.00  0.00     0.074 A 
ATOM     29  C   UNL A   1      45.914  30.914  31.579  1.00  0.00     0.029 A 
ATOM     30  N   UNL A   1      44.703  29.345  30.574  1.00  0.00    -0.354 N 
ATOM     31  N   UNL A   1      44.224  26.672  29.426  1.00  0.00    -0.248 NA
ATOM     32  C   UNL A   1      44.989  24.533  28.873  1.00  0.00     0.031 C 
ATOM     33  C   UNL A   1      46.715  29.780  31.405  1.00  0.00     0.029 A 
ATOM     34  C   UNL A   1      45.955  28.795  30.796  1.00  0.00     0.049 A 
ATOM     35  H   UNL A   1      43.949  28.878  30.145  1.00  0.00     0.167 HD
ATOM     36  C   UNL A   1      45.543  26.540  29.841  1.00  0.00     0.074 A 
ATOM     37  C   UNL A   1      45.955  25.192  29.498  1.00  0.00     0.031 C 
ATOM     38  C   UNL A   1      46.343  27.452  30.448  1.00  0.00     0.037 A 
BRANCH  25  39
ATOM     39  C   UNL A   1      43.656  32.927  31.478  1.00  0.00     0.058 A 
ATOM     40  C   UNL A   1      43.986  33.995  30.629  1.00  0.00     0.135 A 
ATOM     41  C   UNL A   1      43.420  33.218  32.833  1.00  0.00     0.135 A 
ATOM     42  F   UNL A   1      44.238  33.771  29.330  1.00  0.00    -0.206 F 
ATOM     43  C   UNL A   1      44.101  35.296  31.108  1.00  0.00     0.059 A 
ATOM     44  C   UNL A   1      43.509  34.516  33.330  1.00  0.00     0.059 A 
ATOM     45  F   UNL A   1      43.101  32.235  33.690  1.00  0.00    -0.206 F 
ATOM     46  C   UNL A   1      43.866  35.546  32.462  1.00  0.00     0.060 A 
BRANCH  46  47
ATOM     47  S   UNL A   1      44.023  37.239  33.073  1.00  0.00     0.124 S 
ATOM     48  O   UNL A   1      43.831  38.008  31.846  1.00  0.00    -0.237 OA
ATOM     49  O   UNL A   1      42.943  37.324  34.049  1.00  0.00    -0.237 OA
ATOM     50  O   UNL A   1      45.372  37.275  33.630  1.00  0.00    -0.744 OA
ENDBRANCH  46  47
ENDBRANCH  25  39
BRANCH  26  51
ATOM     51  C   UNL A   1      42.408  23.733  27.725  1.00  0.00     0.058 A 
ATOM     52  C   UNL A   1      42.435  23.502  26.343  1.00  0.00     0.135 A 
ATOM     53  C   UNL A   1      42.240  22.626  28.572  1.00  0.00     0.135 A 
ATOM     54  F   UNL A   1      42.593  24.530  25.494  1.00  0.00    -0.206 F 
ATOM     55  C   UNL A   1      42.291  22.223  25.816  1.00  0.00     0.059 A 
ATOM     56  C   UNL A   1      42.119  21.335  28.071  1.00  0.00     0.059 A 
ATOM     57  F   UNL A   1      42.230  22.793  29.904  1.00  0.00    -0.206 F 
ATOM     58  C   UNL A   1      42.137  21.146  26.689  1.00  0.00     0.060 A 
BRANCH  58  59
ATOM     59  S   UNL A   1      42.012  19.478  26.004  1.00  0.00     0.124 S 
ATOM     60  O   UNL A   1      42.842  19.591  24.811  1.00  0.00    -0.237 OA
ATOM     61  O   UNL A   1      42.552  18.658  27.084  1.00  0.00    -0.237 OA
ATOM     62  O   UNL A   1      40.580  19.322  25.767  1.00  0.00    -0.744 OA
ENDBRANCH  58  59
ENDBRANCH  26  51
BRANCH  38  63
ATOM     63  C   UNL A   1      47.731  27.005  30.802  1.00  0.00     0.058 A 
ATOM     64  C   UNL A   1      48.819  27.237  29.947  1.00  0.00     0.135 A 
ATOM     65  C   UNL A   1      47.977  26.352  32.021  1.00  0.00     0.135 A 
ATOM     66  F   UNL A   1      48.632  27.852  28.768  1.00  0.00    -0.206 F 
ATOM     67  C   UNL A   1      50.101  26.808  30.272  1.00  0.00     0.059 A 
ATOM     68  C   UNL A   1      49.256  25.935  32.376  1.00  0.00     0.059 A 
ATOM     69  F   UNL A   1      46.971  26.116  32.876  1.00  0.00    -0.206 F 
ATOM     70  C   UNL A   1      50.308  26.153  31.488  1.00  0.00     0.060 A 
BRANCH  70  71
ATOM     71  S   UNL A   1      51.977  25.609  31.909  1.00  0.00     0.124 S 
ATOM     72  O   UNL A   1      52.269  26.435  33.076  1.00  0.00    -0.237 OA
ATOM     73  O   UNL A   1      51.789  24.186  32.172  1.00  0.00    -0.237 OA
ATOM     74  O   UNL A   1      52.748  25.922  30.709  1.00  0.00    -0.744 OA
ENDBRANCH  70  71
ENDBRANCH  38  63
ENDBRANCH  12  13
ENDBRANCH   5   7
ENDBRANCH   2   3
ENDBRANCH   1   2
BRANCH   1  75
ATOM     75  C   UNL A   1      33.319  26.451  25.470  1.00  0.00     0.023 C 
BRANCH  75  76
ATOM     76  C   UNL A   1      34.100  26.159  24.185  1.00  0.00     0.116 C 
BRANCH  76  77
ATOM     77  N   UNL A   1      33.734  24.860  23.664  1.00  0.00    -0.354 N 
ATOM     78  C   UNL A   1      34.516  23.749  23.566  1.00  0.00     0.245 C 
ATOM     79  H   UNL A   1      32.809  24.768  23.341  1.00  0.00     0.163 HD
ATOM     80  O   UNL A   1      34.437  23.146  22.488  1.00  0.00    -0.272 OA
BRANCH  78  81
ATOM     81  C   UNL A   1      35.330  23.139  24.767  1.00  0.00     0.119 C 
ATOM     82  C   UNL A   1      36.140  21.947  24.175  1.00  0.00     0.038 C 
ATOM     83  C   UNL A   1      36.308  24.164  25.396  1.00  0.00     0.038 C 
ATOM     84  C   UNL A   1      37.256  21.404  25.065  1.00  0.00     0.003 C 
ATOM     85  C   UNL A   1      37.425  23.575  26.260  1.00  0.00     0.003 C 
ATOM     86  C   UNL A   1      38.199  22.507  25.516  1.00  0.00     0.000 C 
BRANCH  81  87
ATOM     87  N   UNL A   1      34.453  22.647  25.871  1.00  0.00    -0.338 N 
ATOM     88  C   UNL A   1      33.850  21.463  26.159  1.00  0.00     0.253 C 
ATOM     89  H   UNL A   1      34.268  23.341  26.546  1.00  0.00     0.164 HD
ATOM     90  O   UNL A   1      33.494  21.251  27.319  1.00  0.00    -0.269 OA
BRANCH  88  91
ATOM     91  C   UNL A   1      33.434  20.530  25.086  1.00  0.00     0.057 A 
ATOM     92  C   UNL A   1      32.530  20.894  24.166  1.00  0.00     0.099 A 
ATOM     93  C   UNL A   1      34.079  19.231  24.977  1.00  0.00     0.041 A 
ATOM     94  N   UNL A   1      32.134  20.005  23.192  1.00  0.00    -0.327 N 
ATOM     95  C   UNL A   1      33.720  18.360  24.024  1.00  0.00     0.106 A 
ATOM     96  C   UNL A   1      32.638  18.726  23.055  1.00  0.00     0.266 A 
ATOM     97  H   UNL A   1      31.448  20.300  22.551  1.00  0.00     0.169 HD
ATOM     98  Cl  UNL A   1      34.478  16.824  23.873  1.00  0.00    -0.078 Cl
ATOM     99  O   UNL A   1      32.214  17.963  22.195  1.00  0.00    -0.268 OA
ENDBRANCH  88  91
ENDBRANCH  81  87
ENDBRANCH  78  81
ENDBRANCH  76  77
ENDBRANCH  75  76
ENDBRANCH   1  75
TORSDOF 16
ENDMDL
MODEL 3
REMARK VINA RESULT:     -11.4      5.165     10.385
REMARK SMILES O=C(NCCCCNC(=O)C1(NC(=O)c2c[nH]c(=O)c(Cl)c2)CCCCC1)c1ccc(-c2c3nc(c(-c4c(F)cc(S(=O)(=O)[O-])cc4F)c4ccc([nH]4)c(-c4c(F)cc(S(=O)(=O)[O-])cc4F)c4nc(c(-c5c(F)cc(S(=O)(=O)[O-])cc5F)c5ccc2[nH]5)C=C4)C=C3)cc1
REMARK SMILES IDX 5 1 4 2 3 3 1 4 2 5 28 7 29 8 93 9 30 10 92 11 31 12 32 13
REMARK SMILES IDX 33 14 86 15 34 16 91 17 85 18 87 19 35 20 90 21 84 22 83 23
REMARK SMILES IDX 36 25 70 26 49 27 69 28 50 29 53 30 68 31 88 32 51 33 52 34
REMARK SMILES IDX 67 36 89 37 54 38 37 39 38 40 47 41 39 42 40 43 46 44 48 45
REMARK SMILES IDX 41 46 42 47 43 48 44 49 45 50 71 51 72 52 81 53 73 54 74 55
REMARK SMILES IDX 80 56 82 57 75 58 76 59 77 60 78 61 79 62 55 63 56 64 65 65
REMARK SMILES IDX 57 66 58 67 64 68 66 69 59 70 60 71 61 72 62 73 63 74 6 75
REMARK SMILES IDX 7 76 8 77 9 78 10 80 11 81 23 82 27 83 24 84 26 85 25 86
REMARK SMILES IDX 12 87 13 88 14 90 15 91 16 92 22 93 17 94 20 95 18 96 21 98
REMARK SMILES IDX 19 99
REMARK H PARENT 3 6 87 24 53 35 8 79 12 89 17 97
REMARK Flexibility Score: inf
ROOT
ATOM      1  C   UNL A   1      32.066  31.661  26.902  1.00  0.00     0.023 C 
ENDROOT
BRANCH   1   2
ATOM      2  C   UNL A   1      33.125  32.502  27.603  1.00  0.00     0.116 C 
BRANCH   2   3
ATOM      3  N   UNL A   1      32.722  33.888  27.799  1.00  0.00    -0.352 N 
ATOM      4  O   UNL A   1      32.729  35.909  28.804  1.00  0.00    -0.269 OA
ATOM      5  C   UNL A   1      33.237  34.806  28.685  1.00  0.00     0.251 C 
ATOM      6  H   UNL A   1      31.989  34.208  27.225  1.00  0.00     0.163 HD
BRANCH   5   7
ATOM      7  C   UNL A   1      34.388  34.401  29.517  1.00  0.00     0.039 A 
ATOM      8  C   UNL A   1      35.689  34.580  29.043  1.00  0.00     0.014 A 
ATOM      9  C   UNL A   1      34.151  33.765  30.737  1.00  0.00     0.014 A 
ATOM     10  C   UNL A   1      36.745  33.984  29.717  1.00  0.00     0.010 A 
ATOM     11  C   UNL A   1      35.226  33.238  31.454  1.00  0.00     0.010 A 
ATOM     12  C   UNL A   1      36.525  33.304  30.926  1.00  0.00    -0.014 A 
BRANCH  12  13
ATOM     13  C   UNL A   1      37.681  32.687  31.624  1.00  0.00     0.031 A 
ATOM     14  C   UNL A   1      38.101  33.158  32.989  1.00  0.00     0.074 A 
ATOM     15  C   UNL A   1      38.315  31.658  31.029  1.00  0.00     0.049 A 
ATOM     16  N   UNL A   1      39.058  32.701  33.756  1.00  0.00    -0.248 NA
ATOM     17  C   UNL A   1      37.361  34.290  33.568  1.00  0.00     0.031 C 
ATOM     18  C   UNL A   1      37.995  31.128  29.701  1.00  0.00     0.029 A 
ATOM     19  N   UNL A   1      39.333  30.856  31.471  1.00  0.00    -0.354 N 
ATOM     20  C   UNL A   1      39.058  33.506  34.890  1.00  0.00     0.074 A 
ATOM     21  C   UNL A   1      38.013  34.490  34.705  1.00  0.00     0.031 C 
ATOM     22  C   UNL A   1      38.759  30.053  29.461  1.00  0.00     0.029 A 
ATOM     23  C   UNL A   1      39.658  29.852  30.591  1.00  0.00     0.049 A 
ATOM     24  H   UNL A   1      39.787  30.986  32.334  1.00  0.00     0.167 HD
ATOM     25  C   UNL A   1      39.854  33.425  35.983  1.00  0.00     0.037 A 
ATOM     26  C   UNL A   1      40.581  28.877  30.682  1.00  0.00     0.037 A 
ATOM     27  C   UNL A   1      40.867  32.418  36.171  1.00  0.00     0.049 A 
ATOM     28  C   UNL A   1      41.430  28.794  31.916  1.00  0.00     0.074 A 
ATOM     29  C   UNL A   1      41.705  32.228  37.256  1.00  0.00     0.029 A 
ATOM     30  N   UNL A   1      41.176  31.424  35.253  1.00  0.00    -0.354 N 
ATOM     31  N   UNL A   1      41.406  29.557  32.983  1.00  0.00    -0.248 NA
ATOM     32  C   UNL A   1      42.430  27.721  31.959  1.00  0.00     0.031 C 
ATOM     33  C   UNL A   1      42.540  31.140  36.981  1.00  0.00     0.029 A 
ATOM     34  C   UNL A   1      42.198  30.626  35.742  1.00  0.00     0.049 A 
ATOM     35  H   UNL A   1      40.733  31.303  34.382  1.00  0.00     0.167 HD
ATOM     36  C   UNL A   1      42.379  29.048  33.833  1.00  0.00     0.074 A 
ATOM     37  C   UNL A   1      42.960  27.900  33.162  1.00  0.00     0.031 C 
ATOM     38  C   UNL A   1      42.760  29.489  35.057  1.00  0.00     0.037 A 
BRANCH  25  39
ATOM     39  C   UNL A   1      39.678  34.466  37.054  1.00  0.00     0.058 A 
ATOM     40  C   UNL A   1      38.865  34.248  38.177  1.00  0.00     0.135 A 
ATOM     41  C   UNL A   1      40.365  35.689  36.974  1.00  0.00     0.135 A 
ATOM     42  F   UNL A   1      38.174  33.104  38.297  1.00  0.00    -0.206 F 
ATOM     43  C   UNL A   1      38.717  35.214  39.168  1.00  0.00     0.059 A 
ATOM     44  C   UNL A   1      40.249  36.662  37.963  1.00  0.00     0.059 A 
ATOM     45  F   UNL A   1      41.157  35.951  35.921  1.00  0.00    -0.206 F 
ATOM     46  C   UNL A   1      39.410  36.420  39.049  1.00  0.00     0.060 A 
BRANCH  46  47
ATOM     47  S   UNL A   1      39.207  37.669  40.339  1.00  0.00     0.124 S 
ATOM     48  O   UNL A   1      38.105  38.462  39.803  1.00  0.00    -0.237 OA
ATOM     49  O   UNL A   1      38.893  36.861  41.513  1.00  0.00    -0.237 OA
ATOM     50  O   UNL A   1      40.504  38.339  40.371  1.00  0.00    -0.744 OA
ENDBRANCH  46  47
ENDBRANCH  25  39
BRANCH  26  51
ATOM     51  C   UNL A   1      40.729  27.900  29.573  1.00  0.00     0.058 A 
ATOM     52  C   UNL A   1      41.778  28.010  28.650  1.00  0.00     0.135 A 
ATOM     53  C   UNL A   1      39.850  26.814  29.442  1.00  0.00     0.135 A 
ATOM     54  F   UNL A   1      42.643  29.033  28.736  1.00  0.00    -0.206 F 
ATOM     55  C   UNL A   1      41.947  27.083  27.628  1.00  0.00     0.059 A 
ATOM     56  C   UNL A   1      40.013  25.860  28.444  1.00  0.00     0.059 A 
ATOM     57  F   UNL A   1      38.843  26.654  30.315  1.00  0.00    -0.206 F 
ATOM     58  C   UNL A   1      41.060  26.009  27.536  1.00  0.00     0.060 A 
BRANCH  58  59
ATOM     59  S   UNL A   1      41.319  24.772  26.244  1.00  0.00     0.124 S 
ATOM     60  O   UNL A   1      40.124  23.949  26.385  1.00  0.00    -0.237 OA
ATOM     61  O   UNL A   1      41.394  25.592  25.039  1.00  0.00    -0.237 OA
ATOM     62  O   UNL A   1      42.574  24.138  26.638  1.00  0.00    -0.744 OA
ENDBRANCH  58  59
ENDBRANCH  26  51
BRANCH  38  63
ATOM     63  C   UNL A   1      43.836  28.708  35.754  1.00  0.00     0.058 A 
ATOM     64  C   UNL A   1      45.194  29.020  35.591  1.00  0.00     0.135 A 
ATOM     65  C   UNL A   1      43.501  27.646  36.609  1.00  0.00     0.135 A 
ATOM     66  F   UNL A   1      45.564  30.023  34.778  1.00  0.00    -0.206 F 
ATOM     67  C   UNL A   1      46.188  28.284  36.227  1.00  0.00     0.059 A 
ATOM     68  C   UNL A   1      44.478  26.912  37.273  1.00  0.00     0.059 A 
ATOM     69  F   UNL A   1      42.215  27.316  36.805  1.00  0.00    -0.206 F 
ATOM     70  C   UNL A   1      45.820  27.228  37.062  1.00  0.00     0.060 A 
BRANCH  70  71
ATOM     71  S   UNL A   1      47.115  26.284  37.893  1.00  0.00     0.124 S 
ATOM     72  O   UNL A   1      47.123  26.900  39.216  1.00  0.00    -0.237 OA
ATOM     73  O   UNL A   1      46.600  24.920  37.832  1.00  0.00    -0.237 OA
ATOM     74  O   UNL A   1      48.296  26.539  37.074  1.00  0.00    -0.744 OA
ENDBRANCH  70  71
ENDBRANCH  38  63
ENDBRANCH  12  13
ENDBRANCH   5   7
ENDBRANCH   2   3
ENDBRANCH   1   2
BRANCH   1  75
ATOM     75  C   UNL A   1      32.268  30.147  27.025  1.00  0.00     0.023 C 
BRANCH  75  76
ATOM     76  C   UNL A   1      33.587  29.648  26.427  1.00  0.00     0.116 C 
BRANCH  76  77
ATOM     77  N   UNL A   1      33.476  29.554  24.987  1.00  0.00    -0.354 N 
ATOM     78  C   UNL A   1      33.579  28.439  24.212  1.00  0.00     0.245 C 
ATOM     79  H   UNL A   1      33.307  30.399  24.510  1.00  0.00     0.163 HD
ATOM     80  O   UNL A   1      34.274  28.570  23.196  1.00  0.00    -0.272 OA
BRANCH  78  81
ATOM     81  C   UNL A   1      32.749  27.124  24.452  1.00  0.00     0.119 C 
ATOM     82  C   UNL A   1      33.738  26.104  25.094  1.00  0.00     0.038 C 
ATOM     83  C   UNL A   1      31.551  27.349  25.409  1.00  0.00     0.038 C 
ATOM     84  C   UNL A   1      33.094  24.870  25.723  1.00  0.00     0.003 C 
ATOM     85  C   UNL A   1      30.952  26.089  26.035  1.00  0.00     0.003 C 
ATOM     86  C   UNL A   1      32.012  25.250  26.719  1.00  0.00     0.000 C 
BRANCH  81  87
ATOM     87  N   UNL A   1      32.191  26.552  23.190  1.00  0.00    -0.338 N 
ATOM     88  C   UNL A   1      31.466  27.049  22.153  1.00  0.00     0.253 C 
ATOM     89  H   UNL A   1      32.396  25.594  23.085  1.00  0.00     0.164 HD
ATOM     90  O   UNL A   1      31.468  26.434  21.086  1.00  0.00    -0.269 OA
BRANCH  88  91
ATOM     91  C   UNL A   1      30.527  28.180  22.343  1.00  0.00     0.057 A 
ATOM     92  C   UNL A   1      30.889  29.436  22.043  1.00  0.00     0.099 A 
ATOM     93  C   UNL A   1      29.166  27.914  22.779  1.00  0.00     0.041 A 
ATOM     94  N   UNL A   1      30.014  30.478  22.252  1.00  0.00    -0.327 N 
ATOM     95  C   UNL A   1      28.295  28.915  22.970  1.00  0.00     0.106 A 
ATOM     96  C   UNL A   1      28.727  30.329  22.732  1.00  0.00     0.266 A 
ATOM     97  H   UNL A   1      30.326  31.388  22.046  1.00  0.00     0.169 HD
ATOM     98  Cl  UNL A   1      26.678  28.620  23.476  1.00  0.00    -0.078 Cl
ATOM     99  O   UNL A   1      28.009  31.299  22.940  1.00  0.00    -0.268 OA
ENDBRANCH  88  91
ENDBRANCH  81  87
ENDBRANCH  78  81
ENDBRANCH  76  77
ENDBRANCH  75  76
ENDBRANCH   1  75
TORSDOF 16
ENDMDL
