MODEL 1
REMARK VINA RESULT:     -10.4      0.000      0.000
REMARK SMILES C[C@@H](CC(=O)NCCCCNC(=O)c1ccc(-c2c3nc(c(-c4c(F)cc(S(=O)(=O)[O-])cc4F)c4ccc([nH]4)c(-c4c(F)cc(S(=O)(=O)[O-])cc4F)c4nc(c(-c5c(F)cc(S(=O)(=O)[O-])cc5F)c5ccc2[nH]5)C=C4)C=C3)cc1)NC(=O)CCCN1C(=O)CN(C)C1=O
REMARK SMILES IDX 7 1 6 2 4 3 5 4 3 6 2 7 1 8 80 9 81 10 82 12 83 13 84 14
REMARK SMILES IDX 85 15 86 16 87 17 92 18 88 19 89 20 90 21 93 22 91 23 8 24
REMARK SMILES IDX 9 25 10 26 11 27 12 28 13 30 14 31 15 32 79 33 16 34 78 35
REMARK SMILES IDX 17 36 18 37 19 38 72 39 20 40 77 41 71 42 73 43 21 44 76 45
REMARK SMILES IDX 70 46 69 47 22 49 56 50 35 51 55 52 36 53 39 54 54 55 74 56
REMARK SMILES IDX 37 57 38 58 53 60 75 61 40 62 23 63 24 64 33 65 25 66 26 67
REMARK SMILES IDX 32 68 34 69 27 70 28 71 29 72 30 73 31 74 57 75 58 76 67 77
REMARK SMILES IDX 59 78 60 79 66 80 68 81 61 82 62 83 63 84 64 85 65 86 41 87
REMARK SMILES IDX 42 88 51 89 43 90 44 91 50 92 52 93 45 94 46 95 47 96 48 97
REMARK SMILES IDX 49 98
REMARK H PARENT 6 5 80 11 11 29 73 48 39 59
REMARK Flexibility Score: inf
ROOT
ATOM      1  C   UNL A   1      31.021  29.931  24.981  1.00  0.00     0.116 C 
ENDROOT
BRANCH   1   2
ATOM      2  N   UNL A   1      30.541  30.108  23.617  1.00  0.00    -0.356 N 
ATOM      3  C   UNL A   1      29.905  29.244  22.777  1.00  0.00     0.222 C 
ATOM      4  O   UNL A   1      29.653  29.613  21.629  1.00  0.00    -0.275 OA
ATOM      5  H   UNL A   1      30.703  31.002  23.239  1.00  0.00     0.163 HD
BRANCH   3   6
ATOM      6  C   UNL A   1      29.467  27.881  23.256  1.00  0.00     0.124 C 
BRANCH   6   7
ATOM      7  C   UNL A   1      30.511  26.762  23.261  1.00  0.00     0.088 C 
ATOM      8  C   UNL A   1      31.363  26.644  22.017  1.00  0.00     0.031 C 
BRANCH   7   9
ATOM      9  N   UNL A   1      30.044  25.428  23.563  1.00  0.00    -0.353 N 
ATOM     10  C   UNL A   1      30.890  24.440  24.013  1.00  0.00     0.220 C 
ATOM     11  H   UNL A   1      29.089  25.219  23.444  1.00  0.00     0.163 HD
ATOM     12  O   UNL A   1      30.671  23.269  23.710  1.00  0.00    -0.275 OA
BRANCH  10  13
ATOM     13  C   UNL A   1      32.041  24.825  24.947  1.00  0.00     0.102 C 
BRANCH  13  14
ATOM     14  C   UNL A   1      33.486  24.850  24.406  1.00  0.00     0.032 C 
BRANCH  14  15
ATOM     15  C   UNL A   1      33.950  23.788  23.371  1.00  0.00     0.131 C 
BRANCH  15  16
ATOM     16  N   UNL A   1      34.727  22.682  23.899  1.00  0.00    -0.263 N 
ATOM     17  C   UNL A   1      34.222  21.633  24.616  1.00  0.00     0.250 C 
ATOM     18  C   UNL A   1      36.089  22.575  23.801  1.00  0.00     0.326 C 
ATOM     19  O   UNL A   1      33.040  21.375  24.794  1.00  0.00    -0.272 OA
ATOM     20  C   UNL A   1      35.381  20.891  25.258  1.00  0.00     0.221 C 
ATOM     21  N   UNL A   1      36.500  21.558  24.641  1.00  0.00    -0.318 N 
ATOM     22  O   UNL A   1      36.831  23.308  23.160  1.00  0.00    -0.248 OA
ATOM     23  C   UNL A   1      37.863  21.323  25.057  1.00  0.00     0.149 C 
ENDBRANCH  15  16
ENDBRANCH  14  15
ENDBRANCH  13  14
ENDBRANCH  10  13
ENDBRANCH   7   9
ENDBRANCH   6   7
ENDBRANCH   3   6
ENDBRANCH   1   2
BRANCH   1  24
ATOM     24  C   UNL A   1      32.418  29.298  25.022  1.00  0.00     0.023 C 
BRANCH  24  25
ATOM     25  C   UNL A   1      32.610  28.245  26.095  1.00  0.00     0.023 C 
BRANCH  25  26
ATOM     26  C   UNL A   1      33.747  28.583  27.026  1.00  0.00     0.116 C 
BRANCH  26  27
ATOM     27  N   UNL A   1      33.589  29.906  27.622  1.00  0.00    -0.352 N 
ATOM     28  C   UNL A   1      34.506  30.600  28.373  1.00  0.00     0.251 C 
ATOM     29  H   UNL A   1      32.725  30.353  27.468  1.00  0.00     0.163 HD
ATOM     30  O   UNL A   1      34.196  31.620  28.974  1.00  0.00    -0.269 OA
BRANCH  28  31
ATOM     31  C   UNL A   1      35.869  30.046  28.449  1.00  0.00     0.039 A 
ATOM     32  C   UNL A   1      36.727  30.175  27.358  1.00  0.00     0.014 A 
ATOM     33  C   UNL A   1      36.319  29.539  29.670  1.00  0.00     0.014 A 
ATOM     34  C   UNL A   1      38.071  29.841  27.516  1.00  0.00     0.010 A 
ATOM     35  C   UNL A   1      37.674  29.339  29.858  1.00  0.00     0.010 A 
ATOM     36  C   UNL A   1      38.558  29.456  28.776  1.00  0.00    -0.014 A 
BRANCH  36  37
ATOM     37  C   UNL A   1      39.976  29.086  28.994  1.00  0.00     0.031 A 
ATOM     38  C   UNL A   1      40.924  30.145  29.494  1.00  0.00     0.074 A 
ATOM     39  C   UNL A   1      40.421  27.859  28.666  1.00  0.00     0.049 A 
ATOM     40  N   UNL A   1      42.223  30.102  29.611  1.00  0.00    -0.248 NA
ATOM     41  C   UNL A   1      40.332  31.444  29.864  1.00  0.00     0.031 C 
ATOM     42  C   UNL A   1      39.600  26.770  28.129  1.00  0.00     0.029 A 
ATOM     43  N   UNL A   1      41.682  27.324  28.723  1.00  0.00    -0.354 N 
ATOM     44  C   UNL A   1      42.601  31.371  30.035  1.00  0.00     0.074 A 
ATOM     45  C   UNL A   1      41.407  32.182  30.080  1.00  0.00     0.031 C 
ATOM     46  C   UNL A   1      40.375  25.691  27.932  1.00  0.00     0.029 A 
ATOM     47  C   UNL A   1      41.753  26.024  28.281  1.00  0.00     0.049 A 
ATOM     48  H   UNL A   1      42.465  27.825  29.050  1.00  0.00     0.167 HD
ATOM     49  C   UNL A   1      43.830  31.810  30.390  1.00  0.00     0.037 A 
ATOM     50  C   UNL A   1      42.814  25.202  28.162  1.00  0.00     0.037 A 
ATOM     51  C   UNL A   1      44.999  30.975  30.387  1.00  0.00     0.049 A 
ATOM     52  C   UNL A   1      44.173  25.710  28.571  1.00  0.00     0.074 A 
ATOM     53  C   UNL A   1      46.283  31.296  30.784  1.00  0.00     0.029 A 
ATOM     54  N   UNL A   1      45.021  29.651  29.976  1.00  0.00    -0.354 N 
ATOM     55  N   UNL A   1      44.508  26.897  29.019  1.00  0.00    -0.248 NA
ATOM     56  C   UNL A   1      45.296  24.769  28.465  1.00  0.00     0.031 C 
ATOM     57  C   UNL A   1      47.094  30.179  30.566  1.00  0.00     0.029 A 
ATOM     58  C   UNL A   1      46.301  29.143  30.095  1.00  0.00     0.049 A 
ATOM     59  H   UNL A   1      44.241  29.148  29.647  1.00  0.00     0.167 HD
ATOM     60  C   UNL A   1      45.871  26.830  29.291  1.00  0.00     0.074 A 
ATOM     61  C   UNL A   1      46.298  25.488  28.954  1.00  0.00     0.031 C 
ATOM     62  C   UNL A   1      46.693  27.791  29.783  1.00  0.00     0.037 A 
BRANCH  49  63
ATOM     63  C   UNL A   1      43.962  33.245  30.821  1.00  0.00     0.058 A 
ATOM     64  C   UNL A   1      44.350  34.254  29.924  1.00  0.00     0.135 A 
ATOM     65  C   UNL A   1      43.677  33.620  32.143  1.00  0.00     0.135 A 
ATOM     66  F   UNL A   1      44.658  33.950  28.654  1.00  0.00    -0.206 F 
ATOM     67  C   UNL A   1      44.483  35.578  30.330  1.00  0.00     0.059 A 
ATOM     68  C   UNL A   1      43.767  34.944  32.563  1.00  0.00     0.059 A 
ATOM     69  F   UNL A   1      43.307  32.696  33.044  1.00  0.00    -0.206 F 
ATOM     70  C   UNL A   1      44.186  35.912  31.652  1.00  0.00     0.060 A 
BRANCH  70  71
ATOM     71  S   UNL A   1      44.352  37.636  32.159  1.00  0.00     0.124 S 
ATOM     72  O   UNL A   1      45.772  37.707  32.492  1.00  0.00    -0.237 OA
ATOM     73  O   UNL A   1      43.947  38.354  30.955  1.00  0.00    -0.237 OA
ATOM     74  O   UNL A   1      43.437  37.748  33.291  1.00  0.00    -0.744 OA
ENDBRANCH  70  71
ENDBRANCH  49  63
BRANCH  50  75
ATOM     75  C   UNL A   1      42.632  23.811  27.664  1.00  0.00     0.058 A 
ATOM     76  C   UNL A   1      42.654  23.528  26.291  1.00  0.00     0.135 A 
ATOM     77  C   UNL A   1      42.443  22.737  28.548  1.00  0.00     0.135 A 
ATOM     78  F   UNL A   1      42.830  24.520  25.404  1.00  0.00    -0.206 F 
ATOM     79  C   UNL A   1      42.472  22.236  25.808  1.00  0.00     0.059 A 
ATOM     80  C   UNL A   1      42.286  21.431  28.090  1.00  0.00     0.059 A 
ATOM     81  F   UNL A   1      42.433  22.949  29.873  1.00  0.00    -0.206 F 
ATOM     82  C   UNL A   1      42.289  21.193  26.716  1.00  0.00     0.060 A 
BRANCH  82  83
ATOM     83  S   UNL A   1      42.089  19.516  26.079  1.00  0.00     0.124 S 
ATOM     84  O   UNL A   1      42.461  18.714  27.238  1.00  0.00    -0.237 OA
ATOM     85  O   UNL A   1      40.675  19.496  25.714  1.00  0.00    -0.237 OA
ATOM     86  O   UNL A   1      43.018  19.470  24.954  1.00  0.00    -0.744 OA
ENDBRANCH  82  83
ENDBRANCH  50  75
BRANCH  62  87
ATOM     87  C   UNL A   1      48.122  27.417  30.058  1.00  0.00     0.058 A 
ATOM     88  C   UNL A   1      49.157  27.729  29.166  1.00  0.00     0.135 A 
ATOM     89  C   UNL A   1      48.465  26.828  31.286  1.00  0.00     0.135 A 
ATOM     90  F   UNL A   1      48.881  28.287  27.976  1.00  0.00    -0.206 F 
ATOM     91  C   UNL A   1      50.486  27.461  29.477  1.00  0.00     0.059 A 
ATOM     92  C   UNL A   1      49.789  26.580  31.631  1.00  0.00     0.059 A 
ATOM     93  F   UNL A   1      47.511  26.521  32.179  1.00  0.00    -0.206 F 
ATOM     94  C   UNL A   1      50.792  26.896  30.718  1.00  0.00     0.060 A 
BRANCH  94  95
ATOM     95  S   UNL A   1      52.525  26.619  31.137  1.00  0.00     0.124 S 
ATOM     96  O   UNL A   1      52.410  25.804  32.343  1.00  0.00    -0.237 OA
ATOM     97  O   UNL A   1      53.026  25.931  29.952  1.00  0.00    -0.237 OA
ATOM     98  O   UNL A   1      53.046  27.969  31.339  1.00  0.00    -0.744 OA
ENDBRANCH  94  95
ENDBRANCH  62  87
ENDBRANCH  36  37
ENDBRANCH  28  31
ENDBRANCH  26  27
ENDBRANCH  25  26
ENDBRANCH  24  25
ENDBRANCH   1  24
TORSDOF 20
ENDMDL
MODEL 2
REMARK VINA RESULT:     -10.3      1.470      2.032
REMARK SMILES C[C@@H](CC(=O)NCCCCNC(=O)c1ccc(-c2c3nc(c(-c4c(F)cc(S(=O)(=O)[O-])cc4F)c4ccc([nH]4)c(-c4c(F)cc(S(=O)(=O)[O-])cc4F)c4nc(c(-c5c(F)cc(S(=O)(=O)[O-])cc5F)c5ccc2[nH]5)C=C4)C=C3)cc1)NC(=O)CCCN1C(=O)CN(C)C1=O
REMARK SMILES IDX 7 1 6 2 4 3 5 4 3 6 2 7 1 8 80 9 81 10 82 12 83 13 84 14
REMARK SMILES IDX 85 15 86 16 87 17 92 18 88 19 89 20 90 21 93 22 91 23 8 24
REMARK SMILES IDX 9 25 10 26 11 27 12 28 13 30 14 31 15 32 79 33 16 34 78 35
REMARK SMILES IDX 17 36 18 37 19 38 72 39 20 40 77 41 71 42 73 43 21 44 76 45
REMARK SMILES IDX 70 46 69 47 22 49 56 50 35 51 55 52 36 53 39 54 54 55 74 56
REMARK SMILES IDX 37 57 38 58 53 60 75 61 40 62 23 63 24 64 33 65 25 66 26 67
REMARK SMILES IDX 32 68 34 69 27 70 28 71 29 72 30 73 31 74 57 75 58 76 67 77
REMARK SMILES IDX 59 78 60 79 66 80 68 81 61 82 62 83 63 84 64 85 65 86 41 87
REMARK SMILES IDX 42 88 51 89 43 90 44 91 50 92 52 93 45 94 46 95 47 96 48 97
REMARK SMILES IDX 49 98
REMARK H PARENT 6 5 80 11 11 29 73 48 39 59
REMARK Flexibility Score: inf
ROOT
ATOM      1  C   UNL A   1      31.015  29.610  24.843  1.00  0.00     0.116 C 
ENDROOT
BRANCH   1   2
ATOM      2  N   UNL A   1      30.772  29.203  23.466  1.00  0.00    -0.356 N 
ATOM      3  C   UNL A   1      30.810  27.973  22.879  1.00  0.00     0.222 C 
ATOM      4  O   UNL A   1      30.626  27.892  21.664  1.00  0.00    -0.275 OA
ATOM      5  H   UNL A   1      30.540  29.940  22.856  1.00  0.00     0.163 HD
BRANCH   3   6
ATOM      6  C   UNL A   1      31.018  26.728  23.707  1.00  0.00     0.124 C 
BRANCH   6   7
ATOM      7  C   UNL A   1      32.164  25.795  23.308  1.00  0.00     0.088 C 
ATOM      8  C   UNL A   1      33.561  26.351  23.476  1.00  0.00     0.031 C 
BRANCH   7   9
ATOM      9  N   UNL A   1      32.111  25.217  21.984  1.00  0.00    -0.353 N 
ATOM     10  C   UNL A   1      32.900  24.150  21.619  1.00  0.00     0.220 C 
ATOM     11  H   UNL A   1      31.490  25.599  21.322  1.00  0.00     0.163 HD
ATOM     12  O   UNL A   1      33.290  24.053  20.457  1.00  0.00    -0.275 OA
BRANCH  10  13
ATOM     13  C   UNL A   1      33.204  23.069  22.660  1.00  0.00     0.102 C 
BRANCH  13  14
ATOM     14  C   UNL A   1      32.104  22.061  23.055  1.00  0.00     0.032 C 
BRANCH  14  15
ATOM     15  C   UNL A   1      32.115  20.623  22.466  1.00  0.00     0.131 C 
BRANCH  15  16
ATOM     16  N   UNL A   1      32.269  19.544  23.425  1.00  0.00    -0.263 N 
ATOM     17  C   UNL A   1      32.262  19.688  24.784  1.00  0.00     0.250 C 
ATOM     18  C   UNL A   1      32.507  18.238  23.088  1.00  0.00     0.326 C 
ATOM     19  O   UNL A   1      31.974  20.700  25.408  1.00  0.00    -0.272 OA
ATOM     20  C   UNL A   1      32.782  18.402  25.403  1.00  0.00     0.221 C 
ATOM     21  N   UNL A   1      32.866  17.559  24.237  1.00  0.00    -0.318 N 
ATOM     22  O   UNL A   1      32.499  17.765  21.959  1.00  0.00    -0.248 OA
ATOM     23  C   UNL A   1      33.481  16.253  24.272  1.00  0.00     0.149 C 
ENDBRANCH  15  16
ENDBRANCH  14  15
ENDBRANCH  13  14
ENDBRANCH  10  13
ENDBRANCH   7   9
ENDBRANCH   6   7
ENDBRANCH   3   6
ENDBRANCH   1   2
BRANCH   1  24
ATOM     24  C   UNL A   1      32.479  29.401  25.254  1.00  0.00     0.023 C 
BRANCH  24  25
ATOM     25  C   UNL A   1      32.695  28.358  26.332  1.00  0.00     0.023 C 
BRANCH  25  26
ATOM     26  C   UNL A   1      33.863  28.696  27.224  1.00  0.00     0.116 C 
BRANCH  26  27
ATOM     27  N   UNL A   1      33.761  30.046  27.768  1.00  0.00    -0.352 N 
ATOM     28  C   UNL A   1      34.713  30.735  28.480  1.00  0.00     0.251 C 
ATOM     29  H   UNL A   1      32.912  30.518  27.607  1.00  0.00     0.163 HD
ATOM     30  O   UNL A   1      34.449  31.789  29.043  1.00  0.00    -0.269 OA
BRANCH  28  31
ATOM     31  C   UNL A   1      36.056  30.135  28.561  1.00  0.00     0.039 A 
ATOM     32  C   UNL A   1      36.901  30.182  27.454  1.00  0.00     0.014 A 
ATOM     33  C   UNL A   1      36.507  29.667  29.798  1.00  0.00     0.014 A 
ATOM     34  C   UNL A   1      38.234  29.806  27.607  1.00  0.00     0.010 A 
ATOM     35  C   UNL A   1      37.857  29.426  29.976  1.00  0.00     0.010 A 
ATOM     36  C   UNL A   1      38.727  29.460  28.877  1.00  0.00    -0.014 A 
BRANCH  36  37
ATOM     37  C   UNL A   1      40.133  29.049  29.091  1.00  0.00     0.031 A 
ATOM     38  C   UNL A   1      41.106  30.069  29.622  1.00  0.00     0.074 A 
ATOM     39  C   UNL A   1      40.548  27.819  28.734  1.00  0.00     0.049 A 
ATOM     40  N   UNL A   1      42.403  29.989  29.743  1.00  0.00    -0.248 NA
ATOM     41  C   UNL A   1      40.547  31.373  30.022  1.00  0.00     0.031 C 
ATOM     42  C   UNL A   1      39.702  26.766  28.167  1.00  0.00     0.029 A 
ATOM     43  N   UNL A   1      41.794  27.250  28.782  1.00  0.00    -0.354 N 
ATOM     44  C   UNL A   1      42.812  31.237  30.200  1.00  0.00     0.074 A 
ATOM     45  C   UNL A   1      41.640  32.077  30.261  1.00  0.00     0.031 C 
ATOM     46  C   UNL A   1      40.450  25.672  27.945  1.00  0.00     0.029 A 
ATOM     47  C   UNL A   1      41.833  25.960  28.308  1.00  0.00     0.049 A 
ATOM     48  H   UNL A   1      42.588  27.721  29.126  1.00  0.00     0.167 HD
ATOM     49  C   UNL A   1      44.050  31.634  30.572  1.00  0.00     0.037 A 
ATOM     50  C   UNL A   1      42.873  25.114  28.173  1.00  0.00     0.037 A 
ATOM     51  C   UNL A   1      45.197  30.770  30.552  1.00  0.00     0.049 A 
ATOM     52  C   UNL A   1      44.244  25.575  28.600  1.00  0.00     0.074 A 
ATOM     53  C   UNL A   1      46.488  31.047  30.962  1.00  0.00     0.029 A 
ATOM     54  N   UNL A   1      45.187  29.456  30.107  1.00  0.00    -0.354 N 
ATOM     55  N   UNL A   1      44.607  26.742  29.079  1.00  0.00    -0.248 NA
ATOM     56  C   UNL A   1      45.342  24.608  28.475  1.00  0.00     0.031 C 
ATOM     57  C   UNL A   1      47.270  29.914  30.719  1.00  0.00     0.029 A 
ATOM     58  C   UNL A   1      46.453  28.912  30.219  1.00  0.00     0.049 A 
ATOM     59  H   UNL A   1      44.396  28.982  29.763  1.00  0.00     0.167 HD
ATOM     60  C   UNL A   1      45.966  26.632  29.355  1.00  0.00     0.074 A 
ATOM     61  C   UNL A   1      46.360  25.289  28.986  1.00  0.00     0.031 C 
ATOM     62  C   UNL A   1      46.811  27.558  29.874  1.00  0.00     0.037 A 
BRANCH  49  63
ATOM     63  C   UNL A   1      44.217  33.054  31.039  1.00  0.00     0.058 A 
ATOM     64  C   UNL A   1      44.524  34.095  30.147  1.00  0.00     0.135 A 
ATOM     65  C   UNL A   1      44.050  33.382  32.394  1.00  0.00     0.135 A 
ATOM     66  F   UNL A   1      44.718  33.837  28.845  1.00  0.00    -0.206 F 
ATOM     67  C   UNL A   1      44.689  35.405  30.586  1.00  0.00     0.059 A 
ATOM     68  C   UNL A   1      44.175  34.691  32.850  1.00  0.00     0.059 A 
ATOM     69  F   UNL A   1      43.762  32.425  33.290  1.00  0.00    -0.206 F 
ATOM     70  C   UNL A   1      44.510  35.692  31.940  1.00  0.00     0.060 A 
BRANCH  70  71
ATOM     71  S   UNL A   1      44.717  37.398  32.490  1.00  0.00     0.124 S 
ATOM     72  O   UNL A   1      46.166  37.478  32.653  1.00  0.00    -0.237 OA
ATOM     73  O   UNL A   1      44.163  38.155  31.373  1.00  0.00    -0.237 OA
ATOM     74  O   UNL A   1      43.944  37.453  33.727  1.00  0.00    -0.744 OA
ENDBRANCH  70  71
ENDBRANCH  49  63
BRANCH  50  75
ATOM     75  C   UNL A   1      42.658  23.741  27.639  1.00  0.00     0.058 A 
ATOM     76  C   UNL A   1      42.460  22.654  28.505  1.00  0.00     0.135 A 
ATOM     77  C   UNL A   1      42.634  23.488  26.259  1.00  0.00     0.135 A 
ATOM     78  F   UNL A   1      42.477  22.843  29.833  1.00  0.00    -0.206 F 
ATOM     79  C   UNL A   1      42.271  21.362  28.024  1.00  0.00     0.059 A 
ATOM     80  C   UNL A   1      42.418  22.208  25.753  1.00  0.00     0.059 A 
ATOM     81  F   UNL A   1      42.797  24.494  25.387  1.00  0.00    -0.206 F 
ATOM     82  C   UNL A   1      42.250  21.150  26.645  1.00  0.00     0.060 A 
BRANCH  82  83
ATOM     83  S   UNL A   1      41.969  19.475  26.033  1.00  0.00     0.124 S 
ATOM     84  O   UNL A   1      42.843  19.437  24.866  1.00  0.00    -0.237 OA
ATOM     85  O   UNL A   1      42.386  18.660  27.170  1.00  0.00    -0.237 OA
ATOM     86  O   UNL A   1      40.537  19.456  25.750  1.00  0.00    -0.744 OA
ENDBRANCH  82  83
ENDBRANCH  50  75
BRANCH  62  87
ATOM     87  C   UNL A   1      48.228  27.141  30.146  1.00  0.00     0.058 A 
ATOM     88  C   UNL A   1      49.268  27.408  29.245  1.00  0.00     0.135 A 
ATOM     89  C   UNL A   1      48.559  26.554  31.379  1.00  0.00     0.135 A 
ATOM     90  F   UNL A   1      49.003  27.961  28.050  1.00  0.00    -0.206 F 
ATOM     91  C   UNL A   1      50.589  27.100  29.552  1.00  0.00     0.059 A 
ATOM     92  C   UNL A   1      49.875  26.266  31.720  1.00  0.00     0.059 A 
ATOM     93  F   UNL A   1      47.601  26.289  32.281  1.00  0.00    -0.206 F 
ATOM     94  C   UNL A   1      50.883  26.539  30.797  1.00  0.00     0.060 A 
BRANCH  94  95
ATOM     95  S   UNL A   1      52.609  26.210  31.210  1.00  0.00     0.124 S 
ATOM     96  O   UNL A   1      52.502  24.951  31.941  1.00  0.00    -0.237 OA
ATOM     97  O   UNL A   1      53.233  26.128  29.893  1.00  0.00    -0.237 OA
ATOM     98  O   UNL A   1      52.995  27.369  32.010  1.00  0.00    -0.744 OA
ENDBRANCH  94  95
ENDBRANCH  62  87
ENDBRANCH  36  37
ENDBRANCH  28  31
ENDBRANCH  26  27
ENDBRANCH  25  26
ENDBRANCH  24  25
ENDBRANCH   1  24
TORSDOF 20
ENDMDL
MODEL 3
REMARK VINA RESULT:     -10.1      2.817      9.234
REMARK SMILES C[C@@H](CC(=O)NCCCCNC(=O)c1ccc(-c2c3nc(c(-c4c(F)cc(S(=O)(=O)[O-])cc4F)c4ccc([nH]4)c(-c4c(F)cc(S(=O)(=O)[O-])cc4F)c4nc(c(-c5c(F)cc(S(=O)(=O)[O-])cc5F)c5ccc2[nH]5)C=C4)C=C3)cc1)NC(=O)CCCN1C(=O)CN(C)C1=O
REMARK SMILES IDX 7 1 6 2 4 3 5 4 3 6 2 7 1 8 80 9 81 10 82 12 83 13 84 14
REMARK SMILES IDX 85 15 86 16 87 17 92 18 88 19 89 20 90 21 93 22 91 23 8 24
REMARK SMILES IDX 9 25 10 26 11 27 12 28 13 30 14 31 15 32 79 33 16 34 78 35
REMARK SMILES IDX 17 36 18 37 19 38 72 39 20 40 77 41 71 42 73 43 21 44 76 45
REMARK SMILES IDX 70 46 69 47 22 49 56 50 35 51 55 52 36 53 39 54 54 55 74 56
REMARK SMILES IDX 37 57 38 58 53 60 75 61 40 62 23 63 24 64 33 65 25 66 26 67
REMARK SMILES IDX 32 68 34 69 27 70 28 71 29 72 30 73 31 74 57 75 58 76 67 77
REMARK SMILES IDX 59 78 60 79 66 80 68 81 61 82 62 83 63 84 64 85 65 86 41 87
REMARK SMILES IDX 42 88 51 89 43 90 44 91 50 92 52 93 45 94 46 95 47 96 48 97
REMARK SMILES IDX 49 98
REMARK H PARENT 6 5 80 11 11 29 73 48 39 59
REMARK Flexibility Score: inf
ROOT
ATOM      1  C   UNL A   1      34.023  22.576  27.622  1.00  0.00     0.116 C 
ENDROOT
BRANCH   1   2
ATOM      2  N   UNL A   1      32.567  22.561  27.596  1.00  0.00    -0.356 N 
ATOM      3  C   UNL A   1      31.676  23.430  27.039  1.00  0.00     0.222 C 
ATOM      4  O   UNL A   1      30.473  23.232  27.211  1.00  0.00    -0.275 OA
ATOM      5  H   UNL A   1      32.158  21.795  28.059  1.00  0.00     0.163 HD
BRANCH   3   6
ATOM      6  C   UNL A   1      32.148  24.580  26.183  1.00  0.00     0.124 C 
BRANCH   6   7
ATOM      7  C   UNL A   1      32.059  24.417  24.664  1.00  0.00     0.088 C 
ATOM      8  C   UNL A   1      31.877  23.003  24.159  1.00  0.00     0.031 C 
BRANCH   7   9
ATOM      9  N   UNL A   1      33.122  24.998  23.876  1.00  0.00    -0.353 N 
ATOM     10  C   UNL A   1      32.935  25.391  22.571  1.00  0.00     0.220 C 
ATOM     11  H   UNL A   1      34.009  25.116  24.287  1.00  0.00     0.163 HD
ATOM     12  O   UNL A   1      33.867  25.312  21.774  1.00  0.00    -0.275 OA
BRANCH  10  13
ATOM     13  C   UNL A   1      31.586  25.993  22.169  1.00  0.00     0.102 C 
BRANCH  13  14
ATOM     14  C   UNL A   1      31.283  27.470  22.496  1.00  0.00     0.032 C 
BRANCH  14  15
ATOM     15  C   UNL A   1      30.651  27.854  23.862  1.00  0.00     0.131 C 
BRANCH  15  16
ATOM     16  N   UNL A   1      31.357  28.864  24.630  1.00  0.00    -0.263 N 
ATOM     17  C   UNL A   1      32.522  28.663  25.315  1.00  0.00     0.250 C 
ATOM     18  C   UNL A   1      30.910  30.145  24.821  1.00  0.00     0.326 C 
ATOM     19  O   UNL A   1      33.232  27.668  25.270  1.00  0.00    -0.272 OA
ATOM     20  C   UNL A   1      32.742  29.848  26.240  1.00  0.00     0.221 C 
ATOM     21  N   UNL A   1      31.682  30.724  25.810  1.00  0.00    -0.318 N 
ATOM     22  O   UNL A   1      29.940  30.663  24.285  1.00  0.00    -0.248 OA
ATOM     23  C   UNL A   1      31.354  31.942  26.513  1.00  0.00     0.149 C 
ENDBRANCH  15  16
ENDBRANCH  14  15
ENDBRANCH  13  14
ENDBRANCH  10  13
ENDBRANCH   7   9
ENDBRANCH   6   7
ENDBRANCH   3   6
ENDBRANCH   1   2
BRANCH   1  24
ATOM     24  C   UNL A   1      34.628  21.876  26.397  1.00  0.00     0.023 C 
BRANCH  24  25
ATOM     25  C   UNL A   1      35.314  22.798  25.409  1.00  0.00     0.023 C 
BRANCH  25  26
ATOM     26  C   UNL A   1      36.584  23.386  25.968  1.00  0.00     0.116 C 
BRANCH  26  27
ATOM     27  N   UNL A   1      37.640  22.386  26.094  1.00  0.00    -0.352 N 
ATOM     28  C   UNL A   1      38.961  22.598  26.402  1.00  0.00     0.251 C 
ATOM     29  H   UNL A   1      37.373  21.450  25.940  1.00  0.00     0.163 HD
ATOM     30  O   UNL A   1      39.790  21.704  26.298  1.00  0.00    -0.269 OA
BRANCH  28  31
ATOM     31  C   UNL A   1      39.341  23.955  26.832  1.00  0.00     0.039 A 
ATOM     32  C   UNL A   1      39.300  24.286  28.185  1.00  0.00     0.014 A 
ATOM     33  C   UNL A   1      39.880  24.831  25.887  1.00  0.00     0.014 A 
ATOM     34  C   UNL A   1      39.860  25.493  28.600  1.00  0.00     0.010 A 
ATOM     35  C   UNL A   1      40.553  25.959  26.320  1.00  0.00     0.010 A 
ATOM     36  C   UNL A   1      40.521  26.318  27.675  1.00  0.00    -0.014 A 
BRANCH  36  37
ATOM     37  C   UNL A   1      41.128  27.611  28.065  1.00  0.00     0.031 A 
ATOM     38  C   UNL A   1      42.622  27.767  27.947  1.00  0.00     0.074 A 
ATOM     39  C   UNL A   1      40.371  28.589  28.596  1.00  0.00     0.049 A 
ATOM     40  N   UNL A   1      43.388  28.737  28.367  1.00  0.00    -0.248 NA
ATOM     41  C   UNL A   1      43.357  26.656  27.314  1.00  0.00     0.031 C 
ATOM     42  C   UNL A   1      38.922  28.529  28.801  1.00  0.00     0.029 A 
ATOM     43  N   UNL A   1      40.721  29.825  29.077  1.00  0.00    -0.354 N 
ATOM     44  C   UNL A   1      44.688  28.337  28.079  1.00  0.00     0.074 A 
ATOM     45  C   UNL A   1      44.614  27.007  27.521  1.00  0.00     0.031 C 
ATOM     46  C   UNL A   1      38.505  29.687  29.340  1.00  0.00     0.029 A 
ATOM     47  C   UNL A   1      39.660  30.550  29.565  1.00  0.00     0.049 A 
ATOM     48  H   UNL A   1      41.647  30.161  29.074  1.00  0.00     0.167 HD
ATOM     49  C   UNL A   1      45.837  29.032  28.233  1.00  0.00     0.037 A 
ATOM     50  C   UNL A   1      39.629  31.770  30.137  1.00  0.00     0.037 A 
ATOM     51  C   UNL A   1      45.887  30.373  28.744  1.00  0.00     0.049 A 
ATOM     52  C   UNL A   1      40.922  32.530  30.293  1.00  0.00     0.074 A 
ATOM     53  C   UNL A   1      46.988  31.196  28.888  1.00  0.00     0.029 A 
ATOM     54  N   UNL A   1      44.785  31.091  29.185  1.00  0.00    -0.354 N 
ATOM     55  N   UNL A   1      42.139  32.160  29.969  1.00  0.00    -0.248 NA
ATOM     56  C   UNL A   1      40.839  33.872  30.883  1.00  0.00     0.031 C 
ATOM     57  C   UNL A   1      46.559  32.396  29.462  1.00  0.00     0.029 A 
ATOM     58  C   UNL A   1      45.182  32.343  29.615  1.00  0.00     0.049 A 
ATOM     59  H   UNL A   1      43.859  30.758  29.191  1.00  0.00     0.167 HD
ATOM     60  C   UNL A   1      42.959  33.241  30.273  1.00  0.00     0.074 A 
ATOM     61  C   UNL A   1      42.101  34.277  30.812  1.00  0.00     0.031 C 
ATOM     62  C   UNL A   1      44.300  33.369  30.116  1.00  0.00     0.037 A 
BRANCH  49  63
ATOM     63  C   UNL A   1      47.121  28.358  27.833  1.00  0.00     0.058 A 
ATOM     64  C   UNL A   1      47.863  27.583  28.738  1.00  0.00     0.135 A 
ATOM     65  C   UNL A   1      47.604  28.472  26.519  1.00  0.00     0.135 A 
ATOM     66  F   UNL A   1      47.461  27.458  30.013  1.00  0.00    -0.206 F 
ATOM     67  C   UNL A   1      49.056  26.971  28.366  1.00  0.00     0.059 A 
ATOM     68  C   UNL A   1      48.776  27.839  26.115  1.00  0.00     0.059 A 
ATOM     69  F   UNL A   1      46.938  29.205  25.614  1.00  0.00    -0.206 F 
ATOM     70  C   UNL A   1      49.502  27.104  27.051  1.00  0.00     0.060 A 
BRANCH  70  71
ATOM     71  S   UNL A   1      51.045  26.295  26.582  1.00  0.00     0.124 S 
ATOM     72  O   UNL A   1      52.036  27.218  27.128  1.00  0.00    -0.237 OA
ATOM     73  O   UNL A   1      50.939  25.007  27.259  1.00  0.00    -0.237 OA
ATOM     74  O   UNL A   1      50.974  26.242  25.125  1.00  0.00    -0.744 OA
ENDBRANCH  70  71
ENDBRANCH  49  63
BRANCH  50  75
ATOM     75  C   UNL A   1      38.335  32.359  30.577  1.00  0.00     0.058 A 
ATOM     76  C   UNL A   1      37.831  32.112  31.863  1.00  0.00     0.135 A 
ATOM     77  C   UNL A   1      37.582  33.185  29.729  1.00  0.00     0.135 A 
ATOM     78  F   UNL A   1      38.511  31.326  32.711  1.00  0.00    -0.206 F 
ATOM     79  C   UNL A   1      36.616  32.643  32.285  1.00  0.00     0.059 A 
ATOM     80  C   UNL A   1      36.377  33.752  30.139  1.00  0.00     0.059 A 
ATOM     81  F   UNL A   1      38.028  33.470  28.496  1.00  0.00    -0.206 F 
ATOM     82  C   UNL A   1      35.896  33.463  31.416  1.00  0.00     0.060 A 
BRANCH  82  83
ATOM     83  S   UNL A   1      34.339  34.174  31.988  1.00  0.00     0.124 S 
ATOM     84  O   UNL A   1      33.808  33.095  32.813  1.00  0.00    -0.237 OA
ATOM     85  O   UNL A   1      34.791  35.363  32.704  1.00  0.00    -0.237 OA
ATOM     86  O   UNL A   1      33.613  34.437  30.749  1.00  0.00    -0.744 OA
ENDBRANCH  82  83
ENDBRANCH  50  75
BRANCH  62  87
ATOM     87  C   UNL A   1      44.924  34.693  30.459  1.00  0.00     0.058 A 
ATOM     88  C   UNL A   1      45.454  34.958  31.729  1.00  0.00     0.135 A 
ATOM     89  C   UNL A   1      45.081  35.669  29.461  1.00  0.00     0.135 A 
ATOM     90  F   UNL A   1      45.324  34.060  32.719  1.00  0.00    -0.206 F 
ATOM     91  C   UNL A   1      46.112  36.153  32.003  1.00  0.00     0.059 A 
ATOM     92  C   UNL A   1      45.762  36.856  29.704  1.00  0.00     0.059 A 
ATOM     93  F   UNL A   1      44.601  35.457  28.226  1.00  0.00    -0.206 F 
ATOM     94  C   UNL A   1      46.270  37.091  30.980  1.00  0.00     0.060 A 
BRANCH  94  95
ATOM     95  S   UNL A   1      47.188  38.605  31.330  1.00  0.00     0.124 S 
ATOM     96  O   UNL A   1      48.283  38.102  32.153  1.00  0.00    -0.237 OA
ATOM     97  O   UNL A   1      47.556  39.060  29.993  1.00  0.00    -0.237 OA
ATOM     98  O   UNL A   1      46.213  39.441  32.025  1.00  0.00    -0.744 OA
ENDBRANCH  94  95
ENDBRANCH  62  87
ENDBRANCH  36  37
ENDBRANCH  28  31
ENDBRANCH  26  27
ENDBRANCH  25  26
ENDBRANCH  24  25
ENDBRANCH   1  24
TORSDOF 20
ENDMDL
