MODEL 1
REMARK VINA RESULT:     -10.4      0.000      0.000
REMARK SMILES C[C@H](NC(N)=O)C(=O)N[C@@H](CO)C(=O)NCCCCNC(=O)c1ccc(-c2c3nc(c(-c4c(F)cc(S(=O)(=O)[O-])cc4F)c4ccc([nH]4)c(-c4c(F)cc(S(=O)(=O)[O-])cc4F)c4nc(c(-c5c(F)cc(S(=O)(=O)[O-])cc5F)c5ccc2[nH]5)C=C4)C=C3)cc1
REMARK SMILES IDX 17 1 16 2 15 3 13 4 14 5 10 7 9 8 7 9 8 10 2 12 1 13 3 14
REMARK SMILES IDX 4 15 5 17 6 18 11 21 12 22 18 24 19 25 20 26 21 27 22 29
REMARK SMILES IDX 23 30 24 31 88 32 25 33 87 34 26 35 27 36 28 37 81 38 29 39
REMARK SMILES IDX 86 40 80 41 82 42 30 43 85 44 79 45 78 46 31 48 65 49 44 50
REMARK SMILES IDX 64 51 45 52 48 53 63 54 83 55 46 56 47 57 62 59 84 60 49 61
REMARK SMILES IDX 32 62 33 63 42 64 34 65 35 66 41 67 43 68 36 69 37 70 38 71
REMARK SMILES IDX 39 72 40 73 66 74 67 75 76 76 68 77 69 78 75 79 77 80 70 81
REMARK SMILES IDX 71 82 72 83 73 84 74 85 50 86 51 87 60 88 52 89 53 90 59 91
REMARK SMILES IDX 61 92 54 93 55 94 56 95 57 96 58 97
REMARK H PARENT 15 6 9 11 3 16 5 19 5 20 12 23 20 28 82 47 48 58
REMARK Flexibility Score: inf
ROOT
ATOM      1  C   UNL A   1      40.992  20.858  26.358  1.00  0.00     0.023 C 
ENDROOT
BRANCH   1   2
ATOM      2  C   UNL A   1      42.325  20.820  27.098  1.00  0.00     0.116 C 
BRANCH   2   3
ATOM      3  N   UNL A   1      43.395  20.287  26.277  1.00  0.00    -0.354 N 
ATOM      4  C   UNL A   1      44.427  20.902  25.637  1.00  0.00     0.244 C 
ATOM      5  O   UNL A   1      45.330  20.177  25.206  1.00  0.00    -0.273 OA
ATOM      6  H   UNL A   1      43.371  19.310  26.164  1.00  0.00     0.163 HD
BRANCH   4   7
ATOM      7  C   UNL A   1      44.569  22.434  25.527  1.00  0.00     0.197 C 
BRANCH   7   8
ATOM      8  N   UNL A   1      45.915  22.929  25.838  1.00  0.00    -0.340 N 
ATOM      9  C   UNL A   1      46.324  23.908  26.694  1.00  0.00     0.243 C 
ATOM     10  O   UNL A   1      47.517  23.897  27.012  1.00  0.00    -0.273 OA
ATOM     11  H   UNL A   1      46.642  22.481  25.347  1.00  0.00     0.164 HD
BRANCH   9  12
ATOM     12  C   UNL A   1      45.357  24.950  27.283  1.00  0.00     0.170 C 
ATOM     13  C   UNL A   1      44.340  24.309  28.222  1.00  0.00     0.041 C 
BRANCH  12  14
ATOM     14  N   UNL A   1      44.731  25.741  26.226  1.00  0.00    -0.327 N 
ATOM     15  C   UNL A   1      45.314  26.870  25.747  1.00  0.00     0.312 C 
ATOM     16  H   UNL A   1      43.868  25.448  25.854  1.00  0.00     0.166 HD
ATOM     17  N   UNL A   1      44.601  27.461  24.764  1.00  0.00    -0.352 N 
ATOM     18  O   UNL A   1      46.379  27.338  26.133  1.00  0.00    -0.249 OA
ATOM     19  H   UNL A   1      43.748  27.067  24.470  1.00  0.00     0.161 HD
ATOM     20  H   UNL A   1      44.933  28.287  24.343  1.00  0.00     0.161 HD
ENDBRANCH  12  14
ENDBRANCH   9  12
ENDBRANCH   7   8
BRANCH   7  21
ATOM     21  C   UNL A   1      44.034  22.955  24.185  1.00  0.00     0.191 C 
BRANCH  21  22
ATOM     22  O   UNL A   1      44.519  22.231  23.057  1.00  0.00    -0.394 OA
ATOM     23  H   UNL A   1      44.121  22.590  22.248  1.00  0.00     0.210 HD
ENDBRANCH  21  22
ENDBRANCH   7  21
ENDBRANCH   4   7
ENDBRANCH   2   3
ENDBRANCH   1   2
BRANCH   1  24
ATOM     24  C   UNL A   1      40.033  21.961  26.809  1.00  0.00     0.023 C 
BRANCH  24  25
ATOM     25  C   UNL A   1      40.691  23.266  27.247  1.00  0.00     0.116 C 
BRANCH  25  26
ATOM     26  N   UNL A   1      41.198  24.054  26.134  1.00  0.00    -0.352 N 
ATOM     27  C   UNL A   1      41.422  25.407  26.054  1.00  0.00     0.251 C 
ATOM     28  H   UNL A   1      41.412  23.543  25.321  1.00  0.00     0.163 HD
ATOM     29  O   UNL A   1      41.744  25.905  24.979  1.00  0.00    -0.269 OA
BRANCH  27  30
ATOM     30  C   UNL A   1      41.248  26.263  27.248  1.00  0.00     0.039 A 
ATOM     31  C   UNL A   1      42.043  27.406  27.377  1.00  0.00     0.014 A 
ATOM     32  C   UNL A   1      40.317  25.945  28.240  1.00  0.00     0.014 A 
ATOM     33  C   UNL A   1      41.868  28.251  28.474  1.00  0.00     0.010 A 
ATOM     34  C   UNL A   1      40.087  26.831  29.289  1.00  0.00     0.010 A 
ATOM     35  C   UNL A   1      40.870  27.985  29.427  1.00  0.00    -0.014 A 
BRANCH  35  36
ATOM     36  C   UNL A   1      40.661  28.889  30.587  1.00  0.00     0.031 A 
ATOM     37  C   UNL A   1      41.504  28.737  31.826  1.00  0.00     0.074 A 
ATOM     38  C   UNL A   1      39.688  29.820  30.543  1.00  0.00     0.049 A 
ATOM     39  N   UNL A   1      41.461  29.417  32.943  1.00  0.00    -0.248 NA
ATOM     40  C   UNL A   1      42.503  27.657  31.820  1.00  0.00     0.031 C 
ATOM     41  C   UNL A   1      38.759  30.020  29.429  1.00  0.00     0.029 A 
ATOM     42  N   UNL A   1      39.313  30.767  31.461  1.00  0.00    -0.354 N 
ATOM     43  C   UNL A   1      42.420  28.845  33.771  1.00  0.00     0.074 A 
ATOM     44  C   UNL A   1      42.976  27.717  33.055  1.00  0.00     0.031 C 
ATOM     45  C   UNL A   1      37.937  31.041  29.719  1.00  0.00     0.029 A 
ATOM     46  C   UNL A   1      38.263  31.553  31.047  1.00  0.00     0.049 A 
ATOM     47  H   UNL A   1      39.754  30.876  32.334  1.00  0.00     0.167 HD
ATOM     48  C   UNL A   1      42.826  29.240  35.002  1.00  0.00     0.037 A 
ATOM     49  C   UNL A   1      37.636  32.573  31.666  1.00  0.00     0.037 A 
ATOM     50  C   UNL A   1      42.282  30.373  35.703  1.00  0.00     0.049 A 
ATOM     51  C   UNL A   1      38.125  33.020  33.016  1.00  0.00     0.074 A 
ATOM     52  C   UNL A   1      42.648  30.885  36.936  1.00  0.00     0.029 A 
ATOM     53  N   UNL A   1      41.252  31.174  35.229  1.00  0.00    -0.354 N 
ATOM     54  N   UNL A   1      39.078  32.508  33.759  1.00  0.00    -0.248 NA
ATOM     55  C   UNL A   1      37.470  34.196  33.603  1.00  0.00     0.031 C 
ATOM     56  C   UNL A   1      41.818  31.974  37.221  1.00  0.00     0.029 A 
ATOM     57  C   UNL A   1      40.966  32.173  36.147  1.00  0.00     0.049 A 
ATOM     58  H   UNL A   1      40.793  31.052  34.367  1.00  0.00     0.167 HD
ATOM     59  C   UNL A   1      39.154  33.313  34.890  1.00  0.00     0.074 A 
ATOM     60  C   UNL A   1      38.159  34.356  34.724  1.00  0.00     0.031 C 
ATOM     61  C   UNL A   1      39.973  33.203  35.966  1.00  0.00     0.037 A 
BRANCH  48  62
ATOM     62  C   UNL A   1      43.922  28.440  35.655  1.00  0.00     0.058 A 
ATOM     63  C   UNL A   1      43.649  27.242  36.338  1.00  0.00     0.135 A 
ATOM     64  C   UNL A   1      45.256  28.872  35.605  1.00  0.00     0.135 A 
ATOM     65  F   UNL A   1      42.389  26.789  36.432  1.00  0.00    -0.206 F 
ATOM     66  C   UNL A   1      44.651  26.529  36.988  1.00  0.00     0.059 A 
ATOM     67  C   UNL A   1      46.280  28.157  36.221  1.00  0.00     0.059 A 
ATOM     68  F   UNL A   1      45.577  30.007  34.964  1.00  0.00    -0.206 F 
ATOM     69  C   UNL A   1      45.963  26.999  36.930  1.00  0.00     0.060 A 
BRANCH  69  70
ATOM     70  S   UNL A   1      47.248  26.076  37.800  1.00  0.00     0.124 S 
ATOM     71  O   UNL A   1      48.027  27.157  38.396  1.00  0.00    -0.237 OA
ATOM     72  O   UNL A   1      46.475  25.265  38.734  1.00  0.00    -0.237 OA
ATOM     73  O   UNL A   1      47.915  25.335  36.735  1.00  0.00    -0.744 OA
ENDBRANCH  69  70
ENDBRANCH  48  62
BRANCH  49  74
ATOM     74  C   UNL A   1      36.506  33.260  30.988  1.00  0.00     0.058 A 
ATOM     75  C   UNL A   1      35.195  33.152  31.474  1.00  0.00     0.135 A 
ATOM     76  C   UNL A   1      36.722  34.072  29.863  1.00  0.00     0.135 A 
ATOM     77  F   UNL A   1      34.937  32.385  32.544  1.00  0.00    -0.206 F 
ATOM     78  C   UNL A   1      34.134  33.816  30.865  1.00  0.00     0.059 A 
ATOM     79  C   UNL A   1      35.681  34.765  29.251  1.00  0.00     0.059 A 
ATOM     80  F   UNL A   1      37.961  34.224  29.371  1.00  0.00    -0.206 F 
ATOM     81  C   UNL A   1      34.389  34.624  29.755  1.00  0.00     0.060 A 
BRANCH  81  82
ATOM     82  S   UNL A   1      33.017  35.536  29.015  1.00  0.00     0.124 S 
ATOM     83  O   UNL A   1      33.712  36.652  28.384  1.00  0.00    -0.237 OA
ATOM     84  O   UNL A   1      32.443  34.547  28.109  1.00  0.00    -0.237 OA
ATOM     85  O   UNL A   1      32.184  35.879  30.164  1.00  0.00    -0.744 OA
ENDBRANCH  81  82
ENDBRANCH  49  74
BRANCH  61  86
ATOM     86  C   UNL A   1      39.851  34.254  37.035  1.00  0.00     0.058 A 
ATOM     87  C   UNL A   1      40.418  35.529  36.889  1.00  0.00     0.135 A 
ATOM     88  C   UNL A   1      39.131  33.988  38.211  1.00  0.00     0.135 A 
ATOM     89  F   UNL A   1      41.121  35.833  35.785  1.00  0.00    -0.206 F 
ATOM     90  C   UNL A   1      40.307  36.493  37.885  1.00  0.00     0.059 A 
ATOM     91  C   UNL A   1      38.982  34.945  39.209  1.00  0.00     0.059 A 
ATOM     92  F   UNL A   1      38.556  32.789  38.395  1.00  0.00    -0.206 F 
ATOM     93  C   UNL A   1      39.589  36.190  39.045  1.00  0.00     0.060 A 
BRANCH  93  94
ATOM     94  S   UNL A   1      39.444  37.450  40.329  1.00  0.00     0.124 S 
ATOM     95  O   UNL A   1      40.843  37.784  40.570  1.00  0.00    -0.237 OA
ATOM     96  O   UNL A   1      38.650  38.482  39.669  1.00  0.00    -0.237 OA
ATOM     97  O   UNL A   1      38.768  36.749  41.417  1.00  0.00    -0.744 OA
ENDBRANCH  93  94
ENDBRANCH  61  86
ENDBRANCH  35  36
ENDBRANCH  27  30
ENDBRANCH  25  26
ENDBRANCH  24  25
ENDBRANCH   1  24
TORSDOF 19
ENDMDL
MODEL 2
REMARK VINA RESULT:     -10.4      3.484      5.147
REMARK SMILES C[C@H](NC(N)=O)C(=O)N[C@@H](CO)C(=O)NCCCCNC(=O)c1ccc(-c2c3nc(c(-c4c(F)cc(S(=O)(=O)[O-])cc4F)c4ccc([nH]4)c(-c4c(F)cc(S(=O)(=O)[O-])cc4F)c4nc(c(-c5c(F)cc(S(=O)(=O)[O-])cc5F)c5ccc2[nH]5)C=C4)C=C3)cc1
REMARK SMILES IDX 17 1 16 2 15 3 13 4 14 5 10 7 9 8 7 9 8 10 2 12 1 13 3 14
REMARK SMILES IDX 4 15 5 17 6 18 11 21 12 22 18 24 19 25 20 26 21 27 22 29
REMARK SMILES IDX 23 30 24 31 88 32 25 33 87 34 26 35 27 36 28 37 81 38 29 39
REMARK SMILES IDX 86 40 80 41 82 42 30 43 85 44 79 45 78 46 31 48 65 49 44 50
REMARK SMILES IDX 64 51 45 52 48 53 63 54 83 55 46 56 47 57 62 59 84 60 49 61
REMARK SMILES IDX 32 62 33 63 42 64 34 65 35 66 41 67 43 68 36 69 37 70 38 71
REMARK SMILES IDX 39 72 40 73 66 74 67 75 76 76 68 77 69 78 75 79 77 80 70 81
REMARK SMILES IDX 71 82 72 83 73 84 74 85 50 86 51 87 60 88 52 89 53 90 59 91
REMARK SMILES IDX 61 92 54 93 55 94 56 95 57 96 58 97
REMARK H PARENT 15 6 9 11 3 16 5 19 5 20 12 23 20 28 82 47 48 58
REMARK Flexibility Score: inf
ROOT
ATOM      1  C   UNL A   1      38.191  23.843  26.474  1.00  0.00     0.023 C 
ENDROOT
BRANCH   1   2
ATOM      2  C   UNL A   1      36.949  23.437  25.688  1.00  0.00     0.116 C 
BRANCH   2   3
ATOM      3  N   UNL A   1      36.874  22.004  25.476  1.00  0.00    -0.354 N 
ATOM      4  C   UNL A   1      35.812  21.182  25.261  1.00  0.00     0.244 C 
ATOM      5  O   UNL A   1      36.060  20.036  24.873  1.00  0.00    -0.273 OA
ATOM      6  H   UNL A   1      37.746  21.547  25.490  1.00  0.00     0.163 HD
BRANCH   4   7
ATOM      7  C   UNL A   1      34.343  21.644  25.371  1.00  0.00     0.197 C 
BRANCH   7   8
ATOM      8  N   UNL A   1      33.481  21.140  24.295  1.00  0.00    -0.340 N 
ATOM      9  C   UNL A   1      32.664  21.804  23.429  1.00  0.00     0.243 C 
ATOM     10  O   UNL A   1      32.314  21.186  22.420  1.00  0.00    -0.273 OA
ATOM     11  H   UNL A   1      33.495  20.162  24.181  1.00  0.00     0.164 HD
BRANCH   9  12
ATOM     12  C   UNL A   1      32.230  23.263  23.655  1.00  0.00     0.170 C 
ATOM     13  C   UNL A   1      31.061  23.360  24.629  1.00  0.00     0.041 C 
BRANCH  12  14
ATOM     14  N   UNL A   1      31.965  23.933  22.384  1.00  0.00    -0.327 N 
ATOM     15  C   UNL A   1      32.827  24.849  21.872  1.00  0.00     0.312 C 
ATOM     16  H   UNL A   1      31.142  23.716  21.889  1.00  0.00     0.166 HD
ATOM     17  N   UNL A   1      32.426  25.353  20.686  1.00  0.00    -0.352 N 
ATOM     18  O   UNL A   1      33.875  25.208  22.397  1.00  0.00    -0.249 OA
ATOM     19  H   UNL A   1      31.580  25.050  20.283  1.00  0.00     0.161 HD
ATOM     20  H   UNL A   1      32.979  26.024  20.224  1.00  0.00     0.161 HD
ENDBRANCH  12  14
ENDBRANCH   9  12
ENDBRANCH   7   8
BRANCH   7  21
ATOM     21  C   UNL A   1      33.771  21.377  26.772  1.00  0.00     0.191 C 
BRANCH  21  22
ATOM     22  O   UNL A   1      34.725  21.536  27.818  1.00  0.00    -0.394 OA
ATOM     23  H   UNL A   1      34.291  21.922  28.595  1.00  0.00     0.210 HD
ENDBRANCH  21  22
ENDBRANCH   7  21
ENDBRANCH   4   7
ENDBRANCH   2   3
ENDBRANCH   1   2
BRANCH   1  24
ATOM     24  C   UNL A   1      39.298  22.789  26.524  1.00  0.00     0.023 C 
BRANCH  24  25
ATOM     25  C   UNL A   1      40.655  23.282  27.015  1.00  0.00     0.116 C 
BRANCH  25  26
ATOM     26  N   UNL A   1      41.404  24.007  25.999  1.00  0.00    -0.352 N 
ATOM     27  C   UNL A   1      41.821  25.315  25.990  1.00  0.00     0.251 C 
ATOM     28  H   UNL A   1      41.647  23.482  25.202  1.00  0.00     0.163 HD
ATOM     29  O   UNL A   1      42.342  25.778  24.979  1.00  0.00    -0.269 OA
BRANCH  27  30
ATOM     30  C   UNL A   1      41.617  26.171  27.180  1.00  0.00     0.039 A 
ATOM     31  C   UNL A   1      42.414  27.309  27.335  1.00  0.00     0.014 A 
ATOM     32  C   UNL A   1      40.655  25.856  28.144  1.00  0.00     0.014 A 
ATOM     33  C   UNL A   1      42.212  28.153  28.427  1.00  0.00     0.010 A 
ATOM     34  C   UNL A   1      40.399  26.742  29.187  1.00  0.00     0.010 A 
ATOM     35  C   UNL A   1      41.185  27.891  29.350  1.00  0.00    -0.014 A 
BRANCH  35  36
ATOM     36  C   UNL A   1      40.947  28.795  30.505  1.00  0.00     0.031 A 
ATOM     37  C   UNL A   1      41.792  28.675  31.746  1.00  0.00     0.074 A 
ATOM     38  C   UNL A   1      39.946  29.695  30.454  1.00  0.00     0.049 A 
ATOM     39  N   UNL A   1      41.727  29.359  32.859  1.00  0.00    -0.248 NA
ATOM     40  C   UNL A   1      42.824  27.626  31.747  1.00  0.00     0.031 C 
ATOM     41  C   UNL A   1      39.013  29.861  29.339  1.00  0.00     0.029 A 
ATOM     42  N   UNL A   1      39.541  30.636  31.367  1.00  0.00    -0.354 N 
ATOM     43  C   UNL A   1      42.702  28.821  33.691  1.00  0.00     0.074 A 
ATOM     44  C   UNL A   1      43.293  27.707  32.982  1.00  0.00     0.031 C 
ATOM     45  C   UNL A   1      38.159  30.858  29.623  1.00  0.00     0.029 A 
ATOM     46  C   UNL A   1      38.468  31.386  30.948  1.00  0.00     0.049 A 
ATOM     47  H   UNL A   1      39.978  30.763  32.240  1.00  0.00     0.167 HD
ATOM     48  C   UNL A   1      43.095  29.235  34.920  1.00  0.00     0.037 A 
ATOM     49  C   UNL A   1      37.810  32.390  31.560  1.00  0.00     0.037 A 
ATOM     50  C   UNL A   1      42.515  30.355  35.614  1.00  0.00     0.049 A 
ATOM     51  C   UNL A   1      38.283  32.859  32.909  1.00  0.00     0.074 A 
ATOM     52  C   UNL A   1      42.863  30.883  36.845  1.00  0.00     0.029 A 
ATOM     53  N   UNL A   1      41.462  31.121  35.135  1.00  0.00    -0.354 N 
ATOM     54  N   UNL A   1      39.251  32.381  33.655  1.00  0.00    -0.248 NA
ATOM     55  C   UNL A   1      37.592  34.017  33.489  1.00  0.00     0.031 C 
ATOM     56  C   UNL A   1      42.001  31.949  37.124  1.00  0.00     0.029 A 
ATOM     57  C   UNL A   1      41.145  32.115  36.047  1.00  0.00     0.049 A 
ATOM     58  H   UNL A   1      41.008  30.981  34.274  1.00  0.00     0.167 HD
ATOM     59  C   UNL A   1      39.300  33.193  34.782  1.00  0.00     0.074 A 
ATOM     60  C   UNL A   1      38.275  34.204  34.610  1.00  0.00     0.031 C 
ATOM     61  C   UNL A   1      40.121  33.114  35.860  1.00  0.00     0.037 A 
BRANCH  48  62
ATOM     62  C   UNL A   1      44.214  28.471  35.579  1.00  0.00     0.058 A 
ATOM     63  C   UNL A   1      43.957  27.397  36.449  1.00  0.00     0.135 A 
ATOM     64  C   UNL A   1      45.554  28.816  35.346  1.00  0.00     0.135 A 
ATOM     65  F   UNL A   1      42.694  27.034  36.721  1.00  0.00    -0.206 F 
ATOM     66  C   UNL A   1      44.986  26.725  37.100  1.00  0.00     0.059 A 
ATOM     67  C   UNL A   1      46.601  28.136  35.962  1.00  0.00     0.059 A 
ATOM     68  F   UNL A   1      45.859  29.831  34.522  1.00  0.00    -0.206 F 
ATOM     69  C   UNL A   1      46.306  27.107  36.855  1.00  0.00     0.060 A 
BRANCH  69  70
ATOM     70  S   UNL A   1      47.629  26.243  37.728  1.00  0.00     0.124 S 
ATOM     71  O   UNL A   1      47.793  25.053  36.898  1.00  0.00    -0.237 OA
ATOM     72  O   UNL A   1      48.723  27.207  37.675  1.00  0.00    -0.237 OA
ATOM     73  O   UNL A   1      47.066  26.010  39.054  1.00  0.00    -0.744 OA
ENDBRANCH  69  70
ENDBRANCH  48  62
BRANCH  49  74
ATOM     74  C   UNL A   1      36.660  33.039  30.878  1.00  0.00     0.058 A 
ATOM     75  C   UNL A   1      35.350  32.873  31.349  1.00  0.00     0.135 A 
ATOM     76  C   UNL A   1      36.855  33.872  29.764  1.00  0.00     0.135 A 
ATOM     77  F   UNL A   1      35.111  32.084  32.408  1.00  0.00    -0.206 F 
ATOM     78  C   UNL A   1      34.269  33.501  30.735  1.00  0.00     0.059 A 
ATOM     79  C   UNL A   1      35.793  34.529  29.148  1.00  0.00     0.059 A 
ATOM     80  F   UNL A   1      38.092  34.078  29.287  1.00  0.00    -0.206 F 
ATOM     81  C   UNL A   1      34.503  34.331  29.637  1.00  0.00     0.060 A 
BRANCH  81  82
ATOM     82  S   UNL A   1      33.103  35.196  28.892  1.00  0.00     0.124 S 
ATOM     83  O   UNL A   1      33.751  36.376  28.333  1.00  0.00    -0.237 OA
ATOM     84  O   UNL A   1      32.616  34.216  27.925  1.00  0.00    -0.237 OA
ATOM     85  O   UNL A   1      32.217  35.439  30.026  1.00  0.00    -0.744 OA
ENDBRANCH  81  82
ENDBRANCH  49  74
BRANCH  61  86
ATOM     86  C   UNL A   1      39.965  34.166  36.923  1.00  0.00     0.058 A 
ATOM     87  C   UNL A   1      40.681  35.373  36.882  1.00  0.00     0.135 A 
ATOM     88  C   UNL A   1      39.065  33.974  37.984  1.00  0.00     0.135 A 
ATOM     89  F   UNL A   1      41.558  35.605  35.891  1.00  0.00    -0.206 F 
ATOM     90  C   UNL A   1      40.537  36.337  37.873  1.00  0.00     0.059 A 
ATOM     91  C   UNL A   1      38.883  34.937  38.971  1.00  0.00     0.059 A 
ATOM     92  F   UNL A   1      38.345  32.844  38.064  1.00  0.00    -0.206 F 
ATOM     93  C   UNL A   1      39.637  36.109  38.917  1.00  0.00     0.060 A 
BRANCH  93  94
ATOM     94  S   UNL A   1      39.452  37.370  40.194  1.00  0.00     0.124 S 
ATOM     95  O   UNL A   1      40.822  37.850  40.334  1.00  0.00    -0.237 OA
ATOM     96  O   UNL A   1      38.513  38.304  39.581  1.00  0.00    -0.237 OA
ATOM     97  O   UNL A   1      38.927  36.623  41.335  1.00  0.00    -0.744 OA
ENDBRANCH  93  94
ENDBRANCH  61  86
ENDBRANCH  35  36
ENDBRANCH  27  30
ENDBRANCH  25  26
ENDBRANCH  24  25
ENDBRANCH   1  24
TORSDOF 19
ENDMDL
MODEL 3
REMARK VINA RESULT:     -10.1      4.024      5.817
REMARK SMILES C[C@H](NC(N)=O)C(=O)N[C@@H](CO)C(=O)NCCCCNC(=O)c1ccc(-c2c3nc(c(-c4c(F)cc(S(=O)(=O)[O-])cc4F)c4ccc([nH]4)c(-c4c(F)cc(S(=O)(=O)[O-])cc4F)c4nc(c(-c5c(F)cc(S(=O)(=O)[O-])cc5F)c5ccc2[nH]5)C=C4)C=C3)cc1
REMARK SMILES IDX 17 1 16 2 15 3 13 4 14 5 10 7 9 8 7 9 8 10 2 12 1 13 3 14
REMARK SMILES IDX 4 15 5 17 6 18 11 21 12 22 18 24 19 25 20 26 21 27 22 29
REMARK SMILES IDX 23 30 24 31 88 32 25 33 87 34 26 35 27 36 28 37 81 38 29 39
REMARK SMILES IDX 86 40 80 41 82 42 30 43 85 44 79 45 78 46 31 48 65 49 44 50
REMARK SMILES IDX 64 51 45 52 48 53 63 54 83 55 46 56 47 57 62 59 84 60 49 61
REMARK SMILES IDX 32 62 33 63 42 64 34 65 35 66 41 67 43 68 36 69 37 70 38 71
REMARK SMILES IDX 39 72 40 73 66 74 67 75 76 76 68 77 69 78 75 79 77 80 70 81
REMARK SMILES IDX 71 82 72 83 73 84 74 85 50 86 51 87 60 88 52 89 53 90 59 91
REMARK SMILES IDX 61 92 54 93 55 94 56 95 57 96 58 97
REMARK H PARENT 15 6 9 11 3 16 5 19 5 20 12 23 20 28 82 47 48 58
REMARK Flexibility Score: inf
ROOT
ATOM      1  C   UNL A   1      36.365  23.893  25.117  1.00  0.00     0.023 C 
ENDROOT
BRANCH   1   2
ATOM      2  C   UNL A   1      35.031  23.554  25.772  1.00  0.00     0.116 C 
BRANCH   2   3
ATOM      3  N   UNL A   1      34.375  22.427  25.135  1.00  0.00    -0.354 N 
ATOM      4  C   UNL A   1      33.309  22.367  24.293  1.00  0.00     0.244 C 
ATOM      5  O   UNL A   1      33.112  21.294  23.712  1.00  0.00    -0.273 OA
ATOM      6  H   UNL A   1      34.772  21.552  25.352  1.00  0.00     0.163 HD
BRANCH   4   7
ATOM      7  C   UNL A   1      32.423  23.584  23.953  1.00  0.00     0.197 C 
BRANCH   7   8
ATOM      8  N   UNL A   1      32.769  24.233  22.683  1.00  0.00    -0.340 N 
ATOM      9  C   UNL A   1      33.058  25.535  22.402  1.00  0.00     0.243 C 
ATOM     10  O   UNL A   1      33.634  25.753  21.332  1.00  0.00    -0.273 OA
ATOM     11  H   UNL A   1      32.794  23.629  21.906  1.00  0.00     0.164 HD
BRANCH   9  12
ATOM     12  C   UNL A   1      32.738  26.683  23.376  1.00  0.00     0.170 C 
ATOM     13  C   UNL A   1      33.676  26.681  24.578  1.00  0.00     0.041 C 
BRANCH  12  14
ATOM     14  N   UNL A   1      31.329  26.668  23.759  1.00  0.00    -0.327 N 
ATOM     15  C   UNL A   1      30.396  27.358  23.054  1.00  0.00     0.312 C 
ATOM     16  H   UNL A   1      31.050  26.146  24.546  1.00  0.00     0.166 HD
ATOM     17  N   UNL A   1      29.146  27.217  23.543  1.00  0.00    -0.352 N 
ATOM     18  O   UNL A   1      30.620  28.048  22.065  1.00  0.00    -0.249 OA
ATOM     19  H   UNL A   1      28.989  26.658  24.339  1.00  0.00     0.161 HD
ATOM     20  H   UNL A   1      28.391  27.673  23.106  1.00  0.00     0.161 HD
ENDBRANCH  12  14
ENDBRANCH   9  12
ENDBRANCH   7   8
BRANCH   7  21
ATOM     21  C   UNL A   1      30.929  23.244  24.065  1.00  0.00     0.191 C 
BRANCH  21  22
ATOM     22  O   UNL A   1      30.088  24.110  23.309  1.00  0.00    -0.394 OA
ATOM     23  H   UNL A   1      30.417  24.165  22.398  1.00  0.00     0.210 HD
ENDBRANCH  21  22
ENDBRANCH   7  21
ENDBRANCH   4   7
ENDBRANCH   2   3
ENDBRANCH   1   2
BRANCH   1  24
ATOM     24  C   UNL A   1      37.588  23.249  25.769  1.00  0.00     0.023 C 
BRANCH  24  25
ATOM     25  C   UNL A   1      38.490  24.195  26.557  1.00  0.00     0.116 C 
BRANCH  25  26
ATOM     26  N   UNL A   1      39.859  24.222  26.067  1.00  0.00    -0.352 N 
ATOM     27  C   UNL A   1      40.890  25.063  26.407  1.00  0.00     0.251 C 
ATOM     28  H   UNL A   1      40.079  23.538  25.394  1.00  0.00     0.163 HD
ATOM     29  O   UNL A   1      41.950  25.003  25.790  1.00  0.00    -0.269 OA
BRANCH  27  30
ATOM     30  C   UNL A   1      40.716  26.056  27.490  1.00  0.00     0.039 A 
ATOM     31  C   UNL A   1      39.752  25.816  28.473  1.00  0.00     0.014 A 
ATOM     32  C   UNL A   1      41.488  27.220  27.538  1.00  0.00     0.014 A 
ATOM     33  C   UNL A   1      39.598  26.718  29.527  1.00  0.00     0.010 A 
ATOM     34  C   UNL A   1      41.390  28.075  28.633  1.00  0.00     0.010 A 
ATOM     35  C   UNL A   1      40.434  27.843  29.631  1.00  0.00    -0.014 A 
BRANCH  35  36
ATOM     36  C   UNL A   1      40.292  28.798  30.760  1.00  0.00     0.031 A 
ATOM     37  C   UNL A   1      41.145  28.644  31.992  1.00  0.00     0.074 A 
ATOM     38  C   UNL A   1      39.370  29.778  30.696  1.00  0.00     0.049 A 
ATOM     39  N   UNL A   1      41.156  29.364  33.084  1.00  0.00    -0.248 NA
ATOM     40  C   UNL A   1      42.084  27.512  32.011  1.00  0.00     0.031 C 
ATOM     41  C   UNL A   1      38.436  29.990  29.588  1.00  0.00     0.029 A 
ATOM     42  N   UNL A   1      39.061  30.777  31.584  1.00  0.00    -0.354 N 
ATOM     43  C   UNL A   1      42.096  28.770  33.919  1.00  0.00     0.074 A 
ATOM     44  C   UNL A   1      42.579  27.589  33.236  1.00  0.00     0.031 C 
ATOM     45  C   UNL A   1      37.675  31.064  29.853  1.00  0.00     0.029 A 
ATOM     46  C   UNL A   1      38.049  31.603  31.157  1.00  0.00     0.049 A 
ATOM     47  H   UNL A   1      39.522  30.892  32.447  1.00  0.00     0.167 HD
ATOM     48  C   UNL A   1      42.542  29.185  35.129  1.00  0.00     0.037 A 
ATOM     49  C   UNL A   1      37.488  32.676  31.747  1.00  0.00     0.037 A 
ATOM     50  C   UNL A   1      42.071  30.370  35.796  1.00  0.00     0.049 A 
ATOM     51  C   UNL A   1      38.021  33.143  33.074  1.00  0.00     0.074 A 
ATOM     52  C   UNL A   1      42.483  30.904  37.005  1.00  0.00     0.029 A 
ATOM     53  N   UNL A   1      41.078  31.209  35.308  1.00  0.00    -0.354 N 
ATOM     54  N   UNL A   1      38.957  32.607  33.821  1.00  0.00    -0.248 NA
ATOM     55  C   UNL A   1      37.440  34.373  33.628  1.00  0.00     0.031 C 
ATOM     56  C   UNL A   1      41.718  32.046  37.263  1.00  0.00     0.029 A 
ATOM     57  C   UNL A   1      40.862  32.253  36.194  1.00  0.00     0.049 A 
ATOM     58  H   UNL A   1      40.600  31.082  34.458  1.00  0.00     0.167 HD
ATOM     59  C   UNL A   1      39.094  33.446  34.922  1.00  0.00     0.074 A 
ATOM     60  C   UNL A   1      38.154  34.534  34.733  1.00  0.00     0.031 C 
ATOM     61  C   UNL A   1      39.922  33.328  35.990  1.00  0.00     0.037 A 
BRANCH  48  62
ATOM     62  C   UNL A   1      43.604  28.349  35.795  1.00  0.00     0.058 A 
ATOM     63  C   UNL A   1      44.971  28.570  35.555  1.00  0.00     0.135 A 
ATOM     64  C   UNL A   1      43.255  27.314  36.677  1.00  0.00     0.135 A 
ATOM     65  F   UNL A   1      45.361  29.536  34.708  1.00  0.00    -0.206 F 
ATOM     66  C   UNL A   1      45.950  27.766  36.126  1.00  0.00     0.059 A 
ATOM     67  C   UNL A   1      44.222  26.516  37.285  1.00  0.00     0.059 A 
ATOM     68  F   UNL A   1      41.966  27.059  36.946  1.00  0.00    -0.206 F 
ATOM     69  C   UNL A   1      45.565  26.735  36.985  1.00  0.00     0.060 A 
BRANCH  69  70
ATOM     70  S   UNL A   1      46.847  25.683  37.698  1.00  0.00     0.124 S 
ATOM     71  O   UNL A   1      47.617  26.651  38.473  1.00  0.00    -0.237 OA
ATOM     72  O   UNL A   1      46.070  24.724  38.476  1.00  0.00    -0.237 OA
ATOM     73  O   UNL A   1      47.524  25.133  36.529  1.00  0.00    -0.744 OA
ENDBRANCH  69  70
ENDBRANCH  48  62
BRANCH  49  74
ATOM     74  C   UNL A   1      36.386  33.400  31.061  1.00  0.00     0.058 A 
ATOM     75  C   UNL A   1      35.073  33.355  31.551  1.00  0.00     0.135 A 
ATOM     76  C   UNL A   1      36.633  34.185  29.924  1.00  0.00     0.135 A 
ATOM     77  F   UNL A   1      34.785  32.615  32.633  1.00  0.00    -0.206 F 
ATOM     78  C   UNL A   1      34.039  34.053  30.933  1.00  0.00     0.059 A 
ATOM     79  C   UNL A   1      35.620  34.911  29.302  1.00  0.00     0.059 A 
ATOM     80  F   UNL A   1      37.876  34.277  29.427  1.00  0.00    -0.206 F 
ATOM     81  C   UNL A   1      34.325  34.833  29.812  1.00  0.00     0.060 A 
BRANCH  81  82
ATOM     82  S   UNL A   1      32.991  35.791  29.060  1.00  0.00     0.124 S 
ATOM     83  O   UNL A   1      33.733  36.848  28.383  1.00  0.00    -0.237 OA
ATOM     84  O   UNL A   1      32.353  34.803  28.194  1.00  0.00    -0.237 OA
ATOM     85  O   UNL A   1      32.193  36.213  30.207  1.00  0.00    -0.744 OA
ENDBRANCH  81  82
ENDBRANCH  49  74
BRANCH  61  86
ATOM     86  C   UNL A   1      39.874  34.422  37.022  1.00  0.00     0.058 A 
ATOM     87  C   UNL A   1      40.577  35.625  36.860  1.00  0.00     0.135 A 
ATOM     88  C   UNL A   1      39.089  34.271  38.177  1.00  0.00     0.135 A 
ATOM     89  F   UNL A   1      41.344  35.819  35.775  1.00  0.00    -0.206 F 
ATOM     90  C   UNL A   1      40.532  36.628  37.823  1.00  0.00     0.059 A 
ATOM     91  C   UNL A   1      39.007  35.271  39.140  1.00  0.00     0.059 A 
ATOM     92  F   UNL A   1      38.386  33.145  38.375  1.00  0.00    -0.206 F 
ATOM     93  C   UNL A   1      39.746  36.440  38.963  1.00  0.00     0.060 A 
BRANCH  93  94
ATOM     94  S   UNL A   1      39.690  37.750  40.202  1.00  0.00     0.124 S 
ATOM     95  O   UNL A   1      38.774  38.701  39.583  1.00  0.00    -0.237 OA
ATOM     96  O   UNL A   1      39.179  37.050  41.377  1.00  0.00    -0.237 OA
ATOM     97  O   UNL A   1      41.081  38.186  40.298  1.00  0.00    -0.744 OA
ENDBRANCH  93  94
ENDBRANCH  61  86
ENDBRANCH  35  36
ENDBRANCH  27  30
ENDBRANCH  25  26
ENDBRANCH  24  25
ENDBRANCH   1  24
TORSDOF 19
ENDMDL
