MODEL 1
REMARK VINA RESULT:     -11.8      0.000      0.000
REMARK SMILES COc1cc(-c2ccc(NC(=O)CCC(=O)NCCCCNC(=O)c3ccc(-c4c5nc(c(-c6c(F)cc(S(=O)(=O)[O-])cc6F)c6ccc([nH]6)c(-c6c(F)cc(S(=O)(=O)[O-])cc6F)c6nc(c(-c7c(F)cc(S(=O)(=O)[O-])cc7F)c7ccc4[nH]7)C=C6)C=C5)cc3)c(OC)c2)ccc1N
REMARK SMILES IDX 18 1 17 2 15 3 16 4 14 6 13 7 11 8 10 9 12 11 9 12 6 13 7 14
REMARK SMILES IDX 94 15 8 16 91 17 5 18 3 19 4 20 97 21 96 22 95 23 2 24 1 25
REMARK SMILES IDX 98 26 92 29 93 30 19 31 20 32 21 33 22 34 23 35 24 37 25 38
REMARK SMILES IDX 26 39 90 40 27 41 89 42 28 43 29 44 30 45 83 46 31 47 88 48
REMARK SMILES IDX 82 49 84 50 32 51 87 52 81 53 80 54 33 56 67 57 46 58 66 59
REMARK SMILES IDX 47 60 50 61 65 62 85 63 48 64 49 65 64 67 86 68 51 69 34 70
REMARK SMILES IDX 35 71 44 72 36 73 37 74 43 75 45 76 38 77 39 78 40 79 41 80
REMARK SMILES IDX 42 81 68 82 69 83 78 84 70 85 71 86 77 87 79 88 72 89 73 90
REMARK SMILES IDX 74 91 75 92 76 93 52 94 53 95 62 96 54 97 55 98 61 99 63 100
REMARK SMILES IDX 56 101 57 102 58 103 59 104 60 105
REMARK H PARENT 17 5 10 10 98 27 98 28 22 36 84 55 50 66
REMARK Flexibility Score: inf
ROOT
ATOM      1  C   UNL A   1      39.942  21.124  26.149  1.00  0.00     0.116 C 
ENDROOT
BRANCH   1   2
ATOM      2  N   UNL A   1      38.883  22.134  25.768  1.00  0.00    -0.356 N 
ATOM      3  C   UNL A   1      37.517  22.301  25.557  1.00  0.00     0.220 C 
ATOM      4  O   UNL A   1      37.189  23.506  25.570  1.00  0.00    -0.275 OA
ATOM      5  H   UNL A   1      39.326  23.000  25.612  1.00  0.00     0.163 HD
BRANCH   3   6
ATOM      6  C   UNL A   1      36.301  21.241  25.267  1.00  0.00     0.110 C 
BRANCH   6   7
ATOM      7  C   UNL A   1      34.763  21.585  24.739  1.00  0.00     0.110 C 
BRANCH   7   8
ATOM      8  C   UNL A   1      33.301  20.989  25.237  1.00  0.00     0.224 C 
ATOM      9  N   UNL A   1      32.429  21.662  26.113  1.00  0.00    -0.323 N 
ATOM     10  H   UNL A   1      31.670  21.156  26.484  1.00  0.00     0.170 HD
ATOM     11  O   UNL A   1      32.929  19.875  24.843  1.00  0.00    -0.275 OA
BRANCH   9  12
ATOM     12  C   UNL A   1      32.569  22.999  26.491  1.00  0.00     0.083 A 
ATOM     13  C   UNL A   1      32.150  25.625  25.702  1.00  0.00    -0.014 A 
ATOM     14  C   UNL A   1      33.449  25.150  25.969  1.00  0.00     0.011 A 
ATOM     15  C   UNL A   1      31.154  24.860  26.326  1.00  0.00     0.057 A 
ATOM     16  C   UNL A   1      33.673  23.801  26.309  1.00  0.00     0.031 A 
ATOM     17  C   UNL A   1      31.440  23.599  26.907  1.00  0.00     0.142 A 
BRANCH  13  18
ATOM     18  C   UNL A   1      31.890  26.780  24.753  1.00  0.00    -0.014 A 
ATOM     19  C   UNL A   1      31.299  29.130  24.175  1.00  0.00     0.142 A 
ATOM     20  C   UNL A   1      31.636  28.124  25.128  1.00  0.00     0.057 A 
ATOM     21  C   UNL A   1      31.292  28.846  22.801  1.00  0.00     0.074 A 
ATOM     22  C   UNL A   1      31.449  27.518  22.428  1.00  0.00     0.030 A 
ATOM     23  C   UNL A   1      31.745  26.524  23.373  1.00  0.00     0.011 A 
BRANCH  19  24
ATOM     24  O   UNL A   1      31.078  30.404  24.659  1.00  0.00    -0.495 OA
ATOM     25  C   UNL A   1      31.574  30.604  25.988  1.00  0.00     0.278 C 
ENDBRANCH  19  24
BRANCH  21  26
ATOM     26  N   UNL A   1      31.026  29.794  21.814  1.00  0.00    -0.396 N 
ATOM     27  H   UNL A   1      30.352  30.494  21.973  1.00  0.00     0.156 HD
ATOM     28  H   UNL A   1      31.511  29.763  20.959  1.00  0.00     0.156 HD
ENDBRANCH  21  26
ENDBRANCH  13  18
BRANCH  17  29
ATOM     29  O   UNL A   1      30.564  22.863  27.653  1.00  0.00    -0.495 OA
ATOM     30  C   UNL A   1      29.120  22.642  27.526  1.00  0.00     0.278 C 
ENDBRANCH  17  29
ENDBRANCH   9  12
ENDBRANCH   7   8
ENDBRANCH   6   7
ENDBRANCH   3   6
ENDBRANCH   1   2
BRANCH   1  31
ATOM     31  C   UNL A   1      40.997  21.223  27.318  1.00  0.00     0.023 C 
BRANCH  31  32
ATOM     32  C   UNL A   1      41.110  22.409  28.262  1.00  0.00     0.023 C 
BRANCH  32  33
ATOM     33  C   UNL A   1      42.283  23.308  27.952  1.00  0.00     0.116 C 
BRANCH  33  34
ATOM     34  N   UNL A   1      42.273  23.868  26.595  1.00  0.00    -0.352 N 
ATOM     35  C   UNL A   1      41.942  25.134  26.175  1.00  0.00     0.251 C 
ATOM     36  H   UNL A   1      42.543  23.246  25.881  1.00  0.00     0.163 HD
ATOM     37  O   UNL A   1      41.933  25.402  24.970  1.00  0.00    -0.269 OA
BRANCH  35  38
ATOM     38  C   UNL A   1      41.552  26.146  27.171  1.00  0.00     0.039 A 
ATOM     39  C   UNL A   1      40.491  25.889  28.041  1.00  0.00     0.014 A 
ATOM     40  C   UNL A   1      42.299  27.316  27.297  1.00  0.00     0.014 A 
ATOM     41  C   UNL A   1      40.243  26.772  29.092  1.00  0.00     0.010 A 
ATOM     42  C   UNL A   1      42.154  28.100  28.426  1.00  0.00     0.010 A 
ATOM     43  C   UNL A   1      41.104  27.858  29.320  1.00  0.00    -0.014 A 
BRANCH  43  44
ATOM     44  C   UNL A   1      40.909  28.797  30.449  1.00  0.00     0.031 A 
ATOM     45  C   UNL A   1      41.768  28.653  31.680  1.00  0.00     0.074 A 
ATOM     46  C   UNL A   1      39.919  29.709  30.403  1.00  0.00     0.049 A 
ATOM     47  N   UNL A   1      41.695  29.292  32.817  1.00  0.00    -0.248 NA
ATOM     48  C   UNL A   1      42.816  27.616  31.645  1.00  0.00     0.031 C 
ATOM     49  C   UNL A   1      38.981  29.893  29.292  1.00  0.00     0.029 A 
ATOM     50  N   UNL A   1      39.531  30.653  31.320  1.00  0.00    -0.354 N 
ATOM     51  C   UNL A   1      42.665  28.719  33.632  1.00  0.00     0.074 A 
ATOM     52  C   UNL A   1      43.254  27.628  32.894  1.00  0.00     0.031 C 
ATOM     53  C   UNL A   1      38.154  30.911  29.577  1.00  0.00     0.029 A 
ATOM     54  C   UNL A   1      38.470  31.424  30.905  1.00  0.00     0.049 A 
ATOM     55  H   UNL A   1      39.971  30.768  32.193  1.00  0.00     0.167 HD
ATOM     56  C   UNL A   1      43.057  29.094  34.871  1.00  0.00     0.037 A 
ATOM     57  C   UNL A   1      37.825  32.427  31.532  1.00  0.00     0.037 A 
ATOM     58  C   UNL A   1      42.495  30.215  35.575  1.00  0.00     0.049 A 
ATOM     59  C   UNL A   1      38.291  32.840  32.903  1.00  0.00     0.074 A 
ATOM     60  C   UNL A   1      42.862  30.731  36.802  1.00  0.00     0.029 A 
ATOM     61  N   UNL A   1      41.447  30.994  35.106  1.00  0.00    -0.354 N 
ATOM     62  N   UNL A   1      39.259  32.334  33.631  1.00  0.00    -0.248 NA
ATOM     63  C   UNL A   1      37.585  33.962  33.534  1.00  0.00     0.031 C 
ATOM     64  C   UNL A   1      42.003  31.794  37.100  1.00  0.00     0.029 A 
ATOM     65  C   UNL A   1      41.139  31.976  36.031  1.00  0.00     0.049 A 
ATOM     66  H   UNL A   1      40.989  30.868  34.244  1.00  0.00     0.167 HD
ATOM     67  C   UNL A   1      39.298  33.096  34.794  1.00  0.00     0.074 A 
ATOM     68  C   UNL A   1      38.266  34.104  34.664  1.00  0.00     0.031 C 
ATOM     69  C   UNL A   1      40.113  32.976  35.872  1.00  0.00     0.037 A 
BRANCH  56  70
ATOM     70  C   UNL A   1      44.153  28.299  35.529  1.00  0.00     0.058 A 
ATOM     71  C   UNL A   1      45.511  28.612  35.338  1.00  0.00     0.135 A 
ATOM     72  C   UNL A   1      43.845  27.226  36.378  1.00  0.00     0.135 A 
ATOM     73  F   UNL A   1      45.866  29.616  34.521  1.00  0.00    -0.206 F 
ATOM     74  C   UNL A   1      46.520  27.869  35.940  1.00  0.00     0.059 A 
ATOM     75  C   UNL A   1      44.838  26.489  37.017  1.00  0.00     0.059 A 
ATOM     76  F   UNL A   1      42.566  26.879  36.592  1.00  0.00    -0.206 F 
ATOM     77  C   UNL A   1      46.173  26.809  36.779  1.00  0.00     0.060 A 
BRANCH  77  78
ATOM     78  S   UNL A   1      47.498  25.865  37.562  1.00  0.00     0.124 S 
ATOM     79  O   UNL A   1      48.328  25.522  36.411  1.00  0.00    -0.237 OA
ATOM     80  O   UNL A   1      48.069  26.838  38.486  1.00  0.00    -0.237 OA
ATOM     81  O   UNL A   1      46.797  24.747  38.184  1.00  0.00    -0.744 OA
ENDBRANCH  77  78
ENDBRANCH  56  70
BRANCH  57  82
ATOM     82  C   UNL A   1      36.697  33.126  30.858  1.00  0.00     0.058 A 
ATOM     83  C   UNL A   1      36.931  34.045  29.826  1.00  0.00     0.135 A 
ATOM     84  C   UNL A   1      35.364  32.879  31.221  1.00  0.00     0.135 A 
ATOM     85  F   UNL A   1      38.188  34.319  29.443  1.00  0.00    -0.206 F 
ATOM     86  C   UNL A   1      35.887  34.712  29.190  1.00  0.00     0.059 A 
ATOM     87  C   UNL A   1      34.301  33.511  30.581  1.00  0.00     0.059 A 
ATOM     88  F   UNL A   1      35.082  31.992  32.189  1.00  0.00    -0.206 F 
ATOM     89  C   UNL A   1      34.575  34.435  29.574  1.00  0.00     0.060 A 
BRANCH  89  90
ATOM     90  S   UNL A   1      33.226  35.272  28.713  1.00  0.00     0.124 S 
ATOM     91  O   UNL A   1      33.954  36.208  27.864  1.00  0.00    -0.237 OA
ATOM     92  O   UNL A   1      32.568  34.164  28.026  1.00  0.00    -0.237 OA
ATOM     93  O   UNL A   1      32.456  35.872  29.798  1.00  0.00    -0.744 OA
ENDBRANCH  89  90
ENDBRANCH  57  82
BRANCH  69  94
ATOM     94  C   UNL A   1      39.950  33.979  36.978  1.00  0.00     0.058 A 
ATOM     95  C   UNL A   1      40.541  35.250  36.916  1.00  0.00     0.135 A 
ATOM     96  C   UNL A   1      39.134  33.686  38.084  1.00  0.00     0.135 A 
ATOM     97  F   UNL A   1      41.333  35.578  35.883  1.00  0.00    -0.206 F 
ATOM     98  C   UNL A   1      40.347  36.188  37.925  1.00  0.00     0.059 A 
ATOM     99  C   UNL A   1      38.901  34.620  39.086  1.00  0.00     0.059 A 
ATOM    100  F   UNL A   1      38.535  32.488  38.183  1.00  0.00    -0.206 F 
ATOM    101  C   UNL A   1      39.522  35.865  39.003  1.00  0.00     0.060 A 
BRANCH 101 102
ATOM    102  S   UNL A   1      39.250  37.107  40.284  1.00  0.00     0.124 S 
ATOM    103  O   UNL A   1      38.645  38.192  39.518  1.00  0.00    -0.237 OA
ATOM    104  O   UNL A   1      38.361  36.410  41.208  1.00  0.00    -0.237 OA
ATOM    105  O   UNL A   1      40.592  37.371  40.793  1.00  0.00    -0.744 OA
ENDBRANCH 101 102
ENDBRANCH  69  94
ENDBRANCH  43  44
ENDBRANCH  35  38
ENDBRANCH  33  34
ENDBRANCH  32  33
ENDBRANCH  31  32
ENDBRANCH   1  31
TORSDOF 21
ENDMDL
MODEL 2
REMARK VINA RESULT:     -11.6      6.110     11.918
REMARK SMILES COc1cc(-c2ccc(NC(=O)CCC(=O)NCCCCNC(=O)c3ccc(-c4c5nc(c(-c6c(F)cc(S(=O)(=O)[O-])cc6F)c6ccc([nH]6)c(-c6c(F)cc(S(=O)(=O)[O-])cc6F)c6nc(c(-c7c(F)cc(S(=O)(=O)[O-])cc7F)c7ccc4[nH]7)C=C6)C=C5)cc3)c(OC)c2)ccc1N
REMARK SMILES IDX 18 1 17 2 15 3 16 4 14 6 13 7 11 8 10 9 12 11 9 12 6 13 7 14
REMARK SMILES IDX 94 15 8 16 91 17 5 18 3 19 4 20 97 21 96 22 95 23 2 24 1 25
REMARK SMILES IDX 98 26 92 29 93 30 19 31 20 32 21 33 22 34 23 35 24 37 25 38
REMARK SMILES IDX 26 39 90 40 27 41 89 42 28 43 29 44 30 45 83 46 31 47 88 48
REMARK SMILES IDX 82 49 84 50 32 51 87 52 81 53 80 54 33 56 67 57 46 58 66 59
REMARK SMILES IDX 47 60 50 61 65 62 85 63 48 64 49 65 64 67 86 68 51 69 34 70
REMARK SMILES IDX 35 71 44 72 36 73 37 74 43 75 45 76 38 77 39 78 40 79 41 80
REMARK SMILES IDX 42 81 68 82 69 83 78 84 70 85 71 86 77 87 79 88 72 89 73 90
REMARK SMILES IDX 74 91 75 92 76 93 52 94 53 95 62 96 54 97 55 98 61 99 63 100
REMARK SMILES IDX 56 101 57 102 58 103 59 104 60 105
REMARK H PARENT 17 5 10 10 98 27 98 28 22 36 84 55 50 66
REMARK Flexibility Score: inf
ROOT
ATOM      1  C   UNL A   1      34.679  32.512  28.399  1.00  0.00     0.116 C 
ENDROOT
BRANCH   1   2
ATOM      2  N   UNL A   1      35.203  31.105  28.215  1.00  0.00    -0.356 N 
ATOM      3  C   UNL A   1      34.887  29.848  27.705  1.00  0.00     0.220 C 
ATOM      4  O   UNL A   1      35.903  29.137  27.560  1.00  0.00    -0.275 OA
ATOM      5  H   UNL A   1      36.109  31.062  28.599  1.00  0.00     0.163 HD
BRANCH   3   6
ATOM      6  C   UNL A   1      33.466  29.138  27.305  1.00  0.00     0.110 C 
BRANCH   6   7
ATOM      7  C   UNL A   1      32.890  28.812  25.780  1.00  0.00     0.110 C 
BRANCH   7   8
ATOM      8  C   UNL A   1      31.773  29.617  24.862  1.00  0.00     0.224 C 
ATOM      9  N   UNL A   1      31.454  29.285  23.531  1.00  0.00    -0.323 N 
ATOM     10  H   UNL A   1      30.909  29.923  23.017  1.00  0.00     0.170 HD
ATOM     11  O   UNL A   1      31.173  30.588  25.342  1.00  0.00    -0.275 OA
BRANCH   9  12
ATOM     12  C   UNL A   1      31.858  28.110  22.895  1.00  0.00     0.083 A 
ATOM     13  C   UNL A   1      32.966  25.597  23.280  1.00  0.00    -0.014 A 
ATOM     14  C   UNL A   1      33.615  26.555  22.478  1.00  0.00     0.011 A 
ATOM     15  C   UNL A   1      31.592  25.841  23.413  1.00  0.00     0.057 A 
ATOM     16  C   UNL A   1      33.088  27.854  22.329  1.00  0.00     0.031 A 
ATOM     17  C   UNL A   1      31.013  27.071  23.014  1.00  0.00     0.142 A 
BRANCH  13  18
ATOM     18  C   UNL A   1      33.724  24.493  23.994  1.00  0.00    -0.014 A 
ATOM     19  C   UNL A   1      34.137  22.140  24.702  1.00  0.00     0.142 A 
ATOM     20  C   UNL A   1      33.440  23.105  23.917  1.00  0.00     0.057 A 
ATOM     21  C   UNL A   1      35.207  22.521  25.526  1.00  0.00     0.074 A 
ATOM     22  C   UNL A   1      35.435  23.882  25.680  1.00  0.00     0.030 A 
ATOM     23  C   UNL A   1      34.721  24.830  24.932  1.00  0.00     0.011 A 
BRANCH  19  24
ATOM     24  O   UNL A   1      33.776  20.818  24.537  1.00  0.00    -0.495 OA
ATOM     25  C   UNL A   1      32.594  20.642  23.748  1.00  0.00     0.278 C 
ENDBRANCH  19  24
BRANCH  21  26
ATOM     26  N   UNL A   1      35.966  21.624  26.276  1.00  0.00    -0.396 N 
ATOM     27  H   UNL A   1      36.538  20.963  25.821  1.00  0.00     0.156 HD
ATOM     28  H   UNL A   1      35.930  21.649  27.258  1.00  0.00     0.156 HD
ENDBRANCH  21  26
ENDBRANCH  13  18
BRANCH  17  29
ATOM     29  O   UNL A   1      29.672  27.332  22.977  1.00  0.00    -0.495 OA
ATOM     30  C   UNL A   1      28.560  26.841  23.796  1.00  0.00     0.278 C 
ENDBRANCH  17  29
ENDBRANCH   9  12
ENDBRANCH   7   8
ENDBRANCH   6   7
ENDBRANCH   3   6
ENDBRANCH   1   2
BRANCH   1  31
ATOM     31  C   UNL A   1      35.324  33.681  29.240  1.00  0.00     0.023 C 
BRANCH  31  32
ATOM     32  C   UNL A   1      36.816  33.966  29.293  1.00  0.00     0.023 C 
BRANCH  32  33
ATOM     33  C   UNL A   1      37.495  33.367  30.503  1.00  0.00     0.116 C 
BRANCH  33  34
ATOM     34  N   UNL A   1      36.679  32.385  31.229  1.00  0.00    -0.352 N 
ATOM     35  C   UNL A   1      36.879  31.037  31.397  1.00  0.00     0.251 C 
ATOM     36  H   UNL A   1      35.870  32.746  31.658  1.00  0.00     0.163 HD
ATOM     37  O   UNL A   1      36.039  30.357  31.994  1.00  0.00    -0.269 OA
BRANCH  35  38
ATOM     38  C   UNL A   1      38.077  30.407  30.816  1.00  0.00     0.039 A 
ATOM     39  C   UNL A   1      38.314  30.504  29.443  1.00  0.00     0.014 A 
ATOM     40  C   UNL A   1      39.010  29.795  31.650  1.00  0.00     0.014 A 
ATOM     41  C   UNL A   1      39.533  30.061  28.930  1.00  0.00     0.010 A 
ATOM     42  C   UNL A   1      40.272  29.506  31.166  1.00  0.00     0.010 A 
ATOM     43  C   UNL A   1      40.540  29.603  29.795  1.00  0.00    -0.014 A 
BRANCH  43  44
ATOM     44  C   UNL A   1      41.867  29.165  29.303  1.00  0.00     0.031 A 
ATOM     45  C   UNL A   1      42.990  30.168  29.231  1.00  0.00     0.074 A 
ATOM     46  C   UNL A   1      42.035  27.909  28.847  1.00  0.00     0.049 A 
ATOM     47  N   UNL A   1      44.191  30.029  28.736  1.00  0.00    -0.248 NA
ATOM     48  C   UNL A   1      42.709  31.524  29.739  1.00  0.00     0.031 C 
ATOM     49  C   UNL A   1      40.998  26.874  28.802  1.00  0.00     0.029 A 
ATOM     50  N   UNL A   1      43.141  27.289  28.325  1.00  0.00    -0.354 N 
ATOM     51  C   UNL A   1      44.791  31.277  28.851  1.00  0.00     0.074 A 
ATOM     52  C   UNL A   1      43.801  32.182  29.382  1.00  0.00     0.031 C 
ATOM     53  C   UNL A   1      41.528  25.739  28.319  1.00  0.00     0.029 A 
ATOM     54  C   UNL A   1      42.927  25.976  27.978  1.00  0.00     0.049 A 
ATOM     55  H   UNL A   1      44.008  27.741  28.211  1.00  0.00     0.167 HD
ATOM     56  C   UNL A   1      46.068  31.630  28.576  1.00  0.00     0.037 A 
ATOM     57  C   UNL A   1      43.766  25.070  27.439  1.00  0.00     0.037 A 
ATOM     58  C   UNL A   1      47.059  30.706  28.094  1.00  0.00     0.049 A 
ATOM     59  C   UNL A   1      45.187  25.479  27.159  1.00  0.00     0.074 A 
ATOM     60  C   UNL A   1      48.400  30.934  27.849  1.00  0.00     0.029 A 
ATOM     61  N   UNL A   1      46.813  29.375  27.789  1.00  0.00    -0.354 N 
ATOM     62  N   UNL A   1      45.760  26.646  27.341  1.00  0.00    -0.248 NA
ATOM     63  C   UNL A   1      46.078  24.450  26.607  1.00  0.00     0.031 C 
ATOM     64  C   UNL A   1      48.955  29.752  27.348  1.00  0.00     0.029 A 
ATOM     65  C   UNL A   1      47.973  28.773  27.337  1.00  0.00     0.049 A 
ATOM     66  H   UNL A   1      45.942  28.925  27.880  1.00  0.00     0.167 HD
ATOM     67  C   UNL A   1      47.086  26.483  26.955  1.00  0.00     0.074 A 
ATOM     68  C   UNL A   1      47.232  25.102  26.543  1.00  0.00     0.031 C 
ATOM     69  C   UNL A   1      48.094  27.391  26.943  1.00  0.00     0.037 A 
BRANCH  56  70
ATOM     70  C   UNL A   1      46.464  33.064  28.808  1.00  0.00     0.058 A 
ATOM     71  C   UNL A   1      46.350  34.035  27.798  1.00  0.00     0.135 A 
ATOM     72  C   UNL A   1      46.942  33.478  30.060  1.00  0.00     0.135 A 
ATOM     73  F   UNL A   1      45.919  33.692  26.574  1.00  0.00    -0.206 F 
ATOM     74  C   UNL A   1      46.727  35.356  28.013  1.00  0.00     0.059 A 
ATOM     75  C   UNL A   1      47.293  34.802  30.308  1.00  0.00     0.059 A 
ATOM     76  F   UNL A   1      47.076  32.593  31.060  1.00  0.00    -0.206 F 
ATOM     77  C   UNL A   1      47.196  35.731  29.272  1.00  0.00     0.060 A 
BRANCH  77  78
ATOM     78  S   UNL A   1      47.666  37.453  29.536  1.00  0.00     0.124 S 
ATOM     79  O   UNL A   1      48.065  37.854  28.190  1.00  0.00    -0.237 OA
ATOM     80  O   UNL A   1      46.427  38.042  30.030  1.00  0.00    -0.237 OA
ATOM     81  O   UNL A   1      48.749  37.365  30.510  1.00  0.00    -0.744 OA
ENDBRANCH  77  78
ENDBRANCH  56  70
BRANCH  57  82
ATOM     82  C   UNL A   1      43.293  23.686  27.163  1.00  0.00     0.058 A 
ATOM     83  C   UNL A   1      42.957  23.284  25.862  1.00  0.00     0.135 A 
ATOM     84  C   UNL A   1      43.182  22.733  28.187  1.00  0.00     0.135 A 
ATOM     85  F   UNL A   1      43.044  24.158  24.847  1.00  0.00    -0.206 F 
ATOM     86  C   UNL A   1      42.508  21.996  25.587  1.00  0.00     0.059 A 
ATOM     87  C   UNL A   1      42.762  21.430  27.934  1.00  0.00     0.059 A 
ATOM     88  F   UNL A   1      43.510  23.058  29.448  1.00  0.00    -0.206 F 
ATOM     89  C   UNL A   1      42.416  21.075  26.631  1.00  0.00     0.060 A 
BRANCH  89  90
ATOM     90  S   UNL A   1      41.874  19.393  26.258  1.00  0.00     0.124 S 
ATOM     91  O   UNL A   1      42.605  19.115  25.027  1.00  0.00    -0.237 OA
ATOM     92  O   UNL A   1      42.313  18.661  27.442  1.00  0.00    -0.237 OA
ATOM     93  O   UNL A   1      40.428  19.530  26.115  1.00  0.00    -0.744 OA
ENDBRANCH  89  90
ENDBRANCH  57  82
BRANCH  69  94
ATOM     94  C   UNL A   1      49.451  26.914  26.508  1.00  0.00     0.058 A 
ATOM     95  C   UNL A   1      50.428  26.520  27.434  1.00  0.00     0.135 A 
ATOM     96  C   UNL A   1      49.750  26.786  25.141  1.00  0.00     0.135 A 
ATOM     97  F   UNL A   1      50.194  26.627  28.751  1.00  0.00    -0.206 F 
ATOM     98  C   UNL A   1      51.665  26.037  27.020  1.00  0.00     0.059 A 
ATOM     99  C   UNL A   1      50.967  26.276  24.706  1.00  0.00     0.059 A 
ATOM    100  F   UNL A   1      48.843  27.137  24.214  1.00  0.00    -0.206 F 
ATOM    101  C   UNL A   1      51.922  25.914  25.653  1.00  0.00     0.060 A 
BRANCH 101 102
ATOM    102  S   UNL A   1      53.517  25.250  25.132  1.00  0.00     0.124 S 
ATOM    103  O   UNL A   1      53.284  23.813  25.231  1.00  0.00    -0.237 OA
ATOM    104  O   UNL A   1      53.647  25.780  23.778  1.00  0.00    -0.237 OA
ATOM    105  O   UNL A   1      54.452  25.803  26.108  1.00  0.00    -0.744 OA
ENDBRANCH 101 102
ENDBRANCH  69  94
ENDBRANCH  43  44
ENDBRANCH  35  38
ENDBRANCH  33  34
ENDBRANCH  32  33
ENDBRANCH  31  32
ENDBRANCH   1  31
TORSDOF 21
ENDMDL
MODEL 3
REMARK VINA RESULT:     -11.6      4.875     12.484
REMARK SMILES COc1cc(-c2ccc(NC(=O)CCC(=O)NCCCCNC(=O)c3ccc(-c4c5nc(c(-c6c(F)cc(S(=O)(=O)[O-])cc6F)c6ccc([nH]6)c(-c6c(F)cc(S(=O)(=O)[O-])cc6F)c6nc(c(-c7c(F)cc(S(=O)(=O)[O-])cc7F)c7ccc4[nH]7)C=C6)C=C5)cc3)c(OC)c2)ccc1N
REMARK SMILES IDX 18 1 17 2 15 3 16 4 14 6 13 7 11 8 10 9 12 11 9 12 6 13 7 14
REMARK SMILES IDX 94 15 8 16 91 17 5 18 3 19 4 20 97 21 96 22 95 23 2 24 1 25
REMARK SMILES IDX 98 26 92 29 93 30 19 31 20 32 21 33 22 34 23 35 24 37 25 38
REMARK SMILES IDX 26 39 90 40 27 41 89 42 28 43 29 44 30 45 83 46 31 47 88 48
REMARK SMILES IDX 82 49 84 50 32 51 87 52 81 53 80 54 33 56 67 57 46 58 66 59
REMARK SMILES IDX 47 60 50 61 65 62 85 63 48 64 49 65 64 67 86 68 51 69 34 70
REMARK SMILES IDX 35 71 44 72 36 73 37 74 43 75 45 76 38 77 39 78 40 79 41 80
REMARK SMILES IDX 42 81 68 82 69 83 78 84 70 85 71 86 77 87 79 88 72 89 73 90
REMARK SMILES IDX 74 91 75 92 76 93 52 94 53 95 62 96 54 97 55 98 61 99 63 100
REMARK SMILES IDX 56 101 57 102 58 103 59 104 60 105
REMARK H PARENT 17 5 10 10 98 27 98 28 22 36 84 55 50 66
REMARK Flexibility Score: inf
ROOT
ATOM      1  C   UNL A   1      33.384  35.416  29.664  1.00  0.00     0.116 C 
ENDROOT
BRANCH   1   2
ATOM      2  N   UNL A   1      33.768  35.924  31.035  1.00  0.00    -0.356 N 
ATOM      3  C   UNL A   1      34.341  35.554  32.249  1.00  0.00     0.220 C 
ATOM      4  O   UNL A   1      34.691  36.547  32.919  1.00  0.00    -0.275 OA
ATOM      5  H   UNL A   1      33.519  36.876  31.091  1.00  0.00     0.163 HD
BRANCH   3   6
ATOM      6  C   UNL A   1      34.601  34.098  32.955  1.00  0.00     0.110 C 
BRANCH   6   7
ATOM      7  C   UNL A   1      36.057  33.327  33.178  1.00  0.00     0.110 C 
BRANCH   7   8
ATOM      8  C   UNL A   1      37.555  33.668  32.562  1.00  0.00     0.224 C 
ATOM      9  N   UNL A   1      38.712  32.912  32.830  1.00  0.00    -0.323 N 
ATOM     10  H   UNL A   1      39.580  33.290  32.561  1.00  0.00     0.170 HD
ATOM     11  O   UNL A   1      37.704  34.654  31.828  1.00  0.00    -0.275 OA
BRANCH   9  12
ATOM     12  C   UNL A   1      38.709  31.661  33.450  1.00  0.00     0.083 A 
ATOM     13  C   UNL A   1      40.210  29.383  33.951  1.00  0.00    -0.014 A 
ATOM     14  C   UNL A   1      39.006  29.308  33.224  1.00  0.00     0.011 A 
ATOM     15  C   UNL A   1      40.285  30.525  34.760  1.00  0.00     0.057 A 
ATOM     16  C   UNL A   1      38.272  30.470  32.914  1.00  0.00     0.031 A 
ATOM     17  C   UNL A   1      39.369  31.598  34.620  1.00  0.00     0.142 A 
BRANCH  13  18
ATOM     18  C   UNL A   1      41.328  28.372  33.772  1.00  0.00    -0.014 A 
ATOM     19  C   UNL A   1      42.740  26.435  34.447  1.00  0.00     0.142 A 
ATOM     20  C   UNL A   1      41.606  27.278  34.631  1.00  0.00     0.057 A 
ATOM     21  C   UNL A   1      43.588  26.600  33.341  1.00  0.00     0.074 A 
ATOM     22  C   UNL A   1      43.381  27.720  32.546  1.00  0.00     0.030 A 
ATOM     23  C   UNL A   1      42.283  28.568  32.753  1.00  0.00     0.011 A 
BRANCH  19  24
ATOM     24  O   UNL A   1      42.904  25.399  35.344  1.00  0.00    -0.495 OA
ATOM     25  C   UNL A   1      41.856  25.315  36.318  1.00  0.00     0.278 C 
ENDBRANCH  19  24
BRANCH  21  26
ATOM     26  N   UNL A   1      44.680  25.778  33.071  1.00  0.00    -0.396 N 
ATOM     27  H   UNL A   1      45.561  25.984  33.461  1.00  0.00     0.156 HD
ATOM     28  H   UNL A   1      44.573  24.992  32.490  1.00  0.00     0.156 HD
ENDBRANCH  21  26
ENDBRANCH  13  18
BRANCH  17  29
ATOM     29  O   UNL A   1      39.286  32.674  35.458  1.00  0.00    -0.495 OA
ATOM     30  C   UNL A   1      38.682  32.833  36.784  1.00  0.00     0.278 C 
ENDBRANCH  17  29
ENDBRANCH   9  12
ENDBRANCH   7   8
ENDBRANCH   6   7
ENDBRANCH   3   6
ENDBRANCH   1   2
BRANCH   1  31
ATOM     31  C   UNL A   1      34.335  34.834  28.547  1.00  0.00     0.023 C 
BRANCH  31  32
ATOM     32  C   UNL A   1      35.476  33.869  28.822  1.00  0.00     0.023 C 
BRANCH  32  33
ATOM     33  C   UNL A   1      35.047  32.643  29.595  1.00  0.00     0.116 C 
BRANCH  33  34
ATOM     34  N   UNL A   1      34.181  31.727  28.843  1.00  0.00    -0.352 N 
ATOM     35  C   UNL A   1      34.482  30.521  28.258  1.00  0.00     0.251 C 
ATOM     36  H   UNL A   1      33.246  32.020  28.743  1.00  0.00     0.163 HD
ATOM     37  O   UNL A   1      33.625  29.918  27.606  1.00  0.00    -0.269 OA
BRANCH  35  38
ATOM     38  C   UNL A   1      35.849  29.984  28.377  1.00  0.00     0.039 A 
ATOM     39  C   UNL A   1      36.740  30.117  27.311  1.00  0.00     0.014 A 
ATOM     40  C   UNL A   1      36.270  29.424  29.582  1.00  0.00     0.014 A 
ATOM     41  C   UNL A   1      38.078  29.766  27.494  1.00  0.00     0.010 A 
ATOM     42  C   UNL A   1      37.619  29.229  29.809  1.00  0.00     0.010 A 
ATOM     43  C   UNL A   1      38.536  29.365  28.760  1.00  0.00    -0.014 A 
BRANCH  43  44
ATOM     44  C   UNL A   1      39.955  29.026  29.016  1.00  0.00     0.031 A 
ATOM     45  C   UNL A   1      40.869  30.079  29.590  1.00  0.00     0.074 A 
ATOM     46  C   UNL A   1      40.435  27.820  28.659  1.00  0.00     0.049 A 
ATOM     47  N   UNL A   1      42.159  30.032  29.792  1.00  0.00    -0.248 NA
ATOM     48  C   UNL A   1      40.259  31.376  29.937  1.00  0.00     0.031 C 
ATOM     49  C   UNL A   1      39.658  26.748  28.030  1.00  0.00     0.029 A 
ATOM     50  N   UNL A   1      41.696  27.292  28.766  1.00  0.00    -0.354 N 
ATOM     51  C   UNL A   1      42.512  31.292  30.261  1.00  0.00     0.074 A 
ATOM     52  C   UNL A   1      41.321  32.107  30.235  1.00  0.00     0.031 C 
ATOM     53  C   UNL A   1      40.449  25.679  27.845  1.00  0.00     0.029 A 
ATOM     54  C   UNL A   1      41.798  26.002  28.298  1.00  0.00     0.049 A 
ATOM     55  H   UNL A   1      42.457  27.789  29.144  1.00  0.00     0.167 HD
ATOM     56  C   UNL A   1      43.713  31.721  30.712  1.00  0.00     0.037 A 
ATOM     57  C   UNL A   1      42.863  25.180  28.238  1.00  0.00     0.037 A 
ATOM     58  C   UNL A   1      44.879  30.883  30.779  1.00  0.00     0.049 A 
ATOM     59  C   UNL A   1      44.186  25.672  28.762  1.00  0.00     0.074 A 
ATOM     60  C   UNL A   1      46.129  31.187  31.283  1.00  0.00     0.029 A 
ATOM     61  N   UNL A   1      44.934  29.572  30.329  1.00  0.00    -0.354 N 
ATOM     62  N   UNL A   1      44.486  26.844  29.271  1.00  0.00    -0.248 NA
ATOM     63  C   UNL A   1      45.312  24.730  28.712  1.00  0.00     0.031 C 
ATOM     64  C   UNL A   1      46.955  30.075  31.093  1.00  0.00     0.029 A 
ATOM     65  C   UNL A   1      46.203  29.058  30.525  1.00  0.00     0.049 A 
ATOM     66  H   UNL A   1      44.181  29.078  29.929  1.00  0.00     0.167 HD
ATOM     67  C   UNL A   1      45.828  26.770  29.630  1.00  0.00     0.074 A 
ATOM     68  C   UNL A   1      46.275  25.434  29.292  1.00  0.00     0.031 C 
ATOM     69  C   UNL A   1      46.620  27.719  30.189  1.00  0.00     0.037 A 
BRANCH  56  70
ATOM     70  C   UNL A   1      43.816  33.147  31.182  1.00  0.00     0.058 A 
ATOM     71  C   UNL A   1      43.512  33.514  32.505  1.00  0.00     0.135 A 
ATOM     72  C   UNL A   1      44.245  34.157  30.308  1.00  0.00     0.135 A 
ATOM     73  F   UNL A   1      43.076  32.594  33.380  1.00  0.00    -0.206 F 
ATOM     74  C   UNL A   1      43.598  34.835  32.932  1.00  0.00     0.059 A 
ATOM     75  C   UNL A   1      44.371  35.480  30.723  1.00  0.00     0.059 A 
ATOM     76  F   UNL A   1      44.544  33.866  29.032  1.00  0.00    -0.206 F 
ATOM     77  C   UNL A   1      44.031  35.811  32.034  1.00  0.00     0.060 A 
BRANCH  77  78
ATOM     78  S   UNL A   1      44.150  37.516  32.611  1.00  0.00     0.124 S 
ATOM     79  O   UNL A   1      45.529  37.566  33.087  1.00  0.00    -0.237 OA
ATOM     80  O   UNL A   1      43.872  38.276  31.398  1.00  0.00    -0.237 OA
ATOM     81  O   UNL A   1      43.126  37.597  33.648  1.00  0.00    -0.744 OA
ENDBRANCH  77  78
ENDBRANCH  56  70
BRANCH  57  82
ATOM     82  C   UNL A   1      42.714  23.804  27.691  1.00  0.00     0.058 A 
ATOM     83  C   UNL A   1      42.764  23.566  26.310  1.00  0.00     0.135 A 
ATOM     84  C   UNL A   1      42.535  22.698  28.536  1.00  0.00     0.135 A 
ATOM     85  F   UNL A   1      42.931  24.590  25.459  1.00  0.00    -0.206 F 
ATOM     86  C   UNL A   1      42.620  22.286  25.782  1.00  0.00     0.059 A 
ATOM     87  C   UNL A   1      42.417  21.404  28.035  1.00  0.00     0.059 A 
ATOM     88  F   UNL A   1      42.501  22.865  29.868  1.00  0.00    -0.206 F 
ATOM     89  C   UNL A   1      42.449  21.211  26.654  1.00  0.00     0.060 A 
BRANCH  89  90
ATOM     90  S   UNL A   1      42.308  19.548  25.963  1.00  0.00     0.124 S 
ATOM     91  O   UNL A   1      42.736  18.724  27.088  1.00  0.00    -0.237 OA
ATOM     92  O   UNL A   1      40.891  19.479  25.621  1.00  0.00    -0.237 OA
ATOM     93  O   UNL A   1      43.220  19.580  24.823  1.00  0.00    -0.744 OA
ENDBRANCH  89  90
ENDBRANCH  57  82
BRANCH  69  94
ATOM     94  C   UNL A   1      48.038  27.338  30.507  1.00  0.00     0.058 A 
ATOM     95  C   UNL A   1      49.067  27.463  29.562  1.00  0.00     0.135 A 
ATOM     96  C   UNL A   1      48.380  26.906  31.800  1.00  0.00     0.135 A 
ATOM     97  F   UNL A   1      48.792  27.867  28.312  1.00  0.00    -0.206 F 
ATOM     98  C   UNL A   1      50.384  27.149  29.881  1.00  0.00     0.059 A 
ATOM     99  C   UNL A   1      49.694  26.619  32.148  1.00  0.00     0.059 A 
ATOM    100  F   UNL A   1      47.433  26.783  32.745  1.00  0.00    -0.206 F 
ATOM    101  C   UNL A   1      50.688  26.733  31.178  1.00  0.00     0.060 A 
BRANCH 101 102
ATOM    102  S   UNL A   1      52.407  26.367  31.586  1.00  0.00     0.124 S 
ATOM    103  O   UNL A   1      52.260  25.586  32.809  1.00  0.00    -0.237 OA
ATOM    104  O   UNL A   1      52.855  25.628  30.410  1.00  0.00    -0.237 OA
ATOM    105  O   UNL A   1      53.006  27.689  31.754  1.00  0.00    -0.744 OA
ENDBRANCH 101 102
ENDBRANCH  69  94
ENDBRANCH  43  44
ENDBRANCH  35  38
ENDBRANCH  33  34
ENDBRANCH  32  33
ENDBRANCH  31  32
ENDBRANCH   1  31
TORSDOF 21
ENDMDL
