MODEL 1
REMARK VINA RESULT:     -13.2      0.000      0.000
REMARK SMILES CNc1nc(C(=O)N2C[C@@H](C(=O)NCCCCNC(=O)c3ccc(-c4c5nc(c(-c6c(F)cc(S(=O)(=O)[O-])cc6F)c6ccc([nH]6)c(-c6c(F)cc(S(=O)(=O)[O-])cc6F)c6nc(c(-c7c(F)cc(S(=O)(=O)[O-])cc7F)c7ccc4[nH]7)C=C6)C=C5)cc3)[C@H](c3ccccc3C)C2)cs1
REMARK SMILES IDX 15 1 14 2 13 3 11 4 12 5 10 7 8 8 9 9 95 10 87 11 6 12 7 13
REMARK SMILES IDX 5 14 3 15 4 16 97 17 96 18 2 19 1 20 88 22 89 23 93 24 90 25
REMARK SMILES IDX 92 26 94 27 91 28 16 29 17 30 18 31 19 32 20 34 21 35 22 36
REMARK SMILES IDX 86 37 23 38 85 39 24 40 25 41 26 42 79 43 27 44 84 45 78 46
REMARK SMILES IDX 80 47 28 48 83 49 77 50 76 51 29 53 63 54 42 55 62 56 43 57
REMARK SMILES IDX 46 58 61 59 81 60 44 61 45 62 60 64 82 65 47 66 30 67 31 68
REMARK SMILES IDX 40 69 32 70 33 71 39 72 41 73 34 74 35 75 36 76 37 77 38 78
REMARK SMILES IDX 64 79 65 80 74 81 66 82 67 83 73 84 75 85 68 86 69 87 70 88
REMARK SMILES IDX 71 89 72 90 48 91 49 92 58 93 50 94 51 95 57 96 59 97 52 98
REMARK SMILES IDX 53 99 54 100 55 101 56 102
REMARK H PARENT 13 6 2 21 18 33 80 52 46 63
REMARK Flexibility Score: inf
ROOT
ATOM      1  C   UNL A   1      38.988  21.847  25.878  1.00  0.00     0.023 C 
ENDROOT
BRANCH   1   2
ATOM      2  C   UNL A   1      38.056  23.042  26.114  1.00  0.00     0.116 C 
BRANCH   2   3
ATOM      3  N   UNL A   1      37.691  23.643  24.844  1.00  0.00    -0.356 N 
ATOM      4  C   UNL A   1      36.654  23.270  24.034  1.00  0.00     0.225 C 
ATOM      5  O   UNL A   1      36.926  23.067  22.852  1.00  0.00    -0.275 OA
ATOM      6  H   UNL A   1      38.245  24.395  24.535  1.00  0.00     0.163 HD
BRANCH   4   7
ATOM      7  C   UNL A   1      35.227  23.247  24.571  1.00  0.00     0.107 C 
ATOM      8  N   UNL A   1      33.292  21.912  24.402  1.00  0.00    -0.336 N 
ATOM      9  C   UNL A   1      34.690  21.838  24.734  1.00  0.00     0.134 C 
ATOM     10  C   UNL A   1      33.116  22.882  23.347  1.00  0.00     0.129 C 
ATOM     11  C   UNL A   1      34.195  23.963  23.633  1.00  0.00     0.053 C 
BRANCH   8  12
ATOM     12  C   UNL A   1      32.299  21.065  24.863  1.00  0.00     0.273 C 
ATOM     13  O   UNL A   1      31.301  21.475  25.450  1.00  0.00    -0.267 OA
BRANCH  12  14
ATOM     14  C   UNL A   1      32.518  19.628  24.631  1.00  0.00     0.141 A 
ATOM     15  C   UNL A   1      32.781  17.503  25.278  1.00  0.00     0.183 A 
ATOM     16  N   UNL A   1      32.585  18.727  25.698  1.00  0.00    -0.215 NA
ATOM     17  S   UNL A   1      32.901  17.346  23.568  1.00  0.00    -0.105 S 
ATOM     18  C   UNL A   1      32.630  19.032  23.390  1.00  0.00     0.102 A 
BRANCH  15  19
ATOM     19  N   UNL A   1      32.880  16.429  26.084  1.00  0.00    -0.365 N 
ATOM     20  C   UNL A   1      32.279  15.171  25.715  1.00  0.00     0.142 C 
ATOM     21  H   UNL A   1      33.368  16.503  26.935  1.00  0.00     0.162 HD
ENDBRANCH  15  19
ENDBRANCH  12  14
ENDBRANCH   8  12
BRANCH  11  22
ATOM     22  C   UNL A   1      33.690  25.290  24.224  1.00  0.00    -0.039 A 
ATOM     23  C   UNL A   1      33.753  25.538  25.611  1.00  0.00     0.004 A 
ATOM     24  C   UNL A   1      33.118  26.300  23.406  1.00  0.00    -0.048 A 
ATOM     25  C   UNL A   1      33.223  26.703  26.174  1.00  0.00     0.000 A 
ATOM     26  C   UNL A   1      32.615  27.479  23.990  1.00  0.00     0.004 A 
ATOM     27  C   UNL A   1      33.040  26.204  21.905  1.00  0.00     0.044 C 
ATOM     28  C   UNL A   1      32.651  27.672  25.365  1.00  0.00     0.000 A 
ENDBRANCH  11  22
ENDBRANCH   4   7
ENDBRANCH   2   3
ENDBRANCH   1   2
BRANCH   1  29
ATOM     29  C   UNL A   1      40.096  21.704  26.929  1.00  0.00     0.023 C 
BRANCH  29  30
ATOM     30  C   UNL A   1      40.778  23.010  27.324  1.00  0.00     0.116 C 
BRANCH  30  31
ATOM     31  N   UNL A   1      41.264  23.764  26.179  1.00  0.00    -0.352 N 
ATOM     32  C   UNL A   1      41.543  25.105  26.093  1.00  0.00     0.251 C 
ATOM     33  H   UNL A   1      41.412  23.242  25.358  1.00  0.00     0.163 HD
ATOM     34  O   UNL A   1      41.842  25.602  25.012  1.00  0.00    -0.269 OA
BRANCH  32  35
ATOM     35  C   UNL A   1      41.441  25.945  27.303  1.00  0.00     0.039 A 
ATOM     36  C   UNL A   1      42.496  26.808  27.608  1.00  0.00     0.014 A 
ATOM     37  C   UNL A   1      40.303  25.899  28.111  1.00  0.00     0.014 A 
ATOM     38  C   UNL A   1      42.382  27.675  28.696  1.00  0.00     0.010 A 
ATOM     39  C   UNL A   1      40.168  26.804  29.161  1.00  0.00     0.010 A 
ATOM     40  C   UNL A   1      41.204  27.702  29.460  1.00  0.00    -0.014 A 
BRANCH  40  41
ATOM     41  C   UNL A   1      41.033  28.671  30.570  1.00  0.00     0.031 A 
ATOM     42  C   UNL A   1      41.901  28.573  31.795  1.00  0.00     0.074 A 
ATOM     43  C   UNL A   1      40.047  29.587  30.504  1.00  0.00     0.049 A 
ATOM     44  N   UNL A   1      41.850  29.274  32.897  1.00  0.00    -0.248 NA
ATOM     45  C   UNL A   1      42.942  27.533  31.792  1.00  0.00     0.031 C 
ATOM     46  C   UNL A   1      39.105  29.740  29.391  1.00  0.00     0.029 A 
ATOM     47  N   UNL A   1      39.660  30.553  31.399  1.00  0.00    -0.354 N 
ATOM     48  C   UNL A   1      42.831  28.745  33.728  1.00  0.00     0.074 A 
ATOM     49  C   UNL A   1      43.439  27.643  33.016  1.00  0.00     0.031 C 
ATOM     50  C   UNL A   1      38.261  30.749  29.664  1.00  0.00     0.029 A 
ATOM     51  C   UNL A   1      38.579  31.293  30.980  1.00  0.00     0.049 A 
ATOM     52  H   UNL A   1      40.113  30.702  32.259  1.00  0.00     0.167 HD
ATOM     53  C   UNL A   1      43.198  29.153  34.965  1.00  0.00     0.037 A 
ATOM     54  C   UNL A   1      37.917  32.294  31.592  1.00  0.00     0.037 A 
ATOM     55  C   UNL A   1      42.626  30.285  35.644  1.00  0.00     0.049 A 
ATOM     56  C   UNL A   1      38.373  32.748  32.953  1.00  0.00     0.074 A 
ATOM     57  C   UNL A   1      42.999  30.839  36.857  1.00  0.00     0.029 A 
ATOM     58  N   UNL A   1      41.562  31.037  35.170  1.00  0.00    -0.354 N 
ATOM     59  N   UNL A   1      39.358  32.290  33.686  1.00  0.00    -0.248 NA
ATOM     60  C   UNL A   1      37.631  33.860  33.565  1.00  0.00     0.031 C 
ATOM     61  C   UNL A   1      42.138  31.906  37.131  1.00  0.00     0.029 A 
ATOM     62  C   UNL A   1      41.253  32.039  36.075  1.00  0.00     0.049 A 
ATOM     63  H   UNL A   1      41.096  30.883  34.317  1.00  0.00     0.167 HD
ATOM     64  C   UNL A   1      39.374  33.076  34.833  1.00  0.00     0.074 A 
ATOM     65  C   UNL A   1      38.305  34.044  34.692  1.00  0.00     0.031 C 
ATOM     66  C   UNL A   1      40.198  33.005  35.907  1.00  0.00     0.037 A 
BRANCH  53  67
ATOM     67  C   UNL A   1      44.280  28.383  35.668  1.00  0.00     0.058 A 
ATOM     68  C   UNL A   1      45.638  28.699  35.499  1.00  0.00     0.135 A 
ATOM     69  C   UNL A   1      43.952  27.360  36.572  1.00  0.00     0.135 A 
ATOM     70  F   UNL A   1      46.006  29.657  34.634  1.00  0.00    -0.206 F 
ATOM     71  C   UNL A   1      46.633  28.019  36.192  1.00  0.00     0.059 A 
ATOM     72  C   UNL A   1      44.931  26.682  37.293  1.00  0.00     0.059 A 
ATOM     73  F   UNL A   1      42.669  27.017  36.767  1.00  0.00    -0.206 F 
ATOM     74  C   UNL A   1      46.269  27.013  37.090  1.00  0.00     0.060 A 
BRANCH  74  75
ATOM     75  S   UNL A   1      47.571  26.162  38.006  1.00  0.00     0.124 S 
ATOM     76  O   UNL A   1      48.744  26.947  37.638  1.00  0.00    -0.237 OA
ATOM     77  O   UNL A   1      47.124  26.300  39.388  1.00  0.00    -0.237 OA
ATOM     78  O   UNL A   1      47.531  24.805  37.470  1.00  0.00    -0.744 OA
ENDBRANCH  74  75
ENDBRANCH  53  67
BRANCH  54  79
ATOM     79  C   UNL A   1      36.764  32.952  30.925  1.00  0.00     0.058 A 
ATOM     80  C   UNL A   1      36.959  33.809  29.832  1.00  0.00     0.135 A 
ATOM     81  C   UNL A   1      35.450  32.758  31.378  1.00  0.00     0.135 A 
ATOM     82  F   UNL A   1      38.198  34.028  29.366  1.00  0.00    -0.206 F 
ATOM     83  C   UNL A   1      35.898  34.479  29.232  1.00  0.00     0.059 A 
ATOM     84  C   UNL A   1      34.370  33.398  30.779  1.00  0.00     0.059 A 
ATOM     85  F   UNL A   1      35.209  31.932  32.408  1.00  0.00    -0.206 F 
ATOM     86  C   UNL A   1      34.606  34.271  29.718  1.00  0.00     0.060 A 
BRANCH  86  87
ATOM     87  S   UNL A   1      33.230  35.133  28.926  1.00  0.00     0.124 S 
ATOM     88  O   UNL A   1      33.913  36.262  28.305  1.00  0.00    -0.237 OA
ATOM     89  O   UNL A   1      32.713  34.118  28.013  1.00  0.00    -0.237 OA
ATOM     90  O   UNL A   1      32.355  35.460  30.047  1.00  0.00    -0.744 OA
ENDBRANCH  86  87
ENDBRANCH  54  79
BRANCH  66  91
ATOM     91  C   UNL A   1      40.007  34.024  36.993  1.00  0.00     0.058 A 
ATOM     92  C   UNL A   1      40.700  35.243  36.987  1.00  0.00     0.135 A 
ATOM     93  C   UNL A   1      39.079  33.797  38.022  1.00  0.00     0.135 A 
ATOM     94  F   UNL A   1      41.602  35.503  36.028  1.00  0.00    -0.206 F 
ATOM     95  C   UNL A   1      40.495  36.197  37.978  1.00  0.00     0.059 A 
ATOM     96  C   UNL A   1      38.841  34.747  39.009  1.00  0.00     0.059 A 
ATOM     97  F   UNL A   1      38.384  32.650  38.065  1.00  0.00    -0.206 F 
ATOM     98  C   UNL A   1      39.562  35.940  38.985  1.00  0.00     0.060 A 
BRANCH  98  99
ATOM     99  S   UNL A   1      39.273  37.201  40.245  1.00  0.00     0.124 S 
ATOM    100  O   UNL A   1      38.425  38.145  39.525  1.00  0.00    -0.237 OA
ATOM    101  O   UNL A   1      38.619  36.441  41.306  1.00  0.00    -0.237 OA
ATOM    102  O   UNL A   1      40.616  37.676  40.561  1.00  0.00    -0.744 OA
ENDBRANCH  98  99
ENDBRANCH  66  91
ENDBRANCH  40  41
ENDBRANCH  32  35
ENDBRANCH  30  31
ENDBRANCH  29  30
ENDBRANCH   1  29
TORSDOF 18
ENDMDL
MODEL 2
REMARK VINA RESULT:     -12.5      6.414     11.793
REMARK SMILES CNc1nc(C(=O)N2C[C@@H](C(=O)NCCCCNC(=O)c3ccc(-c4c5nc(c(-c6c(F)cc(S(=O)(=O)[O-])cc6F)c6ccc([nH]6)c(-c6c(F)cc(S(=O)(=O)[O-])cc6F)c6nc(c(-c7c(F)cc(S(=O)(=O)[O-])cc7F)c7ccc4[nH]7)C=C6)C=C5)cc3)[C@H](c3ccccc3C)C2)cs1
REMARK SMILES IDX 15 1 14 2 13 3 11 4 12 5 10 7 8 8 9 9 95 10 87 11 6 12 7 13
REMARK SMILES IDX 5 14 3 15 4 16 97 17 96 18 2 19 1 20 88 22 89 23 93 24 90 25
REMARK SMILES IDX 92 26 94 27 91 28 16 29 17 30 18 31 19 32 20 34 21 35 22 36
REMARK SMILES IDX 86 37 23 38 85 39 24 40 25 41 26 42 79 43 27 44 84 45 78 46
REMARK SMILES IDX 80 47 28 48 83 49 77 50 76 51 29 53 63 54 42 55 62 56 43 57
REMARK SMILES IDX 46 58 61 59 81 60 44 61 45 62 60 64 82 65 47 66 30 67 31 68
REMARK SMILES IDX 40 69 32 70 33 71 39 72 41 73 34 74 35 75 36 76 37 77 38 78
REMARK SMILES IDX 64 79 65 80 74 81 66 82 67 83 73 84 75 85 68 86 69 87 70 88
REMARK SMILES IDX 71 89 72 90 48 91 49 92 58 93 50 94 51 95 57 96 59 97 52 98
REMARK SMILES IDX 53 99 54 100 55 101 56 102
REMARK H PARENT 13 6 2 21 18 33 80 52 46 63
REMARK Flexibility Score: inf
ROOT
ATOM      1  C   UNL A   1      33.459  30.949  27.384  1.00  0.00     0.023 C 
ENDROOT
BRANCH   1   2
ATOM      2  C   UNL A   1      34.064  29.619  26.914  1.00  0.00     0.116 C 
BRANCH   2   3
ATOM      3  N   UNL A   1      33.276  28.511  27.420  1.00  0.00    -0.356 N 
ATOM      4  C   UNL A   1      32.032  28.135  26.997  1.00  0.00     0.225 C 
ATOM      5  O   UNL A   1      31.176  27.986  27.869  1.00  0.00    -0.275 OA
ATOM      6  H   UNL A   1      33.678  27.974  28.141  1.00  0.00     0.163 HD
BRANCH   4   7
ATOM      7  C   UNL A   1      31.787  27.796  25.530  1.00  0.00     0.107 C 
ATOM      8  N   UNL A   1      33.029  27.194  23.620  1.00  0.00    -0.336 N 
ATOM      9  C   UNL A   1      32.799  26.806  24.986  1.00  0.00     0.134 C 
ATOM     10  C   UNL A   1      32.962  28.634  23.529  1.00  0.00     0.129 C 
ATOM     11  C   UNL A   1      31.888  29.037  24.577  1.00  0.00     0.053 C 
BRANCH   8  12
ATOM     12  C   UNL A   1      33.444  26.362  22.595  1.00  0.00     0.273 C 
ATOM     13  O   UNL A   1      33.793  26.789  21.498  1.00  0.00    -0.267 OA
BRANCH  12  14
ATOM     14  C   UNL A   1      33.420  24.919  22.885  1.00  0.00     0.141 A 
ATOM     15  C   UNL A   1      34.293  23.004  23.641  1.00  0.00     0.183 A 
ATOM     16  N   UNL A   1      34.521  24.281  23.463  1.00  0.00    -0.215 NA
ATOM     17  S   UNL A   1      32.738  22.477  23.125  1.00  0.00    -0.105 S 
ATOM     18  C   UNL A   1      32.340  24.085  22.673  1.00  0.00     0.102 A 
BRANCH  15  19
ATOM     19  N   UNL A   1      35.174  22.143  24.185  1.00  0.00    -0.365 N 
ATOM     20  C   UNL A   1      35.992  22.533  25.308  1.00  0.00     0.142 C 
ATOM     21  H   UNL A   1      35.263  21.237  23.811  1.00  0.00     0.162 HD
ENDBRANCH  15  19
ENDBRANCH  12  14
ENDBRANCH   8  12
BRANCH  11  22
ATOM     22  C   UNL A   1      30.518  29.460  24.021  1.00  0.00    -0.039 A 
ATOM     23  C   UNL A   1      29.786  28.609  23.169  1.00  0.00     0.004 A 
ATOM     24  C   UNL A   1      29.953  30.729  24.318  1.00  0.00    -0.048 A 
ATOM     25  C   UNL A   1      28.579  29.010  22.588  1.00  0.00     0.000 A 
ATOM     26  C   UNL A   1      28.722  31.103  23.745  1.00  0.00     0.004 A 
ATOM     27  C   UNL A   1      30.588  31.717  25.260  1.00  0.00     0.044 C 
ATOM     28  C   UNL A   1      28.048  30.259  22.872  1.00  0.00     0.000 A 
ENDBRANCH  11  22
ENDBRANCH   4   7
ENDBRANCH   2   3
ENDBRANCH   1   2
BRANCH   1  29
ATOM     29  C   UNL A   1      34.502  32.001  27.782  1.00  0.00     0.023 C 
BRANCH  29  30
ATOM     30  C   UNL A   1      35.765  31.441  28.429  1.00  0.00     0.116 C 
BRANCH  30  31
ATOM     31  N   UNL A   1      35.576  31.088  29.827  1.00  0.00    -0.352 N 
ATOM     32  C   UNL A   1      36.465  30.496  30.689  1.00  0.00     0.251 C 
ATOM     33  H   UNL A   1      34.692  31.303  30.204  1.00  0.00     0.163 HD
ATOM     34  O   UNL A   1      36.102  30.166  31.814  1.00  0.00    -0.269 OA
BRANCH  32  35
ATOM     35  C   UNL A   1      37.844  30.227  30.235  1.00  0.00     0.039 A 
ATOM     36  C   UNL A   1      38.849  30.095  31.194  1.00  0.00     0.014 A 
ATOM     37  C   UNL A   1      38.133  30.081  28.876  1.00  0.00     0.014 A 
ATOM     38  C   UNL A   1      40.141  29.751  30.792  1.00  0.00     0.010 A 
ATOM     39  C   UNL A   1      39.409  29.684  28.483  1.00  0.00     0.010 A 
ATOM     40  C   UNL A   1      40.423  29.512  29.438  1.00  0.00    -0.014 A 
BRANCH  40  41
ATOM     41  C   UNL A   1      41.769  29.070  29.001  1.00  0.00     0.031 A 
ATOM     42  C   UNL A   1      42.897  30.062  28.919  1.00  0.00     0.074 A 
ATOM     43  C   UNL A   1      41.952  27.795  28.606  1.00  0.00     0.049 A 
ATOM     44  N   UNL A   1      44.118  29.886  28.487  1.00  0.00    -0.248 NA
ATOM     45  C   UNL A   1      42.606  31.438  29.353  1.00  0.00     0.031 C 
ATOM     46  C   UNL A   1      40.918  26.756  28.587  1.00  0.00     0.029 A 
ATOM     47  N   UNL A   1      43.069  27.156  28.130  1.00  0.00    -0.354 N 
ATOM     48  C   UNL A   1      44.733  31.129  28.571  1.00  0.00     0.074 A 
ATOM     49  C   UNL A   1      43.741  32.059  29.064  1.00  0.00     0.031 C 
ATOM     50  C   UNL A   1      41.453  25.609  28.137  1.00  0.00     0.029 A 
ATOM     51  C   UNL A   1      42.856  25.836  27.807  1.00  0.00     0.049 A 
ATOM     52  H   UNL A   1      43.941  27.600  28.028  1.00  0.00     0.167 HD
ATOM     53  C   UNL A   1      46.012  31.459  28.278  1.00  0.00     0.037 A 
ATOM     54  C   UNL A   1      43.697  24.916  27.297  1.00  0.00     0.037 A 
ATOM     55  C   UNL A   1      47.008  30.517  27.840  1.00  0.00     0.049 A 
ATOM     56  C   UNL A   1      45.124  25.305  27.014  1.00  0.00     0.074 A 
ATOM     57  C   UNL A   1      48.357  30.734  27.614  1.00  0.00     0.029 A 
ATOM     58  N   UNL A   1      46.766  29.179  27.566  1.00  0.00    -0.354 N 
ATOM     59  N   UNL A   1      45.709  26.466  27.180  1.00  0.00    -0.248 NA
ATOM     60  C   UNL A   1      46.005  24.256  26.481  1.00  0.00     0.031 C 
ATOM     61  C   UNL A   1      48.922  29.535  27.169  1.00  0.00     0.029 A 
ATOM     62  C   UNL A   1      47.935  28.563  27.154  1.00  0.00     0.049 A 
ATOM     63  H   UNL A   1      45.892  28.734  27.651  1.00  0.00     0.167 HD
ATOM     64  C   UNL A   1      47.034  26.281  26.802  1.00  0.00     0.074 A 
ATOM     65  C   UNL A   1      47.165  24.894  26.405  1.00  0.00     0.031 C 
ATOM     66  C   UNL A   1      48.050  27.176  26.783  1.00  0.00     0.037 A 
BRANCH  53  67
ATOM     67  C   UNL A   1      46.422  32.896  28.429  1.00  0.00     0.058 A 
ATOM     68  C   UNL A   1      46.940  33.392  29.636  1.00  0.00     0.135 A 
ATOM     69  C   UNL A   1      46.357  33.773  27.334  1.00  0.00     0.135 A 
ATOM     70  F   UNL A   1      47.007  32.599  30.719  1.00  0.00    -0.206 F 
ATOM     71  C   UNL A   1      47.367  34.709  29.757  1.00  0.00     0.059 A 
ATOM     72  C   UNL A   1      46.800  35.090  27.426  1.00  0.00     0.059 A 
ATOM     73  F   UNL A   1      45.867  33.350  26.158  1.00  0.00    -0.206 F 
ATOM     74  C   UNL A   1      47.295  35.550  28.645  1.00  0.00     0.060 A 
BRANCH  74  75
ATOM     75  S   UNL A   1      47.884  37.249  28.809  1.00  0.00     0.124 S 
ATOM     76  O   UNL A   1      47.598  37.520  30.214  1.00  0.00    -0.237 OA
ATOM     77  O   UNL A   1      49.296  37.128  28.462  1.00  0.00    -0.237 OA
ATOM     78  O   UNL A   1      47.067  37.985  27.849  1.00  0.00    -0.744 OA
ENDBRANCH  74  75
ENDBRANCH  53  67
BRANCH  54  79
ATOM     79  C   UNL A   1      43.227  23.531  27.034  1.00  0.00     0.058 A 
ATOM     80  C   UNL A   1      43.042  22.622  28.086  1.00  0.00     0.135 A 
ATOM     81  C   UNL A   1      42.978  23.080  25.728  1.00  0.00     0.135 A 
ATOM     82  F   UNL A   1      43.272  23.007  29.351  1.00  0.00    -0.206 F 
ATOM     83  C   UNL A   1      42.658  21.306  27.854  1.00  0.00     0.059 A 
ATOM     84  C   UNL A   1      42.571  21.774  25.473  1.00  0.00     0.059 A 
ATOM     85  F   UNL A   1      43.122  23.916  24.689  1.00  0.00    -0.206 F 
ATOM     86  C   UNL A   1      42.432  20.890  26.542  1.00  0.00     0.060 A 
BRANCH  86  87
ATOM     87  S   UNL A   1      41.921  19.182  26.248  1.00  0.00     0.124 S 
ATOM     88  O   UNL A   1      42.211  18.565  27.537  1.00  0.00    -0.237 OA
ATOM     89  O   UNL A   1      40.507  19.334  25.915  1.00  0.00    -0.237 OA
ATOM     90  O   UNL A   1      42.776  18.766  25.140  1.00  0.00    -0.744 OA
ENDBRANCH  86  87
ENDBRANCH  54  79
BRANCH  66  91
ATOM     91  C   UNL A   1      49.402  26.678  26.361  1.00  0.00     0.058 A 
ATOM     92  C   UNL A   1      49.873  26.850  25.051  1.00  0.00     0.135 A 
ATOM     93  C   UNL A   1      50.255  26.067  27.294  1.00  0.00     0.135 A 
ATOM     94  F   UNL A   1      49.092  27.423  24.122  1.00  0.00    -0.206 F 
ATOM     95  C   UNL A   1      51.139  26.415  24.674  1.00  0.00     0.059 A 
ATOM     96  C   UNL A   1      51.534  25.646  26.945  1.00  0.00     0.059 A 
ATOM     97  F   UNL A   1      49.853  25.888  28.562  1.00  0.00    -0.206 F 
ATOM     98  C   UNL A   1      51.963  25.815  25.629  1.00  0.00     0.060 A 
BRANCH  98  99
ATOM     99  S   UNL A   1      53.620  25.289  25.141  1.00  0.00     0.124 S 
ATOM    100  O   UNL A   1      53.547  23.849  25.363  1.00  0.00    -0.237 OA
ATOM    101  O   UNL A   1      53.687  25.713  23.746  1.00  0.00    -0.237 OA
ATOM    102  O   UNL A   1      54.491  26.024  26.053  1.00  0.00    -0.744 OA
ENDBRANCH  98  99
ENDBRANCH  66  91
ENDBRANCH  40  41
ENDBRANCH  32  35
ENDBRANCH  30  31
ENDBRANCH  29  30
ENDBRANCH   1  29
TORSDOF 18
ENDMDL
MODEL 3
REMARK VINA RESULT:     -12.5      3.789      5.893
REMARK SMILES CNc1nc(C(=O)N2C[C@@H](C(=O)NCCCCNC(=O)c3ccc(-c4c5nc(c(-c6c(F)cc(S(=O)(=O)[O-])cc6F)c6ccc([nH]6)c(-c6c(F)cc(S(=O)(=O)[O-])cc6F)c6nc(c(-c7c(F)cc(S(=O)(=O)[O-])cc7F)c7ccc4[nH]7)C=C6)C=C5)cc3)[C@H](c3ccccc3C)C2)cs1
REMARK SMILES IDX 15 1 14 2 13 3 11 4 12 5 10 7 8 8 9 9 95 10 87 11 6 12 7 13
REMARK SMILES IDX 5 14 3 15 4 16 97 17 96 18 2 19 1 20 88 22 89 23 93 24 90 25
REMARK SMILES IDX 92 26 94 27 91 28 16 29 17 30 18 31 19 32 20 34 21 35 22 36
REMARK SMILES IDX 86 37 23 38 85 39 24 40 25 41 26 42 79 43 27 44 84 45 78 46
REMARK SMILES IDX 80 47 28 48 83 49 77 50 76 51 29 53 63 54 42 55 62 56 43 57
REMARK SMILES IDX 46 58 61 59 81 60 44 61 45 62 60 64 82 65 47 66 30 67 31 68
REMARK SMILES IDX 40 69 32 70 33 71 39 72 41 73 34 74 35 75 36 76 37 77 38 78
REMARK SMILES IDX 64 79 65 80 74 81 66 82 67 83 73 84 75 85 68 86 69 87 70 88
REMARK SMILES IDX 71 89 72 90 48 91 49 92 58 93 50 94 51 95 57 96 59 97 52 98
REMARK SMILES IDX 53 99 54 100 55 101 56 102
REMARK H PARENT 13 6 2 21 18 33 80 52 46 63
REMARK Flexibility Score: inf
ROOT
ATOM      1  C   UNL A   1      34.361  24.552  25.647  1.00  0.00     0.023 C 
ENDROOT
BRANCH   1   2
ATOM      2  C   UNL A   1      32.915  24.038  25.673  1.00  0.00     0.116 C 
BRANCH   2   3
ATOM      3  N   UNL A   1      32.358  24.062  24.333  1.00  0.00    -0.356 N 
ATOM      4  C   UNL A   1      31.089  24.431  23.985  1.00  0.00     0.225 C 
ATOM      5  O   UNL A   1      30.463  23.644  23.276  1.00  0.00    -0.275 OA
ATOM      6  H   UNL A   1      32.954  23.784  23.601  1.00  0.00     0.163 HD
BRANCH   4   7
ATOM      7  C   UNL A   1      30.558  25.810  24.360  1.00  0.00     0.107 C 
ATOM      8  N   UNL A   1      29.231  27.514  23.416  1.00  0.00    -0.336 N 
ATOM      9  C   UNL A   1      29.214  26.109  23.723  1.00  0.00     0.134 C 
ATOM     10  C   UNL A   1      30.571  27.890  23.031  1.00  0.00     0.129 C 
ATOM     11  C   UNL A   1      31.489  26.985  23.898  1.00  0.00     0.053 C 
BRANCH   8  12
ATOM     12  C   UNL A   1      28.123  28.338  23.308  1.00  0.00     0.273 C 
ATOM     13  O   UNL A   1      26.983  27.945  23.538  1.00  0.00    -0.267 OA
BRANCH  12  14
ATOM     14  C   UNL A   1      28.387  29.719  22.872  1.00  0.00     0.141 A 
ATOM     15  C   UNL A   1      28.589  31.344  21.349  1.00  0.00     0.183 A 
ATOM     16  N   UNL A   1      28.327  30.073  21.521  1.00  0.00    -0.215 NA
ATOM     17  S   UNL A   1      28.928  32.206  22.799  1.00  0.00    -0.105 S 
ATOM     18  C   UNL A   1      28.662  30.778  23.715  1.00  0.00     0.102 A 
BRANCH  15  19
ATOM     19  N   UNL A   1      28.597  31.963  20.153  1.00  0.00    -0.365 N 
ATOM     20  C   UNL A   1      27.576  32.923  19.812  1.00  0.00     0.142 C 
ATOM     21  H   UNL A   1      29.308  31.758  19.504  1.00  0.00     0.162 HD
ENDBRANCH  15  19
ENDBRANCH  12  14
ENDBRANCH   8  12
BRANCH  11  22
ATOM     22  C   UNL A   1      32.199  27.667  25.080  1.00  0.00    -0.039 A 
ATOM     23  C   UNL A   1      31.654  27.621  26.379  1.00  0.00     0.004 A 
ATOM     24  C   UNL A   1      33.408  28.391  24.905  1.00  0.00    -0.048 A 
ATOM     25  C   UNL A   1      32.241  28.305  27.448  1.00  0.00     0.000 A 
ATOM     26  C   UNL A   1      33.999  29.050  26.000  1.00  0.00     0.004 A 
ATOM     27  C   UNL A   1      34.139  28.476  23.591  1.00  0.00     0.044 C 
ATOM     28  C   UNL A   1      33.411  29.023  27.259  1.00  0.00     0.000 A 
ENDBRANCH  11  22
ENDBRANCH   4   7
ENDBRANCH   2   3
ENDBRANCH   1   2
BRANCH   1  29
ATOM     29  C   UNL A   1      35.418  23.441  25.666  1.00  0.00     0.023 C 
BRANCH  29  30
ATOM     30  C   UNL A   1      36.793  23.854  25.153  1.00  0.00     0.116 C 
BRANCH  30  31
ATOM     31  N   UNL A   1      37.815  22.849  25.400  1.00  0.00    -0.352 N 
ATOM     32  C   UNL A   1      38.993  22.977  26.092  1.00  0.00     0.251 C 
ATOM     33  H   UNL A   1      37.636  21.958  25.020  1.00  0.00     0.163 HD
ATOM     34  O   UNL A   1      39.798  22.050  26.111  1.00  0.00    -0.269 OA
BRANCH  32  35
ATOM     35  C   UNL A   1      39.297  24.250  26.776  1.00  0.00     0.039 A 
ATOM     36  C   UNL A   1      38.822  24.440  28.075  1.00  0.00     0.014 A 
ATOM     37  C   UNL A   1      40.066  25.233  26.148  1.00  0.00     0.014 A 
ATOM     38  C   UNL A   1      39.173  25.597  28.772  1.00  0.00     0.010 A 
ATOM     39  C   UNL A   1      40.461  26.359  26.866  1.00  0.00     0.010 A 
ATOM     40  C   UNL A   1      40.021  26.549  28.185  1.00  0.00    -0.014 A 
BRANCH  40  41
ATOM     41  C   UNL A   1      40.469  27.746  28.938  1.00  0.00     0.031 A 
ATOM     42  C   UNL A   1      41.820  27.756  29.599  1.00  0.00     0.074 A 
ATOM     43  C   UNL A   1      39.627  28.787  29.089  1.00  0.00     0.049 A 
ATOM     44  N   UNL A   1      42.355  28.673  30.363  1.00  0.00    -0.248 NA
ATOM     45  C   UNL A   1      42.668  26.571  29.398  1.00  0.00     0.031 C 
ATOM     46  C   UNL A   1      38.269  28.867  28.542  1.00  0.00     0.029 A 
ATOM     47  N   UNL A   1      39.781  29.974  29.760  1.00  0.00    -0.354 N 
ATOM     48  C   UNL A   1      43.588  28.166  30.755  1.00  0.00     0.074 A 
ATOM     49  C   UNL A   1      43.709  26.847  30.173  1.00  0.00     0.031 C 
ATOM     50  C   UNL A   1      37.723  30.044  28.887  1.00  0.00     0.029 A 
ATOM     51  C   UNL A   1      38.675  30.789  29.704  1.00  0.00     0.049 A 
ATOM     52  H   UNL A   1      40.606  30.219  30.237  1.00  0.00     0.167 HD
ATOM     53  C   UNL A   1      44.537  28.754  31.519  1.00  0.00     0.037 A 
ATOM     54  C   UNL A   1      38.453  31.998  30.254  1.00  0.00     0.037 A 
ATOM     55  C   UNL A   1      44.433  30.088  32.050  1.00  0.00     0.049 A 
ATOM     56  C   UNL A   1      39.542  32.642  31.070  1.00  0.00     0.074 A 
ATOM     57  C   UNL A   1      45.383  30.811  32.751  1.00  0.00     0.029 A 
ATOM     58  N   UNL A   1      43.315  30.900  31.936  1.00  0.00    -0.354 N 
ATOM     59  N   UNL A   1      40.735  32.182  31.360  1.00  0.00    -0.248 NA
ATOM     60  C   UNL A   1      39.257  33.972  31.628  1.00  0.00     0.031 C 
ATOM     61  C   UNL A   1      44.825  32.048  33.091  1.00  0.00     0.029 A 
ATOM     62  C   UNL A   1      43.544  32.109  32.570  1.00  0.00     0.049 A 
ATOM     63  H   UNL A   1      42.482  30.654  31.473  1.00  0.00     0.167 HD
ATOM     64  C   UNL A   1      41.355  33.178  32.107  1.00  0.00     0.074 A 
ATOM     65  C   UNL A   1      40.407  34.267  32.218  1.00  0.00     0.031 C 
ATOM     66  C   UNL A   1      42.595  33.190  32.653  1.00  0.00     0.037 A 
BRANCH  53  67
ATOM     67  C   UNL A   1      45.783  27.972  31.823  1.00  0.00     0.058 A 
ATOM     68  C   UNL A   1      45.864  27.118  32.934  1.00  0.00     0.135 A 
ATOM     69  C   UNL A   1      46.886  28.026  30.956  1.00  0.00     0.135 A 
ATOM     70  F   UNL A   1      44.844  27.042  33.804  1.00  0.00    -0.206 F 
ATOM     71  C   UNL A   1      46.999  26.355  33.183  1.00  0.00     0.059 A 
ATOM     72  C   UNL A   1      48.024  27.254  31.173  1.00  0.00     0.059 A 
ATOM     73  F   UNL A   1      46.860  28.829  29.880  1.00  0.00    -0.206 F 
ATOM     74  C   UNL A   1      48.074  26.428  32.294  1.00  0.00     0.060 A 
BRANCH  74  75
ATOM     75  S   UNL A   1      49.528  25.407  32.613  1.00  0.00     0.124 S 
ATOM     76  O   UNL A   1      49.903  25.006  31.260  1.00  0.00    -0.237 OA
ATOM     77  O   UNL A   1      50.432  26.344  33.270  1.00  0.00    -0.237 OA
ATOM     78  O   UNL A   1      49.012  24.338  33.462  1.00  0.00    -0.744 OA
ENDBRANCH  74  75
ENDBRANCH  53  67
BRANCH  54  79
ATOM     79  C   UNL A   1      37.157  32.694  30.045  1.00  0.00     0.058 A 
ATOM     80  C   UNL A   1      37.040  33.727  29.102  1.00  0.00     0.135 A 
ATOM     81  C   UNL A   1      36.019  32.361  30.795  1.00  0.00     0.135 A 
ATOM     82  F   UNL A   1      38.103  34.083  28.365  1.00  0.00    -0.206 F 
ATOM     83  C   UNL A   1      35.852  34.429  28.933  1.00  0.00     0.059 A 
ATOM     84  C   UNL A   1      34.812  33.032  30.626  1.00  0.00     0.059 A 
ATOM     85  F   UNL A   1      36.074  31.367  31.695  1.00  0.00    -0.206 F 
ATOM     86  C   UNL A   1      34.744  34.077  29.706  1.00  0.00     0.060 A 
BRANCH  86  87
ATOM     87  S   UNL A   1      33.199  34.983  29.472  1.00  0.00     0.124 S 
ATOM     88  O   UNL A   1      32.418  34.030  28.693  1.00  0.00    -0.237 OA
ATOM     89  O   UNL A   1      32.756  35.201  30.846  1.00  0.00    -0.237 OA
ATOM     90  O   UNL A   1      33.623  36.185  28.761  1.00  0.00    -0.744 OA
ENDBRANCH  86  87
ENDBRANCH  54  79
BRANCH  66  91
ATOM     91  C   UNL A   1      43.016  34.433  33.381  1.00  0.00     0.058 A 
ATOM     92  C   UNL A   1      42.871  34.555  34.771  1.00  0.00     0.135 A 
ATOM     93  C   UNL A   1      43.619  35.493  32.686  1.00  0.00     0.135 A 
ATOM     94  F   UNL A   1      42.295  33.571  35.479  1.00  0.00    -0.206 F 
ATOM     95  C   UNL A   1      43.293  35.695  35.446  1.00  0.00     0.059 A 
ATOM     96  C   UNL A   1      44.070  36.632  33.343  1.00  0.00     0.059 A 
ATOM     97  F   UNL A   1      43.789  35.419  31.356  1.00  0.00    -0.206 F 
ATOM     98  C   UNL A   1      43.893  36.729  34.723  1.00  0.00     0.060 A 
BRANCH  98  99
ATOM     99  S   UNL A   1      44.473  38.189  35.612  1.00  0.00     0.124 S 
ATOM    100  O   UNL A   1      43.809  38.030  36.902  1.00  0.00    -0.237 OA
ATOM    101  O   UNL A   1      45.920  38.001  35.616  1.00  0.00    -0.237 OA
ATOM    102  O   UNL A   1      43.996  39.297  34.791  1.00  0.00    -0.744 OA
ENDBRANCH  98  99
ENDBRANCH  66  91
ENDBRANCH  40  41
ENDBRANCH  32  35
ENDBRANCH  30  31
ENDBRANCH  29  30
ENDBRANCH   1  29
TORSDOF 18
ENDMDL
