MODEL 1
REMARK VINA RESULT:     -10.7      0.000      0.000
REMARK SMILES CCCc1cc(OCC(=O)NCCCCNC(=O)c2ccc(-c3c4nc(c(-c5c(F)cc(S(=O)(=O)[O-])cc5F)c5ccc([nH]5)c(-c5c(F)cc(S(=O)(=O)[O-])cc5F)c5nc(c(-c6c(F)cc(S(=O)(=O)[O-])cc6F)c6ccc3[nH]6)C=C5)C=C4)cc2)nc(Nc2ccc(C#N)cc2)n1
REMARK SMILES IDX 12 1 11 2 9 3 10 4 8 6 7 7 6 8 4 9 5 10 96 11 86 12 85 13
REMARK SMILES IDX 3 14 2 15 1 16 87 17 88 19 89 20 95 21 90 22 94 23 91 24
REMARK SMILES IDX 92 25 93 26 13 27 14 28 15 29 16 30 17 31 18 33 19 34 20 35
REMARK SMILES IDX 84 36 21 37 83 38 22 39 23 40 24 41 77 42 25 43 82 44 76 45
REMARK SMILES IDX 78 46 26 47 81 48 75 49 74 50 27 52 61 53 40 54 60 55 41 56
REMARK SMILES IDX 44 57 59 58 79 59 42 60 43 61 58 63 80 64 45 65 28 66 29 67
REMARK SMILES IDX 38 68 30 69 31 70 37 71 39 72 32 73 33 74 34 75 35 76 36 77
REMARK SMILES IDX 62 78 63 79 72 80 64 81 65 82 71 83 73 84 66 85 67 86 68 87
REMARK SMILES IDX 69 88 70 89 46 90 47 91 56 92 48 93 49 94 55 95 57 96 50 97
REMARK SMILES IDX 51 98 52 99 53 100 54 101
REMARK H PARENT 11 5 87 18 16 32 78 51 44 62
REMARK Flexibility Score: inf
ROOT
ATOM      1  C   UNL A   1      31.874  25.574  26.501  1.00  0.00     0.116 C 
ENDROOT
BRANCH   1   2
ATOM      2  N   UNL A   1      30.651  24.815  26.672  1.00  0.00    -0.353 N 
ATOM      3  C   UNL A   1      30.520  23.488  26.957  1.00  0.00     0.258 C 
ATOM      4  O   UNL A   1      29.394  23.012  27.111  1.00  0.00    -0.271 OA
ATOM      5  H   UNL A   1      29.812  25.319  26.570  1.00  0.00     0.163 HD
BRANCH   3   6
ATOM      6  C   UNL A   1      31.775  22.617  27.098  1.00  0.00     0.331 C 
BRANCH   6   7
ATOM      7  O   UNL A   1      32.101  21.767  26.011  1.00  0.00    -0.467 OA
BRANCH   7   8
ATOM      8  C   UNL A   1      33.306  21.956  25.394  1.00  0.00     0.218 A 
ATOM      9  C   UNL A   1      35.525  21.478  24.835  1.00  0.00     0.050 A 
ATOM     10  C   UNL A   1      34.419  21.170  25.590  1.00  0.00     0.092 A 
ATOM     11  N   UNL A   1      35.509  22.485  23.952  1.00  0.00    -0.218 NA
ATOM     12  C   UNL A   1      34.421  23.260  23.876  1.00  0.00     0.230 A 
ATOM     13  N   UNL A   1      33.304  23.025  24.575  1.00  0.00    -0.177 NA
BRANCH   9  14
ATOM     14  C   UNL A   1      36.796  20.685  25.001  1.00  0.00     0.056 C 
BRANCH  14  15
ATOM     15  C   UNL A   1      38.099  21.483  24.851  1.00  0.00     0.003 C 
ATOM     16  C   UNL A   1      38.531  22.200  26.125  1.00  0.00     0.004 C 
ENDBRANCH  14  15
ENDBRANCH   9  14
BRANCH  12  17
ATOM     17  N   UNL A   1      34.487  24.442  23.139  1.00  0.00    -0.324 N 
ATOM     18  H   UNL A   1      35.341  24.614  22.681  1.00  0.00     0.170 HD
BRANCH  17  19
ATOM     19  C   UNL A   1      33.495  25.413  22.966  1.00  0.00     0.041 A 
ATOM     20  C   UNL A   1      33.700  26.714  23.441  1.00  0.00     0.027 A 
ATOM     21  C   UNL A   1      32.336  25.156  22.220  1.00  0.00     0.027 A 
ATOM     22  C   UNL A   1      32.769  27.728  23.181  1.00  0.00     0.021 A 
ATOM     23  C   UNL A   1      31.390  26.157  21.976  1.00  0.00     0.021 A 
ATOM     24  C   UNL A   1      31.609  27.450  22.452  1.00  0.00     0.052 A 
BRANCH  24  25
ATOM     25  C   UNL A   1      30.661  28.491  22.185  1.00  0.00     0.099 C 
ATOM     26  N   UNL A   1      29.888  29.337  21.994  1.00  0.00    -0.192 NA
ENDBRANCH  24  25
ENDBRANCH  17  19
ENDBRANCH  12  17
ENDBRANCH   7   8
ENDBRANCH   6   7
ENDBRANCH   3   6
ENDBRANCH   1   2
BRANCH   1  27
ATOM     27  C   UNL A   1      31.615  27.073  26.374  1.00  0.00     0.023 C 
BRANCH  27  28
ATOM     28  C   UNL A   1      32.275  27.934  27.453  1.00  0.00     0.023 C 
BRANCH  28  29
ATOM     29  C   UNL A   1      33.475  28.755  26.992  1.00  0.00     0.116 C 
BRANCH  29  30
ATOM     30  N   UNL A   1      33.466  30.114  27.513  1.00  0.00    -0.352 N 
ATOM     31  C   UNL A   1      34.445  30.785  28.210  1.00  0.00     0.251 C 
ATOM     32  H   UNL A   1      32.643  30.626  27.341  1.00  0.00     0.163 HD
ATOM     33  O   UNL A   1      34.202  31.884  28.700  1.00  0.00    -0.269 OA
BRANCH  31  34
ATOM     34  C   UNL A   1      35.772  30.160  28.398  1.00  0.00     0.039 A 
ATOM     35  C   UNL A   1      36.658  30.123  27.320  1.00  0.00     0.014 A 
ATOM     36  C   UNL A   1      36.154  29.648  29.641  1.00  0.00     0.014 A 
ATOM     37  C   UNL A   1      37.961  29.657  27.513  1.00  0.00     0.010 A 
ATOM     38  C   UNL A   1      37.475  29.257  29.850  1.00  0.00     0.010 A 
ATOM     39  C   UNL A   1      38.398  29.274  28.793  1.00  0.00    -0.014 A 
BRANCH  39  40
ATOM     40  C   UNL A   1      39.824  28.939  29.053  1.00  0.00     0.031 A 
ATOM     41  C   UNL A   1      40.775  29.989  29.558  1.00  0.00     0.074 A 
ATOM     42  C   UNL A   1      40.277  27.700  28.764  1.00  0.00     0.049 A 
ATOM     43  N   UNL A   1      42.067  29.910  29.744  1.00  0.00    -0.248 NA
ATOM     44  C   UNL A   1      40.202  31.306  29.879  1.00  0.00     0.031 C 
ATOM     45  C   UNL A   1      39.462  26.605  28.231  1.00  0.00     0.029 A 
ATOM     46  N   UNL A   1      41.534  27.155  28.862  1.00  0.00    -0.354 N 
ATOM     47  C   UNL A   1      42.461  31.158  30.212  1.00  0.00     0.074 A 
ATOM     48  C   UNL A   1      41.282  31.997  30.218  1.00  0.00     0.031 C 
ATOM     49  C   UNL A   1      40.235  25.522  28.059  1.00  0.00     0.029 A 
ATOM     50  C   UNL A   1      41.610  25.855  28.415  1.00  0.00     0.049 A 
ATOM     51  H   UNL A   1      42.309  27.648  29.218  1.00  0.00     0.167 HD
ATOM     52  C   UNL A   1      43.688  31.558  30.624  1.00  0.00     0.037 A 
ATOM     53  C   UNL A   1      42.670  25.033  28.277  1.00  0.00     0.037 A 
ATOM     54  C   UNL A   1      44.857  30.717  30.616  1.00  0.00     0.049 A 
ATOM     55  C   UNL A   1      44.035  25.525  28.682  1.00  0.00     0.074 A 
ATOM     56  C   UNL A   1      46.139  31.026  31.038  1.00  0.00     0.029 A 
ATOM     57  N   UNL A   1      44.892  29.407  30.160  1.00  0.00    -0.354 N 
ATOM     58  N   UNL A   1      44.375  26.690  29.182  1.00  0.00    -0.248 NA
ATOM     59  C   UNL A   1      45.161  24.598  28.505  1.00  0.00     0.031 C 
ATOM     60  C   UNL A   1      46.961  29.924  30.784  1.00  0.00     0.029 A 
ATOM     61  C   UNL A   1      46.180  28.906  30.264  1.00  0.00     0.049 A 
ATOM     62  H   UNL A   1      44.117  28.908  29.816  1.00  0.00     0.167 HD
ATOM     63  C   UNL A   1      45.748  26.622  29.401  1.00  0.00     0.074 A 
ATOM     64  C   UNL A   1      46.170  25.296  29.004  1.00  0.00     0.031 C 
ATOM     65  C   UNL A   1      46.585  27.576  29.880  1.00  0.00     0.037 A 
BRANCH  52  66
ATOM     66  C   UNL A   1      43.834  32.964  31.142  1.00  0.00     0.058 A 
ATOM     67  C   UNL A   1      44.122  34.035  30.279  1.00  0.00     0.135 A 
ATOM     68  C   UNL A   1      43.607  33.261  32.496  1.00  0.00     0.135 A 
ATOM     69  F   UNL A   1      44.364  33.809  28.978  1.00  0.00    -0.206 F 
ATOM     70  C   UNL A   1      44.192  35.344  30.742  1.00  0.00     0.059 A 
ATOM     71  C   UNL A   1      43.640  34.567  32.975  1.00  0.00     0.059 A 
ATOM     72  F   UNL A   1      43.329  32.276  33.365  1.00  0.00    -0.206 F 
ATOM     73  C   UNL A   1      43.941  35.601  32.090  1.00  0.00     0.060 A 
BRANCH  73  74
ATOM     74  S   UNL A   1      44.001  37.313  32.660  1.00  0.00     0.124 S 
ATOM     75  O   UNL A   1      43.776  38.043  31.417  1.00  0.00    -0.237 OA
ATOM     76  O   UNL A   1      42.909  37.355  33.626  1.00  0.00    -0.237 OA
ATOM     77  O   UNL A   1      45.341  37.439  33.225  1.00  0.00    -0.744 OA
ENDBRANCH  73  74
ENDBRANCH  52  66
BRANCH  53  78
ATOM     78  C   UNL A   1      42.497  23.670  27.700  1.00  0.00     0.058 A 
ATOM     79  C   UNL A   1      42.340  22.543  28.521  1.00  0.00     0.135 A 
ATOM     80  C   UNL A   1      42.524  23.462  26.311  1.00  0.00     0.135 A 
ATOM     81  F   UNL A   1      42.313  22.684  29.855  1.00  0.00    -0.206 F 
ATOM     82  C   UNL A   1      42.257  21.258  27.991  1.00  0.00     0.059 A 
ATOM     83  C   UNL A   1      42.404  22.192  25.756  1.00  0.00     0.059 A 
ATOM     84  F   UNL A   1      42.655  24.505  25.475  1.00  0.00    -0.206 F 
ATOM     85  C   UNL A   1      42.293  21.094  26.606  1.00  0.00     0.060 A 
BRANCH  85  86
ATOM     86  S   UNL A   1      42.182  19.424  25.928  1.00  0.00     0.124 S 
ATOM     87  O   UNL A   1      40.755  19.317  25.647  1.00  0.00    -0.237 OA
ATOM     88  O   UNL A   1      43.059  19.508  24.765  1.00  0.00    -0.237 OA
ATOM     89  O   UNL A   1      42.675  18.587  27.018  1.00  0.00    -0.744 OA
ENDBRANCH  85  86
ENDBRANCH  53  78
BRANCH  65  90
ATOM     90  C   UNL A   1      48.039  27.220  30.030  1.00  0.00     0.058 A 
ATOM     91  C   UNL A   1      48.963  27.443  28.997  1.00  0.00     0.135 A 
ATOM     92  C   UNL A   1      48.528  26.720  31.249  1.00  0.00     0.135 A 
ATOM     93  F   UNL A   1      48.549  27.907  27.808  1.00  0.00    -0.206 F 
ATOM     94  C   UNL A   1      50.318  27.173  29.163  1.00  0.00     0.059 A 
ATOM     95  C   UNL A   1      49.883  26.476  31.449  1.00  0.00     0.059 A 
ATOM     96  F   UNL A   1      47.690  26.494  32.273  1.00  0.00    -0.206 F 
ATOM     97  C   UNL A   1      50.770  26.700  30.397  1.00  0.00     0.060 A 
BRANCH  97  98
ATOM     98  S   UNL A   1      52.540  26.422  30.614  1.00  0.00     0.124 S 
ATOM     99  O   UNL A   1      52.553  25.179  31.378  1.00  0.00    -0.237 OA
ATOM    100  O   UNL A   1      53.009  26.325  29.236  1.00  0.00    -0.237 OA
ATOM    101  O   UNL A   1      52.986  27.608  31.340  1.00  0.00    -0.744 OA
ENDBRANCH  97  98
ENDBRANCH  65  90
ENDBRANCH  39  40
ENDBRANCH  31  34
ENDBRANCH  29  30
ENDBRANCH  28  29
ENDBRANCH  27  28
ENDBRANCH   1  27
TORSDOF 21
ENDMDL
MODEL 2
REMARK VINA RESULT:     -10.6      1.792      3.639
REMARK SMILES CCCc1cc(OCC(=O)NCCCCNC(=O)c2ccc(-c3c4nc(c(-c5c(F)cc(S(=O)(=O)[O-])cc5F)c5ccc([nH]5)c(-c5c(F)cc(S(=O)(=O)[O-])cc5F)c5nc(c(-c6c(F)cc(S(=O)(=O)[O-])cc6F)c6ccc3[nH]6)C=C5)C=C4)cc2)nc(Nc2ccc(C#N)cc2)n1
REMARK SMILES IDX 12 1 11 2 9 3 10 4 8 6 7 7 6 8 4 9 5 10 96 11 86 12 85 13
REMARK SMILES IDX 3 14 2 15 1 16 87 17 88 19 89 20 95 21 90 22 94 23 91 24
REMARK SMILES IDX 92 25 93 26 13 27 14 28 15 29 16 30 17 31 18 33 19 34 20 35
REMARK SMILES IDX 84 36 21 37 83 38 22 39 23 40 24 41 77 42 25 43 82 44 76 45
REMARK SMILES IDX 78 46 26 47 81 48 75 49 74 50 27 52 61 53 40 54 60 55 41 56
REMARK SMILES IDX 44 57 59 58 79 59 42 60 43 61 58 63 80 64 45 65 28 66 29 67
REMARK SMILES IDX 38 68 30 69 31 70 37 71 39 72 32 73 33 74 34 75 35 76 36 77
REMARK SMILES IDX 62 78 63 79 72 80 64 81 65 82 71 83 73 84 66 85 67 86 68 87
REMARK SMILES IDX 69 88 70 89 46 90 47 91 56 92 48 93 49 94 55 95 57 96 50 97
REMARK SMILES IDX 51 98 52 99 53 100 54 101
REMARK H PARENT 11 5 87 18 16 32 78 51 44 62
REMARK Flexibility Score: inf
ROOT
ATOM      1  C   UNL A   1      31.539  27.532  26.600  1.00  0.00     0.116 C 
ENDROOT
BRANCH   1   2
ATOM      2  N   UNL A   1      30.575  26.451  26.533  1.00  0.00    -0.353 N 
ATOM      3  C   UNL A   1      30.818  25.109  26.527  1.00  0.00     0.258 C 
ATOM      4  O   UNL A   1      29.869  24.324  26.508  1.00  0.00    -0.271 OA
ATOM      5  H   UNL A   1      29.629  26.718  26.487  1.00  0.00     0.163 HD
BRANCH   3   6
ATOM      6  C   UNL A   1      32.266  24.602  26.561  1.00  0.00     0.331 C 
BRANCH   6   7
ATOM      7  O   UNL A   1      32.994  24.636  25.345  1.00  0.00    -0.467 OA
BRANCH   7   8
ATOM      8  C   UNL A   1      33.760  23.549  25.030  1.00  0.00     0.218 A 
ATOM      9  C   UNL A   1      35.729  22.309  24.800  1.00  0.00     0.050 A 
ATOM     10  C   UNL A   1      35.134  23.512  25.099  1.00  0.00     0.092 A 
ATOM     11  N   UNL A   1      35.001  21.234  24.468  1.00  0.00    -0.218 NA
ATOM     12  C   UNL A   1      33.676  21.366  24.338  1.00  0.00     0.230 A 
ATOM     13  N   UNL A   1      33.023  22.502  24.613  1.00  0.00    -0.177 NA
BRANCH   9  14
ATOM     14  C   UNL A   1      37.230  22.182  24.826  1.00  0.00     0.056 C 
BRANCH  14  15
ATOM     15  C   UNL A   1      37.962  23.155  25.760  1.00  0.00     0.003 C 
ATOM     16  C   UNL A   1      39.156  22.536  26.479  1.00  0.00     0.004 C 
ENDBRANCH  14  15
ENDBRANCH   9  14
BRANCH  12  17
ATOM     17  N   UNL A   1      32.949  20.323  23.767  1.00  0.00    -0.324 N 
ATOM     18  H   UNL A   1      32.376  20.567  23.005  1.00  0.00     0.170 HD
BRANCH  17  19
ATOM     19  C   UNL A   1      32.930  18.974  24.138  1.00  0.00     0.041 A 
ATOM     20  C   UNL A   1      33.313  17.991  23.218  1.00  0.00     0.027 A 
ATOM     21  C   UNL A   1      32.650  18.577  25.453  1.00  0.00     0.027 A 
ATOM     22  C   UNL A   1      33.407  16.647  23.601  1.00  0.00     0.021 A 
ATOM     23  C   UNL A   1      32.720  17.234  25.838  1.00  0.00     0.021 A 
ATOM     24  C   UNL A   1      33.106  16.265  24.912  1.00  0.00     0.052 A 
BRANCH  24  25
ATOM     25  C   UNL A   1      33.209  14.890  25.302  1.00  0.00     0.099 C 
ATOM     26  N   UNL A   1      33.267  13.771  25.609  1.00  0.00    -0.192 NA
ENDBRANCH  24  25
ENDBRANCH  17  19
ENDBRANCH  12  17
ENDBRANCH   7   8
ENDBRANCH   6   7
ENDBRANCH   3   6
ENDBRANCH   1   2
BRANCH   1  27
ATOM     27  C   UNL A   1      31.660  28.284  25.278  1.00  0.00     0.023 C 
BRANCH  27  28
ATOM     28  C   UNL A   1      32.986  29.020  25.074  1.00  0.00     0.023 C 
BRANCH  28  29
ATOM     29  C   UNL A   1      33.898  29.076  26.296  1.00  0.00     0.116 C 
BRANCH  29  30
ATOM     30  N   UNL A   1      33.746  30.305  27.061  1.00  0.00    -0.352 N 
ATOM     31  C   UNL A   1      34.576  30.841  28.019  1.00  0.00     0.251 C 
ATOM     32  H   UNL A   1      32.935  30.827  26.865  1.00  0.00     0.163 HD
ATOM     33  O   UNL A   1      34.210  31.817  28.668  1.00  0.00    -0.269 OA
BRANCH  31  34
ATOM     34  C   UNL A   1      35.888  30.214  28.289  1.00  0.00     0.039 A 
ATOM     35  C   UNL A   1      36.871  30.256  27.299  1.00  0.00     0.014 A 
ATOM     36  C   UNL A   1      36.159  29.622  29.525  1.00  0.00     0.014 A 
ATOM     37  C   UNL A   1      38.156  29.788  27.582  1.00  0.00     0.010 A 
ATOM     38  C   UNL A   1      37.459  29.227  29.831  1.00  0.00     0.010 A 
ATOM     39  C   UNL A   1      38.477  29.322  28.869  1.00  0.00    -0.014 A 
BRANCH  39  40
ATOM     40  C   UNL A   1      39.877  28.979  29.239  1.00  0.00     0.031 A 
ATOM     41  C   UNL A   1      40.766  30.003  29.890  1.00  0.00     0.074 A 
ATOM     42  C   UNL A   1      40.368  27.763  28.921  1.00  0.00     0.049 A 
ATOM     43  N   UNL A   1      42.037  29.920  30.189  1.00  0.00    -0.248 NA
ATOM     44  C   UNL A   1      40.152  31.296  30.233  1.00  0.00     0.031 C 
ATOM     45  C   UNL A   1      39.617  26.697  28.252  1.00  0.00     0.029 A 
ATOM     46  N   UNL A   1      41.616  27.219  29.102  1.00  0.00    -0.354 N 
ATOM     47  C   UNL A   1      42.372  31.141  30.763  1.00  0.00     0.074 A 
ATOM     48  C   UNL A   1      41.189  31.972  30.710  1.00  0.00     0.031 C 
ATOM     49  C   UNL A   1      40.414  25.630  28.089  1.00  0.00     0.029 A 
ATOM     50  C   UNL A   1      41.747  25.949  28.589  1.00  0.00     0.049 A 
ATOM     51  H   UNL A   1      42.350  27.695  29.556  1.00  0.00     0.167 HD
ATOM     52  C   UNL A   1      43.552  31.522  31.309  1.00  0.00     0.037 A 
ATOM     53  C   UNL A   1      42.824  25.142  28.501  1.00  0.00     0.037 A 
ATOM     54  C   UNL A   1      44.726  30.689  31.359  1.00  0.00     0.049 A 
ATOM     55  C   UNL A   1      44.141  25.617  29.057  1.00  0.00     0.074 A 
ATOM     56  C   UNL A   1      45.961  30.979  31.914  1.00  0.00     0.029 A 
ATOM     57  N   UNL A   1      44.817  29.409  30.833  1.00  0.00    -0.354 N 
ATOM     58  N   UNL A   1      44.421  26.751  29.654  1.00  0.00    -0.248 NA
ATOM     59  C   UNL A   1      45.288  24.707  28.931  1.00  0.00     0.031 C 
ATOM     60  C   UNL A   1      46.814  29.900  31.674  1.00  0.00     0.029 A 
ATOM     61  C   UNL A   1      46.095  28.909  31.025  1.00  0.00     0.049 A 
ATOM     62  H   UNL A   1      44.082  28.927  30.390  1.00  0.00     0.167 HD
ATOM     63  C   UNL A   1      45.769  26.679  29.994  1.00  0.00     0.074 A 
ATOM     64  C   UNL A   1      46.240  25.381  29.561  1.00  0.00     0.031 C 
ATOM     65  C   UNL A   1      46.548  27.607  30.602  1.00  0.00     0.037 A 
BRANCH  52  66
ATOM     66  C   UNL A   1      43.635  32.896  31.919  1.00  0.00     0.058 A 
ATOM     67  C   UNL A   1      43.321  33.116  33.271  1.00  0.00     0.135 A 
ATOM     68  C   UNL A   1      44.107  33.989  31.173  1.00  0.00     0.135 A 
ATOM     69  F   UNL A   1      42.850  32.112  34.028  1.00  0.00    -0.206 F 
ATOM     70  C   UNL A   1      43.459  34.370  33.855  1.00  0.00     0.059 A 
ATOM     71  C   UNL A   1      44.284  35.245  31.746  1.00  0.00     0.059 A 
ATOM     72  F   UNL A   1      44.420  33.836  29.877  1.00  0.00    -0.206 F 
ATOM     73  C   UNL A   1      43.949  35.426  33.087  1.00  0.00     0.060 A 
BRANCH  73  74
ATOM     74  S   UNL A   1      44.156  37.036  33.878  1.00  0.00     0.124 S 
ATOM     75  O   UNL A   1      42.774  37.497  33.966  1.00  0.00    -0.237 OA
ATOM     76  O   UNL A   1      44.786  36.679  35.144  1.00  0.00    -0.237 OA
ATOM     77  O   UNL A   1      45.002  37.771  32.943  1.00  0.00    -0.744 OA
ENDBRANCH  73  74
ENDBRANCH  52  66
BRANCH  53  78
ATOM     78  C   UNL A   1      42.719  23.814  27.831  1.00  0.00     0.058 A 
ATOM     79  C   UNL A   1      42.521  22.637  28.570  1.00  0.00     0.135 A 
ATOM     80  C   UNL A   1      42.854  23.692  26.439  1.00  0.00     0.135 A 
ATOM     81  F   UNL A   1      42.392  22.696  29.904  1.00  0.00    -0.206 F 
ATOM     82  C   UNL A   1      42.501  21.386  27.959  1.00  0.00     0.059 A 
ATOM     83  C   UNL A   1      42.799  22.458  25.801  1.00  0.00     0.059 A 
ATOM     84  F   UNL A   1      43.028  24.786  25.679  1.00  0.00    -0.206 F 
ATOM     85  C   UNL A   1      42.644  21.307  26.573  1.00  0.00     0.060 A 
BRANCH  85  86
ATOM     86  S   UNL A   1      42.614  19.681  25.790  1.00  0.00     0.124 S 
ATOM     87  O   UNL A   1      43.586  19.855  24.717  1.00  0.00    -0.237 OA
ATOM     88  O   UNL A   1      43.021  18.808  26.886  1.00  0.00    -0.237 OA
ATOM     89  O   UNL A   1      41.224  19.539  25.366  1.00  0.00    -0.744 OA
ENDBRANCH  85  86
ENDBRANCH  53  78
BRANCH  65  90
ATOM     90  C   UNL A   1      47.987  27.250  30.864  1.00  0.00     0.058 A 
ATOM     91  C   UNL A   1      48.361  26.443  31.950  1.00  0.00     0.135 A 
ATOM     92  C   UNL A   1      48.995  27.658  29.974  1.00  0.00     0.135 A 
ATOM     93  F   UNL A   1      47.440  26.035  32.838  1.00  0.00    -0.206 F 
ATOM     94  C   UNL A   1      49.683  26.063  32.151  1.00  0.00     0.059 A 
ATOM     95  C   UNL A   1      50.318  27.260  30.136  1.00  0.00     0.059 A 
ATOM     96  F   UNL A   1      48.692  28.426  28.915  1.00  0.00    -0.206 F 
ATOM     97  C   UNL A   1      50.653  26.467  31.232  1.00  0.00     0.060 A 
BRANCH  97  98
ATOM     98  S   UNL A   1      52.352  25.905  31.471  1.00  0.00     0.124 S 
ATOM     99  O   UNL A   1      52.147  24.571  32.025  1.00  0.00    -0.237 OA
ATOM    100  O   UNL A   1      52.888  25.954  30.115  1.00  0.00    -0.237 OA
ATOM    101  O   UNL A   1      52.910  26.887  32.396  1.00  0.00    -0.744 OA
ENDBRANCH  97  98
ENDBRANCH  65  90
ENDBRANCH  39  40
ENDBRANCH  31  34
ENDBRANCH  29  30
ENDBRANCH  28  29
ENDBRANCH  27  28
ENDBRANCH   1  27
TORSDOF 21
ENDMDL
MODEL 3
REMARK VINA RESULT:     -10.4      4.918      9.652
REMARK SMILES CCCc1cc(OCC(=O)NCCCCNC(=O)c2ccc(-c3c4nc(c(-c5c(F)cc(S(=O)(=O)[O-])cc5F)c5ccc([nH]5)c(-c5c(F)cc(S(=O)(=O)[O-])cc5F)c5nc(c(-c6c(F)cc(S(=O)(=O)[O-])cc6F)c6ccc3[nH]6)C=C5)C=C4)cc2)nc(Nc2ccc(C#N)cc2)n1
REMARK SMILES IDX 12 1 11 2 9 3 10 4 8 6 7 7 6 8 4 9 5 10 96 11 86 12 85 13
REMARK SMILES IDX 3 14 2 15 1 16 87 17 88 19 89 20 95 21 90 22 94 23 91 24
REMARK SMILES IDX 92 25 93 26 13 27 14 28 15 29 16 30 17 31 18 33 19 34 20 35
REMARK SMILES IDX 84 36 21 37 83 38 22 39 23 40 24 41 77 42 25 43 82 44 76 45
REMARK SMILES IDX 78 46 26 47 81 48 75 49 74 50 27 52 61 53 40 54 60 55 41 56
REMARK SMILES IDX 44 57 59 58 79 59 42 60 43 61 58 63 80 64 45 65 28 66 29 67
REMARK SMILES IDX 38 68 30 69 31 70 37 71 39 72 32 73 33 74 34 75 35 76 36 77
REMARK SMILES IDX 62 78 63 79 72 80 64 81 65 82 71 83 73 84 66 85 67 86 68 87
REMARK SMILES IDX 69 88 70 89 46 90 47 91 56 92 48 93 49 94 55 95 57 96 50 97
REMARK SMILES IDX 51 98 52 99 53 100 54 101
REMARK H PARENT 11 5 87 18 16 32 78 51 44 62
REMARK Flexibility Score: inf
ROOT
ATOM      1  C   UNL A   1      38.335  21.515  25.460  1.00  0.00     0.116 C 
ENDROOT
BRANCH   1   2
ATOM      2  N   UNL A   1      37.602  21.965  24.293  1.00  0.00    -0.353 N 
ATOM      3  C   UNL A   1      36.494  22.759  24.253  1.00  0.00     0.258 C 
ATOM      4  O   UNL A   1      36.021  23.079  23.162  1.00  0.00    -0.271 OA
ATOM      5  H   UNL A   1      37.945  21.659  23.423  1.00  0.00     0.163 HD
BRANCH   3   6
ATOM      6  C   UNL A   1      35.870  23.254  25.564  1.00  0.00     0.331 C 
BRANCH   6   7
ATOM      7  O   UNL A   1      35.293  22.279  26.417  1.00  0.00    -0.467 OA
BRANCH   7   8
ATOM      8  C   UNL A   1      34.156  21.652  25.992  1.00  0.00     0.218 A 
ATOM      9  C   UNL A   1      32.844  19.864  25.251  1.00  0.00     0.050 A 
ATOM     10  C   UNL A   1      34.090  20.337  25.589  1.00  0.00     0.092 A 
ATOM     11  N   UNL A   1      31.758  20.645  25.321  1.00  0.00    -0.218 NA
ATOM     12  C   UNL A   1      31.910  21.936  25.638  1.00  0.00     0.230 A 
ATOM     13  N   UNL A   1      33.088  22.472  25.982  1.00  0.00    -0.177 NA
BRANCH   9  14
ATOM     14  C   UNL A   1      32.680  18.443  24.776  1.00  0.00     0.056 C 
BRANCH  14  15
ATOM     15  C   UNL A   1      33.099  18.176  23.324  1.00  0.00     0.003 C 
ATOM     16  C   UNL A   1      33.994  16.954  23.157  1.00  0.00     0.004 C 
ENDBRANCH  14  15
ENDBRANCH   9  14
BRANCH  12  17
ATOM     17  N   UNL A   1      30.827  22.800  25.481  1.00  0.00    -0.324 N 
ATOM     18  H   UNL A   1      29.982  22.506  25.890  1.00  0.00     0.170 HD
BRANCH  17  19
ATOM     19  C   UNL A   1      30.789  24.031  24.818  1.00  0.00     0.041 A 
ATOM     20  C   UNL A   1      31.136  24.107  23.463  1.00  0.00     0.027 A 
ATOM     21  C   UNL A   1      30.294  25.186  25.439  1.00  0.00     0.027 A 
ATOM     22  C   UNL A   1      30.999  25.306  22.753  1.00  0.00     0.021 A 
ATOM     23  C   UNL A   1      30.176  26.393  24.743  1.00  0.00     0.021 A 
ATOM     24  C   UNL A   1      30.522  26.454  23.393  1.00  0.00     0.052 A 
BRANCH  24  25
ATOM     25  C   UNL A   1      30.378  27.678  22.662  1.00  0.00     0.099 C 
ATOM     26  N   UNL A   1      30.259  28.657  22.047  1.00  0.00    -0.192 NA
ENDBRANCH  24  25
ENDBRANCH  17  19
ENDBRANCH  12  17
ENDBRANCH   7   8
ENDBRANCH   6   7
ENDBRANCH   3   6
ENDBRANCH   1   2
BRANCH   1  27
ATOM     27  C   UNL A   1      39.020  22.666  26.193  1.00  0.00     0.023 C 
BRANCH  27  28
ATOM     28  C   UNL A   1      40.060  22.239  27.232  1.00  0.00     0.023 C 
BRANCH  28  29
ATOM     29  C   UNL A   1      41.401  22.963  27.151  1.00  0.00     0.116 C 
BRANCH  29  30
ATOM     30  N   UNL A   1      41.456  23.936  26.070  1.00  0.00    -0.352 N 
ATOM     31  C   UNL A   1      41.339  25.306  26.126  1.00  0.00     0.251 C 
ATOM     32  H   UNL A   1      41.598  23.561  25.171  1.00  0.00     0.163 HD
ATOM     33  O   UNL A   1      41.263  25.956  25.089  1.00  0.00    -0.269 OA
BRANCH  31  34
ATOM     34  C   UNL A   1      41.265  25.983  27.439  1.00  0.00     0.039 A 
ATOM     35  C   UNL A   1      42.343  26.766  27.855  1.00  0.00     0.014 A 
ATOM     36  C   UNL A   1      40.123  25.878  28.238  1.00  0.00     0.014 A 
ATOM     37  C   UNL A   1      42.240  27.517  29.028  1.00  0.00     0.010 A 
ATOM     38  C   UNL A   1      39.991  26.687  29.364  1.00  0.00     0.010 A 
ATOM     39  C   UNL A   1      41.041  27.529  29.763  1.00  0.00    -0.014 A 
BRANCH  39  40
ATOM     40  C   UNL A   1      40.852  28.450  30.915  1.00  0.00     0.031 A 
ATOM     41  C   UNL A   1      39.835  29.557  30.848  1.00  0.00     0.074 A 
ATOM     42  C   UNL A   1      41.649  28.331  31.997  1.00  0.00     0.049 A 
ATOM     43  N   UNL A   1      39.601  30.515  31.708  1.00  0.00    -0.248 NA
ATOM     44  C   UNL A   1      38.982  29.605  29.650  1.00  0.00     0.031 C 
ATOM     45  C   UNL A   1      42.700  27.324  32.166  1.00  0.00     0.029 A 
ATOM     46  N   UNL A   1      41.715  29.069  33.154  1.00  0.00    -0.354 N 
ATOM     47  C   UNL A   1      38.571  31.271  31.162  1.00  0.00     0.074 A 
ATOM     48  C   UNL A   1      38.269  30.703  29.867  1.00  0.00     0.031 C 
ATOM     49  C   UNL A   1      43.296  27.501  33.355  1.00  0.00     0.029 A 
ATOM     50  C   UNL A   1      42.712  28.665  34.013  1.00  0.00     0.049 A 
ATOM     51  H   UNL A   1      41.106  29.818  33.351  1.00  0.00     0.167 HD
ATOM     52  C   UNL A   1      37.918  32.328  31.705  1.00  0.00     0.037 A 
ATOM     53  C   UNL A   1      43.131  29.188  35.183  1.00  0.00     0.037 A 
ATOM     54  C   UNL A   1      38.223  32.888  32.997  1.00  0.00     0.049 A 
ATOM     55  C   UNL A   1      42.431  30.403  35.733  1.00  0.00     0.074 A 
ATOM     56  C   UNL A   1      37.601  33.943  33.642  1.00  0.00     0.029 A 
ATOM     57  N   UNL A   1      39.236  32.449  33.836  1.00  0.00    -0.354 N 
ATOM     58  N   UNL A   1      41.416  31.066  35.232  1.00  0.00    -0.248 NA
ATOM     59  C   UNL A   1      42.928  30.943  37.006  1.00  0.00     0.031 C 
ATOM     60  C   UNL A   1      38.272  34.178  34.845  1.00  0.00     0.029 A 
ATOM     61  C   UNL A   1      39.274  33.231  34.980  1.00  0.00     0.049 A 
ATOM     62  H   UNL A   1      39.838  31.694  33.648  1.00  0.00     0.167 HD
ATOM     63  C   UNL A   1      41.141  32.084  36.139  1.00  0.00     0.074 A 
ATOM     64  C   UNL A   1      42.077  31.934  37.232  1.00  0.00     0.031 C 
ATOM     65  C   UNL A   1      40.202  33.060  36.071  1.00  0.00     0.037 A 
BRANCH  52  66
ATOM     66  C   UNL A   1      36.791  32.940  30.918  1.00  0.00     0.058 A 
ATOM     67  C   UNL A   1      35.451  32.603  31.176  1.00  0.00     0.135 A 
ATOM     68  C   UNL A   1      37.040  33.930  29.953  1.00  0.00     0.135 A 
ATOM     69  F   UNL A   1      35.154  31.652  32.076  1.00  0.00    -0.206 F 
ATOM     70  C   UNL A   1      34.404  33.215  30.498  1.00  0.00     0.059 A 
ATOM     71  C   UNL A   1      36.005  34.578  29.285  1.00  0.00     0.059 A 
ATOM     72  F   UNL A   1      38.301  34.290  29.666  1.00  0.00    -0.206 F 
ATOM     73  C   UNL A   1      34.690  34.207  29.560  1.00  0.00     0.060 A 
BRANCH  73  74
ATOM     74  S   UNL A   1      33.311  35.014  28.719  1.00  0.00     0.124 S 
ATOM     75  O   UNL A   1      32.481  35.424  29.846  1.00  0.00    -0.237 OA
ATOM     76  O   UNL A   1      33.978  36.093  27.998  1.00  0.00    -0.237 OA
ATOM     77  O   UNL A   1      32.753  33.955  27.884  1.00  0.00    -0.744 OA
ENDBRANCH  73  74
ENDBRANCH  52  66
BRANCH  53  78
ATOM     78  C   UNL A   1      44.294  28.593  35.902  1.00  0.00     0.058 A 
ATOM     79  C   UNL A   1      44.124  27.560  36.836  1.00  0.00     0.135 A 
ATOM     80  C   UNL A   1      45.597  29.075  35.697  1.00  0.00     0.135 A 
ATOM     81  F   UNL A   1      42.900  27.066  37.075  1.00  0.00    -0.206 F 
ATOM     82  C   UNL A   1      45.195  27.054  37.569  1.00  0.00     0.059 A 
ATOM     83  C   UNL A   1      46.688  28.560  36.388  1.00  0.00     0.059 A 
ATOM     84  F   UNL A   1      45.822  30.052  34.803  1.00  0.00    -0.206 F 
ATOM     85  C   UNL A   1      46.473  27.564  37.339  1.00  0.00     0.060 A 
BRANCH  85  86
ATOM     86  S   UNL A   1      47.855  26.899  38.292  1.00  0.00     0.124 S 
ATOM     87  O   UNL A   1      48.248  25.755  37.477  1.00  0.00    -0.237 OA
ATOM     88  O   UNL A   1      48.784  28.024  38.306  1.00  0.00    -0.237 OA
ATOM     89  O   UNL A   1      47.250  26.578  39.581  1.00  0.00    -0.744 OA
ENDBRANCH  85  86
ENDBRANCH  53  78
BRANCH  65  90
ATOM     90  C   UNL A   1      40.117  34.032  37.217  1.00  0.00     0.058 A 
ATOM     91  C   UNL A   1      40.900  35.195  37.258  1.00  0.00     0.135 A 
ATOM     92  C   UNL A   1      39.184  33.834  38.250  1.00  0.00     0.135 A 
ATOM     93  F   UNL A   1      41.815  35.428  36.303  1.00  0.00    -0.206 F 
ATOM     94  C   UNL A   1      40.771  36.123  38.286  1.00  0.00     0.059 A 
ATOM     95  C   UNL A   1      39.013  34.766  39.269  1.00  0.00     0.059 A 
ATOM     96  F   UNL A   1      38.404  32.741  38.257  1.00  0.00    -0.206 F 
ATOM     97  C   UNL A   1      39.816  35.904  39.281  1.00  0.00     0.060 A 
BRANCH  97  98
ATOM     98  S   UNL A   1      39.616  37.154  40.569  1.00  0.00     0.124 S 
ATOM     99  O   UNL A   1      40.637  38.128  40.198  1.00  0.00    -0.237 OA
ATOM    100  O   UNL A   1      38.234  37.579  40.375  1.00  0.00    -0.237 OA
ATOM    101  O   UNL A   1      39.872  36.417  41.803  1.00  0.00    -0.744 OA
ENDBRANCH  97  98
ENDBRANCH  65  90
ENDBRANCH  39  40
ENDBRANCH  31  34
ENDBRANCH  29  30
ENDBRANCH  28  29
ENDBRANCH  27  28
ENDBRANCH   1  27
TORSDOF 21
ENDMDL
