MODEL 1
REMARK VINA RESULT:     -12.7      0.000      0.000
REMARK SMILES Cc1cc2c(c(C)c1Cl)C=C(C(=O)NCCCCNC(=O)c1ccc(-c3c4nc(c(-c5c(F)cc(S(=O)(=O)[O-])cc5F)c5ccc([nH]5)c(-c5c(F)cc(S(=O)(=O)[O-])cc5F)c5nc(c(-c6c(F)cc(S(=O)(=O)[O-])cc6F)c6ccc3[nH]6)C=C5)C=C4)cc1)[C@H](C(F)(F)F)O2
REMARK SMILES IDX 17 1 16 2 15 3 14 4 12 5 13 6 11 8 1 9 2 10 3 11 8 12 4 13
REMARK SMILES IDX 6 14 9 15 5 16 93 17 7 18 10 19 88 20 89 21 90 22 91 23
REMARK SMILES IDX 92 24 18 25 19 26 20 27 21 29 22 30 23 31 87 32 24 33 86 34
REMARK SMILES IDX 25 35 26 36 27 37 80 38 28 39 85 40 79 41 81 42 29 43 84 44
REMARK SMILES IDX 78 45 77 46 30 48 64 49 43 50 63 51 44 52 47 53 62 54 82 55
REMARK SMILES IDX 45 56 46 57 61 59 83 60 48 61 31 62 32 63 41 64 33 65 34 66
REMARK SMILES IDX 40 67 42 68 35 69 36 70 37 71 38 72 39 73 65 74 66 75 75 76
REMARK SMILES IDX 67 77 68 78 74 79 76 80 69 81 70 82 71 83 72 84 73 85 49 86
REMARK SMILES IDX 50 87 59 88 51 89 52 90 58 91 60 92 53 93 54 94 55 95 56 96
REMARK SMILES IDX 57 97
REMARK H PARENT 14 7 19 28 81 47 47 58
REMARK Flexibility Score: inf
ROOT
ATOM      1  C   UNL A   1      37.848  23.075  25.781  1.00  0.00     0.023 C 
ENDROOT
BRANCH   1   2
ATOM      2  C   UNL A   1      36.345  23.298  25.972  1.00  0.00     0.023 C 
BRANCH   2   3
ATOM      3  C   UNL A   1      35.518  22.015  26.001  1.00  0.00     0.116 C 
BRANCH   3   4
ATOM      4  N   UNL A   1      34.577  22.011  27.105  1.00  0.00    -0.352 N 
ATOM      5  C   UNL A   1      33.330  22.480  27.337  1.00  0.00     0.251 C 
ATOM      6  O   UNL A   1      32.851  22.176  28.434  1.00  0.00    -0.270 OA
ATOM      7  H   UNL A   1      34.943  21.546  27.892  1.00  0.00     0.163 HD
BRANCH   5   8
ATOM      8  C   UNL A   1      32.525  23.311  26.392  1.00  0.00     0.067 C 
ATOM      9  C   UNL A   1      29.747  28.029  22.864  1.00  0.00     0.046 C 
ATOM     10  C   UNL A   1      30.578  27.193  23.801  1.00  0.00    -0.028 A 
ATOM     11  C   UNL A   1      30.280  25.833  23.924  1.00  0.00     0.052 A 
ATOM     12  C   UNL A   1      31.620  27.737  24.580  1.00  0.00     0.047 A 
ATOM     13  C   UNL A   1      31.015  25.025  24.785  1.00  0.00     0.128 A 
ATOM     14  C   UNL A   1      32.375  26.926  25.462  1.00  0.00    -0.021 A 
ATOM     15  Cl  UNL A   1      31.947  29.440  24.448  1.00  0.00    -0.084 Cl
ATOM     16  C   UNL A   1      32.045  25.553  25.569  1.00  0.00     0.022 A 
ATOM     17  O   UNL A   1      30.636  23.711  24.835  1.00  0.00    -0.475 OA
ATOM     18  C   UNL A   1      33.508  27.485  26.291  1.00  0.00     0.047 C 
ATOM     19  C   UNL A   1      32.710  24.641  26.505  1.00  0.00     0.026 C 
ATOM     20  C   UNL A   1      31.646  22.774  25.302  1.00  0.00     0.314 C 
BRANCH  20  21
ATOM     21  C   UNL A   1      32.421  22.187  24.112  1.00  0.00     0.429 C 
ATOM     22  F   UNL A   1      32.914  20.953  24.366  1.00  0.00    -0.167 F 
ATOM     23  F   UNL A   1      31.665  22.084  22.996  1.00  0.00    -0.167 F 
ATOM     24  F   UNL A   1      33.475  22.984  23.802  1.00  0.00    -0.167 F 
ENDBRANCH  20  21
ENDBRANCH   5   8
ENDBRANCH   3   4
ENDBRANCH   2   3
ENDBRANCH   1   2
BRANCH   1  25
ATOM     25  C   UNL A   1      38.749  24.053  26.527  1.00  0.00     0.116 C 
BRANCH  25  26
ATOM     26  N   UNL A   1      40.137  24.014  26.089  1.00  0.00    -0.352 N 
ATOM     27  C   UNL A   1      41.161  24.859  26.443  1.00  0.00     0.251 C 
ATOM     28  H   UNL A   1      40.369  23.294  25.460  1.00  0.00     0.163 HD
ATOM     29  O   UNL A   1      42.265  24.752  25.920  1.00  0.00    -0.269 OA
BRANCH  27  30
ATOM     30  C   UNL A   1      40.893  25.919  27.432  1.00  0.00     0.039 A 
ATOM     31  C   UNL A   1      39.976  25.671  28.455  1.00  0.00     0.014 A 
ATOM     32  C   UNL A   1      41.603  27.122  27.384  1.00  0.00     0.014 A 
ATOM     33  C   UNL A   1      39.820  26.608  29.476  1.00  0.00     0.010 A 
ATOM     34  C   UNL A   1      41.494  28.024  28.434  1.00  0.00     0.010 A 
ATOM     35  C   UNL A   1      40.603  27.774  29.490  1.00  0.00    -0.014 A 
BRANCH  35  36
ATOM     36  C   UNL A   1      40.493  28.760  30.590  1.00  0.00     0.031 A 
ATOM     37  C   UNL A   1      41.404  28.651  31.779  1.00  0.00     0.074 A 
ATOM     38  C   UNL A   1      39.538  29.708  30.545  1.00  0.00     0.049 A 
ATOM     39  N   UNL A   1      41.412  29.354  32.879  1.00  0.00    -0.248 NA
ATOM     40  C   UNL A   1      42.422  27.587  31.735  1.00  0.00     0.031 C 
ATOM     41  C   UNL A   1      38.568  29.885  29.461  1.00  0.00     0.029 A 
ATOM     42  N   UNL A   1      39.219  30.700  31.438  1.00  0.00    -0.354 N 
ATOM     43  C   UNL A   1      42.422  28.812  33.664  1.00  0.00     0.074 A 
ATOM     44  C   UNL A   1      42.970  27.688  32.937  1.00  0.00     0.031 C 
ATOM     45  C   UNL A   1      37.784  30.939  29.739  1.00  0.00     0.029 A 
ATOM     46  C   UNL A   1      38.172  31.494  31.033  1.00  0.00     0.049 A 
ATOM     47  H   UNL A   1      39.697  30.832  32.288  1.00  0.00     0.167 HD
ATOM     48  C   UNL A   1      42.870  29.230  34.871  1.00  0.00     0.037 A 
ATOM     49  C   UNL A   1      37.595  32.550  31.638  1.00  0.00     0.037 A 
ATOM     50  C   UNL A   1      42.346  30.371  35.571  1.00  0.00     0.049 A 
ATOM     51  C   UNL A   1      38.120  33.006  32.970  1.00  0.00     0.074 A 
ATOM     52  C   UNL A   1      42.760  30.907  36.778  1.00  0.00     0.029 A 
ATOM     53  N   UNL A   1      41.297  31.160  35.121  1.00  0.00    -0.354 N 
ATOM     54  N   UNL A   1      39.097  32.501  33.686  1.00  0.00    -0.248 NA
ATOM     55  C   UNL A   1      37.467  34.172  33.579  1.00  0.00     0.031 C 
ATOM     56  C   UNL A   1      41.945  32.007  37.069  1.00  0.00     0.029 A 
ATOM     57  C   UNL A   1      41.046  32.174  36.028  1.00  0.00     0.049 A 
ATOM     58  H   UNL A   1      40.806  31.019  34.280  1.00  0.00     0.167 HD
ATOM     59  C   UNL A   1      39.186  33.297  34.821  1.00  0.00     0.074 A 
ATOM     60  C   UNL A   1      38.172  34.324  34.692  1.00  0.00     0.031 C 
ATOM     61  C   UNL A   1      40.031  33.188  35.876  1.00  0.00     0.037 A 
BRANCH  48  62
ATOM     62  C   UNL A   1      43.996  28.456  35.494  1.00  0.00     0.058 A 
ATOM     63  C   UNL A   1      45.337  28.755  35.203  1.00  0.00     0.135 A 
ATOM     64  C   UNL A   1      43.737  27.413  36.396  1.00  0.00     0.135 A 
ATOM     65  F   UNL A   1      45.638  29.729  34.330  1.00  0.00    -0.206 F 
ATOM     66  C   UNL A   1      46.381  28.028  35.762  1.00  0.00     0.059 A 
ATOM     67  C   UNL A   1      44.768  26.687  36.987  1.00  0.00     0.059 A 
ATOM     68  F   UNL A   1      42.473  27.084  36.705  1.00  0.00    -0.206 F 
ATOM     69  C   UNL A   1      46.086  26.992  36.651  1.00  0.00     0.060 A 
BRANCH  69  70
ATOM     70  S   UNL A   1      47.454  26.054  37.363  1.00  0.00     0.124 S 
ATOM     71  O   UNL A   1      47.445  24.854  36.533  1.00  0.00    -0.237 OA
ATOM     72  O   UNL A   1      48.587  26.952  37.167  1.00  0.00    -0.237 OA
ATOM     73  O   UNL A   1      47.045  25.860  38.752  1.00  0.00    -0.744 OA
ENDBRANCH  69  70
ENDBRANCH  48  62
BRANCH  49  74
ATOM     74  C   UNL A   1      36.485  33.271  30.963  1.00  0.00     0.058 A 
ATOM     75  C   UNL A   1      35.169  33.154  31.432  1.00  0.00     0.135 A 
ATOM     76  C   UNL A   1      36.718  34.114  29.865  1.00  0.00     0.135 A 
ATOM     77  F   UNL A   1      34.899  32.354  32.475  1.00  0.00    -0.206 F 
ATOM     78  C   UNL A   1      34.120  33.846  30.837  1.00  0.00     0.059 A 
ATOM     79  C   UNL A   1      35.687  34.830  29.265  1.00  0.00     0.059 A 
ATOM     80  F   UNL A   1      37.964  34.269  29.390  1.00  0.00    -0.206 F 
ATOM     81  C   UNL A   1      34.390  34.686  29.756  1.00  0.00     0.060 A 
BRANCH  81  82
ATOM     82  S   UNL A   1      33.030  35.632  29.036  1.00  0.00     0.124 S 
ATOM     83  O   UNL A   1      32.427  34.648  28.145  1.00  0.00    -0.237 OA
ATOM     84  O   UNL A   1      32.248  35.990  30.216  1.00  0.00    -0.237 OA
ATOM     85  O   UNL A   1      33.707  36.748  28.381  1.00  0.00    -0.744 OA
ENDBRANCH  81  82
ENDBRANCH  49  74
BRANCH  61  86
ATOM     86  C   UNL A   1      39.906  34.209  36.968  1.00  0.00     0.058 A 
ATOM     87  C   UNL A   1      40.415  35.507  36.815  1.00  0.00     0.135 A 
ATOM     88  C   UNL A   1      39.208  33.908  38.148  1.00  0.00     0.135 A 
ATOM     89  F   UNL A   1      41.096  35.839  35.706  1.00  0.00    -0.206 F 
ATOM     90  C   UNL A   1      40.245  36.472  37.800  1.00  0.00     0.059 A 
ATOM     91  C   UNL A   1      39.008  34.864  39.138  1.00  0.00     0.059 A 
ATOM     92  F   UNL A   1      38.695  32.682  38.337  1.00  0.00    -0.206 F 
ATOM     93  C   UNL A   1      39.536  36.143  38.958  1.00  0.00     0.060 A 
BRANCH  93  94
ATOM     94  S   UNL A   1      39.278  37.419  40.208  1.00  0.00     0.124 S 
ATOM     95  O   UNL A   1      38.422  38.361  39.494  1.00  0.00    -0.237 OA
ATOM     96  O   UNL A   1      38.637  36.674  41.287  1.00  0.00    -0.237 OA
ATOM     97  O   UNL A   1      40.628  37.890  40.496  1.00  0.00    -0.744 OA
ENDBRANCH  93  94
ENDBRANCH  61  86
ENDBRANCH  35  36
ENDBRANCH  27  30
ENDBRANCH  25  26
ENDBRANCH   1  25
TORSDOF 15
ENDMDL
MODEL 2
REMARK VINA RESULT:     -12.7      6.642     11.971
REMARK SMILES Cc1cc2c(c(C)c1Cl)C=C(C(=O)NCCCCNC(=O)c1ccc(-c3c4nc(c(-c5c(F)cc(S(=O)(=O)[O-])cc5F)c5ccc([nH]5)c(-c5c(F)cc(S(=O)(=O)[O-])cc5F)c5nc(c(-c6c(F)cc(S(=O)(=O)[O-])cc6F)c6ccc3[nH]6)C=C5)C=C4)cc1)[C@H](C(F)(F)F)O2
REMARK SMILES IDX 17 1 16 2 15 3 14 4 12 5 13 6 11 8 1 9 2 10 3 11 8 12 4 13
REMARK SMILES IDX 6 14 9 15 5 16 93 17 7 18 10 19 88 20 89 21 90 22 91 23
REMARK SMILES IDX 92 24 18 25 19 26 20 27 21 29 22 30 23 31 87 32 24 33 86 34
REMARK SMILES IDX 25 35 26 36 27 37 80 38 28 39 85 40 79 41 81 42 29 43 84 44
REMARK SMILES IDX 78 45 77 46 30 48 64 49 43 50 63 51 44 52 47 53 62 54 82 55
REMARK SMILES IDX 45 56 46 57 61 59 83 60 48 61 31 62 32 63 41 64 33 65 34 66
REMARK SMILES IDX 40 67 42 68 35 69 36 70 37 71 38 72 39 73 65 74 66 75 75 76
REMARK SMILES IDX 67 77 68 78 74 79 76 80 69 81 70 82 71 83 72 84 73 85 49 86
REMARK SMILES IDX 50 87 59 88 51 89 52 90 58 91 60 92 53 93 54 94 55 95 56 96
REMARK SMILES IDX 57 97
REMARK H PARENT 14 7 19 28 81 47 47 58
REMARK Flexibility Score: inf
ROOT
ATOM      1  C   UNL A   1      33.728  29.231  27.256  1.00  0.00     0.023 C 
ENDROOT
BRANCH   1   2
ATOM      2  C   UNL A   1      33.633  28.410  25.967  1.00  0.00     0.023 C 
BRANCH   2   3
ATOM      3  C   UNL A   1      32.845  29.087  24.847  1.00  0.00     0.116 C 
BRANCH   3   4
ATOM      4  N   UNL A   1      33.485  28.907  23.559  1.00  0.00    -0.352 N 
ATOM      5  C   UNL A   1      33.647  27.899  22.672  1.00  0.00     0.251 C 
ATOM      6  O   UNL A   1      34.217  28.210  21.621  1.00  0.00    -0.270 OA
ATOM      7  H   UNL A   1      33.917  29.736  23.249  1.00  0.00     0.163 HD
BRANCH   5   8
ATOM      8  C   UNL A   1      33.202  26.487  22.872  1.00  0.00     0.067 C 
ATOM      9  C   UNL A   1      32.526  20.197  24.420  1.00  0.00     0.046 C 
ATOM     10  C   UNL A   1      32.968  21.624  24.243  1.00  0.00    -0.028 A 
ATOM     11  C   UNL A   1      32.207  22.462  23.422  1.00  0.00     0.052 A 
ATOM     12  C   UNL A   1      34.136  22.136  24.845  1.00  0.00     0.047 A 
ATOM     13  C   UNL A   1      32.585  23.786  23.221  1.00  0.00     0.128 A 
ATOM     14  C   UNL A   1      34.533  23.482  24.647  1.00  0.00    -0.021 A 
ATOM     15  Cl  UNL A   1      35.096  21.068  25.826  1.00  0.00    -0.084 Cl
ATOM     16  C   UNL A   1      33.744  24.304  23.805  1.00  0.00     0.022 A 
ATOM     17  O   UNL A   1      31.774  24.515  22.395  1.00  0.00    -0.475 OA
ATOM     18  C   UNL A   1      35.769  24.056  25.300  1.00  0.00     0.047 C 
ATOM     19  C   UNL A   1      34.102  25.685  23.472  1.00  0.00     0.026 C 
ATOM     20  C   UNL A   1      31.833  25.959  22.557  1.00  0.00     0.314 C 
BRANCH  20  21
ATOM     21  C   UNL A   1      30.745  26.432  23.535  1.00  0.00     0.429 C 
ATOM     22  F   UNL A   1      31.164  26.439  24.821  1.00  0.00    -0.167 F 
ATOM     23  F   UNL A   1      30.303  27.679  23.260  1.00  0.00    -0.167 F 
ATOM     24  F   UNL A   1      29.668  25.608  23.468  1.00  0.00    -0.167 F 
ENDBRANCH  20  21
ENDBRANCH   5   8
ENDBRANCH   3   4
ENDBRANCH   2   3
ENDBRANCH   1   2
BRANCH   1  25
ATOM     25  C   UNL A   1      35.138  29.415  27.806  1.00  0.00     0.116 C 
BRANCH  25  26
ATOM     26  N   UNL A   1      35.195  30.263  28.988  1.00  0.00    -0.352 N 
ATOM     27  C   UNL A   1      36.275  30.514  29.798  1.00  0.00     0.251 C 
ATOM     28  H   UNL A   1      34.355  30.711  29.237  1.00  0.00     0.163 HD
ATOM     29  O   UNL A   1      36.147  31.187  30.816  1.00  0.00    -0.269 OA
BRANCH  27  30
ATOM     30  C   UNL A   1      37.579  29.926  29.442  1.00  0.00     0.039 A 
ATOM     31  C   UNL A   1      37.991  29.956  28.109  1.00  0.00     0.014 A 
ATOM     32  C   UNL A   1      38.416  29.416  30.438  1.00  0.00     0.014 A 
ATOM     33  C   UNL A   1      39.279  29.534  27.781  1.00  0.00     0.010 A 
ATOM     34  C   UNL A   1      39.720  29.057  30.119  1.00  0.00     0.010 A 
ATOM     35  C   UNL A   1      40.162  29.114  28.788  1.00  0.00    -0.014 A 
BRANCH  35  36
ATOM     36  C   UNL A   1      41.552  28.710  28.472  1.00  0.00     0.031 A 
ATOM     37  C   UNL A   1      42.647  29.739  28.489  1.00  0.00     0.074 A 
ATOM     38  C   UNL A   1      41.813  27.439  28.112  1.00  0.00     0.049 A 
ATOM     39  N   UNL A   1      43.904  29.610  28.159  1.00  0.00    -0.248 NA
ATOM     40  C   UNL A   1      42.267  31.100  28.902  1.00  0.00     0.031 C 
ATOM     41  C   UNL A   1      40.822  26.363  28.019  1.00  0.00     0.029 A 
ATOM     42  N   UNL A   1      42.991  26.836  27.750  1.00  0.00    -0.354 N 
ATOM     43  C   UNL A   1      44.463  30.873  28.311  1.00  0.00     0.074 A 
ATOM     44  C   UNL A   1      43.396  31.765  28.711  1.00  0.00     0.031 C 
ATOM     45  C   UNL A   1      41.440  25.227  27.654  1.00  0.00     0.029 A 
ATOM     46  C   UNL A   1      42.861  25.499  27.457  1.00  0.00     0.049 A 
ATOM     47  H   UNL A   1      43.849  27.315  27.705  1.00  0.00     0.167 HD
ATOM     48  C   UNL A   1      45.754  31.249  28.157  1.00  0.00     0.037 A 
ATOM     49  C   UNL A   1      43.786  24.596  27.076  1.00  0.00     0.037 A 
ATOM     50  C   UNL A   1      46.815  30.349  27.795  1.00  0.00     0.049 A 
ATOM     51  C   UNL A   1      45.215  25.034  26.926  1.00  0.00     0.074 A 
ATOM     52  C   UNL A   1      48.165  30.620  27.657  1.00  0.00     0.029 A 
ATOM     53  N   UNL A   1      46.647  28.999  27.524  1.00  0.00    -0.354 N 
ATOM     54  N   UNL A   1      45.734  26.227  27.103  1.00  0.00    -0.248 NA
ATOM     55  C   UNL A   1      46.187  24.008  26.524  1.00  0.00     0.031 C 
ATOM     56  C   UNL A   1      48.810  29.437  27.279  1.00  0.00     0.029 A 
ATOM     57  C   UNL A   1      47.866  28.424  27.213  1.00  0.00     0.049 A 
ATOM     58  H   UNL A   1      45.786  28.521  27.550  1.00  0.00     0.167 HD
ATOM     59  C   UNL A   1      47.093  26.091  26.851  1.00  0.00     0.074 A 
ATOM     60  C   UNL A   1      47.320  24.698  26.520  1.00  0.00     0.031 C 
ATOM     61  C   UNL A   1      48.067  27.033  26.889  1.00  0.00     0.037 A 
BRANCH  48  62
ATOM     62  C   UNL A   1      46.084  32.694  28.400  1.00  0.00     0.058 A 
ATOM     63  C   UNL A   1      46.040  33.638  27.362  1.00  0.00     0.135 A 
ATOM     64  C   UNL A   1      46.439  33.144  29.681  1.00  0.00     0.135 A 
ATOM     65  F   UNL A   1      45.729  33.255  26.113  1.00  0.00    -0.206 F 
ATOM     66  C   UNL A   1      46.365  34.971  27.578  1.00  0.00     0.059 A 
ATOM     67  C   UNL A   1      46.743  34.480  29.927  1.00  0.00     0.059 A 
ATOM     68  F   UNL A   1      46.499  32.281  30.708  1.00  0.00    -0.206 F 
ATOM     69  C   UNL A   1      46.719  35.383  28.864  1.00  0.00     0.060 A 
BRANCH  69  70
ATOM     70  S   UNL A   1      47.143  37.117  29.127  1.00  0.00     0.124 S 
ATOM     71  O   UNL A   1      48.564  37.122  28.794  1.00  0.00    -0.237 OA
ATOM     72  O   UNL A   1      46.268  37.802  28.181  1.00  0.00    -0.237 OA
ATOM     73  O   UNL A   1      46.828  37.334  30.536  1.00  0.00    -0.744 OA
ENDBRANCH  69  70
ENDBRANCH  48  62
BRANCH  49  74
ATOM     74  C   UNL A   1      43.389  23.182  26.854  1.00  0.00     0.058 A 
ATOM     75  C   UNL A   1      43.345  22.649  25.557  1.00  0.00     0.135 A 
ATOM     76  C   UNL A   1      43.082  22.329  27.925  1.00  0.00     0.135 A 
ATOM     77  F   UNL A   1      43.624  23.429  24.502  1.00  0.00    -0.206 F 
ATOM     78  C   UNL A   1      43.009  21.319  25.328  1.00  0.00     0.059 A 
ATOM     79  C   UNL A   1      42.761  20.990  27.722  1.00  0.00     0.059 A 
ATOM     80  F   UNL A   1      43.125  22.790  29.185  1.00  0.00    -0.206 F 
ATOM     81  C   UNL A   1      42.722  20.496  26.419  1.00  0.00     0.060 A 
BRANCH  81  82
ATOM     82  S   UNL A   1      42.355  18.754  26.112  1.00  0.00     0.124 S 
ATOM     83  O   UNL A   1      40.944  18.810  25.752  1.00  0.00    -0.237 OA
ATOM     84  O   UNL A   1      43.279  18.432  25.029  1.00  0.00    -0.237 OA
ATOM     85  O   UNL A   1      42.657  18.118  27.392  1.00  0.00    -0.744 OA
ENDBRANCH  81  82
ENDBRANCH  49  74
BRANCH  61  86
ATOM     86  C   UNL A   1      49.467  26.592  26.578  1.00  0.00     0.058 A 
ATOM     87  C   UNL A   1      50.333  26.149  27.588  1.00  0.00     0.135 A 
ATOM     88  C   UNL A   1      49.920  26.543  25.251  1.00  0.00     0.135 A 
ATOM     89  F   UNL A   1      49.947  26.184  28.874  1.00  0.00    -0.206 F 
ATOM     90  C   UNL A   1      51.608  25.680  27.294  1.00  0.00     0.059 A 
ATOM     91  C   UNL A   1      51.184  26.059  24.931  1.00  0.00     0.059 A 
ATOM     92  F   UNL A   1      49.124  26.947  24.249  1.00  0.00    -0.206 F 
ATOM     93  C   UNL A   1      52.024  25.635  25.962  1.00  0.00     0.060 A 
BRANCH  93  94
ATOM     94  S   UNL A   1      53.663  24.977  25.588  1.00  0.00     0.124 S 
ATOM     95  O   UNL A   1      53.335  23.670  25.030  1.00  0.00    -0.237 OA
ATOM     96  O   UNL A   1      54.185  25.958  24.640  1.00  0.00    -0.237 OA
ATOM     97  O   UNL A   1      54.326  24.959  26.888  1.00  0.00    -0.744 OA
ENDBRANCH  93  94
ENDBRANCH  61  86
ENDBRANCH  35  36
ENDBRANCH  27  30
ENDBRANCH  25  26
ENDBRANCH   1  25
TORSDOF 15
ENDMDL
MODEL 3
REMARK VINA RESULT:     -12.7      4.950     10.499
REMARK SMILES Cc1cc2c(c(C)c1Cl)C=C(C(=O)NCCCCNC(=O)c1ccc(-c3c4nc(c(-c5c(F)cc(S(=O)(=O)[O-])cc5F)c5ccc([nH]5)c(-c5c(F)cc(S(=O)(=O)[O-])cc5F)c5nc(c(-c6c(F)cc(S(=O)(=O)[O-])cc6F)c6ccc3[nH]6)C=C5)C=C4)cc1)[C@H](C(F)(F)F)O2
REMARK SMILES IDX 17 1 16 2 15 3 14 4 12 5 13 6 11 8 1 9 2 10 3 11 8 12 4 13
REMARK SMILES IDX 6 14 9 15 5 16 93 17 7 18 10 19 88 20 89 21 90 22 91 23
REMARK SMILES IDX 92 24 18 25 19 26 20 27 21 29 22 30 23 31 87 32 24 33 86 34
REMARK SMILES IDX 25 35 26 36 27 37 80 38 28 39 85 40 79 41 81 42 29 43 84 44
REMARK SMILES IDX 78 45 77 46 30 48 64 49 43 50 63 51 44 52 47 53 62 54 82 55
REMARK SMILES IDX 45 56 46 57 61 59 83 60 48 61 31 62 32 63 41 64 33 65 34 66
REMARK SMILES IDX 40 67 42 68 35 69 36 70 37 71 38 72 39 73 65 74 66 75 75 76
REMARK SMILES IDX 67 77 68 78 74 79 76 80 69 81 70 82 71 83 72 84 73 85 49 86
REMARK SMILES IDX 50 87 59 88 51 89 52 90 58 91 60 92 53 93 54 94 55 95 56 96
REMARK SMILES IDX 57 97
REMARK H PARENT 14 7 19 28 81 47 47 58
REMARK Flexibility Score: inf
ROOT
ATOM      1  C   UNL A   1      32.847  27.507  26.974  1.00  0.00     0.023 C 
ENDROOT
BRANCH   1   2
ATOM      2  C   UNL A   1      31.407  27.751  26.513  1.00  0.00     0.023 C 
BRANCH   2   3
ATOM      3  C   UNL A   1      30.850  26.668  25.590  1.00  0.00     0.116 C 
BRANCH   3   4
ATOM      4  N   UNL A   1      31.652  26.524  24.391  1.00  0.00    -0.352 N 
ATOM      5  C   UNL A   1      32.354  25.538  23.788  1.00  0.00     0.251 C 
ATOM      6  O   UNL A   1      32.844  25.836  22.693  1.00  0.00    -0.270 OA
ATOM      7  H   UNL A   1      31.698  27.366  23.882  1.00  0.00     0.163 HD
BRANCH   5   8
ATOM      8  C   UNL A   1      32.571  24.166  24.338  1.00  0.00     0.067 C 
ATOM      9  C   UNL A   1      33.011  17.765  25.456  1.00  0.00     0.046 C 
ATOM     10  C   UNL A   1      32.814  19.145  24.887  1.00  0.00    -0.028 A 
ATOM     11  C   UNL A   1      32.974  20.245  25.735  1.00  0.00     0.052 A 
ATOM     12  C   UNL A   1      32.443  19.365  23.545  1.00  0.00     0.047 A 
ATOM     13  C   UNL A   1      32.791  21.538  25.255  1.00  0.00     0.128 A 
ATOM     14  C   UNL A   1      32.252  20.677  23.044  1.00  0.00    -0.021 A 
ATOM     15  Cl  UNL A   1      32.203  17.984  22.516  1.00  0.00    -0.084 Cl
ATOM     16  C   UNL A   1      32.415  21.770  23.929  1.00  0.00     0.022 A 
ATOM     17  O   UNL A   1      32.965  22.540  26.169  1.00  0.00    -0.475 OA
ATOM     18  C   UNL A   1      31.873  20.936  21.604  1.00  0.00     0.047 C 
ATOM     19  C   UNL A   1      32.169  23.161  23.536  1.00  0.00     0.026 C 
ATOM     20  C   UNL A   1      33.275  23.853  25.624  1.00  0.00     0.314 C 
BRANCH  20  21
ATOM     21  C   UNL A   1      34.797  24.061  25.565  1.00  0.00     0.429 C 
ATOM     22  F   UNL A   1      35.336  23.654  24.393  1.00  0.00    -0.167 F 
ATOM     23  F   UNL A   1      35.154  25.353  25.732  1.00  0.00    -0.167 F 
ATOM     24  F   UNL A   1      35.403  23.353  26.552  1.00  0.00    -0.167 F 
ENDBRANCH  20  21
ENDBRANCH   5   8
ENDBRANCH   3   4
ENDBRANCH   2   3
ENDBRANCH   1   2
BRANCH   1  25
ATOM     25  C   UNL A   1      33.845  28.591  26.585  1.00  0.00     0.116 C 
BRANCH  25  26
ATOM     26  N   UNL A   1      33.633  29.853  27.281  1.00  0.00    -0.352 N 
ATOM     27  C   UNL A   1      34.511  30.531  28.090  1.00  0.00     0.251 C 
ATOM     28  H   UNL A   1      32.751  30.270  27.155  1.00  0.00     0.163 HD
ATOM     29  O   UNL A   1      34.155  31.547  28.681  1.00  0.00    -0.269 OA
BRANCH  27  30
ATOM     30  C   UNL A   1      35.871  29.993  28.267  1.00  0.00     0.039 A 
ATOM     31  C   UNL A   1      36.791  30.130  27.226  1.00  0.00     0.014 A 
ATOM     32  C   UNL A   1      36.250  29.422  29.485  1.00  0.00     0.014 A 
ATOM     33  C   UNL A   1      38.119  29.754  27.432  1.00  0.00     0.010 A 
ATOM     34  C   UNL A   1      37.584  29.109  29.709  1.00  0.00     0.010 A 
ATOM     35  C   UNL A   1      38.530  29.274  28.685  1.00  0.00    -0.014 A 
BRANCH  35  36
ATOM     36  C   UNL A   1      39.944  28.917  28.945  1.00  0.00     0.031 A 
ATOM     37  C   UNL A   1      40.870  29.938  29.540  1.00  0.00     0.074 A 
ATOM     38  C   UNL A   1      40.403  27.702  28.588  1.00  0.00     0.049 A 
ATOM     39  N   UNL A   1      42.155  29.856  29.763  1.00  0.00    -0.248 NA
ATOM     40  C   UNL A   1      40.277  31.235  29.905  1.00  0.00     0.031 C 
ATOM     41  C   UNL A   1      39.606  26.644  27.962  1.00  0.00     0.029 A 
ATOM     42  N   UNL A   1      41.656  27.153  28.694  1.00  0.00    -0.354 N 
ATOM     43  C   UNL A   1      42.526  31.091  30.280  1.00  0.00     0.074 A 
ATOM     44  C   UNL A   1      41.342  31.922  30.287  1.00  0.00     0.031 C 
ATOM     45  C   UNL A   1      40.382  25.565  27.768  1.00  0.00     0.029 A 
ATOM     46  C   UNL A   1      41.736  25.863  28.225  1.00  0.00     0.049 A 
ATOM     47  H   UNL A   1      42.425  27.637  29.073  1.00  0.00     0.167 HD
ATOM     48  C   UNL A   1      43.739  31.488  30.731  1.00  0.00     0.037 A 
ATOM     49  C   UNL A   1      42.785  25.019  28.172  1.00  0.00     0.037 A 
ATOM     50  C   UNL A   1      44.902  30.643  30.754  1.00  0.00     0.049 A 
ATOM     51  C   UNL A   1      44.118  25.476  28.693  1.00  0.00     0.074 A 
ATOM     52  C   UNL A   1      46.168  30.933  31.233  1.00  0.00     0.029 A 
ATOM     53  N   UNL A   1      44.940  29.338  30.286  1.00  0.00    -0.354 N 
ATOM     54  N   UNL A   1      44.446  26.638  29.207  1.00  0.00    -0.248 NA
ATOM     55  C   UNL A   1      45.224  24.512  28.629  1.00  0.00     0.031 C 
ATOM     56  C   UNL A   1      46.977  29.809  31.034  1.00  0.00     0.029 A 
ATOM     57  C   UNL A   1      46.207  28.810  30.460  1.00  0.00     0.049 A 
ATOM     58  H   UNL A   1      44.177  28.858  29.891  1.00  0.00     0.167 HD
ATOM     59  C   UNL A   1      45.791  26.539  29.542  1.00  0.00     0.074 A 
ATOM     60  C   UNL A   1      46.213  25.200  29.183  1.00  0.00     0.031 C 
ATOM     61  C   UNL A   1      46.604  27.472  30.096  1.00  0.00     0.037 A 
BRANCH  48  62
ATOM     62  C   UNL A   1      43.855  32.891  31.253  1.00  0.00     0.058 A 
ATOM     63  C   UNL A   1      43.626  33.188  32.606  1.00  0.00     0.135 A 
ATOM     64  C   UNL A   1      44.206  33.948  30.399  1.00  0.00     0.135 A 
ATOM     65  F   UNL A   1      43.265  32.217  33.459  1.00  0.00    -0.206 F 
ATOM     66  C   UNL A   1      43.712  34.489  33.088  1.00  0.00     0.059 A 
ATOM     67  C   UNL A   1      44.323  35.254  30.865  1.00  0.00     0.059 A 
ATOM     68  F   UNL A   1      44.432  33.718  29.096  1.00  0.00    -0.206 F 
ATOM     69  C   UNL A   1      44.058  35.516  32.209  1.00  0.00     0.060 A 
BRANCH  69  70
ATOM     70  S   UNL A   1      44.161  37.200  32.851  1.00  0.00     0.124 S 
ATOM     71  O   UNL A   1      43.152  37.170  33.907  1.00  0.00    -0.237 OA
ATOM     72  O   UNL A   1      45.547  37.281  33.301  1.00  0.00    -0.237 OA
ATOM     73  O   UNL A   1      43.832  38.026  31.693  1.00  0.00    -0.744 OA
ENDBRANCH  69  70
ENDBRANCH  48  62
BRANCH  49  74
ATOM     74  C   UNL A   1      42.598  23.643  27.644  1.00  0.00     0.058 A 
ATOM     75  C   UNL A   1      42.635  23.397  26.264  1.00  0.00     0.135 A 
ATOM     76  C   UNL A   1      42.416  22.547  28.501  1.00  0.00     0.135 A 
ATOM     77  F   UNL A   1      42.801  24.416  25.407  1.00  0.00    -0.206 F 
ATOM     78  C   UNL A   1      42.497  22.113  25.749  1.00  0.00     0.059 A 
ATOM     79  C   UNL A   1      42.293  21.250  28.010  1.00  0.00     0.059 A 
ATOM     80  F   UNL A   1      42.389  22.730  29.830  1.00  0.00    -0.206 F 
ATOM     81  C   UNL A   1      42.331  21.044  26.631  1.00  0.00     0.060 A 
BRANCH  81  82
ATOM     82  S   UNL A   1      42.221  19.374  25.953  1.00  0.00     0.124 S 
ATOM     83  O   UNL A   1      43.097  19.470  24.791  1.00  0.00    -0.237 OA
ATOM     84  O   UNL A   1      42.716  18.561  27.060  1.00  0.00    -0.237 OA
ATOM     85  O   UNL A   1      40.798  19.223  25.662  1.00  0.00    -0.744 OA
ENDBRANCH  81  82
ENDBRANCH  49  74
BRANCH  61  86
ATOM     86  C   UNL A   1      48.027  27.078  30.361  1.00  0.00     0.058 A 
ATOM     87  C   UNL A   1      49.033  27.295  29.408  1.00  0.00     0.135 A 
ATOM     88  C   UNL A   1      48.399  26.546  31.605  1.00  0.00     0.135 A 
ATOM     89  F   UNL A   1      48.725  27.795  28.201  1.00  0.00    -0.206 F 
ATOM     90  C   UNL A   1      50.362  26.988  29.676  1.00  0.00     0.059 A 
ATOM     91  C   UNL A   1      49.725  26.251  31.903  1.00  0.00     0.059 A 
ATOM     92  F   UNL A   1      47.473  26.329  32.552  1.00  0.00    -0.206 F 
ATOM     93  C   UNL A   1      50.699  26.470  30.929  1.00  0.00     0.060 A 
BRANCH  93  94
ATOM     94  S   UNL A   1      52.435  26.123  31.283  1.00  0.00     0.124 S 
ATOM     95  O   UNL A   1      52.349  24.813  31.919  1.00  0.00    -0.237 OA
ATOM     96  O   UNL A   1      53.036  26.143  29.952  1.00  0.00    -0.237 OA
ATOM     97  O   UNL A   1      52.830  27.222  32.158  1.00  0.00    -0.744 OA
ENDBRANCH  93  94
ENDBRANCH  61  86
ENDBRANCH  35  36
ENDBRANCH  27  30
ENDBRANCH  25  26
ENDBRANCH   1  25
TORSDOF 15
ENDMDL
