MODEL 1
REMARK VINA RESULT:     -10.7      0.000      0.000
REMARK SMILES O=C(NCCCCNC(=O)[C@H]1CC[C@H]2CCCC[C@@H]2[N@H+]1C[C@@H]1CCCCO1)c1ccc(-c2c3nc(c(-c4c(F)cc(S(=O)(=O)[O-])cc4F)c4ccc([nH]4)c(-c4c(F)cc(S(=O)(=O)[O-])cc4F)c4nc(c(-c5c(F)cc(S(=O)(=O)[O-])cc5F)c5ccc2[nH]5)C=C4)C=C3)cc1
REMARK SMILES IDX 5 1 4 2 3 3 1 4 2 5 28 7 29 8 93 9 30 10 92 11 31 12 32 13
REMARK SMILES IDX 33 14 86 15 34 16 91 17 85 18 87 19 35 20 90 21 84 22 83 23
REMARK SMILES IDX 36 25 70 26 49 27 69 28 50 29 53 30 68 31 88 32 51 33 52 34
REMARK SMILES IDX 67 36 89 37 54 38 37 39 38 40 47 41 39 42 40 43 46 44 48 45
REMARK SMILES IDX 41 46 42 47 43 48 44 49 45 50 71 51 72 52 81 53 73 54 74 55
REMARK SMILES IDX 80 56 82 57 75 58 76 59 77 60 78 61 79 62 55 63 56 64 65 65
REMARK SMILES IDX 57 66 58 67 64 68 66 69 59 70 60 71 61 72 62 73 63 74 6 75
REMARK SMILES IDX 7 76 8 77 9 78 10 80 11 81 12 82 20 83 13 84 19 85 14 87
REMARK SMILES IDX 18 88 15 89 17 90 16 91 21 92 22 93 23 94 27 95 24 96 26 97
REMARK SMILES IDX 25 98
REMARK H PARENT 3 6 87 24 53 35 8 79 20 86
REMARK Flexibility Score: inf
ROOT
ATOM      1  C   UNL A   1      40.703  20.310  26.435  1.00  0.00     0.023 C 
ENDROOT
BRANCH   1   2
ATOM      2  C   UNL A   1      40.115  21.640  26.894  1.00  0.00     0.116 C 
BRANCH   2   3
ATOM      3  N   UNL A   1      39.065  22.158  26.025  1.00  0.00    -0.352 N 
ATOM      4  O   UNL A   1      37.621  23.721  25.250  1.00  0.00    -0.269 OA
ATOM      5  C   UNL A   1      38.563  23.445  25.971  1.00  0.00     0.251 C 
ATOM      6  H   UNL A   1      38.664  21.512  25.400  1.00  0.00     0.163 HD
BRANCH   5   7
ATOM      7  C   UNL A   1      39.177  24.465  26.848  1.00  0.00     0.039 A 
ATOM      8  C   UNL A   1      38.782  24.557  28.183  1.00  0.00     0.014 A 
ATOM      9  C   UNL A   1      40.056  25.402  26.300  1.00  0.00     0.014 A 
ATOM     10  C   UNL A   1      39.112  25.688  28.914  1.00  0.00     0.010 A 
ATOM     11  C   UNL A   1      40.478  26.483  27.078  1.00  0.00     0.010 A 
ATOM     12  C   UNL A   1      39.976  26.658  28.377  1.00  0.00    -0.014 A 
BRANCH  12  13
ATOM     13  C   UNL A   1      40.385  27.805  29.227  1.00  0.00     0.031 A 
ATOM     14  C   UNL A   1      39.485  28.994  29.435  1.00  0.00     0.074 A 
ATOM     15  C   UNL A   1      41.583  27.743  29.841  1.00  0.00     0.049 A 
ATOM     16  N   UNL A   1      39.704  30.074  30.142  1.00  0.00    -0.248 NA
ATOM     17  C   UNL A   1      38.176  28.977  28.763  1.00  0.00     0.031 C 
ATOM     18  C   UNL A   1      42.541  26.640  29.704  1.00  0.00     0.029 A 
ATOM     19  N   UNL A   1      42.197  28.604  30.712  1.00  0.00    -0.354 N 
ATOM     20  C   UNL A   1      38.578  30.875  29.983  1.00  0.00     0.074 A 
ATOM     21  C   UNL A   1      37.682  30.163  29.096  1.00  0.00     0.031 C 
ATOM     22  C   UNL A   1      43.595  26.868  30.499  1.00  0.00     0.029 A 
ATOM     23  C   UNL A   1      43.429  28.166  31.138  1.00  0.00     0.049 A 
ATOM     24  H   UNL A   1      41.795  29.454  31.003  1.00  0.00     0.167 HD
ATOM     25  C   UNL A   1      38.319  32.087  30.532  1.00  0.00     0.037 A 
ATOM     26  C   UNL A   1      44.341  28.754  31.932  1.00  0.00     0.037 A 
ATOM     27  C   UNL A   1      39.217  32.774  31.430  1.00  0.00     0.049 A 
ATOM     28  C   UNL A   1      44.037  30.107  32.505  1.00  0.00     0.074 A 
ATOM     29  C   UNL A   1      39.032  33.990  32.066  1.00  0.00     0.029 A 
ATOM     30  N   UNL A   1      40.465  32.309  31.819  1.00  0.00    -0.354 N 
ATOM     31  N   UNL A   1      42.958  30.837  32.360  1.00  0.00    -0.248 NA
ATOM     32  C   UNL A   1      45.073  30.716  33.347  1.00  0.00     0.031 C 
ATOM     33  C   UNL A   1      40.186  34.282  32.799  1.00  0.00     0.029 A 
ATOM     34  C   UNL A   1      41.070  33.223  32.666  1.00  0.00     0.049 A 
ATOM     35  H   UNL A   1      40.862  31.453  31.535  1.00  0.00     0.167 HD
ATOM     36  C   UNL A   1      43.177  31.987  33.106  1.00  0.00     0.074 A 
ATOM     37  C   UNL A   1      44.484  31.846  33.716  1.00  0.00     0.031 C 
ATOM     38  C   UNL A   1      42.371  33.065  33.269  1.00  0.00     0.037 A 
BRANCH  25  39
ATOM     39  C   UNL A   1      37.026  32.770  30.172  1.00  0.00     0.058 A 
ATOM     40  C   UNL A   1      35.863  32.606  30.938  1.00  0.00     0.135 A 
ATOM     41  C   UNL A   1      36.972  33.660  29.085  1.00  0.00     0.135 A 
ATOM     42  F   UNL A   1      35.852  31.760  31.979  1.00  0.00    -0.206 F 
ATOM     43  C   UNL A   1      34.687  33.287  30.631  1.00  0.00     0.059 A 
ATOM     44  C   UNL A   1      35.815  34.369  28.775  1.00  0.00     0.059 A 
ATOM     45  F   UNL A   1      38.056  33.856  28.318  1.00  0.00    -0.206 F 
ATOM     46  C   UNL A   1      34.674  34.169  29.549  1.00  0.00     0.060 A 
BRANCH  46  47
ATOM     47  S   UNL A   1      33.145  35.056  29.176  1.00  0.00     0.124 S 
ATOM     48  O   UNL A   1      32.549  34.194  28.160  1.00  0.00    -0.237 OA
ATOM     49  O   UNL A   1      32.470  35.071  30.469  1.00  0.00    -0.237 OA
ATOM     50  O   UNL A   1      33.612  36.355  28.701  1.00  0.00    -0.744 OA
ENDBRANCH  46  47
ENDBRANCH  25  39
BRANCH  26  51
ATOM     51  C   UNL A   1      45.632  28.070  32.202  1.00  0.00     0.058 A 
ATOM     52  C   UNL A   1      45.738  27.088  33.195  1.00  0.00     0.135 A 
ATOM     53  C   UNL A   1      46.781  28.369  31.450  1.00  0.00     0.135 A 
ATOM     54  F   UNL A   1      44.669  26.768  33.939  1.00  0.00    -0.206 F 
ATOM     55  C   UNL A   1      46.941  26.438  33.449  1.00  0.00     0.059 A 
ATOM     56  C   UNL A   1      47.985  27.712  31.663  1.00  0.00     0.059 A 
ATOM     57  F   UNL A   1      46.724  29.286  30.471  1.00  0.00    -0.206 F 
ATOM     58  C   UNL A   1      48.059  26.757  32.675  1.00  0.00     0.060 A 
BRANCH  58  59
ATOM     59  S   UNL A   1      49.608  25.883  32.986  1.00  0.00     0.124 S 
ATOM     60  O   UNL A   1      50.517  26.990  33.259  1.00  0.00    -0.237 OA
ATOM     61  O   UNL A   1      49.262  25.042  34.128  1.00  0.00    -0.237 OA
ATOM     62  O   UNL A   1      49.843  25.164  31.737  1.00  0.00    -0.744 OA
ENDBRANCH  58  59
ENDBRANCH  26  51
BRANCH  38  63
ATOM     63  C   UNL A   1      42.867  34.159  34.171  1.00  0.00     0.058 A 
ATOM     64  C   UNL A   1      43.605  35.245  33.676  1.00  0.00     0.135 A 
ATOM     65  C   UNL A   1      42.568  34.137  35.542  1.00  0.00     0.135 A 
ATOM     66  F   UNL A   1      43.926  35.307  32.374  1.00  0.00    -0.206 F 
ATOM     67  C   UNL A   1      44.053  36.259  34.515  1.00  0.00     0.059 A 
ATOM     68  C   UNL A   1      42.982  35.156  36.395  1.00  0.00     0.059 A 
ATOM     69  F   UNL A   1      41.857  33.125  36.064  1.00  0.00    -0.206 F 
ATOM     70  C   UNL A   1      43.735  36.206  35.873  1.00  0.00     0.060 A 
BRANCH  70  71
ATOM     71  S   UNL A   1      44.296  37.545  36.946  1.00  0.00     0.124 S 
ATOM     72  O   UNL A   1      43.313  37.489  38.024  1.00  0.00    -0.237 OA
ATOM     73  O   UNL A   1      45.647  37.118  37.298  1.00  0.00    -0.237 OA
ATOM     74  O   UNL A   1      44.221  38.723  36.088  1.00  0.00    -0.744 OA
ENDBRANCH  70  71
ENDBRANCH  38  63
ENDBRANCH  12  13
ENDBRANCH   5   7
ENDBRANCH   2   3
ENDBRANCH   1   2
BRANCH   1  75
ATOM     75  C   UNL A   1      42.223  20.245  26.422  1.00  0.00     0.023 C 
BRANCH  75  76
ATOM     76  C   UNL A   1      42.906  21.601  26.324  1.00  0.00     0.116 C 
BRANCH  76  77
ATOM     77  N   UNL A   1      43.175  22.030  24.963  1.00  0.00    -0.351 N 
ATOM     78  C   UNL A   1      44.190  22.696  24.346  1.00  0.00     0.278 C 
ATOM     79  H   UNL A   1      42.454  21.779  24.340  1.00  0.00     0.163 HD
ATOM     80  O   UNL A   1      44.130  22.692  23.107  1.00  0.00    -0.268 OA
BRANCH  78  81
ATOM     81  C   UNL A   1      45.345  23.464  25.063  1.00  0.00     0.274 C 
ATOM     82  C   UNL A   1      46.557  23.881  24.253  1.00  0.00     0.076 C 
ATOM     83  N   UNL A   1      44.869  24.594  25.886  1.00  0.00    -0.320 N 
ATOM     84  C   UNL A   1      47.563  24.781  24.958  1.00  0.00     0.016 C 
ATOM     85  C   UNL A   1      45.864  25.154  26.805  1.00  0.00     0.187 C 
ATOM     86  H   UNL A   1      44.215  24.086  26.481  1.00  0.00     0.349 HD
ATOM     87  C   UNL A   1      47.323  24.784  26.447  1.00  0.00     0.048 C 
ATOM     88  C   UNL A   1      45.683  24.675  28.264  1.00  0.00     0.065 C 
ATOM     89  C   UNL A   1      48.249  25.730  27.208  1.00  0.00     0.010 C 
ATOM     90  C   UNL A   1      46.680  25.387  29.202  1.00  0.00     0.006 C 
ATOM     91  C   UNL A   1      48.132  25.433  28.700  1.00  0.00     0.001 C 
BRANCH  83  92
ATOM     92  C   UNL A   1      43.891  25.545  25.328  1.00  0.00     0.295 C 
BRANCH  92  93
ATOM     93  C   UNL A   1      43.985  27.118  25.199  1.00  0.00     0.173 C 
ATOM     94  C   UNL A   1      44.648  27.956  26.296  1.00  0.00     0.038 C 
ATOM     95  O   UNL A   1      42.897  27.767  24.545  1.00  0.00    -0.372 OA
ATOM     96  C   UNL A   1      43.754  28.871  27.124  1.00  0.00     0.005 C 
ATOM     97  C   UNL A   1      41.954  28.443  25.352  1.00  0.00     0.161 C 
ATOM     98  C   UNL A   1      42.532  29.387  26.394  1.00  0.00     0.029 C 
ENDBRANCH  92  93
ENDBRANCH  83  92
ENDBRANCH  78  81
ENDBRANCH  76  77
ENDBRANCH  75  76
ENDBRANCH   1  75
TORSDOF 16
ENDMDL
MODEL 2
REMARK VINA RESULT:     -10.7      4.248     10.934
REMARK SMILES O=C(NCCCCNC(=O)[C@H]1CC[C@H]2CCCC[C@@H]2[N@H+]1C[C@@H]1CCCCO1)c1ccc(-c2c3nc(c(-c4c(F)cc(S(=O)(=O)[O-])cc4F)c4ccc([nH]4)c(-c4c(F)cc(S(=O)(=O)[O-])cc4F)c4nc(c(-c5c(F)cc(S(=O)(=O)[O-])cc5F)c5ccc2[nH]5)C=C4)C=C3)cc1
REMARK SMILES IDX 5 1 4 2 3 3 1 4 2 5 28 7 29 8 93 9 30 10 92 11 31 12 32 13
REMARK SMILES IDX 33 14 86 15 34 16 91 17 85 18 87 19 35 20 90 21 84 22 83 23
REMARK SMILES IDX 36 25 70 26 49 27 69 28 50 29 53 30 68 31 88 32 51 33 52 34
REMARK SMILES IDX 67 36 89 37 54 38 37 39 38 40 47 41 39 42 40 43 46 44 48 45
REMARK SMILES IDX 41 46 42 47 43 48 44 49 45 50 71 51 72 52 81 53 73 54 74 55
REMARK SMILES IDX 80 56 82 57 75 58 76 59 77 60 78 61 79 62 55 63 56 64 65 65
REMARK SMILES IDX 57 66 58 67 64 68 66 69 59 70 60 71 61 72 62 73 63 74 6 75
REMARK SMILES IDX 7 76 8 77 9 78 10 80 11 81 12 82 20 83 13 84 19 85 14 87
REMARK SMILES IDX 18 88 15 89 17 90 16 91 21 92 22 93 23 94 27 95 24 96 26 97
REMARK SMILES IDX 25 98
REMARK H PARENT 3 6 87 24 53 35 8 79 20 86
REMARK Flexibility Score: inf
ROOT
ATOM      1  C   UNL A   1      32.386  27.669  27.399  1.00  0.00     0.023 C 
ENDROOT
BRANCH   1   2
ATOM      2  C   UNL A   1      33.652  28.498  27.217  1.00  0.00     0.116 C 
BRANCH   2   3
ATOM      3  N   UNL A   1      33.532  29.879  27.668  1.00  0.00    -0.352 N 
ATOM      4  O   UNL A   1      34.242  31.793  28.648  1.00  0.00    -0.269 OA
ATOM      5  C   UNL A   1      34.505  30.676  28.240  1.00  0.00     0.251 C 
ATOM      6  H   UNL A   1      32.648  30.295  27.549  1.00  0.00     0.163 HD
BRANCH   5   7
ATOM      7  C   UNL A   1      35.866  30.114  28.381  1.00  0.00     0.039 A 
ATOM      8  C   UNL A   1      36.309  29.683  29.632  1.00  0.00     0.014 A 
ATOM      9  C   UNL A   1      36.732  30.133  27.285  1.00  0.00     0.014 A 
ATOM     10  C   UNL A   1      37.662  29.454  29.831  1.00  0.00     0.010 A 
ATOM     11  C   UNL A   1      38.075  29.790  27.467  1.00  0.00     0.010 A 
ATOM     12  C   UNL A   1      38.560  29.490  28.750  1.00  0.00    -0.014 A 
BRANCH  12  13
ATOM     13  C   UNL A   1      39.984  29.141  28.987  1.00  0.00     0.031 A 
ATOM     14  C   UNL A   1      40.542  27.797  28.604  1.00  0.00     0.074 A 
ATOM     15  C   UNL A   1      40.784  30.080  29.531  1.00  0.00     0.049 A 
ATOM     16  N   UNL A   1      41.760  27.342  28.753  1.00  0.00    -0.248 NA
ATOM     17  C   UNL A   1      39.619  26.834  27.982  1.00  0.00     0.031 C 
ATOM     18  C   UNL A   1      40.347  31.418  29.947  1.00  0.00     0.029 A 
ATOM     19  N   UNL A   1      42.125  30.071  29.810  1.00  0.00    -0.354 N 
ATOM     20  C   UNL A   1      41.749  26.038  28.269  1.00  0.00     0.074 A 
ATOM     21  C   UNL A   1      40.395  25.766  27.836  1.00  0.00     0.031 C 
ATOM     22  C   UNL A   1      41.405  32.113  30.382  1.00  0.00     0.029 A 
ATOM     23  C   UNL A   1      42.578  31.251  30.353  1.00  0.00     0.049 A 
ATOM     24  H   UNL A   1      42.707  29.296  29.640  1.00  0.00     0.167 HD
ATOM     25  C   UNL A   1      42.777  25.158  28.190  1.00  0.00     0.037 A 
ATOM     26  C   UNL A   1      43.797  31.595  30.806  1.00  0.00     0.037 A 
ATOM     27  C   UNL A   1      44.126  25.452  28.608  1.00  0.00     0.049 A 
ATOM     28  C   UNL A   1      44.909  30.591  30.728  1.00  0.00     0.074 A 
ATOM     29  C   UNL A   1      45.245  24.639  28.539  1.00  0.00     0.029 A 
ATOM     30  N   UNL A   1      44.541  26.650  29.175  1.00  0.00    -0.354 N 
ATOM     31  N   UNL A   1      44.881  29.371  30.247  1.00  0.00    -0.248 NA
ATOM     32  C   UNL A   1      46.213  31.006  31.257  1.00  0.00     0.031 C 
ATOM     33  C   UNL A   1      46.323  25.326  29.106  1.00  0.00     0.029 A 
ATOM     34  C   UNL A   1      45.891  26.588  29.480  1.00  0.00     0.049 A 
ATOM     35  H   UNL A   1      43.961  27.429  29.335  1.00  0.00     0.167 HD
ATOM     36  C   UNL A   1      46.171  28.877  30.399  1.00  0.00     0.074 A 
ATOM     37  C   UNL A   1      46.956  29.937  30.999  1.00  0.00     0.031 C 
ATOM     38  C   UNL A   1      46.659  27.655  30.073  1.00  0.00     0.037 A 
BRANCH  25  39
ATOM     39  C   UNL A   1      42.493  23.780  27.650  1.00  0.00     0.058 A 
ATOM     40  C   UNL A   1      42.498  23.508  26.273  1.00  0.00     0.135 A 
ATOM     41  C   UNL A   1      42.286  22.702  28.527  1.00  0.00     0.135 A 
ATOM     42  F   UNL A   1      42.677  24.501  25.389  1.00  0.00    -0.206 F 
ATOM     43  C   UNL A   1      42.292  22.220  25.785  1.00  0.00     0.059 A 
ATOM     44  C   UNL A   1      42.103  21.403  28.062  1.00  0.00     0.059 A 
ATOM     45  F   UNL A   1      42.274  22.904  29.855  1.00  0.00    -0.206 F 
ATOM     46  C   UNL A   1      42.098  21.173  26.688  1.00  0.00     0.060 A 
BRANCH  46  47
ATOM     47  S   UNL A   1      41.850  19.506  26.038  1.00  0.00     0.124 S 
ATOM     48  O   UNL A   1      42.738  19.511  24.880  1.00  0.00    -0.237 OA
ATOM     49  O   UNL A   1      42.273  18.669  27.156  1.00  0.00    -0.237 OA
ATOM     50  O   UNL A   1      40.423  19.468  25.735  1.00  0.00    -0.744 OA
ENDBRANCH  46  47
ENDBRANCH  25  39
BRANCH  26  51
ATOM     51  C   UNL A   1      44.010  32.943  31.394  1.00  0.00     0.058 A 
ATOM     52  C   UNL A   1      44.413  34.025  30.601  1.00  0.00     0.135 A 
ATOM     53  C   UNL A   1      43.787  33.179  32.762  1.00  0.00     0.135 A 
ATOM     54  F   UNL A   1      44.638  33.848  29.290  1.00  0.00    -0.206 F 
ATOM     55  C   UNL A   1      44.607  35.291  31.143  1.00  0.00     0.059 A 
ATOM     56  C   UNL A   1      43.944  34.441  33.320  1.00  0.00     0.059 A 
ATOM     57  F   UNL A   1      43.377  32.180  33.559  1.00  0.00    -0.206 F 
ATOM     58  C   UNL A   1      44.368  35.488  32.504  1.00  0.00     0.060 A 
BRANCH  58  59
ATOM     59  S   UNL A   1      44.587  37.142  33.193  1.00  0.00     0.124 S 
ATOM     60  O   UNL A   1      45.978  37.096  33.626  1.00  0.00    -0.237 OA
ATOM     61  O   UNL A   1      44.304  37.994  32.041  1.00  0.00    -0.237 OA
ATOM     62  O   UNL A   1      43.592  37.194  34.261  1.00  0.00    -0.744 OA
ENDBRANCH  58  59
ENDBRANCH  26  51
BRANCH  38  63
ATOM     63  C   UNL A   1      48.120  27.413  30.328  1.00  0.00     0.058 A 
ATOM     64  C   UNL A   1      48.569  26.769  31.491  1.00  0.00     0.135 A 
ATOM     65  C   UNL A   1      49.079  27.801  29.379  1.00  0.00     0.135 A 
ATOM     66  F   UNL A   1      47.694  26.389  32.435  1.00  0.00    -0.206 F 
ATOM     67  C   UNL A   1      49.922  26.541  31.717  1.00  0.00     0.059 A 
ATOM     68  C   UNL A   1      50.435  27.556  29.570  1.00  0.00     0.059 A 
ATOM     69  F   UNL A   1      48.700  28.413  28.245  1.00  0.00    -0.206 F 
ATOM     70  C   UNL A   1      50.847  26.937  30.749  1.00  0.00     0.060 A 
BRANCH  70  71
ATOM     71  S   UNL A   1      52.598  26.606  31.039  1.00  0.00     0.124 S 
ATOM     72  O   UNL A   1      53.060  26.269  29.696  1.00  0.00    -0.237 OA
ATOM     73  O   UNL A   1      53.072  27.880  31.572  1.00  0.00    -0.237 OA
ATOM     74  O   UNL A   1      52.582  25.502  31.993  1.00  0.00    -0.744 OA
ENDBRANCH  70  71
ENDBRANCH  38  63
ENDBRANCH  12  13
ENDBRANCH   5   7
ENDBRANCH   2   3
ENDBRANCH   1   2
BRANCH   1  75
ATOM     75  C   UNL A   1      31.872  26.987  26.140  1.00  0.00     0.023 C 
BRANCH  75  76
ATOM     76  C   UNL A   1      32.191  25.501  26.060  1.00  0.00     0.116 C 
BRANCH  76  77
ATOM     77  N   UNL A   1      31.227  24.652  26.737  1.00  0.00    -0.351 N 
ATOM     78  C   UNL A   1      30.945  23.320  26.730  1.00  0.00     0.278 C 
ATOM     79  H   UNL A   1      30.640  25.159  27.345  1.00  0.00     0.163 HD
ATOM     80  O   UNL A   1      30.158  22.955  27.617  1.00  0.00    -0.268 OA
BRANCH  78  81
ATOM     81  C   UNL A   1      31.488  22.278  25.701  1.00  0.00     0.274 C 
ATOM     82  C   UNL A   1      31.725  22.720  24.270  1.00  0.00     0.076 C 
ATOM     83  N   UNL A   1      32.653  21.522  26.202  1.00  0.00    -0.320 N 
ATOM     84  C   UNL A   1      32.424  21.717  23.362  1.00  0.00     0.016 C 
ATOM     85  C   UNL A   1      33.011  20.341  25.411  1.00  0.00     0.187 C 
ATOM     86  H   UNL A   1      32.242  21.152  27.058  1.00  0.00     0.349 HD
ATOM     87  C   UNL A   1      32.418  20.342  23.982  1.00  0.00     0.048 C 
ATOM     88  C   UNL A   1      32.522  19.015  26.039  1.00  0.00     0.065 C 
ATOM     89  C   UNL A   1      33.173  19.303  23.156  1.00  0.00     0.010 C 
ATOM     90  C   UNL A   1      33.029  17.804  25.228  1.00  0.00     0.006 C 
ATOM     91  C   UNL A   1      32.851  17.915  23.705  1.00  0.00     0.001 C 
BRANCH  83  92
ATOM     92  C   UNL A   1      33.771  22.238  26.843  1.00  0.00     0.295 C 
BRANCH  92  93
ATOM     93  C   UNL A   1      35.132  22.740  26.214  1.00  0.00     0.173 C 
ATOM     94  C   UNL A   1      35.140  23.802  25.111  1.00  0.00     0.038 C 
ATOM     95  O   UNL A   1      36.172  21.772  26.101  1.00  0.00    -0.372 OA
ATOM     96  C   UNL A   1      35.571  23.370  23.716  1.00  0.00     0.005 C 
ATOM     97  C   UNL A   1      36.424  21.222  24.823  1.00  0.00     0.161 C 
ATOM     98  C   UNL A   1      36.562  22.224  23.689  1.00  0.00     0.029 C 
ENDBRANCH  92  93
ENDBRANCH  83  92
ENDBRANCH  78  81
ENDBRANCH  76  77
ENDBRANCH  75  76
ENDBRANCH   1  75
TORSDOF 16
ENDMDL
MODEL 3
REMARK VINA RESULT:     -10.5      4.212     10.850
REMARK SMILES O=C(NCCCCNC(=O)[C@H]1CC[C@H]2CCCC[C@@H]2[N@H+]1C[C@@H]1CCCCO1)c1ccc(-c2c3nc(c(-c4c(F)cc(S(=O)(=O)[O-])cc4F)c4ccc([nH]4)c(-c4c(F)cc(S(=O)(=O)[O-])cc4F)c4nc(c(-c5c(F)cc(S(=O)(=O)[O-])cc5F)c5ccc2[nH]5)C=C4)C=C3)cc1
REMARK SMILES IDX 5 1 4 2 3 3 1 4 2 5 28 7 29 8 93 9 30 10 92 11 31 12 32 13
REMARK SMILES IDX 33 14 86 15 34 16 91 17 85 18 87 19 35 20 90 21 84 22 83 23
REMARK SMILES IDX 36 25 70 26 49 27 69 28 50 29 53 30 68 31 88 32 51 33 52 34
REMARK SMILES IDX 67 36 89 37 54 38 37 39 38 40 47 41 39 42 40 43 46 44 48 45
REMARK SMILES IDX 41 46 42 47 43 48 44 49 45 50 71 51 72 52 81 53 73 54 74 55
REMARK SMILES IDX 80 56 82 57 75 58 76 59 77 60 78 61 79 62 55 63 56 64 65 65
REMARK SMILES IDX 57 66 58 67 64 68 66 69 59 70 60 71 61 72 62 73 63 74 6 75
REMARK SMILES IDX 7 76 8 77 9 78 10 80 11 81 12 82 20 83 13 84 19 85 14 87
REMARK SMILES IDX 18 88 15 89 17 90 16 91 21 92 22 93 23 94 27 95 24 96 26 97
REMARK SMILES IDX 25 98
REMARK H PARENT 3 6 87 24 53 35 8 79 20 86
REMARK Flexibility Score: inf
ROOT
ATOM      1  C   UNL A   1      32.653  27.835  26.115  1.00  0.00     0.023 C 
ENDROOT
BRANCH   1   2
ATOM      2  C   UNL A   1      33.673  28.270  27.160  1.00  0.00     0.116 C 
BRANCH   2   3
ATOM      3  N   UNL A   1      33.538  29.659  27.583  1.00  0.00    -0.352 N 
ATOM      4  O   UNL A   1      34.229  31.600  28.523  1.00  0.00    -0.269 OA
ATOM      5  C   UNL A   1      34.503  30.477  28.138  1.00  0.00     0.251 C 
ATOM      6  H   UNL A   1      32.650  30.064  27.456  1.00  0.00     0.163 HD
BRANCH   5   7
ATOM      7  C   UNL A   1      35.870  29.933  28.289  1.00  0.00     0.039 A 
ATOM      8  C   UNL A   1      36.273  29.410  29.519  1.00  0.00     0.014 A 
ATOM      9  C   UNL A   1      36.778  30.057  27.236  1.00  0.00     0.014 A 
ATOM     10  C   UNL A   1      37.621  29.192  29.755  1.00  0.00     0.010 A 
ATOM     11  C   UNL A   1      38.121  29.727  27.446  1.00  0.00     0.010 A 
ATOM     12  C   UNL A   1      38.561  29.333  28.719  1.00  0.00    -0.014 A 
BRANCH  12  13
ATOM     13  C   UNL A   1      39.982  28.994  28.986  1.00  0.00     0.031 A 
ATOM     14  C   UNL A   1      40.560  27.658  28.604  1.00  0.00     0.074 A 
ATOM     15  C   UNL A   1      40.761  29.934  29.558  1.00  0.00     0.049 A 
ATOM     16  N   UNL A   1      41.779  27.212  28.777  1.00  0.00    -0.248 NA
ATOM     17  C   UNL A   1      39.661  26.694  27.951  1.00  0.00     0.031 C 
ATOM     18  C   UNL A   1      40.302  31.264  29.976  1.00  0.00     0.029 A 
ATOM     19  N   UNL A   1      42.094  29.934  29.869  1.00  0.00    -0.354 N 
ATOM     20  C   UNL A   1      41.790  25.913  28.280  1.00  0.00     0.074 A 
ATOM     21  C   UNL A   1      40.448  25.634  27.813  1.00  0.00     0.031 C 
ATOM     22  C   UNL A   1      41.344  31.964  30.443  1.00  0.00     0.029 A 
ATOM     23  C   UNL A   1      42.525  31.112  30.434  1.00  0.00     0.049 A 
ATOM     24  H   UNL A   1      42.687  29.165  29.705  1.00  0.00     0.167 HD
ATOM     25  C   UNL A   1      42.827  25.042  28.217  1.00  0.00     0.037 A 
ATOM     26  C   UNL A   1      43.729  31.462  30.919  1.00  0.00     0.037 A 
ATOM     27  C   UNL A   1      44.163  25.344  28.671  1.00  0.00     0.049 A 
ATOM     28  C   UNL A   1      44.851  30.468  30.858  1.00  0.00     0.074 A 
ATOM     29  C   UNL A   1      45.290  24.541  28.620  1.00  0.00     0.029 A 
ATOM     30  N   UNL A   1      44.555  26.539  29.258  1.00  0.00    -0.354 N 
ATOM     31  N   UNL A   1      44.846  29.253  30.364  1.00  0.00    -0.248 NA
ATOM     32  C   UNL A   1      46.139  30.888  31.421  1.00  0.00     0.031 C 
ATOM     33  C   UNL A   1      46.349  25.231  29.219  1.00  0.00     0.029 A 
ATOM     34  C   UNL A   1      45.897  26.486  29.594  1.00  0.00     0.049 A 
ATOM     35  H   UNL A   1      43.964  27.312  29.412  1.00  0.00     0.167 HD
ATOM     36  C   UNL A   1      46.135  28.768  30.542  1.00  0.00     0.074 A 
ATOM     37  C   UNL A   1      46.897  29.829  31.170  1.00  0.00     0.031 C 
ATOM     38  C   UNL A   1      46.642  27.554  30.216  1.00  0.00     0.037 A 
BRANCH  25  39
ATOM     39  C   UNL A   1      42.568  23.668  27.657  1.00  0.00     0.058 A 
ATOM     40  C   UNL A   1      42.549  23.421  26.276  1.00  0.00     0.135 A 
ATOM     41  C   UNL A   1      42.410  22.568  28.519  1.00  0.00     0.135 A 
ATOM     42  F   UNL A   1      42.682  24.435  25.407  1.00  0.00    -0.206 F 
ATOM     43  C   UNL A   1      42.367  22.137  25.768  1.00  0.00     0.059 A 
ATOM     44  C   UNL A   1      42.251  21.273  28.033  1.00  0.00     0.059 A 
ATOM     45  F   UNL A   1      42.421  22.746  29.850  1.00  0.00    -0.206 F 
ATOM     46  C   UNL A   1      42.221  21.069  26.655  1.00  0.00     0.060 A 
BRANCH  46  47
ATOM     47  S   UNL A   1      42.003  19.408  25.979  1.00  0.00     0.124 S 
ATOM     48  O   UNL A   1      40.574  19.400  25.683  1.00  0.00    -0.237 OA
ATOM     49  O   UNL A   1      42.889  19.425  24.820  1.00  0.00    -0.237 OA
ATOM     50  O   UNL A   1      42.422  18.537  27.072  1.00  0.00    -0.744 OA
ENDBRANCH  46  47
ENDBRANCH  25  39
BRANCH  26  51
ATOM     51  C   UNL A   1      43.916  32.805  31.525  1.00  0.00     0.058 A 
ATOM     52  C   UNL A   1      44.351  33.893  30.757  1.00  0.00     0.135 A 
ATOM     53  C   UNL A   1      43.637  33.032  32.883  1.00  0.00     0.135 A 
ATOM     54  F   UNL A   1      44.631  33.726  29.455  1.00  0.00    -0.206 F 
ATOM     55  C   UNL A   1      44.522  35.155  31.315  1.00  0.00     0.059 A 
ATOM     56  C   UNL A   1      43.769  34.290  33.457  1.00  0.00     0.059 A 
ATOM     57  F   UNL A   1      43.194  32.027  33.656  1.00  0.00    -0.206 F 
ATOM     58  C   UNL A   1      44.226  35.343  32.666  1.00  0.00     0.060 A 
BRANCH  58  59
ATOM     59  S   UNL A   1      44.415  36.993  33.376  1.00  0.00     0.124 S 
ATOM     60  O   UNL A   1      45.760  37.347  32.936  1.00  0.00    -0.237 OA
ATOM     61  O   UNL A   1      43.322  37.725  32.742  1.00  0.00    -0.237 OA
ATOM     62  O   UNL A   1      44.257  36.761  34.808  1.00  0.00    -0.744 OA
ENDBRANCH  58  59
ENDBRANCH  26  51
BRANCH  38  63
ATOM     63  C   UNL A   1      48.098  27.322  30.504  1.00  0.00     0.058 A 
ATOM     64  C   UNL A   1      49.096  27.656  29.576  1.00  0.00     0.135 A 
ATOM     65  C   UNL A   1      48.500  26.789  31.739  1.00  0.00     0.135 A 
ATOM     66  F   UNL A   1      48.764  28.157  28.376  1.00  0.00    -0.206 F 
ATOM     67  C   UNL A   1      50.443  27.446  29.853  1.00  0.00     0.059 A 
ATOM     68  C   UNL A   1      49.843  26.599  32.048  1.00  0.00     0.059 A 
ATOM     69  F   UNL A   1      47.585  26.460  32.665  1.00  0.00    -0.206 F 
ATOM     70  C   UNL A   1      50.806  26.918  31.093  1.00  0.00     0.060 A 
BRANCH  70  71
ATOM     71  S   UNL A   1      52.559  26.680  31.452  1.00  0.00     0.124 S 
ATOM     72  O   UNL A   1      52.514  25.600  32.432  1.00  0.00    -0.237 OA
ATOM     73  O   UNL A   1      53.101  26.327  30.144  1.00  0.00    -0.237 OA
ATOM     74  O   UNL A   1      52.980  27.979  31.968  1.00  0.00    -0.744 OA
ENDBRANCH  70  71
ENDBRANCH  38  63
ENDBRANCH  12  13
ENDBRANCH   5   7
ENDBRANCH   2   3
ENDBRANCH   1   2
BRANCH   1  75
ATOM     75  C   UNL A   1      31.857  26.586  26.467  1.00  0.00     0.023 C 
BRANCH  75  76
ATOM     76  C   UNL A   1      31.200  25.907  25.275  1.00  0.00     0.116 C 
BRANCH  76  77
ATOM     77  N   UNL A   1      30.639  24.601  25.575  1.00  0.00    -0.351 N 
ATOM     78  C   UNL A   1      31.150  23.401  25.969  1.00  0.00     0.278 C 
ATOM     79  H   UNL A   1      29.660  24.578  25.468  1.00  0.00     0.163 HD
ATOM     80  O   UNL A   1      30.299  22.568  26.315  1.00  0.00    -0.268 OA
BRANCH  78  81
ATOM     81  C   UNL A   1      32.662  23.011  25.973  1.00  0.00     0.274 C 
ATOM     82  C   UNL A   1      33.246  22.368  27.216  1.00  0.00     0.076 C 
ATOM     83  N   UNL A   1      33.070  22.259  24.770  1.00  0.00    -0.320 N 
ATOM     84  C   UNL A   1      34.671  21.844  27.098  1.00  0.00     0.016 C 
ATOM     85  C   UNL A   1      34.519  22.130  24.582  1.00  0.00     0.187 C 
ATOM     86  H   UNL A   1      32.770  22.927  24.061  1.00  0.00     0.349 HD
ATOM     87  C   UNL A   1      35.342  22.396  25.864  1.00  0.00     0.048 C 
ATOM     88  C   UNL A   1      35.088  23.118  23.537  1.00  0.00     0.065 C 
ATOM     89  C   UNL A   1      36.749  21.848  25.644  1.00  0.00     0.010 C 
ATOM     90  C   UNL A   1      36.589  22.857  23.296  1.00  0.00     0.006 C 
ATOM     91  C   UNL A   1      37.436  22.683  24.567  1.00  0.00     0.001 C 
BRANCH  83  92
ATOM     92  C   UNL A   1      32.251  21.128  24.299  1.00  0.00     0.295 C 
BRANCH  92  93
ATOM     93  C   UNL A   1      32.399  19.585  24.612  1.00  0.00     0.173 C 
ATOM     94  C   UNL A   1      33.695  19.027  25.208  1.00  0.00     0.038 C 
ATOM     95  O   UNL A   1      31.733  18.691  23.724  1.00  0.00    -0.372 OA
ATOM     96  C   UNL A   1      34.546  18.121  24.328  1.00  0.00     0.005 C 
ATOM     97  C   UNL A   1      32.517  18.008  22.767  1.00  0.00     0.161 C 
ATOM     98  C   UNL A   1      33.765  17.326  23.303  1.00  0.00     0.029 C 
ENDBRANCH  92  93
ENDBRANCH  83  92
ENDBRANCH  78  81
ENDBRANCH  76  77
ENDBRANCH  75  76
ENDBRANCH   1  75
TORSDOF 16
ENDMDL
