MODEL 1
REMARK VINA RESULT:     -11.6      0.000      0.000
REMARK SMILES [NH3+]C[C@@H]1CC[C@H](C(=O)N[C@@H](Cc2ccccc2)C(=O)NCCCCNC(=O)c2ccc(-c3c4nc(c(-c5c(F)cc(S(=O)(=O)[O-])cc5F)c5ccc([nH]5)c(-c5c(F)cc(S(=O)(=O)[O-])cc5F)c5nc(c(-c6c(F)cc(S(=O)(=O)[O-])cc6F)c6ccc3[nH]6)C=C5)C=C4)cc2)O1
REMARK SMILES IDX 22 1 21 2 20 3 18 4 19 5 10 7 9 8 7 9 8 10 6 12 3 13 4 14
REMARK SMILES IDX 94 15 5 16 2 17 1 18 11 22 12 23 13 24 17 25 14 26 16 27
REMARK SMILES IDX 15 28 23 29 24 30 25 31 26 32 27 34 28 35 29 36 93 37 30 38
REMARK SMILES IDX 92 39 31 40 32 41 33 42 86 43 34 44 91 45 85 46 87 47 35 48
REMARK SMILES IDX 90 49 84 50 83 51 36 53 70 54 49 55 69 56 50 57 53 58 68 59
REMARK SMILES IDX 88 60 51 61 52 62 67 64 89 65 54 66 37 67 38 68 47 69 39 70
REMARK SMILES IDX 40 71 46 72 48 73 41 74 42 75 43 76 44 77 45 78 71 79 72 80
REMARK SMILES IDX 81 81 73 82 74 83 80 84 82 85 75 86 76 87 77 88 78 89 79 90
REMARK SMILES IDX 55 91 56 92 65 93 57 94 58 95 64 96 66 97 59 98 60 99 61 100
REMARK SMILES IDX 62 101 63 102
REMARK H PARENT 20 6 9 11 1 19 1 20 1 21 25 33 87 52 53 63
REMARK Flexibility Score: inf
ROOT
ATOM      1  C   UNL A   1      32.441  30.257  26.903  1.00  0.00     0.023 C 
ENDROOT
BRANCH   1   2
ATOM      2  C   UNL A   1      32.113  29.656  25.547  1.00  0.00     0.116 C 
BRANCH   2   3
ATOM      3  N   UNL A   1      33.207  29.663  24.607  1.00  0.00    -0.354 N 
ATOM      4  C   UNL A   1      33.658  28.639  23.830  1.00  0.00     0.242 C 
ATOM      5  O   UNL A   1      34.199  28.948  22.760  1.00  0.00    -0.273 OA
ATOM      6  H   UNL A   1      33.688  30.518  24.515  1.00  0.00     0.163 HD
BRANCH   4   7
ATOM      7  C   UNL A   1      33.415  27.145  24.158  1.00  0.00     0.175 C 
BRANCH   7   8
ATOM      8  N   UNL A   1      33.620  26.169  23.084  1.00  0.00    -0.342 N 
ATOM      9  C   UNL A   1      32.726  25.628  22.211  1.00  0.00     0.249 C 
ATOM     10  O   UNL A   1      33.144  24.755  21.443  1.00  0.00    -0.272 OA
ATOM     11  H   UNL A   1      34.548  25.856  22.977  1.00  0.00     0.164 HD
BRANCH   9  12
ATOM     12  C   UNL A   1      31.243  26.035  22.203  1.00  0.00     0.207 C 
ATOM     13  C   UNL A   1      29.899  27.882  22.593  1.00  0.00     0.174 C 
ATOM     14  C   UNL A   1      29.895  27.101  23.896  1.00  0.00     0.041 C 
ATOM     15  O   UNL A   1      31.043  27.407  21.863  1.00  0.00    -0.359 OA
ATOM     16  C   UNL A   1      30.510  25.770  23.513  1.00  0.00     0.045 C 
BRANCH  13  17
ATOM     17  C   UNL A   1      29.996  29.403  22.784  1.00  0.00     0.291 C 
BRANCH  17  18
ATOM     18  N   UNL A   1      30.722  30.046  21.683  1.00  0.00    -0.355 N 
ATOM     19  H   UNL A   1      31.535  30.538  22.054  1.00  0.00     0.344 HD
ATOM     20  H   UNL A   1      30.107  30.710  21.213  1.00  0.00     0.344 HD
ATOM     21  H   UNL A   1      31.029  29.337  21.019  1.00  0.00     0.344 HD
ENDBRANCH  17  18
ENDBRANCH  13  17
ENDBRANCH   9  12
ENDBRANCH   7   8
BRANCH   7  22
ATOM     22  C   UNL A   1      34.020  26.686  25.502  1.00  0.00     0.070 C 
BRANCH  22  23
ATOM     23  C   UNL A   1      33.995  25.209  25.808  1.00  0.00    -0.045 A 
ATOM     24  C   UNL A   1      32.822  24.624  26.307  1.00  0.00     0.004 A 
ATOM     25  C   UNL A   1      35.122  24.399  25.611  1.00  0.00     0.004 A 
ATOM     26  C   UNL A   1      32.795  23.273  26.656  1.00  0.00     0.000 A 
ATOM     27  C   UNL A   1      35.103  23.056  25.993  1.00  0.00     0.000 A 
ATOM     28  C   UNL A   1      33.942  22.495  26.522  1.00  0.00     0.000 A 
ENDBRANCH  22  23
ENDBRANCH   7  22
ENDBRANCH   4   7
ENDBRANCH   2   3
ENDBRANCH   1   2
BRANCH   1  29
ATOM     29  C   UNL A   1      32.042  31.716  27.089  1.00  0.00     0.023 C 
BRANCH  29  30
ATOM     30  C   UNL A   1      33.131  32.649  27.606  1.00  0.00     0.116 C 
BRANCH  30  31
ATOM     31  N   UNL A   1      32.685  34.011  27.869  1.00  0.00    -0.352 N 
ATOM     32  C   UNL A   1      33.194  34.926  28.766  1.00  0.00     0.251 C 
ATOM     33  H   UNL A   1      31.917  34.320  27.336  1.00  0.00     0.163 HD
ATOM     34  O   UNL A   1      32.691  36.033  28.882  1.00  0.00    -0.269 OA
BRANCH  32  35
ATOM     35  C   UNL A   1      34.332  34.520  29.617  1.00  0.00     0.039 A 
ATOM     36  C   UNL A   1      34.069  33.907  30.844  1.00  0.00     0.014 A 
ATOM     37  C   UNL A   1      35.644  34.654  29.156  1.00  0.00     0.014 A 
ATOM     38  C   UNL A   1      35.122  33.342  31.566  1.00  0.00     0.010 A 
ATOM     39  C   UNL A   1      36.676  34.018  29.835  1.00  0.00     0.010 A 
ATOM     40  C   UNL A   1      36.426  33.349  31.043  1.00  0.00    -0.014 A 
BRANCH  40  41
ATOM     41  C   UNL A   1      37.536  32.649  31.737  1.00  0.00     0.031 A 
ATOM     42  C   UNL A   1      38.033  33.155  33.063  1.00  0.00     0.074 A 
ATOM     43  C   UNL A   1      38.142  31.602  31.142  1.00  0.00     0.049 A 
ATOM     44  N   UNL A   1      39.021  32.713  33.798  1.00  0.00    -0.248 NA
ATOM     45  C   UNL A   1      37.352  34.336  33.620  1.00  0.00     0.031 C 
ATOM     46  C   UNL A   1      37.799  31.060  29.823  1.00  0.00     0.029 A 
ATOM     47  N   UNL A   1      39.179  30.807  31.564  1.00  0.00    -0.354 N 
ATOM     48  C   UNL A   1      39.088  33.567  34.893  1.00  0.00     0.074 A 
ATOM     49  C   UNL A   1      38.082  34.588  34.695  1.00  0.00     0.031 C 
ATOM     50  C   UNL A   1      38.589  30.005  29.561  1.00  0.00     0.029 A 
ATOM     51  C   UNL A   1      39.512  29.812  30.675  1.00  0.00     0.049 A 
ATOM     52  H   UNL A   1      39.641  30.937  32.423  1.00  0.00     0.167 HD
ATOM     53  C   UNL A   1      39.893  33.492  35.979  1.00  0.00     0.037 A 
ATOM     54  C   UNL A   1      40.451  28.849  30.752  1.00  0.00     0.037 A 
ATOM     55  C   UNL A   1      40.869  32.455  36.186  1.00  0.00     0.049 A 
ATOM     56  C   UNL A   1      41.310  28.763  31.984  1.00  0.00     0.074 A 
ATOM     57  C   UNL A   1      41.694  32.253  37.279  1.00  0.00     0.029 A 
ATOM     58  N   UNL A   1      41.146  31.439  35.283  1.00  0.00    -0.354 N 
ATOM     59  N   UNL A   1      41.314  29.539  33.042  1.00  0.00    -0.248 NA
ATOM     60  C   UNL A   1      42.284  27.664  32.040  1.00  0.00     0.031 C 
ATOM     61  C   UNL A   1      42.491  31.132  37.024  1.00  0.00     0.029 A 
ATOM     62  C   UNL A   1      42.136  30.613  35.789  1.00  0.00     0.049 A 
ATOM     63  H   UNL A   1      40.706  31.323  34.410  1.00  0.00     0.167 HD
ATOM     64  C   UNL A   1      42.269  29.007  33.901  1.00  0.00     0.074 A 
ATOM     65  C   UNL A   1      42.816  27.837  33.243  1.00  0.00     0.031 C 
ATOM     66  C   UNL A   1      42.660  29.446  35.122  1.00  0.00     0.037 A 
BRANCH  53  67
ATOM     67  C   UNL A   1      39.738  34.556  37.029  1.00  0.00     0.058 A 
ATOM     68  C   UNL A   1      40.457  35.760  36.964  1.00  0.00     0.135 A 
ATOM     69  C   UNL A   1      38.857  34.377  38.107  1.00  0.00     0.135 A 
ATOM     70  F   UNL A   1      41.327  35.975  35.964  1.00  0.00    -0.206 F 
ATOM     71  C   UNL A   1      40.336  36.735  37.948  1.00  0.00     0.059 A 
ATOM     72  C   UNL A   1      38.699  35.350  39.090  1.00  0.00     0.059 A 
ATOM     73  F   UNL A   1      38.146  33.244  38.219  1.00  0.00    -0.206 F 
ATOM     74  C   UNL A   1      39.457  36.518  39.010  1.00  0.00     0.060 A 
BRANCH  74  75
ATOM     75  S   UNL A   1      39.317  37.788  40.286  1.00  0.00     0.124 S 
ATOM     76  O   UNL A   1      39.178  36.975  41.490  1.00  0.00    -0.237 OA
ATOM     77  O   UNL A   1      40.578  38.510  40.152  1.00  0.00    -0.237 OA
ATOM     78  O   UNL A   1      38.127  38.535  39.891  1.00  0.00    -0.744 OA
ENDBRANCH  74  75
ENDBRANCH  53  67
BRANCH  54  79
ATOM     79  C   UNL A   1      40.598  27.861  29.651  1.00  0.00     0.058 A 
ATOM     80  C   UNL A   1      41.636  27.978  28.714  1.00  0.00     0.135 A 
ATOM     81  C   UNL A   1      39.717  26.777  29.518  1.00  0.00     0.135 A 
ATOM     82  F   UNL A   1      42.501  29.000  28.796  1.00  0.00    -0.206 F 
ATOM     83  C   UNL A   1      41.786  27.067  27.673  1.00  0.00     0.059 A 
ATOM     84  C   UNL A   1      39.859  25.840  28.499  1.00  0.00     0.059 A 
ATOM     85  F   UNL A   1      38.718  26.611  30.399  1.00  0.00    -0.206 F 
ATOM     86  C   UNL A   1      40.891  26.000  27.575  1.00  0.00     0.060 A 
BRANCH  86  87
ATOM     87  S   UNL A   1      41.123  24.794  26.249  1.00  0.00     0.124 S 
ATOM     88  O   UNL A   1      39.893  24.018  26.341  1.00  0.00    -0.237 OA
ATOM     89  O   UNL A   1      41.251  25.650  25.073  1.00  0.00    -0.237 OA
ATOM     90  O   UNL A   1      42.343  24.096  26.641  1.00  0.00    -0.744 OA
ENDBRANCH  86  87
ENDBRANCH  54  79
BRANCH  66  91
ATOM     91  C   UNL A   1      43.702  28.639  35.843  1.00  0.00     0.058 A 
ATOM     92  C   UNL A   1      43.355  27.558  36.668  1.00  0.00     0.135 A 
ATOM     93  C   UNL A   1      45.065  28.928  35.673  1.00  0.00     0.135 A 
ATOM     94  F   UNL A   1      42.065  27.245  36.866  1.00  0.00    -0.206 F 
ATOM     95  C   UNL A   1      44.326  26.804  37.320  1.00  0.00     0.059 A 
ATOM     96  C   UNL A   1      46.053  28.173  36.297  1.00  0.00     0.059 A 
ATOM     97  F   UNL A   1      45.448  29.946  34.886  1.00  0.00    -0.206 F 
ATOM     98  C   UNL A   1      45.672  27.121  37.129  1.00  0.00     0.060 A 
BRANCH  98  99
ATOM     99  S   UNL A   1      46.925  26.122  37.961  1.00  0.00     0.124 S 
ATOM    100  O   UNL A   1      48.149  26.602  37.331  1.00  0.00    -0.237 OA
ATOM    101  O   UNL A   1      46.745  26.492  39.362  1.00  0.00    -0.237 OA
ATOM    102  O   UNL A   1      46.541  24.752  37.629  1.00  0.00    -0.744 OA
ENDBRANCH  98  99
ENDBRANCH  66  91
ENDBRANCH  40  41
ENDBRANCH  32  35
ENDBRANCH  30  31
ENDBRANCH  29  30
ENDBRANCH   1  29
TORSDOF 20
ENDMDL
MODEL 2
REMARK VINA RESULT:     -11.6      4.697      6.444
REMARK SMILES [NH3+]C[C@@H]1CC[C@H](C(=O)N[C@@H](Cc2ccccc2)C(=O)NCCCCNC(=O)c2ccc(-c3c4nc(c(-c5c(F)cc(S(=O)(=O)[O-])cc5F)c5ccc([nH]5)c(-c5c(F)cc(S(=O)(=O)[O-])cc5F)c5nc(c(-c6c(F)cc(S(=O)(=O)[O-])cc6F)c6ccc3[nH]6)C=C5)C=C4)cc2)O1
REMARK SMILES IDX 22 1 21 2 20 3 18 4 19 5 10 7 9 8 7 9 8 10 6 12 3 13 4 14
REMARK SMILES IDX 94 15 5 16 2 17 1 18 11 22 12 23 13 24 17 25 14 26 16 27
REMARK SMILES IDX 15 28 23 29 24 30 25 31 26 32 27 34 28 35 29 36 93 37 30 38
REMARK SMILES IDX 92 39 31 40 32 41 33 42 86 43 34 44 91 45 85 46 87 47 35 48
REMARK SMILES IDX 90 49 84 50 83 51 36 53 70 54 49 55 69 56 50 57 53 58 68 59
REMARK SMILES IDX 88 60 51 61 52 62 67 64 89 65 54 66 37 67 38 68 47 69 39 70
REMARK SMILES IDX 40 71 46 72 48 73 41 74 42 75 43 76 44 77 45 78 71 79 72 80
REMARK SMILES IDX 81 81 73 82 74 83 80 84 82 85 75 86 76 87 77 88 78 89 79 90
REMARK SMILES IDX 55 91 56 92 65 93 57 94 58 95 64 96 66 97 59 98 60 99 61 100
REMARK SMILES IDX 62 101 63 102
REMARK H PARENT 20 6 9 11 1 19 1 20 1 21 25 33 87 52 53 63
REMARK Flexibility Score: inf
ROOT
ATOM      1  C   UNL A   1      31.497  27.120  26.516  1.00  0.00     0.023 C 
ENDROOT
BRANCH   1   2
ATOM      2  C   UNL A   1      32.117  25.733  26.534  1.00  0.00     0.116 C 
BRANCH   2   3
ATOM      3  N   UNL A   1      31.164  24.651  26.559  1.00  0.00    -0.354 N 
ATOM      4  C   UNL A   1      30.880  23.755  25.573  1.00  0.00     0.242 C 
ATOM      5  O   UNL A   1      30.476  22.641  25.932  1.00  0.00    -0.273 OA
ATOM      6  H   UNL A   1      30.655  24.545  27.396  1.00  0.00     0.163 HD
BRANCH   4   7
ATOM      7  C   UNL A   1      31.155  24.019  24.072  1.00  0.00     0.175 C 
BRANCH   7   8
ATOM      8  N   UNL A   1      31.219  22.860  23.177  1.00  0.00    -0.342 N 
ATOM      9  C   UNL A   1      32.255  22.018  22.908  1.00  0.00     0.249 C 
ATOM     10  O   UNL A   1      32.073  21.156  22.042  1.00  0.00    -0.272 OA
ATOM     11  H   UNL A   1      30.384  22.659  22.694  1.00  0.00     0.164 HD
BRANCH   9  12
ATOM     12  C   UNL A   1      33.620  22.154  23.603  1.00  0.00     0.207 C 
ATOM     13  C   UNL A   1      34.521  22.531  25.706  1.00  0.00     0.174 C 
ATOM     14  C   UNL A   1      34.492  23.893  25.032  1.00  0.00     0.041 C 
ATOM     15  O   UNL A   1      33.601  21.715  24.961  1.00  0.00    -0.359 OA
ATOM     16  C   UNL A   1      34.201  23.564  23.581  1.00  0.00     0.045 C 
BRANCH  13  17
ATOM     17  C   UNL A   1      34.110  22.566  27.185  1.00  0.00     0.291 C 
BRANCH  17  18
ATOM     18  N   UNL A   1      32.946  21.712  27.448  1.00  0.00    -0.355 N 
ATOM     19  H   UNL A   1      32.185  21.972  26.820  1.00  0.00     0.344 HD
ATOM     20  H   UNL A   1      32.646  21.834  28.415  1.00  0.00     0.344 HD
ATOM     21  H   UNL A   1      33.198  20.737  27.290  1.00  0.00     0.344 HD
ENDBRANCH  17  18
ENDBRANCH  13  17
ENDBRANCH   9  12
ENDBRANCH   7   8
BRANCH   7  22
ATOM     22  C   UNL A   1      30.341  25.186  23.476  1.00  0.00     0.070 C 
BRANCH  22  23
ATOM     23  C   UNL A   1      31.097  26.432  23.082  1.00  0.00    -0.045 A 
ATOM     24  C   UNL A   1      32.477  26.359  22.845  1.00  0.00     0.004 A 
ATOM     25  C   UNL A   1      30.454  27.671  22.954  1.00  0.00     0.004 A 
ATOM     26  C   UNL A   1      33.207  27.509  22.541  1.00  0.00     0.000 A 
ATOM     27  C   UNL A   1      31.192  28.826  22.685  1.00  0.00     0.000 A 
ATOM     28  C   UNL A   1      32.569  28.745  22.485  1.00  0.00     0.000 A 
ENDBRANCH  22  23
ENDBRANCH   7  22
ENDBRANCH   4   7
ENDBRANCH   2   3
ENDBRANCH   1   2
BRANCH   1  29
ATOM     29  C   UNL A   1      32.456  28.264  26.210  1.00  0.00     0.023 C 
BRANCH  29  30
ATOM     30  C   UNL A   1      33.495  28.574  27.282  1.00  0.00     0.116 C 
BRANCH  30  31
ATOM     31  N   UNL A   1      33.468  29.945  27.772  1.00  0.00    -0.352 N 
ATOM     32  C   UNL A   1      34.498  30.688  28.310  1.00  0.00     0.251 C 
ATOM     33  H   UNL A   1      32.599  30.404  27.712  1.00  0.00     0.163 HD
ATOM     34  O   UNL A   1      34.307  31.831  28.696  1.00  0.00    -0.269 OA
BRANCH  32  35
ATOM     35  C   UNL A   1      35.825  30.054  28.452  1.00  0.00     0.039 A 
ATOM     36  C   UNL A   1      36.706  30.088  27.370  1.00  0.00     0.014 A 
ATOM     37  C   UNL A   1      36.227  29.523  29.680  1.00  0.00     0.014 A 
ATOM     38  C   UNL A   1      38.027  29.673  27.549  1.00  0.00     0.010 A 
ATOM     39  C   UNL A   1      37.563  29.191  29.878  1.00  0.00     0.010 A 
ATOM     40  C   UNL A   1      38.478  29.270  28.817  1.00  0.00    -0.014 A 
BRANCH  40  41
ATOM     41  C   UNL A   1      39.906  28.940  29.056  1.00  0.00     0.031 A 
ATOM     42  C   UNL A   1      40.830  29.973  29.640  1.00  0.00     0.074 A 
ATOM     43  C   UNL A   1      40.385  27.736  28.684  1.00  0.00     0.049 A 
ATOM     44  N   UNL A   1      42.114  29.893  29.875  1.00  0.00    -0.248 NA
ATOM     45  C   UNL A   1      40.239  31.280  29.970  1.00  0.00     0.031 C 
ATOM     46  C   UNL A   1      39.605  26.673  28.041  1.00  0.00     0.029 A 
ATOM     47  N   UNL A   1      41.646  27.202  28.785  1.00  0.00    -0.354 N 
ATOM     48  C   UNL A   1      42.486  31.139  30.366  1.00  0.00     0.074 A 
ATOM     49  C   UNL A   1      41.305  31.975  30.337  1.00  0.00     0.031 C 
ATOM     50  C   UNL A   1      40.397  25.608  27.836  1.00  0.00     0.029 A 
ATOM     51  C   UNL A   1      41.744  25.917  28.304  1.00  0.00     0.049 A 
ATOM     52  H   UNL A   1      42.409  27.693  29.167  1.00  0.00     0.167 HD
ATOM     53  C   UNL A   1      43.693  31.543  30.827  1.00  0.00     0.037 A 
ATOM     54  C   UNL A   1      42.799  25.082  28.250  1.00  0.00     0.037 A 
ATOM     55  C   UNL A   1      44.856  30.698  30.885  1.00  0.00     0.049 A 
ATOM     56  C   UNL A   1      44.122  25.539  28.802  1.00  0.00     0.074 A 
ATOM     57  C   UNL A   1      46.111  30.991  31.389  1.00  0.00     0.029 A 
ATOM     58  N   UNL A   1      44.904  29.388  30.428  1.00  0.00    -0.354 N 
ATOM     59  N   UNL A   1      44.440  26.700  29.326  1.00  0.00    -0.248 NA
ATOM     60  C   UNL A   1      45.228  24.572  28.766  1.00  0.00     0.031 C 
ATOM     61  C   UNL A   1      46.927  29.868  31.211  1.00  0.00     0.029 A 
ATOM     62  C   UNL A   1      46.170  28.863  30.631  1.00  0.00     0.049 A 
ATOM     63  H   UNL A   1      44.151  28.904  30.019  1.00  0.00     0.167 HD
ATOM     64  C   UNL A   1      45.773  26.593  29.707  1.00  0.00     0.074 A 
ATOM     65  C   UNL A   1      46.199  25.252  29.363  1.00  0.00     0.031 C 
ATOM     66  C   UNL A   1      46.572  27.521  30.290  1.00  0.00     0.037 A 
BRANCH  53  67
ATOM     67  C   UNL A   1      43.807  32.960  31.317  1.00  0.00     0.058 A 
ATOM     68  C   UNL A   1      44.175  34.006  30.456  1.00  0.00     0.135 A 
ATOM     69  C   UNL A   1      43.537  33.279  32.657  1.00  0.00     0.135 A 
ATOM     70  F   UNL A   1      44.462  33.752  29.168  1.00  0.00    -0.206 F 
ATOM     71  C   UNL A   1      44.307  35.313  30.912  1.00  0.00     0.059 A 
ATOM     72  C   UNL A   1      43.637  34.584  33.130  1.00  0.00     0.059 A 
ATOM     73  F   UNL A   1      43.183  32.318  33.524  1.00  0.00    -0.206 F 
ATOM     74  C   UNL A   1      44.041  35.591  32.253  1.00  0.00     0.060 A 
BRANCH  74  75
ATOM     75  S   UNL A   1      44.226  37.290  32.834  1.00  0.00     0.124 S 
ATOM     76  O   UNL A   1      45.551  37.246  33.444  1.00  0.00    -0.237 OA
ATOM     77  O   UNL A   1      44.124  38.058  31.597  1.00  0.00    -0.237 OA
ATOM     78  O   UNL A   1      43.111  37.454  33.762  1.00  0.00    -0.744 OA
ENDBRANCH  74  75
ENDBRANCH  53  67
BRANCH  54  79
ATOM     79  C   UNL A   1      42.639  23.711  27.697  1.00  0.00     0.058 A 
ATOM     80  C   UNL A   1      42.426  22.614  28.546  1.00  0.00     0.135 A 
ATOM     81  C   UNL A   1      42.684  23.469  26.316  1.00  0.00     0.135 A 
ATOM     82  F   UNL A   1      42.380  22.794  29.874  1.00  0.00    -0.206 F 
ATOM     83  C   UNL A   1      42.281  21.323  28.048  1.00  0.00     0.059 A 
ATOM     84  C   UNL A   1      42.519  22.191  25.792  1.00  0.00     0.059 A 
ATOM     85  F   UNL A   1      42.868  24.488  25.461  1.00  0.00    -0.206 F 
ATOM     86  C   UNL A   1      42.328  21.122  26.668  1.00  0.00     0.060 A 
BRANCH  86  87
ATOM     87  S   UNL A   1      42.090  19.450  26.026  1.00  0.00     0.124 S 
ATOM     88  O   UNL A   1      42.939  19.466  24.842  1.00  0.00    -0.237 OA
ATOM     89  O   UNL A   1      42.557  18.624  27.136  1.00  0.00    -0.237 OA
ATOM     90  O   UNL A   1      40.653  19.390  25.774  1.00  0.00    -0.744 OA
ENDBRANCH  86  87
ENDBRANCH  54  79
BRANCH  66  91
ATOM     91  C   UNL A   1      47.977  27.106  30.624  1.00  0.00     0.058 A 
ATOM     92  C   UNL A   1      49.038  27.317  29.732  1.00  0.00     0.135 A 
ATOM     93  C   UNL A   1      48.268  26.530  31.870  1.00  0.00     0.135 A 
ATOM     94  F   UNL A   1      48.810  27.861  28.526  1.00  0.00    -0.206 F 
ATOM     95  C   UNL A   1      50.340  26.945  30.054  1.00  0.00     0.059 A 
ATOM     96  C   UNL A   1      49.565  26.172  32.223  1.00  0.00     0.059 A 
ATOM     97  F   UNL A   1      47.287  26.318  32.764  1.00  0.00    -0.206 F 
ATOM     98  C   UNL A   1      50.593  26.373  31.302  1.00  0.00     0.060 A 
BRANCH  98  99
ATOM     99  S   UNL A   1      52.288  25.916  31.720  1.00  0.00     0.124 S 
ATOM    100  O   UNL A   1      52.597  26.872  32.778  1.00  0.00    -0.237 OA
ATOM    101  O   UNL A   1      52.146  24.526  32.144  1.00  0.00    -0.237 OA
ATOM    102  O   UNL A   1      53.010  26.110  30.465  1.00  0.00    -0.744 OA
ENDBRANCH  98  99
ENDBRANCH  66  91
ENDBRANCH  40  41
ENDBRANCH  32  35
ENDBRANCH  30  31
ENDBRANCH  29  30
ENDBRANCH   1  29
TORSDOF 20
ENDMDL
MODEL 3
REMARK VINA RESULT:     -11.1      6.424     11.868
REMARK SMILES [NH3+]C[C@@H]1CC[C@H](C(=O)N[C@@H](Cc2ccccc2)C(=O)NCCCCNC(=O)c2ccc(-c3c4nc(c(-c5c(F)cc(S(=O)(=O)[O-])cc5F)c5ccc([nH]5)c(-c5c(F)cc(S(=O)(=O)[O-])cc5F)c5nc(c(-c6c(F)cc(S(=O)(=O)[O-])cc6F)c6ccc3[nH]6)C=C5)C=C4)cc2)O1
REMARK SMILES IDX 22 1 21 2 20 3 18 4 19 5 10 7 9 8 7 9 8 10 6 12 3 13 4 14
REMARK SMILES IDX 94 15 5 16 2 17 1 18 11 22 12 23 13 24 17 25 14 26 16 27
REMARK SMILES IDX 15 28 23 29 24 30 25 31 26 32 27 34 28 35 29 36 93 37 30 38
REMARK SMILES IDX 92 39 31 40 32 41 33 42 86 43 34 44 91 45 85 46 87 47 35 48
REMARK SMILES IDX 90 49 84 50 83 51 36 53 70 54 49 55 69 56 50 57 53 58 68 59
REMARK SMILES IDX 88 60 51 61 52 62 67 64 89 65 54 66 37 67 38 68 47 69 39 70
REMARK SMILES IDX 40 71 46 72 48 73 41 74 42 75 43 76 44 77 45 78 71 79 72 80
REMARK SMILES IDX 81 81 73 82 74 83 80 84 82 85 75 86 76 87 77 88 78 89 79 90
REMARK SMILES IDX 55 91 56 92 65 93 57 94 58 95 64 96 66 97 59 98 60 99 61 100
REMARK SMILES IDX 62 101 63 102
REMARK H PARENT 20 6 9 11 1 19 1 20 1 21 25 33 87 52 53 63
REMARK Flexibility Score: inf
ROOT
ATOM      1  C   UNL A   1      37.324  22.238  24.408  1.00  0.00     0.023 C 
ENDROOT
BRANCH   1   2
ATOM      2  C   UNL A   1      36.262  23.155  24.991  1.00  0.00     0.116 C 
BRANCH   2   3
ATOM      3  N   UNL A   1      35.757  22.744  26.278  1.00  0.00    -0.354 N 
ATOM      4  C   UNL A   1      34.501  22.907  26.782  1.00  0.00     0.242 C 
ATOM      5  O   UNL A   1      34.118  22.066  27.606  1.00  0.00    -0.273 OA
ATOM      6  H   UNL A   1      36.400  22.287  26.867  1.00  0.00     0.163 HD
BRANCH   4   7
ATOM      7  C   UNL A   1      33.514  23.992  26.286  1.00  0.00     0.175 C 
BRANCH   7   8
ATOM      8  N   UNL A   1      32.187  24.040  26.905  1.00  0.00    -0.342 N 
ATOM      9  C   UNL A   1      31.048  23.364  26.588  1.00  0.00     0.249 C 
ATOM     10  O   UNL A   1      30.026  23.647  27.222  1.00  0.00    -0.272 OA
ATOM     11  H   UNL A   1      32.104  24.657  27.669  1.00  0.00     0.164 HD
BRANCH   9  12
ATOM     12  C   UNL A   1      31.003  22.326  25.454  1.00  0.00     0.207 C 
ATOM     13  C   UNL A   1      32.183  20.494  24.665  1.00  0.00     0.174 C 
ATOM     14  C   UNL A   1      32.683  21.675  23.850  1.00  0.00     0.041 C 
ATOM     15  O   UNL A   1      31.560  21.067  25.827  1.00  0.00    -0.359 OA
ATOM     16  C   UNL A   1      31.686  22.771  24.165  1.00  0.00     0.045 C 
BRANCH  13  17
ATOM     17  C   UNL A   1      33.294  19.524  25.092  1.00  0.00     0.291 C 
BRANCH  17  18
ATOM     18  N   UNL A   1      32.930  18.776  26.301  1.00  0.00    -0.355 N 
ATOM     19  H   UNL A   1      33.282  17.822  26.229  1.00  0.00     0.344 HD
ATOM     20  H   UNL A   1      31.915  18.758  26.396  1.00  0.00     0.344 HD
ATOM     21  H   UNL A   1      33.340  19.229  27.117  1.00  0.00     0.344 HD
ENDBRANCH  17  18
ENDBRANCH  13  17
ENDBRANCH   9  12
ENDBRANCH   7   8
BRANCH   7  22
ATOM     22  C   UNL A   1      34.144  25.391  26.120  1.00  0.00     0.070 C 
BRANCH  22  23
ATOM     23  C   UNL A   1      33.793  26.168  24.875  1.00  0.00    -0.045 A 
ATOM     24  C   UNL A   1      33.863  25.541  23.623  1.00  0.00     0.004 A 
ATOM     25  C   UNL A   1      33.402  27.513  24.935  1.00  0.00     0.004 A 
ATOM     26  C   UNL A   1      33.604  26.257  22.454  1.00  0.00     0.000 A 
ATOM     27  C   UNL A   1      33.178  28.238  23.762  1.00  0.00     0.000 A 
ATOM     28  C   UNL A   1      33.285  27.611  22.522  1.00  0.00     0.000 A 
ENDBRANCH  22  23
ENDBRANCH   7  22
ENDBRANCH   4   7
ENDBRANCH   2   3
ENDBRANCH   1   2
BRANCH   1  29
ATOM     29  C   UNL A   1      37.760  21.085  25.305  1.00  0.00     0.023 C 
BRANCH  29  30
ATOM     30  C   UNL A   1      39.118  21.238  25.981  1.00  0.00     0.116 C 
BRANCH  30  31
ATOM     31  N   UNL A   1      39.930  20.029  25.989  1.00  0.00    -0.352 N 
ATOM     32  C   UNL A   1      41.285  19.903  26.208  1.00  0.00     0.251 C 
ATOM     33  H   UNL A   1      39.447  19.189  25.812  1.00  0.00     0.163 HD
ATOM     34  O   UNL A   1      41.826  18.808  26.160  1.00  0.00    -0.269 OA
BRANCH  32  35
ATOM     35  C   UNL A   1      42.076  21.126  26.454  1.00  0.00     0.039 A 
ATOM     36  C   UNL A   1      42.422  21.934  25.369  1.00  0.00     0.014 A 
ATOM     37  C   UNL A   1      42.382  21.519  27.760  1.00  0.00     0.014 A 
ATOM     38  C   UNL A   1      42.993  23.186  25.602  1.00  0.00     0.010 A 
ATOM     39  C   UNL A   1      42.873  22.800  27.991  1.00  0.00     0.010 A 
ATOM     40  C   UNL A   1      43.176  23.649  26.916  1.00  0.00    -0.014 A 
BRANCH  40  41
ATOM     41  C   UNL A   1      43.670  25.023  27.185  1.00  0.00     0.031 A 
ATOM     42  C   UNL A   1      45.118  25.361  26.962  1.00  0.00     0.074 A 
ATOM     43  C   UNL A   1      42.830  25.947  27.694  1.00  0.00     0.049 A 
ATOM     44  N   UNL A   1      45.748  26.485  27.185  1.00  0.00    -0.248 NA
ATOM     45  C   UNL A   1      45.979  24.281  26.454  1.00  0.00     0.031 C 
ATOM     46  C   UNL A   1      41.418  25.723  28.022  1.00  0.00     0.029 A 
ATOM     47  N   UNL A   1      43.040  27.261  28.032  1.00  0.00    -0.354 N 
ATOM     48  C   UNL A   1      47.077  26.244  26.860  1.00  0.00     0.074 A 
ATOM     49  C   UNL A   1      47.174  24.851  26.482  1.00  0.00     0.031 C 
ATOM     50  C   UNL A   1      40.885  26.867  28.483  1.00  0.00     0.029 A 
ATOM     51  C   UNL A   1      41.919  27.897  28.512  1.00  0.00     0.049 A 
ATOM     52  H   UNL A   1      43.913  27.707  27.941  1.00  0.00     0.167 HD
ATOM     53  C   UNL A   1      48.118  27.110  26.847  1.00  0.00     0.037 A 
ATOM     54  C   UNL A   1      41.743  29.167  28.923  1.00  0.00     0.037 A 
ATOM     55  C   UNL A   1      48.009  28.503  27.191  1.00  0.00     0.049 A 
ATOM     56  C   UNL A   1      42.904  30.122  28.866  1.00  0.00     0.074 A 
ATOM     57  C   UNL A   1      48.989  29.480  27.155  1.00  0.00     0.029 A 
ATOM     58  N   UNL A   1      46.846  29.120  27.630  1.00  0.00    -0.354 N 
ATOM     59  N   UNL A   1      44.141  29.894  28.490  1.00  0.00    -0.248 NA
ATOM     60  C   UNL A   1      42.646  31.509  29.278  1.00  0.00     0.031 C 
ATOM     61  C   UNL A   1      48.426  30.681  27.599  1.00  0.00     0.029 A 
ATOM     62  C   UNL A   1      47.086  30.462  27.875  1.00  0.00     0.049 A 
ATOM     63  H   UNL A   1      45.979  28.670  27.750  1.00  0.00     0.167 HD
ATOM     64  C   UNL A   1      44.800  31.113  28.593  1.00  0.00     0.074 A 
ATOM     65  C   UNL A   1      43.824  32.078  29.058  1.00  0.00     0.031 C 
ATOM     66  C   UNL A   1      46.097  31.408  28.328  1.00  0.00     0.037 A 
BRANCH  53  67
ATOM     67  C   UNL A   1      49.460  26.573  26.434  1.00  0.00     0.058 A 
ATOM     68  C   UNL A   1      50.325  25.971  27.361  1.00  0.00     0.135 A 
ATOM     69  C   UNL A   1      49.882  26.650  25.097  1.00  0.00     0.135 A 
ATOM     70  F   UNL A   1      49.977  25.888  28.655  1.00  0.00    -0.206 F 
ATOM     71  C   UNL A   1      51.578  25.497  26.987  1.00  0.00     0.059 A 
ATOM     72  C   UNL A   1      51.121  26.159  24.695  1.00  0.00     0.059 A 
ATOM     73  F   UNL A   1      49.095  27.217  24.170  1.00  0.00    -0.206 F 
ATOM     74  C   UNL A   1      51.969  25.601  25.651  1.00  0.00     0.060 A 
BRANCH  74  75
ATOM     75  S   UNL A   1      53.602  24.990  25.181  1.00  0.00     0.124 S 
ATOM     76  O   UNL A   1      53.743  25.544  23.838  1.00  0.00    -0.237 OA
ATOM     77  O   UNL A   1      54.463  25.577  26.202  1.00  0.00    -0.237 OA
ATOM     78  O   UNL A   1      53.453  23.540  25.250  1.00  0.00    -0.744 OA
ENDBRANCH  74  75
ENDBRANCH  53  67
BRANCH  54  79
ATOM     79  C   UNL A   1      40.404  29.624  29.380  1.00  0.00     0.058 A 
ATOM     80  C   UNL A   1      40.153  29.869  30.739  1.00  0.00     0.135 A 
ATOM     81  C   UNL A   1      39.354  29.837  28.474  1.00  0.00     0.135 A 
ATOM     82  F   UNL A   1      41.124  29.675  31.645  1.00  0.00    -0.206 F 
ATOM     83  C   UNL A   1      38.905  30.290  31.187  1.00  0.00     0.059 A 
ATOM     84  C   UNL A   1      38.104  30.280  28.894  1.00  0.00     0.059 A 
ATOM     85  F   UNL A   1      39.548  29.634  27.162  1.00  0.00    -0.206 F 
ATOM     86  C   UNL A   1      37.887  30.494  30.256  1.00  0.00     0.060 A 
BRANCH  86  87
ATOM     87  S   UNL A   1      36.283  31.089  30.840  1.00  0.00     0.124 S 
ATOM     88  O   UNL A   1      36.575  32.489  31.122  1.00  0.00    -0.237 OA
ATOM     89  O   UNL A   1      35.422  30.835  29.688  1.00  0.00    -0.237 OA
ATOM     90  O   UNL A   1      36.020  30.250  32.005  1.00  0.00    -0.744 OA
ENDBRANCH  86  87
ENDBRANCH  54  79
BRANCH  66  91
ATOM     91  C   UNL A   1      46.526  32.838  28.499  1.00  0.00     0.058 A 
ATOM     92  C   UNL A   1      47.093  33.299  29.696  1.00  0.00     0.135 A 
ATOM     93  C   UNL A   1      46.405  33.746  27.435  1.00  0.00     0.135 A 
ATOM     94  F   UNL A   1      47.226  32.470  30.744  1.00  0.00    -0.206 F 
ATOM     95  C   UNL A   1      47.503  34.620  29.843  1.00  0.00     0.059 A 
ATOM     96  C   UNL A   1      46.830  35.065  27.551  1.00  0.00     0.059 A 
ATOM     97  F   UNL A   1      45.878  33.351  26.264  1.00  0.00    -0.206 F 
ATOM     98  C   UNL A   1      47.366  35.496  28.764  1.00  0.00     0.060 A 
BRANCH  98  99
ATOM     99  S   UNL A   1      47.923  37.202  28.956  1.00  0.00     0.124 S 
ATOM    100  O   UNL A   1      47.881  37.364  30.405  1.00  0.00    -0.237 OA
ATOM    101  O   UNL A   1      49.256  37.168  28.361  1.00  0.00    -0.237 OA
ATOM    102  O   UNL A   1      46.931  37.969  28.208  1.00  0.00    -0.744 OA
ENDBRANCH  98  99
ENDBRANCH  66  91
ENDBRANCH  40  41
ENDBRANCH  32  35
ENDBRANCH  30  31
ENDBRANCH  29  30
ENDBRANCH   1  29
TORSDOF 20
ENDMDL
