MODEL 1
REMARK VINA RESULT:      -9.9      0.000      0.000
REMARK SMILES O=C(NCCCCNC(=O)[C@H](F)Sc1cc2ccccc2[nH]1)c1ccc(-c2c3nc(c(-c4c(F)cc(S(=O)(=O)[O-])cc4F)c4ccc([nH]4)c(-c4c(F)cc(S(=O)(=O)[O-])cc4F)c4nc(c(-c5c(F)cc(S(=O)(=O)[O-])cc5F)c5ccc2[nH]5)C=C4)C=C3)cc1
REMARK SMILES IDX 5 1 4 2 3 3 1 4 2 5 23 7 24 8 88 9 25 10 87 11 26 12 27 13
REMARK SMILES IDX 28 14 81 15 29 16 86 17 80 18 82 19 30 20 85 21 79 22 78 23
REMARK SMILES IDX 31 25 65 26 44 27 64 28 45 29 48 30 63 31 83 32 46 33 47 34
REMARK SMILES IDX 62 36 84 37 49 38 32 39 33 40 42 41 34 42 35 43 41 44 43 45
REMARK SMILES IDX 36 46 37 47 38 48 39 49 40 50 66 51 67 52 76 53 68 54 69 55
REMARK SMILES IDX 75 56 77 57 70 58 71 59 72 60 73 61 74 62 50 63 51 64 60 65
REMARK SMILES IDX 52 66 53 67 59 68 61 69 54 70 55 71 56 72 57 73 58 74 6 75
REMARK SMILES IDX 7 76 8 77 9 78 10 80 11 81 12 82 13 83 14 84 15 85 22 86
REMARK SMILES IDX 16 87 21 88 17 90 20 91 18 92 19 93
REMARK H PARENT 3 6 82 24 48 35 8 79 22 89
REMARK Flexibility Score: inf
ROOT
ATOM      1  C   UNL A   1      35.716  33.433  28.641  1.00  0.00     0.023 C 
ENDROOT
BRANCH   1   2
ATOM      2  C   UNL A   1      34.690  32.578  29.375  1.00  0.00     0.116 C 
BRANCH   2   3
ATOM      3  N   UNL A   1      33.978  31.652  28.507  1.00  0.00    -0.352 N 
ATOM      4  O   UNL A   1      33.695  29.904  27.115  1.00  0.00    -0.269 OA
ATOM      5  C   UNL A   1      34.427  30.502  27.899  1.00  0.00     0.251 C 
ATOM      6  H   UNL A   1      33.037  31.882  28.330  1.00  0.00     0.163 HD
BRANCH   5   7
ATOM      7  C   UNL A   1      35.800  30.009  28.155  1.00  0.00     0.039 A 
ATOM      8  C   UNL A   1      36.162  29.502  29.406  1.00  0.00     0.014 A 
ATOM      9  C   UNL A   1      36.748  30.073  27.129  1.00  0.00     0.014 A 
ATOM     10  C   UNL A   1      37.499  29.224  29.678  1.00  0.00     0.010 A 
ATOM     11  C   UNL A   1      38.076  29.716  27.383  1.00  0.00     0.010 A 
ATOM     12  C   UNL A   1      38.474  29.337  28.674  1.00  0.00    -0.014 A 
BRANCH  12  13
ATOM     13  C   UNL A   1      39.897  29.051  29.002  1.00  0.00     0.031 A 
ATOM     14  C   UNL A   1      40.532  27.739  28.622  1.00  0.00     0.074 A 
ATOM     15  C   UNL A   1      40.634  30.003  29.606  1.00  0.00     0.049 A 
ATOM     16  N   UNL A   1      41.773  27.348  28.777  1.00  0.00    -0.248 NA
ATOM     17  C   UNL A   1      39.665  26.730  27.994  1.00  0.00     0.031 C 
ATOM     18  C   UNL A   1      40.131  31.310  30.038  1.00  0.00     0.029 A 
ATOM     19  N   UNL A   1      41.965  30.034  29.938  1.00  0.00    -0.354 N 
ATOM     20  C   UNL A   1      41.829  26.045  28.295  1.00  0.00     0.074 A 
ATOM     21  C   UNL A   1      40.493  25.703  27.858  1.00  0.00     0.031 C 
ATOM     22  C   UNL A   1      41.150  32.033  30.527  1.00  0.00     0.029 A 
ATOM     23  C   UNL A   1      42.367  31.229  30.486  1.00  0.00     0.049 A 
ATOM     24  H   UNL A   1      42.573  29.273  29.797  1.00  0.00     0.167 HD
ATOM     25  C   UNL A   1      42.897  25.214  28.216  1.00  0.00     0.037 A 
ATOM     26  C   UNL A   1      43.579  31.635  30.908  1.00  0.00     0.037 A 
ATOM     27  C   UNL A   1      44.234  25.567  28.621  1.00  0.00     0.049 A 
ATOM     28  C   UNL A   1      44.750  30.703  30.790  1.00  0.00     0.074 A 
ATOM     29  C   UNL A   1      45.389  24.808  28.540  1.00  0.00     0.029 A 
ATOM     30  N   UNL A   1      44.597  26.782  29.183  1.00  0.00    -0.354 N 
ATOM     31  N   UNL A   1      44.787  29.487  30.302  1.00  0.00    -0.248 NA
ATOM     32  C   UNL A   1      46.042  31.199  31.280  1.00  0.00     0.031 C 
ATOM     33  C   UNL A   1      46.443  25.552  29.080  1.00  0.00     0.029 A 
ATOM     34  C   UNL A   1      45.953  26.789  29.464  1.00  0.00     0.049 A 
ATOM     35  H   UNL A   1      43.981  27.530  29.355  1.00  0.00     0.167 HD
ATOM     36  C   UNL A   1      46.112  29.079  30.404  1.00  0.00     0.074 A 
ATOM     37  C   UNL A   1      46.845  30.182  30.992  1.00  0.00     0.031 C 
ATOM     38  C   UNL A   1      46.670  27.898  30.043  1.00  0.00     0.037 A 
BRANCH  25  39
ATOM     39  C   UNL A   1      42.661  23.826  27.686  1.00  0.00     0.058 A 
ATOM     40  C   UNL A   1      42.639  23.552  26.309  1.00  0.00     0.135 A 
ATOM     41  C   UNL A   1      42.481  22.749  28.570  1.00  0.00     0.135 A 
ATOM     42  F   UNL A   1      42.791  24.546  25.420  1.00  0.00    -0.206 F 
ATOM     43  C   UNL A   1      42.416  22.265  25.827  1.00  0.00     0.059 A 
ATOM     44  C   UNL A   1      42.280  21.451  28.111  1.00  0.00     0.059 A 
ATOM     45  F   UNL A   1      42.497  22.955  29.897  1.00  0.00    -0.206 F 
ATOM     46  C   UNL A   1      42.232  21.222  26.737  1.00  0.00     0.060 A 
BRANCH  46  47
ATOM     47  S   UNL A   1      41.930  19.559  26.100  1.00  0.00     0.124 S 
ATOM     48  O   UNL A   1      42.794  19.538  24.925  1.00  0.00    -0.237 OA
ATOM     49  O   UNL A   1      42.353  18.713  27.212  1.00  0.00    -0.237 OA
ATOM     50  O   UNL A   1      40.496  19.556  25.827  1.00  0.00    -0.744 OA
ENDBRANCH  46  47
ENDBRANCH  25  39
BRANCH  26  51
ATOM     51  C   UNL A   1      43.744  33.007  31.453  1.00  0.00     0.058 A 
ATOM     52  C   UNL A   1      44.115  34.072  30.622  1.00  0.00     0.135 A 
ATOM     53  C   UNL A   1      43.498  33.284  32.807  1.00  0.00     0.135 A 
ATOM     54  F   UNL A   1      44.365  33.853  29.322  1.00  0.00    -0.206 F 
ATOM     55  C   UNL A   1      44.245  35.367  31.113  1.00  0.00     0.059 A 
ATOM     56  C   UNL A   1      43.597  34.575  33.316  1.00  0.00     0.059 A 
ATOM     57  F   UNL A   1      43.122  32.300  33.638  1.00  0.00    -0.206 F 
ATOM     58  C   UNL A   1      43.979  35.609  32.462  1.00  0.00     0.060 A 
BRANCH  58  59
ATOM     59  S   UNL A   1      44.082  37.303  33.078  1.00  0.00     0.124 S 
ATOM     60  O   UNL A   1      42.962  37.342  34.012  1.00  0.00    -0.237 OA
ATOM     61  O   UNL A   1      45.413  37.336  33.676  1.00  0.00    -0.237 OA
ATOM     62  O   UNL A   1      43.928  38.106  31.869  1.00  0.00    -0.744 OA
ENDBRANCH  58  59
ENDBRANCH  26  51
BRANCH  38  63
ATOM     63  C   UNL A   1      48.152  27.753  30.240  1.00  0.00     0.058 A 
ATOM     64  C   UNL A   1      48.693  27.292  31.450  1.00  0.00     0.135 A 
ATOM     65  C   UNL A   1      49.040  28.059  29.197  1.00  0.00     0.135 A 
ATOM     66  F   UNL A   1      47.886  26.993  32.481  1.00  0.00    -0.206 F 
ATOM     67  C   UNL A   1      50.066  27.166  31.630  1.00  0.00     0.059 A 
ATOM     68  C   UNL A   1      50.416  27.920  29.347  1.00  0.00     0.059 A 
ATOM     69  F   UNL A   1      48.572  28.495  28.018  1.00  0.00    -0.206 F 
ATOM     70  C   UNL A   1      50.920  27.487  30.573  1.00  0.00     0.060 A 
BRANCH  70  71
ATOM     71  S   UNL A   1      52.702  27.309  30.807  1.00  0.00     0.124 S 
ATOM     72  O   UNL A   1      52.804  25.914  31.225  1.00  0.00    -0.237 OA
ATOM     73  O   UNL A   1      53.228  27.613  29.480  1.00  0.00    -0.237 OA
ATOM     74  O   UNL A   1      53.008  28.298  31.837  1.00  0.00    -0.744 OA
ENDBRANCH  70  71
ENDBRANCH  38  63
ENDBRANCH  12  13
ENDBRANCH   5   7
ENDBRANCH   2   3
ENDBRANCH   1   2
BRANCH   1  75
ATOM     75  C   UNL A   1      37.131  33.430  29.219  1.00  0.00     0.023 C 
BRANCH  75  76
ATOM     76  C   UNL A   1      37.226  33.399  30.743  1.00  0.00     0.116 C 
BRANCH  76  77
ATOM     77  N   UNL A   1      36.594  34.541  31.381  1.00  0.00    -0.353 N 
ATOM     78  C   UNL A   1      35.905  34.615  32.568  1.00  0.00     0.265 C 
ATOM     79  H   UNL A   1      36.671  35.390  30.889  1.00  0.00     0.163 HD
ATOM     80  O   UNL A   1      35.551  35.740  32.937  1.00  0.00    -0.271 OA
BRANCH  78  81
ATOM     81  C   UNL A   1      35.605  33.326  33.353  1.00  0.00     0.319 C 
ATOM     82  F   UNL A   1      34.329  33.302  33.833  1.00  0.00    -0.224 F 
BRANCH  81  83
ATOM     83  S   UNL A   1      36.804  33.036  34.685  1.00  0.00    -0.061 SA
BRANCH  83  84
ATOM     84  C   UNL A   1      37.785  31.763  34.052  1.00  0.00     0.076 A 
ATOM     85  C   UNL A   1      39.144  31.574  34.042  1.00  0.00     0.043 A 
ATOM     86  N   UNL A   1      37.189  30.667  33.494  1.00  0.00    -0.350 N 
ATOM     87  C   UNL A   1      39.385  30.275  33.510  1.00  0.00     0.001 A 
ATOM     88  C   UNL A   1      38.143  29.719  33.195  1.00  0.00     0.046 A 
ATOM     89  H   UNL A   1      36.224  30.570  33.329  1.00  0.00     0.167 HD
ATOM     90  C   UNL A   1      40.546  29.512  33.282  1.00  0.00     0.010 A 
ATOM     91  C   UNL A   1      38.004  28.427  32.675  1.00  0.00     0.027 A 
ATOM     92  C   UNL A   1      40.424  28.216  32.766  1.00  0.00     0.001 A 
ATOM     93  C   UNL A   1      39.170  27.683  32.471  1.00  0.00     0.002 A 
ENDBRANCH  83  84
ENDBRANCH  81  83
ENDBRANCH  78  81
ENDBRANCH  76  77
ENDBRANCH  75  76
ENDBRANCH   1  75
TORSDOF 16
ENDMDL
MODEL 2
REMARK VINA RESULT:      -9.9      5.465     11.614
REMARK SMILES O=C(NCCCCNC(=O)[C@H](F)Sc1cc2ccccc2[nH]1)c1ccc(-c2c3nc(c(-c4c(F)cc(S(=O)(=O)[O-])cc4F)c4ccc([nH]4)c(-c4c(F)cc(S(=O)(=O)[O-])cc4F)c4nc(c(-c5c(F)cc(S(=O)(=O)[O-])cc5F)c5ccc2[nH]5)C=C4)C=C3)cc1
REMARK SMILES IDX 5 1 4 2 3 3 1 4 2 5 23 7 24 8 88 9 25 10 87 11 26 12 27 13
REMARK SMILES IDX 28 14 81 15 29 16 86 17 80 18 82 19 30 20 85 21 79 22 78 23
REMARK SMILES IDX 31 25 65 26 44 27 64 28 45 29 48 30 63 31 83 32 46 33 47 34
REMARK SMILES IDX 62 36 84 37 49 38 32 39 33 40 42 41 34 42 35 43 41 44 43 45
REMARK SMILES IDX 36 46 37 47 38 48 39 49 40 50 66 51 67 52 76 53 68 54 69 55
REMARK SMILES IDX 75 56 77 57 70 58 71 59 72 60 73 61 74 62 50 63 51 64 60 65
REMARK SMILES IDX 52 66 53 67 59 68 61 69 54 70 55 71 56 72 57 73 58 74 6 75
REMARK SMILES IDX 7 76 8 77 9 78 10 80 11 81 12 82 13 83 14 84 15 85 22 86
REMARK SMILES IDX 16 87 21 88 17 90 20 91 18 92 19 93
REMARK H PARENT 3 6 82 24 48 35 8 79 22 89
REMARK Flexibility Score: inf
ROOT
ATOM      1  C   UNL A   1      40.023  22.322  27.156  1.00  0.00     0.023 C 
ENDROOT
BRANCH   1   2
ATOM      2  C   UNL A   1      41.374  23.028  27.148  1.00  0.00     0.116 C 
BRANCH   2   3
ATOM      3  N   UNL A   1      41.533  23.968  26.048  1.00  0.00    -0.352 N 
ATOM      4  O   UNL A   1      41.554  25.963  25.002  1.00  0.00    -0.269 OA
ATOM      5  C   UNL A   1      41.499  25.344  26.062  1.00  0.00     0.251 C 
ATOM      6  H   UNL A   1      41.686  23.558  25.166  1.00  0.00     0.163 HD
BRANCH   5   7
ATOM      7  C   UNL A   1      41.355  26.075  27.342  1.00  0.00     0.039 A 
ATOM      8  C   UNL A   1      40.209  25.933  28.127  1.00  0.00     0.014 A 
ATOM      9  C   UNL A   1      42.381  26.931  27.753  1.00  0.00     0.014 A 
ATOM     10  C   UNL A   1      40.016  26.770  29.223  1.00  0.00     0.010 A 
ATOM     11  C   UNL A   1      42.218  27.713  28.902  1.00  0.00     0.010 A 
ATOM     12  C   UNL A   1      41.013  27.677  29.619  1.00  0.00    -0.014 A 
BRANCH  12  13
ATOM     13  C   UNL A   1      40.767  28.571  30.783  1.00  0.00     0.031 A 
ATOM     14  C   UNL A   1      41.641  28.507  32.009  1.00  0.00     0.074 A 
ATOM     15  C   UNL A   1      39.776  29.481  30.713  1.00  0.00     0.049 A 
ATOM     16  N   UNL A   1      41.606  29.251  33.086  1.00  0.00    -0.248 NA
ATOM     17  C   UNL A   1      42.685  27.471  32.034  1.00  0.00     0.031 C 
ATOM     18  C   UNL A   1      38.850  29.633  29.587  1.00  0.00     0.029 A 
ATOM     19  N   UNL A   1      39.395  30.465  31.590  1.00  0.00    -0.354 N 
ATOM     20  C   UNL A   1      42.598  28.758  33.927  1.00  0.00     0.074 A 
ATOM     21  C   UNL A   1      43.207  27.638  33.242  1.00  0.00     0.031 C 
ATOM     22  C   UNL A   1      38.047  30.682  29.817  1.00  0.00     0.029 A 
ATOM     23  C   UNL A   1      38.367  31.249  31.123  1.00  0.00     0.049 A 
ATOM     24  H   UNL A   1      39.818  30.597  32.469  1.00  0.00     0.167 HD
ATOM     25  C   UNL A   1      42.971  29.202  35.151  1.00  0.00     0.037 A 
ATOM     26  C   UNL A   1      37.750  32.308  31.681  1.00  0.00     0.037 A 
ATOM     27  C   UNL A   1      42.386  30.338  35.817  1.00  0.00     0.049 A 
ATOM     28  C   UNL A   1      38.198  32.794  33.029  1.00  0.00     0.074 A 
ATOM     29  C   UNL A   1      42.727  30.891  37.040  1.00  0.00     0.029 A 
ATOM     30  N   UNL A   1      41.339  31.097  35.317  1.00  0.00    -0.354 N 
ATOM     31  N   UNL A   1      39.159  32.333  33.793  1.00  0.00    -0.248 NA
ATOM     32  C   UNL A   1      37.477  33.944  33.590  1.00  0.00     0.031 C 
ATOM     33  C   UNL A   1      41.866  31.965  37.293  1.00  0.00     0.029 A 
ATOM     34  C   UNL A   1      41.014  32.105  36.210  1.00  0.00     0.049 A 
ATOM     35  H   UNL A   1      40.894  30.944  34.452  1.00  0.00     0.167 HD
ATOM     36  C   UNL A   1      39.174  33.151  34.916  1.00  0.00     0.074 A 
ATOM     37  C   UNL A   1      38.132  34.140  34.727  1.00  0.00     0.031 C 
ATOM     38  C   UNL A   1      39.978  33.087  36.005  1.00  0.00     0.037 A 
BRANCH  25  39
ATOM     39  C   UNL A   1      44.058  28.445  35.865  1.00  0.00     0.058 A 
ATOM     40  C   UNL A   1      43.771  27.382  36.736  1.00  0.00     0.135 A 
ATOM     41  C   UNL A   1      45.408  28.770  35.651  1.00  0.00     0.135 A 
ATOM     42  F   UNL A   1      42.498  27.039  36.987  1.00  0.00    -0.206 F 
ATOM     43  C   UNL A   1      44.783  26.689  37.395  1.00  0.00     0.059 A 
ATOM     44  C   UNL A   1      46.436  28.076  36.280  1.00  0.00     0.059 A 
ATOM     45  F   UNL A   1      45.738  29.775  34.824  1.00  0.00    -0.206 F 
ATOM     46  C   UNL A   1      46.113  27.048  37.165  1.00  0.00     0.060 A 
BRANCH  46  47
ATOM     47  S   UNL A   1      47.416  26.151  38.036  1.00  0.00     0.124 S 
ATOM     48  O   UNL A   1      47.208  24.792  37.548  1.00  0.00    -0.237 OA
ATOM     49  O   UNL A   1      48.627  26.814  37.562  1.00  0.00    -0.237 OA
ATOM     50  O   UNL A   1      47.097  26.371  39.443  1.00  0.00    -0.744 OA
ENDBRANCH  46  47
ENDBRANCH  25  39
BRANCH  26  51
ATOM     51  C   UNL A   1      36.661  32.995  30.941  1.00  0.00     0.058 A 
ATOM     52  C   UNL A   1      35.321  32.836  31.322  1.00  0.00     0.135 A 
ATOM     53  C   UNL A   1      36.942  33.850  29.865  1.00  0.00     0.135 A 
ATOM     54  F   UNL A   1      35.005  32.025  32.342  1.00  0.00    -0.206 F 
ATOM     55  C   UNL A   1      34.293  33.496  30.656  1.00  0.00     0.059 A 
ATOM     56  C   UNL A   1      35.933  34.539  29.199  1.00  0.00     0.059 A 
ATOM     57  F   UNL A   1      38.211  34.047  29.475  1.00  0.00    -0.206 F 
ATOM     58  C   UNL A   1      34.611  34.349  29.598  1.00  0.00     0.060 A 
BRANCH  58  59
ATOM     59  S   UNL A   1      33.279  35.257  28.783  1.00  0.00     0.124 S 
ATOM     60  O   UNL A   1      32.534  35.770  29.927  1.00  0.00    -0.237 OA
ATOM     61  O   UNL A   1      34.012  36.248  28.002  1.00  0.00    -0.237 OA
ATOM     62  O   UNL A   1      32.606  34.226  27.999  1.00  0.00    -0.744 OA
ENDBRANCH  58  59
ENDBRANCH  26  51
BRANCH  38  63
ATOM     63  C   UNL A   1      39.787  34.140  37.059  1.00  0.00     0.058 A 
ATOM     64  C   UNL A   1      40.343  35.422  36.928  1.00  0.00     0.135 A 
ATOM     65  C   UNL A   1      39.021  33.869  38.204  1.00  0.00     0.135 A 
ATOM     66  F   UNL A   1      41.090  35.729  35.855  1.00  0.00    -0.206 F 
ATOM     67  C   UNL A   1      40.169  36.392  37.909  1.00  0.00     0.059 A 
ATOM     68  C   UNL A   1      38.816  34.831  39.187  1.00  0.00     0.059 A 
ATOM     69  F   UNL A   1      38.461  32.661  38.371  1.00  0.00    -0.206 F 
ATOM     70  C   UNL A   1      39.408  36.085  39.038  1.00  0.00     0.060 A 
BRANCH  70  71
ATOM     71  S   UNL A   1      39.173  37.352  40.304  1.00  0.00     0.124 S 
ATOM     72  O   UNL A   1      38.328  38.313  39.601  1.00  0.00    -0.237 OA
ATOM     73  O   UNL A   1      38.528  36.609  41.381  1.00  0.00    -0.237 OA
ATOM     74  O   UNL A   1      40.533  37.801  40.588  1.00  0.00    -0.744 OA
ENDBRANCH  70  71
ENDBRANCH  38  63
ENDBRANCH  12  13
ENDBRANCH   5   7
ENDBRANCH   2   3
ENDBRANCH   1   2
BRANCH   1  75
ATOM     75  C   UNL A   1      39.001  22.817  26.134  1.00  0.00     0.023 C 
BRANCH  75  76
ATOM     76  C   UNL A   1      37.920  21.814  25.735  1.00  0.00     0.116 C 
BRANCH  76  77
ATOM     77  N   UNL A   1      37.403  22.030  24.395  1.00  0.00    -0.353 N 
ATOM     78  C   UNL A   1      36.350  22.806  23.973  1.00  0.00     0.265 C 
ATOM     79  H   UNL A   1      37.878  21.546  23.681  1.00  0.00     0.163 HD
ATOM     80  O   UNL A   1      36.179  22.897  22.753  1.00  0.00    -0.271 OA
BRANCH  78  81
ATOM     81  C   UNL A   1      35.453  23.498  25.014  1.00  0.00     0.319 C 
ATOM     82  F   UNL A   1      36.061  24.584  25.574  1.00  0.00    -0.224 F 
BRANCH  81  83
ATOM     83  S   UNL A   1      34.872  22.350  26.296  1.00  0.00    -0.061 SA
BRANCH  83  84
ATOM     84  C   UNL A   1      34.176  21.065  25.376  1.00  0.00     0.076 A 
ATOM     85  C   UNL A   1      33.100  21.029  24.524  1.00  0.00     0.043 A 
ATOM     86  N   UNL A   1      34.768  19.835  25.381  1.00  0.00    -0.350 N 
ATOM     87  C   UNL A   1      33.073  19.733  23.935  1.00  0.00     0.001 A 
ATOM     88  C   UNL A   1      34.142  19.011  24.471  1.00  0.00     0.046 A 
ATOM     89  H   UNL A   1      35.528  19.574  25.950  1.00  0.00     0.167 HD
ATOM     90  C   UNL A   1      32.246  19.110  22.980  1.00  0.00     0.010 A 
ATOM     91  C   UNL A   1      34.434  17.697  24.088  1.00  0.00     0.027 A 
ATOM     92  C   UNL A   1      32.528  17.797  22.582  1.00  0.00     0.001 A 
ATOM     93  C   UNL A   1      33.608  17.105  23.127  1.00  0.00     0.002 A 
ENDBRANCH  83  84
ENDBRANCH  81  83
ENDBRANCH  78  81
ENDBRANCH  76  77
ENDBRANCH  75  76
ENDBRANCH   1  75
TORSDOF 16
ENDMDL
MODEL 3
REMARK VINA RESULT:      -9.9      1.539      2.530
REMARK SMILES O=C(NCCCCNC(=O)[C@H](F)Sc1cc2ccccc2[nH]1)c1ccc(-c2c3nc(c(-c4c(F)cc(S(=O)(=O)[O-])cc4F)c4ccc([nH]4)c(-c4c(F)cc(S(=O)(=O)[O-])cc4F)c4nc(c(-c5c(F)cc(S(=O)(=O)[O-])cc5F)c5ccc2[nH]5)C=C4)C=C3)cc1
REMARK SMILES IDX 5 1 4 2 3 3 1 4 2 5 23 7 24 8 88 9 25 10 87 11 26 12 27 13
REMARK SMILES IDX 28 14 81 15 29 16 86 17 80 18 82 19 30 20 85 21 79 22 78 23
REMARK SMILES IDX 31 25 65 26 44 27 64 28 45 29 48 30 63 31 83 32 46 33 47 34
REMARK SMILES IDX 62 36 84 37 49 38 32 39 33 40 42 41 34 42 35 43 41 44 43 45
REMARK SMILES IDX 36 46 37 47 38 48 39 49 40 50 66 51 67 52 76 53 68 54 69 55
REMARK SMILES IDX 75 56 77 57 70 58 71 59 72 60 73 61 74 62 50 63 51 64 60 65
REMARK SMILES IDX 52 66 53 67 59 68 61 69 54 70 55 71 56 72 57 73 58 74 6 75
REMARK SMILES IDX 7 76 8 77 9 78 10 80 11 81 12 82 13 83 14 84 15 85 22 86
REMARK SMILES IDX 16 87 21 88 17 90 20 91 18 92 19 93
REMARK H PARENT 3 6 82 24 48 35 8 79 22 89
REMARK Flexibility Score: inf
ROOT
ATOM      1  C   UNL A   1      35.305  33.107  28.025  1.00  0.00     0.023 C 
ENDROOT
BRANCH   1   2
ATOM      2  C   UNL A   1      34.770  32.088  29.024  1.00  0.00     0.116 C 
BRANCH   2   3
ATOM      3  N   UNL A   1      34.287  30.864  28.404  1.00  0.00    -0.352 N 
ATOM      4  O   UNL A   1      34.408  28.842  27.417  1.00  0.00    -0.269 OA
ATOM      5  C   UNL A   1      34.986  29.741  28.022  1.00  0.00     0.251 C 
ATOM      6  H   UNL A   1      33.318  30.835  28.232  1.00  0.00     0.163 HD
BRANCH   5   7
ATOM      7  C   UNL A   1      36.437  29.634  28.303  1.00  0.00     0.039 A 
ATOM      8  C   UNL A   1      37.385  29.967  27.332  1.00  0.00     0.014 A 
ATOM      9  C   UNL A   1      36.854  29.176  29.556  1.00  0.00     0.014 A 
ATOM     10  C   UNL A   1      38.729  29.679  27.553  1.00  0.00     0.010 A 
ATOM     11  C   UNL A   1      38.214  28.963  29.804  1.00  0.00     0.010 A 
ATOM     12  C   UNL A   1      39.160  29.164  28.787  1.00  0.00    -0.014 A 
BRANCH  12  13
ATOM     13  C   UNL A   1      40.601  28.850  28.983  1.00  0.00     0.031 A 
ATOM     14  C   UNL A   1      41.167  27.515  28.572  1.00  0.00     0.074 A 
ATOM     15  C   UNL A   1      41.414  29.795  29.493  1.00  0.00     0.049 A 
ATOM     16  N   UNL A   1      42.408  27.097  28.615  1.00  0.00    -0.248 NA
ATOM     17  C   UNL A   1      40.220  26.517  28.050  1.00  0.00     0.031 C 
ATOM     18  C   UNL A   1      40.985  31.121  29.944  1.00  0.00     0.029 A 
ATOM     19  N   UNL A   1      42.772  29.799  29.695  1.00  0.00    -0.354 N 
ATOM     20  C   UNL A   1      42.388  25.785  28.156  1.00  0.00     0.074 A 
ATOM     21  C   UNL A   1      41.008  25.467  27.857  1.00  0.00     0.031 C 
ATOM     22  C   UNL A   1      42.062  31.828  30.317  1.00  0.00     0.029 A 
ATOM     23  C   UNL A   1      43.251  30.994  30.177  1.00  0.00     0.049 A 
ATOM     24  H   UNL A   1      43.346  29.021  29.512  1.00  0.00     0.167 HD
ATOM     25  C   UNL A   1      43.423  24.926  27.993  1.00  0.00     0.037 A 
ATOM     26  C   UNL A   1      44.507  31.378  30.472  1.00  0.00     0.037 A 
ATOM     27  C   UNL A   1      44.801  25.254  28.260  1.00  0.00     0.049 A 
ATOM     28  C   UNL A   1      45.640  30.415  30.261  1.00  0.00     0.074 A 
ATOM     29  C   UNL A   1      45.926  24.465  28.084  1.00  0.00     0.029 A 
ATOM     30  N   UNL A   1      45.244  26.470  28.759  1.00  0.00    -0.354 N 
ATOM     31  N   UNL A   1      45.603  29.190  29.797  1.00  0.00    -0.248 NA
ATOM     32  C   UNL A   1      46.984  30.889  30.614  1.00  0.00     0.031 C 
ATOM     33  C   UNL A   1      47.044  25.194  28.505  1.00  0.00     0.029 A 
ATOM     34  C   UNL A   1      46.621  26.449  28.908  1.00  0.00     0.049 A 
ATOM     35  H   UNL A   1      44.664  27.236  28.974  1.00  0.00     0.167 HD
ATOM     36  C   UNL A   1      46.921  28.752  29.781  1.00  0.00     0.074 A 
ATOM     37  C   UNL A   1      47.732  29.847  30.272  1.00  0.00     0.031 C 
ATOM     38  C   UNL A   1      47.415  27.551  29.393  1.00  0.00     0.037 A 
BRANCH  25  39
ATOM     39  C   UNL A   1      43.106  23.535  27.517  1.00  0.00     0.058 A 
ATOM     40  C   UNL A   1      42.639  22.541  28.391  1.00  0.00     0.135 A 
ATOM     41  C   UNL A   1      43.245  23.200  26.160  1.00  0.00     0.135 A 
ATOM     42  F   UNL A   1      42.501  22.803  29.700  1.00  0.00    -0.206 F 
ATOM     43  C   UNL A   1      42.351  21.255  27.943  1.00  0.00     0.059 A 
ATOM     44  C   UNL A   1      42.941  21.928  25.685  1.00  0.00     0.059 A 
ATOM     45  F   UNL A   1      43.684  24.114  25.280  1.00  0.00    -0.206 F 
ATOM     46  C   UNL A   1      42.511  20.956  26.588  1.00  0.00     0.060 A 
BRANCH  46  47
ATOM     47  S   UNL A   1      42.148  19.281  26.020  1.00  0.00     0.124 S 
ATOM     48  O   UNL A   1      42.548  18.490  27.178  1.00  0.00    -0.237 OA
ATOM     49  O   UNL A   1      40.713  19.340  25.759  1.00  0.00    -0.237 OA
ATOM     50  O   UNL A   1      42.990  19.134  24.836  1.00  0.00    -0.744 OA
ENDBRANCH  46  47
ENDBRANCH  25  39
BRANCH  26  51
ATOM     51  C   UNL A   1      44.754  32.756  30.970  1.00  0.00     0.058 A 
ATOM     52  C   UNL A   1      44.779  33.030  32.344  1.00  0.00     0.135 A 
ATOM     53  C   UNL A   1      45.006  33.813  30.083  1.00  0.00     0.135 A 
ATOM     54  F   UNL A   1      44.539  32.050  33.229  1.00  0.00    -0.206 F 
ATOM     55  C   UNL A   1      45.038  34.309  32.826  1.00  0.00     0.059 A 
ATOM     56  C   UNL A   1      45.292  35.096  30.541  1.00  0.00     0.059 A 
ATOM     57  F   UNL A   1      45.011  33.595  28.759  1.00  0.00    -0.206 F 
ATOM     58  C   UNL A   1      45.297  35.335  31.915  1.00  0.00     0.060 A 
BRANCH  58  59
ATOM     59  S   UNL A   1      45.701  36.977  32.547  1.00  0.00     0.124 S 
ATOM     60  O   UNL A   1      44.737  37.117  33.633  1.00  0.00    -0.237 OA
ATOM     61  O   UNL A   1      47.095  36.821  32.948  1.00  0.00    -0.237 OA
ATOM     62  O   UNL A   1      45.483  37.842  31.391  1.00  0.00    -0.744 OA
ENDBRANCH  58  59
ENDBRANCH  26  51
BRANCH  38  63
ATOM     63  C   UNL A   1      48.906  27.373  29.449  1.00  0.00     0.058 A 
ATOM     64  C   UNL A   1      49.536  26.787  30.558  1.00  0.00     0.135 A 
ATOM     65  C   UNL A   1      49.710  27.775  28.371  1.00  0.00     0.135 A 
ATOM     66  F   UNL A   1      48.812  26.393  31.617  1.00  0.00    -0.206 F 
ATOM     67  C   UNL A   1      50.917  26.632  30.608  1.00  0.00     0.059 A 
ATOM     68  C   UNL A   1      51.091  27.609  28.391  1.00  0.00     0.059 A 
ATOM     69  F   UNL A   1      49.153  28.332  27.285  1.00  0.00    -0.206 F 
ATOM     70  C   UNL A   1      51.687  27.051  29.521  1.00  0.00     0.060 A 
BRANCH  70  71
ATOM     71  S   UNL A   1      53.479  26.833  29.586  1.00  0.00     0.124 S 
ATOM     72  O   UNL A   1      53.633  26.045  30.805  1.00  0.00    -0.237 OA
ATOM     73  O   UNL A   1      53.758  26.131  28.337  1.00  0.00    -0.237 OA
ATOM     74  O   UNL A   1      53.982  28.202  29.654  1.00  0.00    -0.744 OA
ENDBRANCH  70  71
ENDBRANCH  38  63
ENDBRANCH  12  13
ENDBRANCH   5   7
ENDBRANCH   2   3
ENDBRANCH   1   2
BRANCH   1  75
ATOM     75  C   UNL A   1      34.791  34.537  28.184  1.00  0.00     0.023 C 
BRANCH  75  76
ATOM     76  C   UNL A   1      33.699  34.739  29.232  1.00  0.00     0.116 C 
BRANCH  76  77
ATOM     77  N   UNL A   1      33.401  36.137  29.490  1.00  0.00    -0.353 N 
ATOM     78  C   UNL A   1      33.070  36.762  30.668  1.00  0.00     0.265 C 
ATOM     79  H   UNL A   1      33.442  36.725  28.702  1.00  0.00     0.163 HD
ATOM     80  O   UNL A   1      32.963  37.993  30.634  1.00  0.00    -0.271 OA
BRANCH  78  81
ATOM     81  C   UNL A   1      32.844  35.921  31.936  1.00  0.00     0.319 C 
ATOM     82  F   UNL A   1      31.554  35.992  32.376  1.00  0.00    -0.224 F 
BRANCH  81  83
ATOM     83  S   UNL A   1      34.005  36.349  33.265  1.00  0.00    -0.061 SA
BRANCH  83  84
ATOM     84  C   UNL A   1      35.165  35.072  33.190  1.00  0.00     0.076 A 
ATOM     85  C   UNL A   1      35.456  34.049  34.057  1.00  0.00     0.043 A 
ATOM     86  N   UNL A   1      35.942  34.931  32.075  1.00  0.00    -0.350 N 
ATOM     87  C   UNL A   1      36.410  33.210  33.414  1.00  0.00     0.001 A 
ATOM     88  C   UNL A   1      36.682  33.772  32.164  1.00  0.00     0.046 A 
ATOM     89  H   UNL A   1      35.971  35.563  31.322  1.00  0.00     0.167 HD
ATOM     90  C   UNL A   1      37.057  32.011  33.772  1.00  0.00     0.010 A 
ATOM     91  C   UNL A   1      37.561  33.186  31.247  1.00  0.00     0.027 A 
ATOM     92  C   UNL A   1      37.937  31.410  32.864  1.00  0.00     0.001 A 
ATOM     93  C   UNL A   1      38.180  31.989  31.619  1.00  0.00     0.002 A 
ENDBRANCH  83  84
ENDBRANCH  81  83
ENDBRANCH  78  81
ENDBRANCH  76  77
ENDBRANCH  75  76
ENDBRANCH   1  75
TORSDOF 16
ENDMDL
