MODEL 1
REMARK VINA RESULT:     -11.3      0.000      0.000
REMARK SMILES CC[C@H]1SC[C@H](C(=O)NCCCCNC(=O)c2ccc(-c3c4nc(c(-c5c(F)cc(S(=O)(=O)[O-])cc5F)c5ccc([nH]5)c(-c5c(F)cc(S(=O)(=O)[O-])cc5F)c5nc(c(-c6c(F)cc(S(=O)(=O)[O-])cc6F)c6ccc3[nH]6)C=C5)C=C4)cc2)N1C(=O)Cc1ccc(F)c(F)c1
REMARK SMILES IDX 11 1 10 2 9 3 7 4 8 5 6 7 3 8 4 9 83 10 5 11 2 12 1 13 84 14
REMARK SMILES IDX 85 15 86 16 87 17 88 18 94 19 89 20 92 21 90 22 93 23 91 24
REMARK SMILES IDX 12 25 13 26 14 27 15 28 16 30 17 31 18 32 82 33 19 34 81 35
REMARK SMILES IDX 20 36 21 37 22 38 75 39 23 40 80 41 74 42 76 43 24 44 79 45
REMARK SMILES IDX 73 46 72 47 25 49 59 50 38 51 58 52 39 53 42 54 57 55 77 56
REMARK SMILES IDX 40 57 41 58 56 60 78 61 43 62 26 63 27 64 36 65 28 66 29 67
REMARK SMILES IDX 35 68 37 69 30 70 31 71 32 72 33 73 34 74 60 75 61 76 70 77
REMARK SMILES IDX 62 78 63 79 69 80 71 81 64 82 65 83 66 84 67 85 68 86 44 87
REMARK SMILES IDX 45 88 54 89 46 90 47 91 53 92 55 93 48 94 49 95 50 96 51 97
REMARK SMILES IDX 52 98
REMARK H PARENT 9 6 14 29 76 48 42 59
REMARK Flexibility Score: inf
ROOT
ATOM      1  C   UNL A   1      37.442  21.918  24.609  1.00  0.00     0.023 C 
ENDROOT
BRANCH   1   2
ATOM      2  C   UNL A   1      37.025  22.848  25.745  1.00  0.00     0.116 C 
BRANCH   2   3
ATOM      3  N   UNL A   1      35.971  22.272  26.553  1.00  0.00    -0.354 N 
ATOM      4  C   UNL A   1      34.619  22.235  26.395  1.00  0.00     0.243 C 
ATOM      5  O   UNL A   1      33.963  21.824  27.360  1.00  0.00    -0.273 OA
ATOM      6  H   UNL A   1      36.291  21.823  27.369  1.00  0.00     0.163 HD
BRANCH   4   7
ATOM      7  C   UNL A   1      33.876  22.852  25.185  1.00  0.00     0.185 C 
ATOM      8  C   UNL A   1      31.487  22.876  24.528  1.00  0.00     0.143 C 
ATOM      9  S   UNL A   1      32.118  21.257  23.994  1.00  0.00    -0.134 SA
ATOM     10  N   UNL A   1      32.528  23.390  25.426  1.00  0.00    -0.318 N 
ATOM     11  C   UNL A   1      33.836  21.807  24.068  1.00  0.00     0.107 C 
BRANCH   8  12
ATOM     12  C   UNL A   1      31.224  23.855  23.359  1.00  0.00     0.033 C 
ATOM     13  C   UNL A   1      30.166  24.934  23.552  1.00  0.00     0.007 C 
ENDBRANCH   8  12
BRANCH  10  14
ATOM     14  C   UNL A   1      32.403  24.425  26.336  1.00  0.00     0.228 C 
ATOM     15  O   UNL A   1      31.511  24.423  27.188  1.00  0.00    -0.274 OA
BRANCH  14  16
ATOM     16  C   UNL A   1      33.329  25.624  26.219  1.00  0.00     0.135 C 
BRANCH  16  17
ATOM     17  C   UNL A   1      32.975  26.616  25.141  1.00  0.00    -0.036 A 
ATOM     18  C   UNL A   1      33.633  26.634  23.900  1.00  0.00     0.007 A 
ATOM     19  C   UNL A   1      31.984  27.579  25.397  1.00  0.00     0.046 A 
ATOM     20  C   UNL A   1      33.254  27.540  22.908  1.00  0.00     0.043 A 
ATOM     21  C   UNL A   1      31.621  28.487  24.407  1.00  0.00     0.159 A 
ATOM     22  C   UNL A   1      32.243  28.458  23.166  1.00  0.00     0.158 A 
ATOM     23  F   UNL A   1      30.658  29.383  24.661  1.00  0.00    -0.204 F 
ATOM     24  F   UNL A   1      31.872  29.316  22.206  1.00  0.00    -0.204 F 
ENDBRANCH  16  17
ENDBRANCH  14  16
ENDBRANCH  10  14
ENDBRANCH   4   7
ENDBRANCH   2   3
ENDBRANCH   1   2
BRANCH   1  25
ATOM     25  C   UNL A   1      38.102  20.619  25.066  1.00  0.00     0.023 C 
BRANCH  25  26
ATOM     26  C   UNL A   1      39.317  20.790  25.971  1.00  0.00     0.116 C 
BRANCH  26  27
ATOM     27  N   UNL A   1      40.180  19.617  26.018  1.00  0.00    -0.352 N 
ATOM     28  C   UNL A   1      41.544  19.578  26.185  1.00  0.00     0.251 C 
ATOM     29  H   UNL A   1      39.731  18.747  25.920  1.00  0.00     0.163 HD
ATOM     30  O   UNL A   1      42.149  18.512  26.124  1.00  0.00    -0.269 OA
BRANCH  28  31
ATOM     31  C   UNL A   1      42.268  20.847  26.390  1.00  0.00     0.039 A 
ATOM     32  C   UNL A   1      42.643  21.598  25.276  1.00  0.00     0.014 A 
ATOM     33  C   UNL A   1      42.492  21.326  27.683  1.00  0.00     0.014 A 
ATOM     34  C   UNL A   1      43.178  22.874  25.459  1.00  0.00     0.010 A 
ATOM     35  C   UNL A   1      42.962  22.623  27.861  1.00  0.00     0.010 A 
ATOM     36  C   UNL A   1      43.303  23.412  26.751  1.00  0.00    -0.014 A 
BRANCH  36  37
ATOM     37  C   UNL A   1      43.780  24.800  26.968  1.00  0.00     0.031 A 
ATOM     38  C   UNL A   1      45.234  25.128  26.775  1.00  0.00     0.074 A 
ATOM     39  C   UNL A   1      42.922  25.739  27.414  1.00  0.00     0.049 A 
ATOM     40  N   UNL A   1      45.864  26.250  27.008  1.00  0.00    -0.248 NA
ATOM     41  C   UNL A   1      46.100  24.043  26.285  1.00  0.00     0.031 C 
ATOM     42  C   UNL A   1      41.500  25.525  27.697  1.00  0.00     0.029 A 
ATOM     43  N   UNL A   1      43.124  27.060  27.728  1.00  0.00    -0.354 N 
ATOM     44  C   UNL A   1      47.200  26.001  26.717  1.00  0.00     0.074 A 
ATOM     45  C   UNL A   1      47.297  24.610  26.331  1.00  0.00     0.031 C 
ATOM     46  C   UNL A   1      40.957  26.676  28.126  1.00  0.00     0.029 A 
ATOM     47  C   UNL A   1      41.995  27.701  28.181  1.00  0.00     0.049 A 
ATOM     48  H   UNL A   1      43.997  27.507  27.637  1.00  0.00     0.167 HD
ATOM     49  C   UNL A   1      48.245  26.861  26.746  1.00  0.00     0.037 A 
ATOM     50  C   UNL A   1      41.819  28.969  28.598  1.00  0.00     0.037 A 
ATOM     51  C   UNL A   1      48.134  28.254  27.086  1.00  0.00     0.049 A 
ATOM     52  C   UNL A   1      42.991  29.913  28.588  1.00  0.00     0.074 A 
ATOM     53  C   UNL A   1      49.121  29.223  27.076  1.00  0.00     0.029 A 
ATOM     54  N   UNL A   1      46.962  28.878  27.489  1.00  0.00    -0.354 N 
ATOM     55  N   UNL A   1      44.236  29.676  28.247  1.00  0.00    -0.248 NA
ATOM     56  C   UNL A   1      42.737  31.297  29.014  1.00  0.00     0.031 C 
ATOM     57  C   UNL A   1      48.552  30.429  27.500  1.00  0.00     0.029 A 
ATOM     58  C   UNL A   1      47.204  30.218  27.740  1.00  0.00     0.049 A 
ATOM     59  H   UNL A   1      46.089  28.435  27.583  1.00  0.00     0.167 HD
ATOM     60  C   UNL A   1      44.905  30.886  28.389  1.00  0.00     0.074 A 
ATOM     61  C   UNL A   1      43.927  31.855  28.838  1.00  0.00     0.031 C 
ATOM     62  C   UNL A   1      46.212  31.170  28.168  1.00  0.00     0.037 A 
BRANCH  49  63
ATOM     63  C   UNL A   1      49.600  26.323  26.384  1.00  0.00     0.058 A 
ATOM     64  C   UNL A   1      50.129  26.479  25.093  1.00  0.00     0.135 A 
ATOM     65  C   UNL A   1      50.399  25.689  27.347  1.00  0.00     0.135 A 
ATOM     66  F   UNL A   1      49.398  27.062  24.128  1.00  0.00    -0.206 F 
ATOM     67  C   UNL A   1      51.395  26.007  24.764  1.00  0.00     0.059 A 
ATOM     68  C   UNL A   1      51.678  25.231  27.048  1.00  0.00     0.059 A 
ATOM     69  F   UNL A   1      49.939  25.512  28.597  1.00  0.00    -0.206 F 
ATOM     70  C   UNL A   1      52.163  25.385  25.750  1.00  0.00     0.060 A 
BRANCH  70  71
ATOM     71  S   UNL A   1      53.814  24.798  25.314  1.00  0.00     0.124 S 
ATOM     72  O   UNL A   1      54.110  25.614  24.140  1.00  0.00    -0.237 OA
ATOM     73  O   UNL A   1      54.585  25.111  26.512  1.00  0.00    -0.237 OA
ATOM     74  O   UNL A   1      53.611  23.377  25.055  1.00  0.00    -0.744 OA
ENDBRANCH  70  71
ENDBRANCH  49  63
BRANCH  50  75
ATOM     75  C   UNL A   1      40.479  29.434  29.044  1.00  0.00     0.058 A 
ATOM     76  C   UNL A   1      40.207  29.650  30.403  1.00  0.00     0.135 A 
ATOM     77  C   UNL A   1      39.444  29.662  28.125  1.00  0.00     0.135 A 
ATOM     78  F   UNL A   1      41.165  29.440  31.319  1.00  0.00    -0.206 F 
ATOM     79  C   UNL A   1      38.949  30.049  30.840  1.00  0.00     0.059 A 
ATOM     80  C   UNL A   1      38.182  30.084  28.536  1.00  0.00     0.059 A 
ATOM     81  F   UNL A   1      39.659  29.490  26.812  1.00  0.00    -0.206 F 
ATOM     82  C   UNL A   1      37.941  30.260  29.898  1.00  0.00     0.060 A 
BRANCH  82  83
ATOM     83  S   UNL A   1      36.316  30.805  30.470  1.00  0.00     0.124 S 
ATOM     84  O   UNL A   1      36.640  32.083  31.093  1.00  0.00    -0.237 OA
ATOM     85  O   UNL A   1      35.556  30.876  29.225  1.00  0.00    -0.237 OA
ATOM     86  O   UNL A   1      35.909  29.741  31.383  1.00  0.00    -0.744 OA
ENDBRANCH  82  83
ENDBRANCH  50  75
BRANCH  62  87
ATOM     87  C   UNL A   1      46.654  32.590  28.370  1.00  0.00     0.058 A 
ATOM     88  C   UNL A   1      46.608  33.530  27.329  1.00  0.00     0.135 A 
ATOM     89  C   UNL A   1      47.073  33.030  29.636  1.00  0.00     0.135 A 
ATOM     90  F   UNL A   1      46.220  33.157  26.099  1.00  0.00    -0.206 F 
ATOM     91  C   UNL A   1      46.980  34.854  27.531  1.00  0.00     0.059 A 
ATOM     92  C   UNL A   1      47.427  34.354  29.866  1.00  0.00     0.059 A 
ATOM     93  F   UNL A   1      47.124  32.171  30.667  1.00  0.00    -0.206 F 
ATOM     94  C   UNL A   1      47.388  35.257  28.805  1.00  0.00     0.060 A 
BRANCH  94  95
ATOM     95  S   UNL A   1      47.830  36.988  29.068  1.00  0.00     0.124 S 
ATOM     96  O   UNL A   1      49.055  36.862  29.850  1.00  0.00    -0.237 OA
ATOM     97  O   UNL A   1      47.996  37.481  27.705  1.00  0.00    -0.237 OA
ATOM     98  O   UNL A   1      46.679  37.526  29.785  1.00  0.00    -0.744 OA
ENDBRANCH  94  95
ENDBRANCH  62  87
ENDBRANCH  36  37
ENDBRANCH  28  31
ENDBRANCH  26  27
ENDBRANCH  25  26
ENDBRANCH   1  25
TORSDOF 18
ENDMDL
MODEL 2
REMARK VINA RESULT:     -11.3      0.536      8.262
REMARK SMILES CC[C@H]1SC[C@H](C(=O)NCCCCNC(=O)c2ccc(-c3c4nc(c(-c5c(F)cc(S(=O)(=O)[O-])cc5F)c5ccc([nH]5)c(-c5c(F)cc(S(=O)(=O)[O-])cc5F)c5nc(c(-c6c(F)cc(S(=O)(=O)[O-])cc6F)c6ccc3[nH]6)C=C5)C=C4)cc2)N1C(=O)Cc1ccc(F)c(F)c1
REMARK SMILES IDX 11 1 10 2 9 3 7 4 8 5 6 7 3 8 4 9 83 10 5 11 2 12 1 13 84 14
REMARK SMILES IDX 85 15 86 16 87 17 88 18 94 19 89 20 92 21 90 22 93 23 91 24
REMARK SMILES IDX 12 25 13 26 14 27 15 28 16 30 17 31 18 32 82 33 19 34 81 35
REMARK SMILES IDX 20 36 21 37 22 38 75 39 23 40 80 41 74 42 76 43 24 44 79 45
REMARK SMILES IDX 73 46 72 47 25 49 59 50 38 51 58 52 39 53 42 54 57 55 77 56
REMARK SMILES IDX 40 57 41 58 56 60 78 61 43 62 26 63 27 64 36 65 28 66 29 67
REMARK SMILES IDX 35 68 37 69 30 70 31 71 32 72 33 73 34 74 60 75 61 76 70 77
REMARK SMILES IDX 62 78 63 79 69 80 71 81 64 82 65 83 66 84 67 85 68 86 44 87
REMARK SMILES IDX 45 88 54 89 46 90 47 91 53 92 55 93 48 94 49 95 50 96 51 97
REMARK SMILES IDX 52 98
REMARK H PARENT 9 6 14 29 76 48 42 59
REMARK Flexibility Score: inf
ROOT
ATOM      1  C   UNL A   1      37.526  22.216  24.782  1.00  0.00     0.023 C 
ENDROOT
BRANCH   1   2
ATOM      2  C   UNL A   1      37.008  23.081  25.927  1.00  0.00     0.116 C 
BRANCH   2   3
ATOM      3  N   UNL A   1      35.972  22.408  26.684  1.00  0.00    -0.354 N 
ATOM      4  C   UNL A   1      34.637  22.258  26.465  1.00  0.00     0.243 C 
ATOM      5  O   UNL A   1      33.977  21.782  27.398  1.00  0.00    -0.273 OA
ATOM      6  H   UNL A   1      36.294  21.980  27.510  1.00  0.00     0.163 HD
BRANCH   4   7
ATOM      7  C   UNL A   1      33.898  22.820  25.228  1.00  0.00     0.185 C 
ATOM      8  C   UNL A   1      31.515  22.793  24.550  1.00  0.00     0.143 C 
ATOM      9  S   UNL A   1      32.168  21.162  24.082  1.00  0.00    -0.134 SA
ATOM     10  N   UNL A   1      32.542  23.352  25.437  1.00  0.00    -0.318 N 
ATOM     11  C   UNL A   1      33.879  21.734  24.150  1.00  0.00     0.107 C 
BRANCH   8  12
ATOM     12  C   UNL A   1      31.251  23.725  23.344  1.00  0.00     0.033 C 
ATOM     13  C   UNL A   1      30.171  24.791  23.484  1.00  0.00     0.007 C 
ENDBRANCH   8  12
BRANCH  10  14
ATOM     14  C   UNL A   1      32.398  24.418  26.307  1.00  0.00     0.228 C 
ATOM     15  O   UNL A   1      31.510  24.428  27.163  1.00  0.00    -0.274 OA
BRANCH  14  16
ATOM     16  C   UNL A   1      33.295  25.633  26.139  1.00  0.00     0.135 C 
BRANCH  16  17
ATOM     17  C   UNL A   1      32.845  26.636  25.108  1.00  0.00    -0.036 A 
ATOM     18  C   UNL A   1      31.746  27.484  25.325  1.00  0.00     0.007 A 
ATOM     19  C   UNL A   1      33.518  26.699  23.877  1.00  0.00     0.046 A 
ATOM     20  C   UNL A   1      31.379  28.430  24.366  1.00  0.00     0.043 A 
ATOM     21  C   UNL A   1      33.138  27.637  22.920  1.00  0.00     0.159 A 
ATOM     22  C   UNL A   1      32.084  28.506  23.170  1.00  0.00     0.158 A 
ATOM     23  F   UNL A   1      33.806  27.699  21.761  1.00  0.00    -0.204 F 
ATOM     24  F   UNL A   1      31.738  29.424  22.259  1.00  0.00    -0.204 F 
ENDBRANCH  16  17
ENDBRANCH  14  16
ENDBRANCH  10  14
ENDBRANCH   4   7
ENDBRANCH   2   3
ENDBRANCH   1   2
BRANCH   1  25
ATOM     25  C   UNL A   1      38.056  20.849  25.212  1.00  0.00     0.023 C 
BRANCH  25  26
ATOM     26  C   UNL A   1      39.290  20.883  26.107  1.00  0.00     0.116 C 
BRANCH  26  27
ATOM     27  N   UNL A   1      40.103  19.677  26.028  1.00  0.00    -0.352 N 
ATOM     28  C   UNL A   1      41.469  19.569  26.136  1.00  0.00     0.251 C 
ATOM     29  H   UNL A   1      39.613  18.835  25.879  1.00  0.00     0.163 HD
ATOM     30  O   UNL A   1      42.025  18.489  25.967  1.00  0.00    -0.269 OA
BRANCH  28  31
ATOM     31  C   UNL A   1      42.253  20.788  26.414  1.00  0.00     0.039 A 
ATOM     32  C   UNL A   1      42.674  21.578  25.343  1.00  0.00     0.014 A 
ATOM     33  C   UNL A   1      42.492  21.186  27.731  1.00  0.00     0.014 A 
ATOM     34  C   UNL A   1      43.271  22.814  25.597  1.00  0.00     0.010 A 
ATOM     35  C   UNL A   1      43.025  22.445  27.981  1.00  0.00     0.010 A 
ATOM     36  C   UNL A   1      43.412  23.274  26.917  1.00  0.00    -0.014 A 
BRANCH  36  37
ATOM     37  C   UNL A   1      43.957  24.623  27.210  1.00  0.00     0.031 A 
ATOM     38  C   UNL A   1      43.033  25.722  27.653  1.00  0.00     0.074 A 
ATOM     39  C   UNL A   1      45.265  24.876  26.997  1.00  0.00     0.049 A 
ATOM     40  N   UNL A   1      43.294  26.986  27.862  1.00  0.00    -0.248 NA
ATOM     41  C   UNL A   1      41.621  25.358  27.861  1.00  0.00     0.031 C 
ATOM     42  C   UNL A   1      46.249  23.907  26.509  1.00  0.00     0.029 A 
ATOM     43  N   UNL A   1      45.989  26.032  27.147  1.00  0.00    -0.354 N 
ATOM     44  C   UNL A   1      42.080  27.572  28.200  1.00  0.00     0.074 A 
ATOM     45  C   UNL A   1      41.074  26.536  28.129  1.00  0.00     0.031 C 
ATOM     46  C   UNL A   1      47.448  24.504  26.415  1.00  0.00     0.029 A 
ATOM     47  C   UNL A   1      47.314  25.904  26.804  1.00  0.00     0.049 A 
ATOM     48  H   UNL A   1      45.595  26.875  27.470  1.00  0.00     0.167 HD
ATOM     49  C   UNL A   1      41.833  28.853  28.561  1.00  0.00     0.037 A 
ATOM     50  C   UNL A   1      48.306  26.815  26.798  1.00  0.00     0.037 A 
ATOM     51  C   UNL A   1      42.845  29.868  28.676  1.00  0.00     0.049 A 
ATOM     52  C   UNL A   1      48.010  28.224  27.236  1.00  0.00     0.074 A 
ATOM     53  C   UNL A   1      42.707  31.177  29.102  1.00  0.00     0.029 A 
ATOM     54  N   UNL A   1      44.186  29.686  28.369  1.00  0.00    -0.354 N 
ATOM     55  N   UNL A   1      46.867  28.744  27.617  1.00  0.00    -0.248 NA
ATOM     56  C   UNL A   1      49.136  29.168  27.252  1.00  0.00     0.031 C 
ATOM     57  C   UNL A   1      43.960  31.795  29.028  1.00  0.00     0.029 A 
ATOM     58  C   UNL A   1      44.884  30.861  28.588  1.00  0.00     0.049 A 
ATOM     59  H   UNL A   1      44.582  28.846  28.044  1.00  0.00     0.167 HD
ATOM     60  C   UNL A   1      47.143  30.067  27.943  1.00  0.00     0.074 A 
ATOM     61  C   UNL A   1      48.562  30.265  27.724  1.00  0.00     0.031 C 
ATOM     62  C   UNL A   1      46.299  31.032  28.383  1.00  0.00     0.037 A 
BRANCH  49  63
ATOM     63  C   UNL A   1      40.413  29.227  28.876  1.00  0.00     0.058 A 
ATOM     64  C   UNL A   1      39.977  29.397  30.200  1.00  0.00     0.135 A 
ATOM     65  C   UNL A   1      39.489  29.464  27.846  1.00  0.00     0.135 A 
ATOM     66  F   UNL A   1      40.814  29.165  31.223  1.00  0.00    -0.206 F 
ATOM     67  C   UNL A   1      38.668  29.771  30.492  1.00  0.00     0.059 A 
ATOM     68  C   UNL A   1      38.183  29.862  28.113  1.00  0.00     0.059 A 
ATOM     69  F   UNL A   1      39.855  29.311  26.563  1.00  0.00    -0.206 F 
ATOM     70  C   UNL A   1      37.780  30.002  29.440  1.00  0.00     0.060 A 
BRANCH  70  71
ATOM     71  S   UNL A   1      36.093  30.509  29.836  1.00  0.00     0.124 S 
ATOM     72  O   UNL A   1      35.962  30.034  31.210  1.00  0.00    -0.237 OA
ATOM     73  O   UNL A   1      36.153  31.958  29.670  1.00  0.00    -0.237 OA
ATOM     74  O   UNL A   1      35.286  29.801  28.848  1.00  0.00    -0.744 OA
ENDBRANCH  70  71
ENDBRANCH  49  63
BRANCH  50  75
ATOM     75  C   UNL A   1      49.680  26.425  26.383  1.00  0.00     0.058 A 
ATOM     76  C   UNL A   1      50.106  26.595  25.057  1.00  0.00     0.135 A 
ATOM     77  C   UNL A   1      50.588  25.871  27.297  1.00  0.00     0.135 A 
ATOM     78  F   UNL A   1      49.270  27.116  24.146  1.00  0.00    -0.206 F 
ATOM     79  C   UNL A   1      51.374  26.202  24.643  1.00  0.00     0.059 A 
ATOM     80  C   UNL A   1      51.872  25.492  26.912  1.00  0.00     0.059 A 
ATOM     81  F   UNL A   1      50.237  25.708  28.581  1.00  0.00    -0.206 F 
ATOM     82  C   UNL A   1      52.249  25.647  25.578  1.00  0.00     0.060 A 
BRANCH  82  83
ATOM     83  S   UNL A   1      53.905  25.165  25.041  1.00  0.00     0.124 S 
ATOM     84  O   UNL A   1      54.721  25.634  26.154  1.00  0.00    -0.237 OA
ATOM     85  O   UNL A   1      53.779  23.717  24.907  1.00  0.00    -0.237 OA
ATOM     86  O   UNL A   1      54.071  25.890  23.784  1.00  0.00    -0.744 OA
ENDBRANCH  82  83
ENDBRANCH  50  75
BRANCH  62  87
ATOM     87  C   UNL A   1      46.889  32.376  28.696  1.00  0.00     0.058 A 
ATOM     88  C   UNL A   1      47.413  32.673  29.963  1.00  0.00     0.135 A 
ATOM     89  C   UNL A   1      46.984  33.359  27.697  1.00  0.00     0.135 A 
ATOM     90  F   UNL A   1      47.341  31.768  30.952  1.00  0.00    -0.206 F 
ATOM     91  C   UNL A   1      47.995  33.906  30.236  1.00  0.00     0.059 A 
ATOM     92  C   UNL A   1      47.583  34.590  27.942  1.00  0.00     0.059 A 
ATOM     93  F   UNL A   1      46.507  33.119  26.465  1.00  0.00    -0.206 F 
ATOM     94  C   UNL A   1      48.077  34.858  29.217  1.00  0.00     0.060 A 
BRANCH  94  95
ATOM     95  S   UNL A   1      48.871  36.440  29.570  1.00  0.00     0.124 S 
ATOM     96  O   UNL A   1      47.883  37.385  29.059  1.00  0.00    -0.237 OA
ATOM     97  O   UNL A   1      49.019  36.403  31.021  1.00  0.00    -0.237 OA
ATOM     98  O   UNL A   1      50.119  36.368  28.818  1.00  0.00    -0.744 OA
ENDBRANCH  94  95
ENDBRANCH  62  87
ENDBRANCH  36  37
ENDBRANCH  28  31
ENDBRANCH  26  27
ENDBRANCH  25  26
ENDBRANCH   1  25
TORSDOF 18
ENDMDL
MODEL 3
REMARK VINA RESULT:     -11.2      2.872      4.188
REMARK SMILES CC[C@H]1SC[C@H](C(=O)NCCCCNC(=O)c2ccc(-c3c4nc(c(-c5c(F)cc(S(=O)(=O)[O-])cc5F)c5ccc([nH]5)c(-c5c(F)cc(S(=O)(=O)[O-])cc5F)c5nc(c(-c6c(F)cc(S(=O)(=O)[O-])cc6F)c6ccc3[nH]6)C=C5)C=C4)cc2)N1C(=O)Cc1ccc(F)c(F)c1
REMARK SMILES IDX 11 1 10 2 9 3 7 4 8 5 6 7 3 8 4 9 83 10 5 11 2 12 1 13 84 14
REMARK SMILES IDX 85 15 86 16 87 17 88 18 94 19 89 20 92 21 90 22 93 23 91 24
REMARK SMILES IDX 12 25 13 26 14 27 15 28 16 30 17 31 18 32 82 33 19 34 81 35
REMARK SMILES IDX 20 36 21 37 22 38 75 39 23 40 80 41 74 42 76 43 24 44 79 45
REMARK SMILES IDX 73 46 72 47 25 49 59 50 38 51 58 52 39 53 42 54 57 55 77 56
REMARK SMILES IDX 40 57 41 58 56 60 78 61 43 62 26 63 27 64 36 65 28 66 29 67
REMARK SMILES IDX 35 68 37 69 30 70 31 71 32 72 33 73 34 74 60 75 61 76 70 77
REMARK SMILES IDX 62 78 63 79 69 80 71 81 64 82 65 83 66 84 67 85 68 86 44 87
REMARK SMILES IDX 45 88 54 89 46 90 47 91 53 92 55 93 48 94 49 95 50 96 51 97
REMARK SMILES IDX 52 98
REMARK H PARENT 9 6 14 29 76 48 42 59
REMARK Flexibility Score: inf
ROOT
ATOM      1  C   UNL A   1      35.109  23.779  23.643  1.00  0.00     0.023 C 
ENDROOT
BRANCH   1   2
ATOM      2  C   UNL A   1      33.886  22.867  23.620  1.00  0.00     0.116 C 
BRANCH   2   3
ATOM      3  N   UNL A   1      33.003  23.122  24.740  1.00  0.00    -0.354 N 
ATOM      4  C   UNL A   1      32.062  24.081  24.956  1.00  0.00     0.243 C 
ATOM      5  O   UNL A   1      31.596  24.146  26.101  1.00  0.00    -0.273 OA
ATOM      6  H   UNL A   1      33.102  22.482  25.481  1.00  0.00     0.163 HD
BRANCH   4   7
ATOM      7  C   UNL A   1      31.707  25.187  23.934  1.00  0.00     0.185 C 
ATOM      8  C   UNL A   1      30.695  27.434  24.188  1.00  0.00     0.143 C 
ATOM      9  S   UNL A   1      29.299  26.271  24.218  1.00  0.00    -0.134 SA
ATOM     10  N   UNL A   1      31.878  26.583  24.365  1.00  0.00    -0.318 N 
ATOM     11  C   UNL A   1      30.271  24.952  23.459  1.00  0.00     0.107 C 
BRANCH   8  12
ATOM     12  C   UNL A   1      30.790  28.257  22.881  1.00  0.00     0.033 C 
ATOM     13  C   UNL A   1      29.563  29.045  22.439  1.00  0.00     0.007 C 
ENDBRANCH   8  12
BRANCH  10  14
ATOM     14  C   UNL A   1      33.149  26.992  24.728  1.00  0.00     0.228 C 
ATOM     15  O   UNL A   1      34.033  27.152  23.883  1.00  0.00    -0.274 OA
BRANCH  14  16
ATOM     16  C   UNL A   1      33.478  27.156  26.202  1.00  0.00     0.135 C 
BRANCH  16  17
ATOM     17  C   UNL A   1      33.634  28.577  26.679  1.00  0.00    -0.036 A 
ATOM     18  C   UNL A   1      34.830  29.043  27.252  1.00  0.00     0.007 A 
ATOM     19  C   UNL A   1      32.541  29.454  26.585  1.00  0.00     0.046 A 
ATOM     20  C   UNL A   1      34.956  30.376  27.647  1.00  0.00     0.043 A 
ATOM     21  C   UNL A   1      32.671  30.778  26.994  1.00  0.00     0.159 A 
ATOM     22  C   UNL A   1      33.875  31.239  27.508  1.00  0.00     0.158 A 
ATOM     23  F   UNL A   1      31.624  31.606  26.876  1.00  0.00    -0.204 F 
ATOM     24  F   UNL A   1      34.005  32.521  27.875  1.00  0.00    -0.204 F 
ENDBRANCH  16  17
ENDBRANCH  14  16
ENDBRANCH  10  14
ENDBRANCH   4   7
ENDBRANCH   2   3
ENDBRANCH   1   2
BRANCH   1  25
ATOM     25  C   UNL A   1      36.417  23.074  23.999  1.00  0.00     0.023 C 
BRANCH  25  26
ATOM     26  C   UNL A   1      36.988  23.418  25.370  1.00  0.00     0.116 C 
BRANCH  26  27
ATOM     27  N   UNL A   1      37.933  22.430  25.873  1.00  0.00    -0.352 N 
ATOM     28  C   UNL A   1      39.095  22.652  26.573  1.00  0.00     0.251 C 
ATOM     29  H   UNL A   1      37.711  21.488  25.691  1.00  0.00     0.163 HD
ATOM     30  O   UNL A   1      39.837  21.718  26.864  1.00  0.00    -0.269 OA
BRANCH  28  31
ATOM     31  C   UNL A   1      39.455  24.039  26.924  1.00  0.00     0.039 A 
ATOM     32  C   UNL A   1      39.311  24.460  28.247  1.00  0.00     0.014 A 
ATOM     33  C   UNL A   1      40.013  24.885  25.962  1.00  0.00     0.014 A 
ATOM     34  C   UNL A   1      39.801  25.711  28.624  1.00  0.00     0.010 A 
ATOM     35  C   UNL A   1      40.560  26.102  26.355  1.00  0.00     0.010 A 
ATOM     36  C   UNL A   1      40.466  26.523  27.690  1.00  0.00    -0.014 A 
BRANCH  36  37
ATOM     37  C   UNL A   1      41.078  27.815  28.088  1.00  0.00     0.031 A 
ATOM     38  C   UNL A   1      42.567  27.993  28.003  1.00  0.00     0.074 A 
ATOM     39  C   UNL A   1      40.302  28.792  28.600  1.00  0.00     0.049 A 
ATOM     40  N   UNL A   1      43.301  29.003  28.393  1.00  0.00    -0.248 NA
ATOM     41  C   UNL A   1      43.338  26.877  27.431  1.00  0.00     0.031 C 
ATOM     42  C   UNL A   1      38.851  28.713  28.788  1.00  0.00     0.029 A 
ATOM     43  N   UNL A   1      40.627  30.038  29.073  1.00  0.00    -0.354 N 
ATOM     44  C   UNL A   1      44.617  28.636  28.138  1.00  0.00     0.074 A 
ATOM     45  C   UNL A   1      44.585  27.294  27.599  1.00  0.00     0.031 C 
ATOM     46  C   UNL A   1      38.412  29.865  29.322  1.00  0.00     0.029 A 
ATOM     47  C   UNL A   1      39.550  30.751  29.544  1.00  0.00     0.049 A 
ATOM     48  H   UNL A   1      41.548  30.389  29.076  1.00  0.00     0.167 HD
ATOM     49  C   UNL A   1      45.746  29.361  28.316  1.00  0.00     0.037 A 
ATOM     50  C   UNL A   1      39.488  31.978  30.097  1.00  0.00     0.037 A 
ATOM     51  C   UNL A   1      45.767  30.712  28.809  1.00  0.00     0.049 A 
ATOM     52  C   UNL A   1      40.755  32.776  30.251  1.00  0.00     0.074 A 
ATOM     53  C   UNL A   1      46.852  31.557  28.958  1.00  0.00     0.029 A 
ATOM     54  N   UNL A   1      44.648  31.419  29.227  1.00  0.00    -0.354 N 
ATOM     55  N   UNL A   1      41.985  32.437  29.943  1.00  0.00    -0.248 NA
ATOM     56  C   UNL A   1      40.629  34.125  30.822  1.00  0.00     0.031 C 
ATOM     57  C   UNL A   1      46.394  32.766  29.491  1.00  0.00     0.029 A 
ATOM     58  C   UNL A   1      45.019  32.686  29.642  1.00  0.00     0.049 A 
ATOM     59  H   UNL A   1      43.728  31.071  29.227  1.00  0.00     0.167 HD
ATOM     60  C   UNL A   1      42.772  33.538  30.256  1.00  0.00     0.074 A 
ATOM     61  C   UNL A   1      41.880  34.559  30.768  1.00  0.00     0.031 C 
ATOM     62  C   UNL A   1      44.113  33.693  30.131  1.00  0.00     0.037 A 
BRANCH  49  63
ATOM     63  C   UNL A   1      47.053  28.715  27.958  1.00  0.00     0.058 A 
ATOM     64  C   UNL A   1      47.567  28.775  26.653  1.00  0.00     0.135 A 
ATOM     65  C   UNL A   1      47.825  28.070  28.937  1.00  0.00     0.135 A 
ATOM     66  F   UNL A   1      46.861  29.365  25.674  1.00  0.00    -0.206 F 
ATOM     67  C   UNL A   1      48.792  28.201  26.326  1.00  0.00     0.059 A 
ATOM     68  C   UNL A   1      49.063  27.510  28.639  1.00  0.00     0.059 A 
ATOM     69  F   UNL A   1      47.376  27.980  30.200  1.00  0.00    -0.206 F 
ATOM     70  C   UNL A   1      49.533  27.572  27.328  1.00  0.00     0.060 A 
BRANCH  70  71
ATOM     71  S   UNL A   1      51.131  26.853  26.893  1.00  0.00     0.124 S 
ATOM     72  O   UNL A   1      50.777  26.040  25.734  1.00  0.00    -0.237 OA
ATOM     73  O   UNL A   1      51.941  28.034  26.614  1.00  0.00    -0.237 OA
ATOM     74  O   UNL A   1      51.504  26.109  28.091  1.00  0.00    -0.744 OA
ENDBRANCH  70  71
ENDBRANCH  49  63
BRANCH  50  75
ATOM     75  C   UNL A   1      38.183  32.542  30.530  1.00  0.00     0.058 A 
ATOM     76  C   UNL A   1      37.724  32.367  31.844  1.00  0.00     0.135 A 
ATOM     77  C   UNL A   1      37.366  33.256  29.641  1.00  0.00     0.135 A 
ATOM     78  F   UNL A   1      38.468  31.687  32.729  1.00  0.00    -0.206 F 
ATOM     79  C   UNL A   1      36.489  32.856  32.255  1.00  0.00     0.059 A 
ATOM     80  C   UNL A   1      36.136  33.775  30.035  1.00  0.00     0.059 A 
ATOM     81  F   UNL A   1      37.769  33.468  28.379  1.00  0.00    -0.206 F 
ATOM     82  C   UNL A   1      35.699  33.556  31.341  1.00  0.00     0.060 A 
BRANCH  82  83
ATOM     83  S   UNL A   1      34.108  34.213  31.890  1.00  0.00     0.124 S 
ATOM     84  O   UNL A   1      33.379  34.300  30.631  1.00  0.00    -0.237 OA
ATOM     85  O   UNL A   1      33.653  33.184  32.822  1.00  0.00    -0.237 OA
ATOM     86  O   UNL A   1      34.468  35.487  32.504  1.00  0.00    -0.744 OA
ENDBRANCH  82  83
ENDBRANCH  50  75
BRANCH  62  87
ATOM     87  C   UNL A   1      44.694  35.023  30.516  1.00  0.00     0.058 A 
ATOM     88  C   UNL A   1      45.180  35.267  31.809  1.00  0.00     0.135 A 
ATOM     89  C   UNL A   1      44.817  36.046  29.562  1.00  0.00     0.135 A 
ATOM     90  F   UNL A   1      45.078  34.321  32.758  1.00  0.00    -0.206 F 
ATOM     91  C   UNL A   1      45.753  36.486  32.150  1.00  0.00     0.059 A 
ATOM     92  C   UNL A   1      45.409  37.264  29.874  1.00  0.00     0.059 A 
ATOM     93  F   UNL A   1      44.377  35.858  28.308  1.00  0.00    -0.206 F 
ATOM     94  C   UNL A   1      45.865  37.479  31.174  1.00  0.00     0.060 A 
BRANCH  94  95
ATOM     95  S   UNL A   1      46.649  39.045  31.615  1.00  0.00     0.124 S 
ATOM     96  O   UNL A   1      45.603  39.683  32.407  1.00  0.00    -0.237 OA
ATOM     97  O   UNL A   1      47.828  38.609  32.357  1.00  0.00    -0.237 OA
ATOM     98  O   UNL A   1      46.924  39.662  30.322  1.00  0.00    -0.744 OA
ENDBRANCH  94  95
ENDBRANCH  62  87
ENDBRANCH  36  37
ENDBRANCH  28  31
ENDBRANCH  26  27
ENDBRANCH  25  26
ENDBRANCH   1  25
TORSDOF 18
ENDMDL
