MODEL 1
REMARK VINA RESULT:     -13.0      0.000      0.000
REMARK SMILES CC1=C([C@H](NC(=O)[C@@H]2[C@H](C)c3cc(F)ccc3N2C)C(=O)NCCCCNC(=O)c2ccc(-c3c4nc(c(-c5c(F)cc(S(=O)(=O)[O-])cc5F)c5ccc([nH]5)c(-c5c(F)cc(S(=O)(=O)[O-])cc5F)c5nc(c(-c6c(F)cc(S(=O)(=O)[O-])cc6F)c6ccc3[nH]6)C=C5)C=C4)cc2)[C@@H](C)N=N1
REMARK SMILES IDX 25 1 24 2 23 3 22 4 20 5 21 6 4 8 3 9 1 10 2 11 99 12 96 13
REMARK SMILES IDX 98 14 97 15 5 16 6 17 7 19 8 20 9 21 18 22 11 23 10 24 17 25
REMARK SMILES IDX 19 26 12 27 16 28 13 29 15 30 14 31 26 32 27 33 28 34 29 36
REMARK SMILES IDX 30 37 31 38 95 39 32 40 94 41 33 42 34 43 35 44 88 45 36 46
REMARK SMILES IDX 93 47 87 48 89 49 37 50 92 51 86 52 85 53 38 55 72 56 51 57
REMARK SMILES IDX 71 58 52 59 55 60 70 61 90 62 53 63 54 64 69 66 91 67 56 68
REMARK SMILES IDX 39 69 40 70 49 71 41 72 42 73 48 74 50 75 43 76 44 77 45 78
REMARK SMILES IDX 46 79 47 80 73 81 74 82 83 83 75 84 76 85 82 86 84 87 77 88
REMARK SMILES IDX 78 89 79 90 80 91 81 92 57 93 58 94 67 95 59 96 60 97 66 98
REMARK SMILES IDX 68 99 61 100 62 101 63 102 64 103 65 104
REMARK H PARENT 22 7 5 18 27 35 89 54 55 65
REMARK Flexibility Score: inf
ROOT
ATOM      1  C   UNL A   1      34.263  31.301  27.609  1.00  0.00     0.023 C 
ENDROOT
BRANCH   1   2
ATOM      2  C   UNL A   1      35.124  30.069  27.331  1.00  0.00     0.023 C 
BRANCH   2   3
ATOM      3  C   UNL A   1      34.348  28.776  27.146  1.00  0.00     0.116 C 
BRANCH   3   4
ATOM      4  N   UNL A   1      33.008  28.837  27.697  1.00  0.00    -0.354 N 
ATOM      5  C   UNL A   1      31.944  28.012  27.456  1.00  0.00     0.247 C 
ATOM      6  O   UNL A   1      30.958  28.100  28.195  1.00  0.00    -0.272 OA
ATOM      7  H   UNL A   1      32.842  29.572  28.330  1.00  0.00     0.163 HD
BRANCH   5   8
ATOM      8  C   UNL A   1      31.993  26.957  26.313  1.00  0.00     0.202 C 
BRANCH   8   9
ATOM      9  C   UNL A   1      32.045  27.551  24.942  1.00  0.00     0.011 C 
ATOM     10  C   UNL A   1      34.102  26.380  23.979  1.00  0.00     0.069 C 
ATOM     11  C   UNL A   1      32.924  27.294  23.960  1.00  0.00     0.064 C 
ATOM     12  N   UNL A   1      32.592  27.908  22.781  1.00  0.00    -0.160 NA
ATOM     13  C   UNL A   1      31.027  28.450  24.314  1.00  0.00     0.156 C 
ATOM     14  N   UNL A   1      31.508  28.537  22.905  1.00  0.00    -0.181 NA
ATOM     15  C   UNL A   1      30.943  29.879  24.839  1.00  0.00     0.040 C 
ENDBRANCH   8   9
BRANCH   8  16
ATOM     16  N   UNL A   1      30.868  26.054  26.494  1.00  0.00    -0.339 N 
ATOM     17  C   UNL A   1      30.783  24.708  26.280  1.00  0.00     0.244 C 
ATOM     18  H   UNL A   1      30.041  26.477  26.821  1.00  0.00     0.164 HD
ATOM     19  O   UNL A   1      29.787  24.143  26.732  1.00  0.00    -0.273 OA
BRANCH  17  20
ATOM     20  C   UNL A   1      31.914  23.978  25.528  1.00  0.00     0.178 C 
ATOM     21  C   UNL A   1      31.672  23.781  23.992  1.00  0.00     0.050 C 
ATOM     22  N   UNL A   1      32.154  22.636  26.095  1.00  0.00    -0.362 N 
ATOM     23  C   UNL A   1      31.979  22.316  23.820  1.00  0.00    -0.016 A 
ATOM     24  C   UNL A   1      30.301  24.142  23.431  1.00  0.00     0.015 C 
ATOM     25  C   UNL A   1      32.241  21.729  25.062  1.00  0.00     0.041 A 
ATOM     26  C   UNL A   1      32.438  22.354  27.479  1.00  0.00     0.144 C 
ATOM     27  C   UNL A   1      32.004  21.578  22.644  1.00  0.00     0.045 A 
ATOM     28  C   UNL A   1      32.528  20.376  25.140  1.00  0.00     0.029 A 
ATOM     29  C   UNL A   1      32.293  20.222  22.736  1.00  0.00     0.123 A 
ATOM     30  C   UNL A   1      32.553  19.616  23.967  1.00  0.00     0.041 A 
ATOM     31  F   UNL A   1      32.320  19.479  21.621  1.00  0.00    -0.207 F 
ENDBRANCH  17  20
ENDBRANCH   8  16
ENDBRANCH   5   8
ENDBRANCH   3   4
ENDBRANCH   2   3
ENDBRANCH   1   2
BRANCH   1  32
ATOM     32  C   UNL A   1      34.927  32.370  28.480  1.00  0.00     0.116 C 
BRANCH  32  33
ATOM     33  N   UNL A   1      34.520  32.345  29.871  1.00  0.00    -0.352 N 
ATOM     34  C   UNL A   1      35.148  32.021  31.042  1.00  0.00     0.251 C 
ATOM     35  H   UNL A   1      33.584  32.621  30.001  1.00  0.00     0.163 HD
ATOM     36  O   UNL A   1      34.535  32.302  32.075  1.00  0.00    -0.269 OA
BRANCH  34  37
ATOM     37  C   UNL A   1      36.453  31.312  31.146  1.00  0.00     0.039 A 
ATOM     38  C   UNL A   1      37.697  31.927  31.288  1.00  0.00     0.014 A 
ATOM     39  C   UNL A   1      36.409  29.913  30.998  1.00  0.00     0.014 A 
ATOM     40  C   UNL A   1      38.865  31.191  31.152  1.00  0.00     0.010 A 
ATOM     41  C   UNL A   1      37.575  29.165  30.891  1.00  0.00     0.010 A 
ATOM     42  C   UNL A   1      38.801  29.819  30.905  1.00  0.00    -0.014 A 
BRANCH  42  43
ATOM     43  C   UNL A   1      40.064  29.115  30.717  1.00  0.00     0.031 A 
ATOM     44  C   UNL A   1      40.961  29.088  31.908  1.00  0.00     0.074 A 
ATOM     45  C   UNL A   1      40.380  28.471  29.578  1.00  0.00     0.049 A 
ATOM     46  N   UNL A   1      42.142  29.602  32.042  1.00  0.00    -0.248 NA
ATOM     47  C   UNL A   1      40.418  28.511  33.147  1.00  0.00     0.031 C 
ATOM     48  C   UNL A   1      39.523  28.185  28.425  1.00  0.00     0.029 A 
ATOM     49  N   UNL A   1      41.547  27.850  29.252  1.00  0.00    -0.354 N 
ATOM     50  C   UNL A   1      42.574  29.251  33.320  1.00  0.00     0.074 A 
ATOM     51  C   UNL A   1      41.425  28.708  33.999  1.00  0.00     0.031 C 
ATOM     52  C   UNL A   1      40.124  27.263  27.640  1.00  0.00     0.029 A 
ATOM     53  C   UNL A   1      41.457  27.003  28.158  1.00  0.00     0.049 A 
ATOM     54  H   UNL A   1      42.383  27.990  29.752  1.00  0.00     0.167 HD
ATOM     55  C   UNL A   1      43.891  29.259  33.672  1.00  0.00     0.037 A 
ATOM     56  C   UNL A   1      42.389  26.105  27.750  1.00  0.00     0.037 A 
ATOM     57  C   UNL A   1      44.672  30.064  32.771  1.00  0.00     0.049 A 
ATOM     58  C   UNL A   1      43.693  26.536  28.324  1.00  0.00     0.074 A 
ATOM     59  C   UNL A   1      44.675  31.402  32.424  1.00  0.00     0.029 A 
ATOM     60  N   UNL A   1      45.416  29.432  31.805  1.00  0.00    -0.354 N 
ATOM     61  N   UNL A   1      44.313  27.633  27.979  1.00  0.00    -0.248 NA
ATOM     62  C   UNL A   1      44.083  25.981  29.612  1.00  0.00     0.031 C 
ATOM     63  C   UNL A   1      44.977  31.420  31.032  1.00  0.00     0.029 A 
ATOM     64  C   UNL A   1      45.189  30.101  30.629  1.00  0.00     0.049 A 
ATOM     65  H   UNL A   1      46.000  28.650  31.933  1.00  0.00     0.167 HD
ATOM     66  C   UNL A   1      44.857  28.125  29.157  1.00  0.00     0.074 A 
ATOM     67  C   UNL A   1      44.752  27.023  30.111  1.00  0.00     0.031 C 
ATOM     68  C   UNL A   1      45.092  29.459  29.335  1.00  0.00     0.037 A 
BRANCH  55  69
ATOM     69  C   UNL A   1      44.522  28.286  34.641  1.00  0.00     0.058 A 
ATOM     70  C   UNL A   1      44.456  26.899  34.384  1.00  0.00     0.135 A 
ATOM     71  C   UNL A   1      44.934  28.641  35.946  1.00  0.00     0.135 A 
ATOM     72  F   UNL A   1      44.079  26.443  33.179  1.00  0.00    -0.206 F 
ATOM     73  C   UNL A   1      44.694  25.942  35.373  1.00  0.00     0.059 A 
ATOM     74  C   UNL A   1      45.228  27.703  36.929  1.00  0.00     0.059 A 
ATOM     75  F   UNL A   1      44.973  29.912  36.361  1.00  0.00    -0.206 F 
ATOM     76  C   UNL A   1      45.058  26.358  36.650  1.00  0.00     0.060 A 
BRANCH  76  77
ATOM     77  S   UNL A   1      45.220  25.140  37.966  1.00  0.00     0.124 S 
ATOM     78  O   UNL A   1      44.354  25.706  38.993  1.00  0.00    -0.237 OA
ATOM     79  O   UNL A   1      44.736  23.926  37.316  1.00  0.00    -0.237 OA
ATOM     80  O   UNL A   1      46.649  25.157  38.266  1.00  0.00    -0.744 OA
ENDBRANCH  76  77
ENDBRANCH  55  69
BRANCH  56  81
ATOM     81  C   UNL A   1      42.142  24.746  27.202  1.00  0.00     0.058 A 
ATOM     82  C   UNL A   1      43.005  24.155  26.263  1.00  0.00     0.135 A 
ATOM     83  C   UNL A   1      41.180  23.891  27.780  1.00  0.00     0.135 A 
ATOM     84  F   UNL A   1      43.976  24.882  25.689  1.00  0.00    -0.206 F 
ATOM     85  C   UNL A   1      42.931  22.795  25.932  1.00  0.00     0.059 A 
ATOM     86  C   UNL A   1      41.080  22.539  27.460  1.00  0.00     0.059 A 
ATOM     87  F   UNL A   1      40.357  24.327  28.746  1.00  0.00    -0.206 F 
ATOM     88  C   UNL A   1      41.971  21.990  26.549  1.00  0.00     0.060 A 
BRANCH  88  89
ATOM     89  S   UNL A   1      41.955  20.211  26.226  1.00  0.00     0.124 S 
ATOM     90  O   UNL A   1      40.580  19.994  25.792  1.00  0.00    -0.237 OA
ATOM     91  O   UNL A   1      42.978  20.077  25.197  1.00  0.00    -0.237 OA
ATOM     92  O   UNL A   1      42.297  19.628  27.521  1.00  0.00    -0.744 OA
ENDBRANCH  88  89
ENDBRANCH  56  81
BRANCH  68  93
ATOM     93  C   UNL A   1      44.978  30.379  28.145  1.00  0.00     0.058 A 
ATOM     94  C   UNL A   1      43.757  30.891  27.670  1.00  0.00     0.135 A 
ATOM     95  C   UNL A   1      46.152  30.923  27.604  1.00  0.00     0.135 A 
ATOM     96  F   UNL A   1      42.593  30.502  28.204  1.00  0.00    -0.206 F 
ATOM     97  C   UNL A   1      43.706  31.884  26.690  1.00  0.00     0.059 A 
ATOM     98  C   UNL A   1      46.126  31.936  26.646  1.00  0.00     0.059 A 
ATOM     99  F   UNL A   1      47.351  30.523  28.060  1.00  0.00    -0.206 F 
ATOM    100  C   UNL A   1      44.896  32.410  26.192  1.00  0.00     0.060 A 
BRANCH 100 101
ATOM    101  S   UNL A   1      44.827  33.787  25.024  1.00  0.00     0.124 S 
ATOM    102  O   UNL A   1      46.214  34.250  25.015  1.00  0.00    -0.237 OA
ATOM    103  O   UNL A   1      44.374  33.132  23.796  1.00  0.00    -0.237 OA
ATOM    104  O   UNL A   1      43.867  34.700  25.623  1.00  0.00    -0.744 OA
ENDBRANCH 100 101
ENDBRANCH  68  93
ENDBRANCH  42  43
ENDBRANCH  34  37
ENDBRANCH  32  33
ENDBRANCH   1  32
TORSDOF 17
ENDMDL
MODEL 2
REMARK VINA RESULT:     -12.9      1.803      2.555
REMARK SMILES CC1=C([C@H](NC(=O)[C@@H]2[C@H](C)c3cc(F)ccc3N2C)C(=O)NCCCCNC(=O)c2ccc(-c3c4nc(c(-c5c(F)cc(S(=O)(=O)[O-])cc5F)c5ccc([nH]5)c(-c5c(F)cc(S(=O)(=O)[O-])cc5F)c5nc(c(-c6c(F)cc(S(=O)(=O)[O-])cc6F)c6ccc3[nH]6)C=C5)C=C4)cc2)[C@@H](C)N=N1
REMARK SMILES IDX 25 1 24 2 23 3 22 4 20 5 21 6 4 8 3 9 1 10 2 11 99 12 96 13
REMARK SMILES IDX 98 14 97 15 5 16 6 17 7 19 8 20 9 21 18 22 11 23 10 24 17 25
REMARK SMILES IDX 19 26 12 27 16 28 13 29 15 30 14 31 26 32 27 33 28 34 29 36
REMARK SMILES IDX 30 37 31 38 95 39 32 40 94 41 33 42 34 43 35 44 88 45 36 46
REMARK SMILES IDX 93 47 87 48 89 49 37 50 92 51 86 52 85 53 38 55 72 56 51 57
REMARK SMILES IDX 71 58 52 59 55 60 70 61 90 62 53 63 54 64 69 66 91 67 56 68
REMARK SMILES IDX 39 69 40 70 49 71 41 72 42 73 48 74 50 75 43 76 44 77 45 78
REMARK SMILES IDX 46 79 47 80 73 81 74 82 83 83 75 84 76 85 82 86 84 87 77 88
REMARK SMILES IDX 78 89 79 90 80 91 81 92 57 93 58 94 67 95 59 96 60 97 66 98
REMARK SMILES IDX 68 99 61 100 62 101 63 102 64 103 65 104
REMARK H PARENT 22 7 5 18 27 35 89 54 55 65
REMARK Flexibility Score: inf
ROOT
ATOM      1  C   UNL A   1      32.236  29.693  26.812  1.00  0.00     0.023 C 
ENDROOT
BRANCH   1   2
ATOM      2  C   UNL A   1      32.172  28.459  27.712  1.00  0.00     0.023 C 
BRANCH   2   3
ATOM      3  C   UNL A   1      32.148  27.131  26.973  1.00  0.00     0.116 C 
BRANCH   3   4
ATOM      4  N   UNL A   1      30.807  26.698  26.634  1.00  0.00    -0.354 N 
ATOM      5  C   UNL A   1      30.323  26.272  25.427  1.00  0.00     0.247 C 
ATOM      6  O   UNL A   1      29.212  25.735  25.400  1.00  0.00    -0.272 OA
ATOM      7  H   UNL A   1      30.155  26.712  27.373  1.00  0.00     0.163 HD
BRANCH   5   8
ATOM      8  C   UNL A   1      31.171  26.417  24.131  1.00  0.00     0.202 C 
BRANCH   8   9
ATOM      9  C   UNL A   1      30.868  27.650  23.342  1.00  0.00     0.011 C 
ATOM     10  C   UNL A   1      33.113  28.864  23.446  1.00  0.00     0.069 C 
ATOM     11  C   UNL A   1      31.690  28.668  23.045  1.00  0.00     0.064 C 
ATOM     12  N   UNL A   1      31.125  29.568  22.179  1.00  0.00    -0.160 NA
ATOM     13  C   UNL A   1      29.614  27.941  22.577  1.00  0.00     0.156 C 
ATOM     14  N   UNL A   1      29.973  29.188  21.844  1.00  0.00    -0.181 NA
ATOM     15  C   UNL A   1      28.361  28.251  23.389  1.00  0.00     0.040 C 
ENDBRANCH   8   9
BRANCH   8  16
ATOM     16  N   UNL A   1      31.009  25.197  23.356  1.00  0.00    -0.339 N 
ATOM     17  C   UNL A   1      31.530  23.952  23.565  1.00  0.00     0.244 C 
ATOM     18  H   UNL A   1      30.436  25.281  22.560  1.00  0.00     0.164 HD
ATOM     19  O   UNL A   1      31.050  23.038  22.894  1.00  0.00    -0.273 OA
BRANCH  17  20
ATOM     20  C   UNL A   1      32.640  23.752  24.616  1.00  0.00     0.178 C 
ATOM     21  C   UNL A   1      34.054  24.286  24.199  1.00  0.00     0.050 C 
ATOM     22  N   UNL A   1      32.809  22.323  24.950  1.00  0.00    -0.362 N 
ATOM     23  C   UNL A   1      34.933  23.104  24.516  1.00  0.00    -0.016 A 
ATOM     24  C   UNL A   1      34.244  24.765  22.764  1.00  0.00     0.015 C 
ATOM     25  C   UNL A   1      34.152  22.021  24.935  1.00  0.00     0.041 A 
ATOM     26  C   UNL A   1      31.761  21.444  25.401  1.00  0.00     0.144 C 
ATOM     27  C   UNL A   1      36.315  23.013  24.419  1.00  0.00     0.045 A 
ATOM     28  C   UNL A   1      34.758  20.818  25.259  1.00  0.00     0.029 A 
ATOM     29  C   UNL A   1      36.910  21.801  24.746  1.00  0.00     0.123 A 
ATOM     30  C   UNL A   1      36.147  20.707  25.163  1.00  0.00     0.041 A 
ATOM     31  F   UNL A   1      38.241  21.677  24.659  1.00  0.00    -0.207 F 
ENDBRANCH  17  20
ENDBRANCH   8  16
ENDBRANCH   5   8
ENDBRANCH   3   4
ENDBRANCH   2   3
ENDBRANCH   1   2
BRANCH   1  32
ATOM     32  C   UNL A   1      33.559  30.462  26.861  1.00  0.00     0.116 C 
BRANCH  32  33
ATOM     33  N   UNL A   1      33.745  31.255  28.059  1.00  0.00    -0.352 N 
ATOM     34  C   UNL A   1      34.828  31.579  28.830  1.00  0.00     0.251 C 
ATOM     35  H   UNL A   1      32.906  31.646  28.394  1.00  0.00     0.163 HD
ATOM     36  O   UNL A   1      34.636  32.445  29.687  1.00  0.00    -0.269 OA
BRANCH  34  37
ATOM     37  C   UNL A   1      36.162  30.925  28.748  1.00  0.00     0.039 A 
ATOM     38  C   UNL A   1      36.383  29.553  28.630  1.00  0.00     0.014 A 
ATOM     39  C   UNL A   1      37.276  31.774  28.891  1.00  0.00     0.014 A 
ATOM     40  C   UNL A   1      37.659  29.030  28.786  1.00  0.00     0.010 A 
ATOM     41  C   UNL A   1      38.560  31.259  29.018  1.00  0.00     0.010 A 
ATOM     42  C   UNL A   1      38.738  29.881  29.028  1.00  0.00    -0.014 A 
BRANCH  42  43
ATOM     43  C   UNL A   1      40.041  29.263  29.237  1.00  0.00     0.031 A 
ATOM     44  C   UNL A   1      40.494  29.194  30.657  1.00  0.00     0.074 A 
ATOM     45  C   UNL A   1      40.765  28.725  28.237  1.00  0.00     0.049 A 
ATOM     46  N   UNL A   1      41.521  29.760  31.206  1.00  0.00    -0.248 NA
ATOM     47  C   UNL A   1      39.616  28.497  31.610  1.00  0.00     0.031 C 
ATOM     48  C   UNL A   1      40.362  28.480  26.850  1.00  0.00     0.029 A 
ATOM     49  N   UNL A   1      42.018  28.194  28.289  1.00  0.00    -0.354 N 
ATOM     50  C   UNL A   1      41.531  29.337  32.534  1.00  0.00     0.074 A 
ATOM     51  C   UNL A   1      40.267  28.684  32.758  1.00  0.00     0.031 C 
ATOM     52  C   UNL A   1      41.258  27.654  26.265  1.00  0.00     0.029 A 
ATOM     53  C   UNL A   1      42.360  27.429  27.184  1.00  0.00     0.049 A 
ATOM     54  H   UNL A   1      42.628  28.342  29.046  1.00  0.00     0.167 HD
ATOM     55  C   UNL A   1      42.653  29.390  33.307  1.00  0.00     0.037 A 
ATOM     56  C   UNL A   1      43.440  26.617  27.066  1.00  0.00     0.037 A 
ATOM     57  C   UNL A   1      43.624  30.303  32.764  1.00  0.00     0.049 A 
ATOM     58  C   UNL A   1      44.444  27.073  28.065  1.00  0.00     0.074 A 
ATOM     59  C   UNL A   1      43.639  31.661  32.509  1.00  0.00     0.029 A 
ATOM     60  N   UNL A   1      44.692  29.787  32.072  1.00  0.00    -0.354 N 
ATOM     61  N   UNL A   1      45.057  28.224  28.006  1.00  0.00    -0.248 NA
ATOM     62  C   UNL A   1      44.427  26.444  29.378  1.00  0.00     0.031 C 
ATOM     63  C   UNL A   1      44.383  31.801  31.302  1.00  0.00     0.029 A 
ATOM     64  C   UNL A   1      44.816  30.529  30.925  1.00  0.00     0.049 A 
ATOM     65  H   UNL A   1      45.259  29.030  32.346  1.00  0.00     0.167 HD
ATOM     66  C   UNL A   1      45.141  28.655  29.323  1.00  0.00     0.074 A 
ATOM     67  C   UNL A   1      44.812  27.480  30.127  1.00  0.00     0.031 C 
ATOM     68  C   UNL A   1      45.202  29.983  29.641  1.00  0.00     0.037 A 
BRANCH  55  69
ATOM     69  C   UNL A   1      43.000  28.383  34.378  1.00  0.00     0.058 A 
ATOM     70  C   UNL A   1      43.225  28.816  35.702  1.00  0.00     0.135 A 
ATOM     71  C   UNL A   1      43.402  27.056  34.100  1.00  0.00     0.135 A 
ATOM     72  F   UNL A   1      42.882  30.057  36.084  1.00  0.00    -0.206 F 
ATOM     73  C   UNL A   1      43.877  28.025  36.650  1.00  0.00     0.059 A 
ATOM     74  C   UNL A   1      44.005  26.233  35.043  1.00  0.00     0.059 A 
ATOM     75  F   UNL A   1      43.322  26.529  32.873  1.00  0.00    -0.206 F 
ATOM     76  C   UNL A   1      44.283  26.741  36.301  1.00  0.00     0.060 A 
BRANCH  76  77
ATOM     77  S   UNL A   1      45.257  25.771  37.466  1.00  0.00     0.124 S 
ATOM     78  O   UNL A   1      44.430  25.844  38.665  1.00  0.00    -0.237 OA
ATOM     79  O   UNL A   1      45.313  24.472  36.804  1.00  0.00    -0.237 OA
ATOM     80  O   UNL A   1      46.524  26.494  37.528  1.00  0.00    -0.744 OA
ENDBRANCH  76  77
ENDBRANCH  55  69
BRANCH  56  81
ATOM     81  C   UNL A   1      43.493  25.291  26.395  1.00  0.00     0.058 A 
ATOM     82  C   UNL A   1      44.342  25.044  25.302  1.00  0.00     0.135 A 
ATOM     83  C   UNL A   1      42.887  24.156  26.975  1.00  0.00     0.135 A 
ATOM     84  F   UNL A   1      44.992  26.059  24.711  1.00  0.00    -0.206 F 
ATOM     85  C   UNL A   1      44.592  23.750  24.827  1.00  0.00     0.059 A 
ATOM     86  C   UNL A   1      43.110  22.861  26.513  1.00  0.00     0.059 A 
ATOM     87  F   UNL A   1      42.122  24.264  28.071  1.00  0.00    -0.206 F 
ATOM     88  C   UNL A   1      43.980  22.660  25.450  1.00  0.00     0.060 A 
BRANCH  88  89
ATOM     89  S   UNL A   1      44.397  20.980  24.927  1.00  0.00     0.124 S 
ATOM     90  O   UNL A   1      45.636  20.735  25.656  1.00  0.00    -0.237 OA
ATOM     91  O   UNL A   1      43.233  20.223  25.373  1.00  0.00    -0.237 OA
ATOM     92  O   UNL A   1      44.541  21.101  23.479  1.00  0.00    -0.744 OA
ENDBRANCH  88  89
ENDBRANCH  56  81
BRANCH  68  93
ATOM     93  C   UNL A   1      45.418  30.982  28.532  1.00  0.00     0.058 A 
ATOM     94  C   UNL A   1      44.376  31.532  27.763  1.00  0.00     0.135 A 
ATOM     95  C   UNL A   1      46.689  31.557  28.386  1.00  0.00     0.135 A 
ATOM     96  F   UNL A   1      43.113  31.112  27.916  1.00  0.00    -0.206 F 
ATOM     97  C   UNL A   1      44.591  32.589  26.878  1.00  0.00     0.059 A 
ATOM     98  C   UNL A   1      46.922  32.633  27.530  1.00  0.00     0.059 A 
ATOM     99  F   UNL A   1      47.714  31.121  29.137  1.00  0.00    -0.206 F 
ATOM    100  C   UNL A   1      45.866  33.143  26.777  1.00  0.00     0.060 A 
BRANCH 100 101
ATOM    101  S   UNL A   1      46.112  34.596  25.732  1.00  0.00     0.124 S 
ATOM    102  O   UNL A   1      45.196  34.334  24.623  1.00  0.00    -0.237 OA
ATOM    103  O   UNL A   1      45.726  35.691  26.623  1.00  0.00    -0.237 OA
ATOM    104  O   UNL A   1      47.527  34.547  25.399  1.00  0.00    -0.744 OA
ENDBRANCH 100 101
ENDBRANCH  68  93
ENDBRANCH  42  43
ENDBRANCH  34  37
ENDBRANCH  32  33
ENDBRANCH   1  32
TORSDOF 17
ENDMDL
MODEL 3
REMARK VINA RESULT:     -12.9      3.378      9.473
REMARK SMILES CC1=C([C@H](NC(=O)[C@@H]2[C@H](C)c3cc(F)ccc3N2C)C(=O)NCCCCNC(=O)c2ccc(-c3c4nc(c(-c5c(F)cc(S(=O)(=O)[O-])cc5F)c5ccc([nH]5)c(-c5c(F)cc(S(=O)(=O)[O-])cc5F)c5nc(c(-c6c(F)cc(S(=O)(=O)[O-])cc6F)c6ccc3[nH]6)C=C5)C=C4)cc2)[C@@H](C)N=N1
REMARK SMILES IDX 25 1 24 2 23 3 22 4 20 5 21 6 4 8 3 9 1 10 2 11 99 12 96 13
REMARK SMILES IDX 98 14 97 15 5 16 6 17 7 19 8 20 9 21 18 22 11 23 10 24 17 25
REMARK SMILES IDX 19 26 12 27 16 28 13 29 15 30 14 31 26 32 27 33 28 34 29 36
REMARK SMILES IDX 30 37 31 38 95 39 32 40 94 41 33 42 34 43 35 44 88 45 36 46
REMARK SMILES IDX 93 47 87 48 89 49 37 50 92 51 86 52 85 53 38 55 72 56 51 57
REMARK SMILES IDX 71 58 52 59 55 60 70 61 90 62 53 63 54 64 69 66 91 67 56 68
REMARK SMILES IDX 39 69 40 70 49 71 41 72 42 73 48 74 50 75 43 76 44 77 45 78
REMARK SMILES IDX 46 79 47 80 73 81 74 82 83 83 75 84 76 85 82 86 84 87 77 88
REMARK SMILES IDX 78 89 79 90 80 91 81 92 57 93 58 94 67 95 59 96 60 97 66 98
REMARK SMILES IDX 68 99 61 100 62 101 63 102 64 103 65 104
REMARK H PARENT 22 7 5 18 27 35 89 54 55 65
REMARK Flexibility Score: inf
ROOT
ATOM      1  C   UNL A   1      39.741  24.177  26.382  1.00  0.00     0.023 C 
ENDROOT
BRANCH   1   2
ATOM      2  C   UNL A   1      38.420  23.739  27.014  1.00  0.00     0.023 C 
BRANCH   2   3
ATOM      3  C   UNL A   1      37.200  23.904  26.122  1.00  0.00     0.116 C 
BRANCH   3   4
ATOM      4  N   UNL A   1      37.404  23.383  24.784  1.00  0.00    -0.354 N 
ATOM      5  C   UNL A   1      36.491  23.229  23.777  1.00  0.00     0.247 C 
ATOM      6  O   UNL A   1      36.910  22.979  22.643  1.00  0.00    -0.272 OA
ATOM      7  H   UNL A   1      38.324  23.103  24.572  1.00  0.00     0.163 HD
BRANCH   5   8
ATOM      8  C   UNL A   1      34.969  23.411  24.043  1.00  0.00     0.202 C 
BRANCH   8   9
ATOM      9  C   UNL A   1      34.389  22.392  24.972  1.00  0.00     0.011 C 
ATOM     10  C   UNL A   1      33.246  23.893  26.694  1.00  0.00     0.069 C 
ATOM     11  C   UNL A   1      33.654  22.599  26.075  1.00  0.00     0.064 C 
ATOM     12  N   UNL A   1      33.163  21.436  26.608  1.00  0.00    -0.160 NA
ATOM     13  C   UNL A   1      34.374  20.908  24.779  1.00  0.00     0.156 C 
ATOM     14  N   UNL A   1      33.497  20.453  25.896  1.00  0.00    -0.181 NA
ATOM     15  C   UNL A   1      35.702  20.173  24.935  1.00  0.00     0.040 C 
ENDBRANCH   8   9
BRANCH   8  16
ATOM     16  N   UNL A   1      34.295  23.448  22.755  1.00  0.00    -0.339 N 
ATOM     17  C   UNL A   1      33.354  24.320  22.284  1.00  0.00     0.244 C 
ATOM     18  H   UNL A   1      34.557  22.737  22.126  1.00  0.00     0.164 HD
ATOM     19  O   UNL A   1      33.117  24.271  21.078  1.00  0.00    -0.273 OA
BRANCH  17  20
ATOM     20  C   UNL A   1      32.675  25.309  23.252  1.00  0.00     0.178 C 
ATOM     21  C   UNL A   1      31.266  24.864  23.777  1.00  0.00     0.050 C 
ATOM     22  N   UNL A   1      32.492  26.633  22.622  1.00  0.00    -0.362 N 
ATOM     23  C   UNL A   1      30.443  26.101  23.530  1.00  0.00    -0.016 A 
ATOM     24  C   UNL A   1      30.629  23.626  23.156  1.00  0.00     0.015 C 
ATOM     25  C   UNL A   1      31.208  27.065  22.865  1.00  0.00     0.041 A 
ATOM     26  C   UNL A   1      33.538  27.420  22.020  1.00  0.00     0.144 C 
ATOM     27  C   UNL A   1      29.114  26.328  23.865  1.00  0.00     0.045 A 
ATOM     28  C   UNL A   1      30.639  28.280  22.518  1.00  0.00     0.029 A 
ATOM     29  C   UNL A   1      28.555  27.550  23.511  1.00  0.00     0.123 A 
ATOM     30  C   UNL A   1      29.301  28.523  22.843  1.00  0.00     0.041 A 
ATOM     31  F   UNL A   1      27.274  27.799  23.814  1.00  0.00    -0.207 F 
ENDBRANCH  17  20
ENDBRANCH   8  16
ENDBRANCH   5   8
ENDBRANCH   3   4
ENDBRANCH   2   3
ENDBRANCH   1   2
BRANCH   1  32
ATOM     32  C   UNL A   1      40.852  23.124  26.409  1.00  0.00     0.116 C 
BRANCH  32  33
ATOM     33  N   UNL A   1      41.950  23.391  25.503  1.00  0.00    -0.352 N 
ATOM     34  C   UNL A   1      42.891  24.380  25.410  1.00  0.00     0.251 C 
ATOM     35  H   UNL A   1      42.040  22.709  24.798  1.00  0.00     0.163 HD
ATOM     36  O   UNL A   1      43.804  24.178  24.605  1.00  0.00    -0.269 OA
BRANCH  34  37
ATOM     37  C   UNL A   1      42.848  25.673  26.145  1.00  0.00     0.039 A 
ATOM     38  C   UNL A   1      43.457  25.925  27.374  1.00  0.00     0.014 A 
ATOM     39  C   UNL A   1      42.047  26.681  25.575  1.00  0.00     0.014 A 
ATOM     40  C   UNL A   1      43.172  27.087  28.077  1.00  0.00     0.010 A 
ATOM     41  C   UNL A   1      41.781  27.861  26.260  1.00  0.00     0.010 A 
ATOM     42  C   UNL A   1      42.295  28.030  27.539  1.00  0.00    -0.014 A 
BRANCH  42  43
ATOM     43  C   UNL A   1      41.996  29.202  28.353  1.00  0.00     0.031 A 
ATOM     44  C   UNL A   1      43.067  30.239  28.396  1.00  0.00     0.074 A 
ATOM     45  C   UNL A   1      40.812  29.381  28.970  1.00  0.00     0.049 A 
ATOM     46  N   UNL A   1      43.753  30.649  29.414  1.00  0.00    -0.248 NA
ATOM     47  C   UNL A   1      43.508  30.805  27.112  1.00  0.00     0.031 C 
ATOM     48  C   UNL A   1      39.581  28.600  28.823  1.00  0.00     0.029 A 
ATOM     49  N   UNL A   1      40.440  30.383  29.813  1.00  0.00    -0.354 N 
ATOM     50  C   UNL A   1      44.583  31.664  28.939  1.00  0.00     0.074 A 
ATOM     51  C   UNL A   1      44.492  31.617  27.502  1.00  0.00     0.031 C 
ATOM     52  C   UNL A   1      38.552  29.285  29.369  1.00  0.00     0.029 A 
ATOM     53  C   UNL A   1      39.072  30.475  30.022  1.00  0.00     0.049 A 
ATOM     54  H   UNL A   1      41.087  30.990  30.238  1.00  0.00     0.167 HD
ATOM     55  C   UNL A   1      45.144  32.593  29.763  1.00  0.00     0.037 A 
ATOM     56  C   UNL A   1      38.413  31.494  30.629  1.00  0.00     0.037 A 
ATOM     57  C   UNL A   1      45.152  32.147  31.131  1.00  0.00     0.049 A 
ATOM     58  C   UNL A   1      39.402  32.212  31.477  1.00  0.00     0.074 A 
ATOM     59  C   UNL A   1      45.733  31.086  31.800  1.00  0.00     0.029 A 
ATOM     60  N   UNL A   1      44.201  32.646  31.988  1.00  0.00    -0.354 N 
ATOM     61  N   UNL A   1      39.971  31.691  32.531  1.00  0.00    -0.248 NA
ATOM     62  C   UNL A   1      40.101  33.346  30.891  1.00  0.00     0.031 C 
ATOM     63  C   UNL A   1      44.773  30.699  32.779  1.00  0.00     0.029 A 
ATOM     64  C   UNL A   1      43.693  31.576  32.681  1.00  0.00     0.049 A 
ATOM     65  H   UNL A   1      43.935  33.589  32.085  1.00  0.00     0.167 HD
ATOM     66  C   UNL A   1      41.280  32.150  32.498  1.00  0.00     0.074 A 
ATOM     67  C   UNL A   1      41.277  33.230  31.513  1.00  0.00     0.031 C 
ATOM     68  C   UNL A   1      42.303  31.443  33.064  1.00  0.00     0.037 A 
BRANCH  55  69
ATOM     69  C   UNL A   1      45.397  34.033  29.380  1.00  0.00     0.058 A 
ATOM     70  C   UNL A   1      44.308  34.881  29.084  1.00  0.00     0.135 A 
ATOM     71  C   UNL A   1      46.668  34.531  29.015  1.00  0.00     0.135 A 
ATOM     72  F   UNL A   1      43.052  34.514  29.387  1.00  0.00    -0.206 F 
ATOM     73  C   UNL A   1      44.463  36.088  28.399  1.00  0.00     0.059 A 
ATOM     74  C   UNL A   1      46.849  35.754  28.380  1.00  0.00     0.059 A 
ATOM     75  F   UNL A   1      47.786  33.811  29.163  1.00  0.00    -0.206 F 
ATOM     76  C   UNL A   1      45.739  36.504  28.032  1.00  0.00     0.060 A 
BRANCH  76  77
ATOM     77  S   UNL A   1      45.932  37.981  27.020  1.00  0.00     0.124 S 
ATOM     78  O   UNL A   1      46.719  37.466  25.904  1.00  0.00    -0.237 OA
ATOM     79  O   UNL A   1      44.546  38.326  26.721  1.00  0.00    -0.237 OA
ATOM     80  O   UNL A   1      46.627  38.908  27.908  1.00  0.00    -0.744 OA
ENDBRANCH  76  77
ENDBRANCH  55  69
BRANCH  56  81
ATOM     81  C   UNL A   1      37.095  32.063  30.242  1.00  0.00     0.058 A 
ATOM     82  C   UNL A   1      36.123  32.405  31.197  1.00  0.00     0.135 A 
ATOM     83  C   UNL A   1      36.857  32.520  28.928  1.00  0.00     0.135 A 
ATOM     84  F   UNL A   1      36.284  32.046  32.480  1.00  0.00    -0.206 F 
ATOM     85  C   UNL A   1      34.994  33.169  30.875  1.00  0.00     0.059 A 
ATOM     86  C   UNL A   1      35.737  33.272  28.580  1.00  0.00     0.059 A 
ATOM     87  F   UNL A   1      37.756  32.323  27.952  1.00  0.00    -0.206 F 
ATOM     88  C   UNL A   1      34.817  33.612  29.563  1.00  0.00     0.060 A 
BRANCH  88  89
ATOM     89  S   UNL A   1      33.434  34.707  29.166  1.00  0.00     0.124 S 
ATOM     90  O   UNL A   1      32.794  34.870  30.466  1.00  0.00    -0.237 OA
ATOM     91  O   UNL A   1      34.116  35.882  28.638  1.00  0.00    -0.237 OA
ATOM     92  O   UNL A   1      32.665  33.943  28.187  1.00  0.00    -0.744 OA
ENDBRANCH  88  89
ENDBRANCH  56  81
BRANCH  68  93
ATOM     93  C   UNL A   1      41.967  30.263  33.942  1.00  0.00     0.058 A 
ATOM     94  C   UNL A   1      41.762  28.960  33.452  1.00  0.00     0.135 A 
ATOM     95  C   UNL A   1      42.064  30.413  35.333  1.00  0.00     0.135 A 
ATOM     96  F   UNL A   1      41.760  28.712  32.136  1.00  0.00    -0.206 F 
ATOM     97  C   UNL A   1      41.641  27.862  34.305  1.00  0.00     0.059 A 
ATOM     98  C   UNL A   1      41.975  29.328  36.203  1.00  0.00     0.059 A 
ATOM     99  F   UNL A   1      42.322  31.621  35.862  1.00  0.00    -0.206 F 
ATOM    100  C   UNL A   1      41.762  28.054  35.681  1.00  0.00     0.060 A 
BRANCH 100 101
ATOM    101  S   UNL A   1      41.738  26.614  36.773  1.00  0.00     0.124 S 
ATOM    102  O   UNL A   1      42.964  26.799  37.548  1.00  0.00    -0.237 OA
ATOM    103  O   UNL A   1      40.491  26.803  37.513  1.00  0.00    -0.237 OA
ATOM    104  O   UNL A   1      41.744  25.485  35.856  1.00  0.00    -0.744 OA
ENDBRANCH 100 101
ENDBRANCH  68  93
ENDBRANCH  42  43
ENDBRANCH  34  37
ENDBRANCH  32  33
ENDBRANCH   1  32
TORSDOF 17
ENDMDL
