MODEL 1
REMARK VINA RESULT:     -11.0      0.000      0.000
REMARK SMILES C[C@H](NC(=O)N(CC(=O)NCCCCNC(=O)c1ccc(-c2c3nc(c(-c4c(F)cc(S(=O)(=O)[O-])cc4F)c4ccc([nH]4)c(-c4c(F)cc(S(=O)(=O)[O-])cc4F)c4nc(c(-c5c(F)cc(S(=O)(=O)[O-])cc5F)c5ccc2[nH]5)C=C4)C=C3)cc1)CC(F)(F)F)[C@@H]1CCCO1
REMARK SMILES IDX 12 1 11 2 10 3 8 4 9 5 7 7 6 8 4 9 3 10 5 12 2 13 1 14 89 15
REMARK SMILES IDX 90 16 93 17 91 18 92 19 84 20 85 21 86 22 87 23 88 24 13 25
REMARK SMILES IDX 14 26 15 27 16 28 17 30 18 31 19 32 83 33 20 34 82 35 21 36
REMARK SMILES IDX 22 37 23 38 76 39 24 40 81 41 75 42 77 43 25 44 80 45 74 46
REMARK SMILES IDX 73 47 26 49 60 50 39 51 59 52 40 53 43 54 58 55 78 56 41 57
REMARK SMILES IDX 42 58 57 60 79 61 44 62 27 63 28 64 37 65 29 66 30 67 36 68
REMARK SMILES IDX 38 69 31 70 32 71 33 72 34 73 35 74 61 75 62 76 71 77 63 78
REMARK SMILES IDX 64 79 70 80 72 81 65 82 66 83 67 84 68 85 69 86 45 87 46 88
REMARK SMILES IDX 55 89 47 90 48 91 54 92 56 93 49 94 50 95 51 96 52 97 53 98
REMARK H PARENT 10 6 3 11 15 29 77 48 43 59
REMARK Flexibility Score: inf
ROOT
ATOM      1  C   UNL A   1      31.557  27.765  25.804  1.00  0.00     0.023 C 
ENDROOT
BRANCH   1   2
ATOM      2  C   UNL A   1      30.464  26.723  25.609  1.00  0.00     0.116 C 
BRANCH   2   3
ATOM      3  N   UNL A   1      30.654  25.519  26.392  1.00  0.00    -0.355 N 
ATOM      4  C   UNL A   1      31.698  24.654  26.490  1.00  0.00     0.239 C 
ATOM      5  O   UNL A   1      31.667  23.857  27.436  1.00  0.00    -0.273 OA
ATOM      6  H   UNL A   1      29.884  25.283  26.959  1.00  0.00     0.163 HD
BRANCH   4   7
ATOM      7  C   UNL A   1      32.967  24.719  25.620  1.00  0.00     0.221 C 
BRANCH   7   8
ATOM      8  N   UNL A   1      33.032  24.052  24.333  1.00  0.00    -0.306 N 
BRANCH   8   9
ATOM      9  C   UNL A   1      32.433  22.901  23.950  1.00  0.00     0.318 C 
ATOM     10  N   UNL A   1      32.925  21.667  24.050  1.00  0.00    -0.333 N 
ATOM     11  H   UNL A   1      32.301  21.096  23.548  1.00  0.00     0.165 HD
ATOM     12  O   UNL A   1      31.320  22.936  23.410  1.00  0.00    -0.249 OA
BRANCH  10  13
ATOM     13  C   UNL A   1      33.969  20.749  24.563  1.00  0.00     0.109 C 
ATOM     14  C   UNL A   1      34.896  21.114  25.721  1.00  0.00     0.034 C 
BRANCH  13  15
ATOM     15  C   UNL A   1      33.439  19.299  24.664  1.00  0.00     0.140 C 
ATOM     16  C   UNL A   1      34.445  18.197  24.354  1.00  0.00     0.036 C 
ATOM     17  O   UNL A   1      32.327  19.129  23.756  1.00  0.00    -0.376 OA
ATOM     18  C   UNL A   1      33.592  17.159  23.662  1.00  0.00     0.031 C 
ATOM     19  C   UNL A   1      32.603  18.013  22.906  1.00  0.00     0.160 C 
ENDBRANCH  13  15
ENDBRANCH  10  13
ENDBRANCH   8   9
BRANCH   8  20
ATOM     20  C   UNL A   1      33.864  24.740  23.306  1.00  0.00     0.237 C 
BRANCH  20  21
ATOM     21  C   UNL A   1      33.279  25.998  22.657  1.00  0.00     0.406 C 
ATOM     22  F   UNL A   1      33.840  27.135  23.111  1.00  0.00    -0.169 F 
ATOM     23  F   UNL A   1      33.471  25.960  21.315  1.00  0.00    -0.169 F 
ATOM     24  F   UNL A   1      31.945  26.072  22.859  1.00  0.00    -0.169 F 
ENDBRANCH  20  21
ENDBRANCH   8  20
ENDBRANCH   7   8
ENDBRANCH   4   7
ENDBRANCH   2   3
ENDBRANCH   1   2
BRANCH   1  25
ATOM     25  C   UNL A   1      31.979  27.988  27.252  1.00  0.00     0.023 C 
BRANCH  25  26
ATOM     26  C   UNL A   1      33.393  28.524  27.429  1.00  0.00     0.116 C 
BRANCH  26  27
ATOM     27  N   UNL A   1      33.422  29.944  27.748  1.00  0.00    -0.352 N 
ATOM     28  C   UNL A   1      34.446  30.695  28.284  1.00  0.00     0.251 C 
ATOM     29  H   UNL A   1      32.594  30.439  27.554  1.00  0.00     0.163 HD
ATOM     30  O   UNL A   1      34.251  31.848  28.636  1.00  0.00    -0.269 OA
BRANCH  28  31
ATOM     31  C   UNL A   1      35.776  30.073  28.456  1.00  0.00     0.039 A 
ATOM     32  C   UNL A   1      36.663  30.061  27.379  1.00  0.00     0.014 A 
ATOM     33  C   UNL A   1      36.160  29.559  29.698  1.00  0.00     0.014 A 
ATOM     34  C   UNL A   1      37.973  29.619  27.573  1.00  0.00     0.010 A 
ATOM     35  C   UNL A   1      37.485  29.193  29.908  1.00  0.00     0.010 A 
ATOM     36  C   UNL A   1      38.408  29.232  28.851  1.00  0.00    -0.014 A 
BRANCH  36  37
ATOM     37  C   UNL A   1      39.832  28.911  29.121  1.00  0.00     0.031 A 
ATOM     38  C   UNL A   1      40.766  29.973  29.628  1.00  0.00     0.074 A 
ATOM     39  C   UNL A   1      40.305  27.688  28.805  1.00  0.00     0.049 A 
ATOM     40  N   UNL A   1      42.056  29.910  29.827  1.00  0.00    -0.248 NA
ATOM     41  C   UNL A   1      40.175  31.289  29.919  1.00  0.00     0.031 C 
ATOM     42  C   UNL A   1      39.511  26.596  28.235  1.00  0.00     0.029 A 
ATOM     43  N   UNL A   1      41.571  27.165  28.891  1.00  0.00    -0.354 N 
ATOM     44  C   UNL A   1      42.438  31.180  30.242  1.00  0.00     0.074 A 
ATOM     45  C   UNL A   1      41.248  32.004  30.225  1.00  0.00     0.031 C 
ATOM     46  C   UNL A   1      40.307  25.535  28.028  1.00  0.00     0.029 A 
ATOM     47  C   UNL A   1      41.671  25.880  28.415  1.00  0.00     0.049 A 
ATOM     48  H   UNL A   1      42.335  27.665  29.260  1.00  0.00     0.167 HD
ATOM     49  C   UNL A   1      43.664  31.613  30.618  1.00  0.00     0.037 A 
ATOM     50  C   UNL A   1      42.743  25.073  28.286  1.00  0.00     0.037 A 
ATOM     51  C   UNL A   1      44.836  30.777  30.660  1.00  0.00     0.049 A 
ATOM     52  C   UNL A   1      44.089  25.566  28.733  1.00  0.00     0.074 A 
ATOM     53  C   UNL A   1      46.100  31.092  31.128  1.00  0.00     0.029 A 
ATOM     54  N   UNL A   1      44.891  29.467  30.209  1.00  0.00    -0.354 N 
ATOM     55  N   UNL A   1      44.415  26.739  29.220  1.00  0.00    -0.248 NA
ATOM     56  C   UNL A   1      45.214  24.627  28.620  1.00  0.00     0.031 C 
ATOM     57  C   UNL A   1      46.932  29.986  30.914  1.00  0.00     0.029 A 
ATOM     58  C   UNL A   1      46.175  28.968  30.353  1.00  0.00     0.049 A 
ATOM     59  H   UNL A   1      44.129  28.965  29.839  1.00  0.00     0.167 HD
ATOM     60  C   UNL A   1      45.779  26.679  29.478  1.00  0.00     0.074 A 
ATOM     61  C   UNL A   1      46.214  25.346  29.112  1.00  0.00     0.031 C 
ATOM     62  C   UNL A   1      46.597  27.643  29.971  1.00  0.00     0.037 A 
BRANCH  49  63
ATOM     63  C   UNL A   1      43.798  33.058  31.011  1.00  0.00     0.058 A 
ATOM     64  C   UNL A   1      44.101  34.056  30.070  1.00  0.00     0.135 A 
ATOM     65  C   UNL A   1      43.607  33.455  32.345  1.00  0.00     0.135 A 
ATOM     66  F   UNL A   1      44.307  33.731  28.783  1.00  0.00    -0.206 F 
ATOM     67  C   UNL A   1      44.251  35.387  30.443  1.00  0.00     0.059 A 
ATOM     68  C   UNL A   1      43.725  34.786  32.736  1.00  0.00     0.059 A 
ATOM     69  F   UNL A   1      43.313  32.543  33.286  1.00  0.00    -0.206 F 
ATOM     70  C   UNL A   1      44.066  35.741  31.781  1.00  0.00     0.060 A 
BRANCH  70  71
ATOM     71  S   UNL A   1      44.281  37.470  32.253  1.00  0.00     0.124 S 
ATOM     72  O   UNL A   1      45.674  37.481  32.690  1.00  0.00    -0.237 OA
ATOM     73  O   UNL A   1      44.003  38.174  31.006  1.00  0.00    -0.237 OA
ATOM     74  O   UNL A   1      43.291  37.659  33.310  1.00  0.00    -0.744 OA
ENDBRANCH  70  71
ENDBRANCH  49  63
BRANCH  50  75
ATOM     75  C   UNL A   1      42.568  23.714  27.711  1.00  0.00     0.058 A 
ATOM     76  C   UNL A   1      42.669  23.494  26.330  1.00  0.00     0.135 A 
ATOM     77  C   UNL A   1      42.352  22.600  28.537  1.00  0.00     0.135 A 
ATOM     78  F   UNL A   1      42.868  24.529  25.500  1.00  0.00    -0.206 F 
ATOM     79  C   UNL A   1      42.566  22.218  25.786  1.00  0.00     0.059 A 
ATOM     80  C   UNL A   1      42.265  21.311  28.019  1.00  0.00     0.059 A 
ATOM     81  F   UNL A   1      42.264  22.756  29.868  1.00  0.00    -0.206 F 
ATOM     82  C   UNL A   1      42.370  21.131  26.641  1.00  0.00     0.060 A 
BRANCH  82  83
ATOM     83  S   UNL A   1      42.322  19.469  25.933  1.00  0.00     0.124 S 
ATOM     84  O   UNL A   1      43.174  19.625  24.760  1.00  0.00    -0.237 OA
ATOM     85  O   UNL A   1      42.868  18.658  27.017  1.00  0.00    -0.237 OA
ATOM     86  O   UNL A   1      40.902  19.263  25.661  1.00  0.00    -0.744 OA
ENDBRANCH  82  83
ENDBRANCH  50  75
BRANCH  62  87
ATOM     87  C   UNL A   1      48.049  27.295  30.141  1.00  0.00     0.058 A 
ATOM     88  C   UNL A   1      49.000  27.633  29.167  1.00  0.00     0.135 A 
ATOM     89  C   UNL A   1      48.502  26.673  31.315  1.00  0.00     0.135 A 
ATOM     90  F   UNL A   1      48.617  28.222  28.023  1.00  0.00    -0.206 F 
ATOM     91  C   UNL A   1      50.352  27.354  29.346  1.00  0.00     0.059 A 
ATOM     92  C   UNL A   1      49.851  26.405  31.524  1.00  0.00     0.059 A 
ATOM     93  F   UNL A   1      47.632  26.336  32.281  1.00  0.00    -0.206 F 
ATOM     94  C   UNL A   1      50.767  26.743  30.529  1.00  0.00     0.060 A 
BRANCH  94  95
ATOM     95  S   UNL A   1      52.530  26.426  30.767  1.00  0.00     0.124 S 
ATOM     96  O   UNL A   1      52.502  25.223  31.592  1.00  0.00    -0.237 OA
ATOM     97  O   UNL A   1      53.003  26.247  29.398  1.00  0.00    -0.237 OA
ATOM     98  O   UNL A   1      53.004  27.636  31.434  1.00  0.00    -0.744 OA
ENDBRANCH  94  95
ENDBRANCH  62  87
ENDBRANCH  36  37
ENDBRANCH  28  31
ENDBRANCH  26  27
ENDBRANCH  25  26
ENDBRANCH   1  25
TORSDOF 20
ENDMDL
MODEL 2
REMARK VINA RESULT:     -10.8      2.743      3.686
REMARK SMILES C[C@H](NC(=O)N(CC(=O)NCCCCNC(=O)c1ccc(-c2c3nc(c(-c4c(F)cc(S(=O)(=O)[O-])cc4F)c4ccc([nH]4)c(-c4c(F)cc(S(=O)(=O)[O-])cc4F)c4nc(c(-c5c(F)cc(S(=O)(=O)[O-])cc5F)c5ccc2[nH]5)C=C4)C=C3)cc1)CC(F)(F)F)[C@@H]1CCCO1
REMARK SMILES IDX 12 1 11 2 10 3 8 4 9 5 7 7 6 8 4 9 3 10 5 12 2 13 1 14 89 15
REMARK SMILES IDX 90 16 93 17 91 18 92 19 84 20 85 21 86 22 87 23 88 24 13 25
REMARK SMILES IDX 14 26 15 27 16 28 17 30 18 31 19 32 83 33 20 34 82 35 21 36
REMARK SMILES IDX 22 37 23 38 76 39 24 40 81 41 75 42 77 43 25 44 80 45 74 46
REMARK SMILES IDX 73 47 26 49 60 50 39 51 59 52 40 53 43 54 58 55 78 56 41 57
REMARK SMILES IDX 42 58 57 60 79 61 44 62 27 63 28 64 37 65 29 66 30 67 36 68
REMARK SMILES IDX 38 69 31 70 32 71 33 72 34 73 35 74 61 75 62 76 71 77 63 78
REMARK SMILES IDX 64 79 70 80 72 81 65 82 66 83 67 84 68 85 69 86 45 87 46 88
REMARK SMILES IDX 55 89 47 90 48 91 54 92 56 93 49 94 50 95 51 96 52 97 53 98
REMARK H PARENT 10 6 3 11 15 29 77 48 43 59
REMARK Flexibility Score: inf
ROOT
ATOM      1  C   UNL A   1      33.291  29.919  26.782  1.00  0.00     0.023 C 
ENDROOT
BRANCH   1   2
ATOM      2  C   UNL A   1      32.473  29.593  25.540  1.00  0.00     0.116 C 
BRANCH   2   3
ATOM      3  N   UNL A   1      33.250  29.556  24.317  1.00  0.00    -0.355 N 
ATOM      4  C   UNL A   1      33.666  28.523  23.537  1.00  0.00     0.239 C 
ATOM      5  O   UNL A   1      34.097  28.818  22.416  1.00  0.00    -0.273 OA
ATOM      6  H   UNL A   1      33.527  30.442  23.989  1.00  0.00     0.163 HD
BRANCH   4   7
ATOM      7  C   UNL A   1      33.480  27.036  23.889  1.00  0.00     0.221 C 
BRANCH   7   8
ATOM      8  N   UNL A   1      32.706  26.152  23.037  1.00  0.00    -0.306 N 
BRANCH   8   9
ATOM      9  C   UNL A   1      33.145  25.141  22.252  1.00  0.00     0.318 C 
ATOM     10  N   UNL A   1      33.465  23.907  22.636  1.00  0.00    -0.333 N 
ATOM     11  H   UNL A   1      33.880  23.488  21.849  1.00  0.00     0.165 HD
ATOM     12  O   UNL A   1      33.319  25.332  21.042  1.00  0.00    -0.249 OA
BRANCH  10  13
ATOM     13  C   UNL A   1      33.491  22.867  23.691  1.00  0.00     0.109 C 
ATOM     14  C   UNL A   1      32.912  21.468  23.490  1.00  0.00     0.034 C 
BRANCH  13  15
ATOM     15  C   UNL A   1      34.856  22.843  24.421  1.00  0.00     0.140 C 
ATOM     16  C   UNL A   1      36.090  22.787  23.529  1.00  0.00     0.036 C 
ATOM     17  O   UNL A   1      34.912  21.696  25.298  1.00  0.00    -0.376 OA
ATOM     18  C   UNL A   1      37.032  21.914  24.326  1.00  0.00     0.031 C 
ATOM     19  C   UNL A   1      36.085  20.940  24.983  1.00  0.00     0.160 C 
ENDBRANCH  13  15
ENDBRANCH  10  13
ENDBRANCH   8   9
BRANCH   8  20
ATOM     20  C   UNL A   1      31.235  26.396  23.043  1.00  0.00     0.237 C 
BRANCH  20  21
ATOM     21  C   UNL A   1      30.362  25.401  23.811  1.00  0.00     0.406 C 
ATOM     22  F   UNL A   1      30.069  24.296  23.097  1.00  0.00    -0.169 F 
ATOM     23  F   UNL A   1      31.000  24.997  24.937  1.00  0.00    -0.169 F 
ATOM     24  F   UNL A   1      29.203  25.973  24.202  1.00  0.00    -0.169 F 
ENDBRANCH  20  21
ENDBRANCH   8  20
ENDBRANCH   7   8
ENDBRANCH   4   7
ENDBRANCH   2   3
ENDBRANCH   1   2
BRANCH   1  25
ATOM     25  C   UNL A   1      34.503  29.023  27.004  1.00  0.00     0.023 C 
BRANCH  25  26
ATOM     26  C   UNL A   1      35.675  29.696  27.705  1.00  0.00     0.116 C 
BRANCH  26  27
ATOM     27  N   UNL A   1      35.409  29.973  29.109  1.00  0.00    -0.352 N 
ATOM     28  C   UNL A   1      36.287  30.010  30.170  1.00  0.00     0.251 C 
ATOM     29  H   UNL A   1      34.469  30.160  29.333  1.00  0.00     0.163 HD
ATOM     30  O   UNL A   1      35.872  30.104  31.315  1.00  0.00    -0.269 OA
BRANCH  28  31
ATOM     31  C   UNL A   1      37.738  29.902  29.905  1.00  0.00     0.039 A 
ATOM     32  C   UNL A   1      38.594  29.551  30.949  1.00  0.00     0.014 A 
ATOM     33  C   UNL A   1      38.234  30.092  28.613  1.00  0.00     0.014 A 
ATOM     34  C   UNL A   1      39.939  29.295  30.677  1.00  0.00     0.010 A 
ATOM     35  C   UNL A   1      39.555  29.761  28.331  1.00  0.00     0.010 A 
ATOM     36  C   UNL A   1      40.417  29.346  29.358  1.00  0.00    -0.014 A 
BRANCH  36  37
ATOM     37  C   UNL A   1      41.799  28.925  29.017  1.00  0.00     0.031 A 
ATOM     38  C   UNL A   1      42.911  29.934  28.975  1.00  0.00     0.074 A 
ATOM     39  C   UNL A   1      42.027  27.650  28.640  1.00  0.00     0.049 A 
ATOM     40  N   UNL A   1      44.155  29.776  28.604  1.00  0.00    -0.248 NA
ATOM     41  C   UNL A   1      42.572  31.310  29.371  1.00  0.00     0.031 C 
ATOM     42  C   UNL A   1      41.011  26.596  28.568  1.00  0.00     0.029 A 
ATOM     43  N   UNL A   1      43.177  27.030  28.220  1.00  0.00    -0.354 N 
ATOM     44  C   UNL A   1      44.741  31.032  28.697  1.00  0.00     0.074 A 
ATOM     45  C   UNL A   1      43.705  31.950  29.119  1.00  0.00     0.031 C 
ATOM     46  C   UNL A   1      41.585  25.462  28.136  1.00  0.00     0.029 A 
ATOM     47  C   UNL A   1      42.997  25.714  27.865  1.00  0.00     0.049 A 
ATOM     48  H   UNL A   1      44.049  27.486  28.177  1.00  0.00     0.167 HD
ATOM     49  C   UNL A   1      46.028  31.384  28.469  1.00  0.00     0.037 A 
ATOM     50  C   UNL A   1      43.864  24.815  27.361  1.00  0.00     0.037 A 
ATOM     51  C   UNL A   1      47.059  30.457  28.078  1.00  0.00     0.049 A 
ATOM     52  C   UNL A   1      45.293  25.220  27.139  1.00  0.00     0.074 A 
ATOM     53  C   UNL A   1      48.414  30.693  27.925  1.00  0.00     0.029 A 
ATOM     54  N   UNL A   1      46.848  29.122  27.767  1.00  0.00    -0.354 N 
ATOM     55  N   UNL A   1      45.855  26.389  27.330  1.00  0.00    -0.248 NA
ATOM     56  C   UNL A   1      46.209  24.185  26.638  1.00  0.00     0.031 C 
ATOM     57  C   UNL A   1      49.014  29.511  27.476  1.00  0.00     0.029 A 
ATOM     58  C   UNL A   1      48.040  28.528  27.389  1.00  0.00     0.049 A 
ATOM     59  H   UNL A   1      45.977  28.664  27.808  1.00  0.00     0.167 HD
ATOM     60  C   UNL A   1      47.191  26.231  26.981  1.00  0.00     0.074 A 
ATOM     61  C   UNL A   1      47.357  24.847  26.585  1.00  0.00     0.031 C 
ATOM     62  C   UNL A   1      48.188  27.151  26.984  1.00  0.00     0.037 A 
BRANCH  49  63
ATOM     63  C   UNL A   1      46.391  32.834  28.634  1.00  0.00     0.058 A 
ATOM     64  C   UNL A   1      46.333  33.737  27.559  1.00  0.00     0.135 A 
ATOM     65  C   UNL A   1      46.787  33.331  29.885  1.00  0.00     0.135 A 
ATOM     66  F   UNL A   1      45.972  33.313  26.338  1.00  0.00    -0.206 F 
ATOM     67  C   UNL A   1      46.695  35.071  27.711  1.00  0.00     0.059 A 
ATOM     68  C   UNL A   1      47.128  34.669  30.066  1.00  0.00     0.059 A 
ATOM     69  F   UNL A   1      46.858  32.512  30.947  1.00  0.00    -0.206 F 
ATOM     70  C   UNL A   1      47.097  35.527  28.968  1.00  0.00     0.060 A 
BRANCH  70  71
ATOM     71  S   UNL A   1      47.581  37.257  29.145  1.00  0.00     0.124 S 
ATOM     72  O   UNL A   1      47.749  37.364  30.591  1.00  0.00    -0.237 OA
ATOM     73  O   UNL A   1      48.809  37.322  28.359  1.00  0.00    -0.237 OA
ATOM     74  O   UNL A   1      46.444  37.985  28.590  1.00  0.00    -0.744 OA
ENDBRANCH  70  71
ENDBRANCH  49  63
BRANCH  50  75
ATOM     75  C   UNL A   1      43.390  23.442  27.042  1.00  0.00     0.058 A 
ATOM     76  C   UNL A   1      43.199  23.033  25.715  1.00  0.00     0.135 A 
ATOM     77  C   UNL A   1      43.173  22.497  28.057  1.00  0.00     0.135 A 
ATOM     78  F   UNL A   1      43.387  23.904  24.712  1.00  0.00    -0.206 F 
ATOM     79  C   UNL A   1      42.812  21.734  25.402  1.00  0.00     0.059 A 
ATOM     80  C   UNL A   1      42.805  21.186  27.768  1.00  0.00     0.059 A 
ATOM     81  F   UNL A   1      43.359  22.836  29.343  1.00  0.00    -0.206 F 
ATOM     82  C   UNL A   1      42.624  20.815  26.437  1.00  0.00     0.060 A 
BRANCH  82  83
ATOM     83  S   UNL A   1      42.204  19.110  26.015  1.00  0.00     0.124 S 
ATOM     84  O   UNL A   1      42.579  18.405  27.236  1.00  0.00    -0.237 OA
ATOM     85  O   UNL A   1      40.773  19.203  25.746  1.00  0.00    -0.237 OA
ATOM     86  O   UNL A   1      43.037  18.838  24.847  1.00  0.00    -0.744 OA
ENDBRANCH  82  83
ENDBRANCH  50  75
BRANCH  62  87
ATOM     87  C   UNL A   1      49.550  26.695  26.544  1.00  0.00     0.058 A 
ATOM     88  C   UNL A   1      50.431  26.061  27.434  1.00  0.00     0.135 A 
ATOM     89  C   UNL A   1      49.955  26.837  25.208  1.00  0.00     0.135 A 
ATOM     90  F   UNL A   1      50.095  25.909  28.725  1.00  0.00    -0.206 F 
ATOM     91  C   UNL A   1      51.674  25.596  27.016  1.00  0.00     0.059 A 
ATOM     92  C   UNL A   1      51.184  26.358  24.763  1.00  0.00     0.059 A 
ATOM     93  F   UNL A   1      49.145  27.429  24.315  1.00  0.00    -0.206 F 
ATOM     94  C   UNL A   1      52.040  25.747  25.678  1.00  0.00     0.060 A 
BRANCH  94  95
ATOM     95  S   UNL A   1      53.637  25.099  25.139  1.00  0.00     0.124 S 
ATOM     96  O   UNL A   1      53.684  25.550  23.752  1.00  0.00    -0.237 OA
ATOM     97  O   UNL A   1      54.567  25.757  26.052  1.00  0.00    -0.237 OA
ATOM     98  O   UNL A   1      53.499  23.657  25.326  1.00  0.00    -0.744 OA
ENDBRANCH  94  95
ENDBRANCH  62  87
ENDBRANCH  36  37
ENDBRANCH  28  31
ENDBRANCH  26  27
ENDBRANCH  25  26
ENDBRANCH   1  25
TORSDOF 20
ENDMDL
MODEL 3
REMARK VINA RESULT:     -10.8      3.313      9.601
REMARK SMILES C[C@H](NC(=O)N(CC(=O)NCCCCNC(=O)c1ccc(-c2c3nc(c(-c4c(F)cc(S(=O)(=O)[O-])cc4F)c4ccc([nH]4)c(-c4c(F)cc(S(=O)(=O)[O-])cc4F)c4nc(c(-c5c(F)cc(S(=O)(=O)[O-])cc5F)c5ccc2[nH]5)C=C4)C=C3)cc1)CC(F)(F)F)[C@@H]1CCCO1
REMARK SMILES IDX 12 1 11 2 10 3 8 4 9 5 7 7 6 8 4 9 3 10 5 12 2 13 1 14 89 15
REMARK SMILES IDX 90 16 93 17 91 18 92 19 84 20 85 21 86 22 87 23 88 24 13 25
REMARK SMILES IDX 14 26 15 27 16 28 17 30 18 31 19 32 83 33 20 34 82 35 21 36
REMARK SMILES IDX 22 37 23 38 76 39 24 40 81 41 75 42 77 43 25 44 80 45 74 46
REMARK SMILES IDX 73 47 26 49 60 50 39 51 59 52 40 53 43 54 58 55 78 56 41 57
REMARK SMILES IDX 42 58 57 60 79 61 44 62 27 63 28 64 37 65 29 66 30 67 36 68
REMARK SMILES IDX 38 69 31 70 32 71 33 72 34 73 35 74 61 75 62 76 71 77 63 78
REMARK SMILES IDX 64 79 70 80 72 81 65 82 66 83 67 84 68 85 69 86 45 87 46 88
REMARK SMILES IDX 55 89 47 90 48 91 54 92 56 93 49 94 50 95 51 96 52 97 53 98
REMARK H PARENT 10 6 3 11 15 29 77 48 43 59
REMARK Flexibility Score: inf
ROOT
ATOM      1  C   UNL A   1      35.078  22.997  23.493  1.00  0.00     0.023 C 
ENDROOT
BRANCH   1   2
ATOM      2  C   UNL A   1      34.109  24.153  23.291  1.00  0.00     0.116 C 
BRANCH   2   3
ATOM      3  N   UNL A   1      33.309  24.461  24.460  1.00  0.00    -0.355 N 
ATOM      4  C   UNL A   1      33.144  25.608  25.170  1.00  0.00     0.239 C 
ATOM      5  O   UNL A   1      32.198  25.632  25.967  1.00  0.00    -0.273 OA
ATOM      6  H   UNL A   1      32.788  23.699  24.803  1.00  0.00     0.163 HD
BRANCH   4   7
ATOM      7  C   UNL A   1      33.937  26.906  24.926  1.00  0.00     0.221 C 
BRANCH   7   8
ATOM      8  N   UNL A   1      33.410  27.961  24.080  1.00  0.00    -0.306 N 
BRANCH   8   9
ATOM      9  C   UNL A   1      33.100  27.909  22.764  1.00  0.00     0.318 C 
ATOM     10  N   UNL A   1      31.881  27.887  22.226  1.00  0.00    -0.333 N 
ATOM     11  H   UNL A   1      32.022  27.700  21.271  1.00  0.00     0.165 HD
ATOM     12  O   UNL A   1      34.003  27.841  21.921  1.00  0.00    -0.249 OA
BRANCH  10  13
ATOM     13  C   UNL A   1      30.414  28.011  22.389  1.00  0.00     0.109 C 
ATOM     14  C   UNL A   1      29.624  27.206  23.419  1.00  0.00     0.034 C 
BRANCH  13  15
ATOM     15  C   UNL A   1      29.966  29.492  22.325  1.00  0.00     0.140 C 
ATOM     16  C   UNL A   1      29.686  30.164  23.663  1.00  0.00     0.036 C 
ATOM     17  O   UNL A   1      28.762  29.595  21.534  1.00  0.00    -0.376 OA
ATOM     18  C   UNL A   1      28.525  31.074  23.336  1.00  0.00     0.031 C 
ATOM     19  C   UNL A   1      27.766  30.267  22.311  1.00  0.00     0.160 C 
ENDBRANCH  13  15
ENDBRANCH  10  13
ENDBRANCH   8   9
BRANCH   8  20
ATOM     20  C   UNL A   1      33.178  29.264  24.765  1.00  0.00     0.237 C 
BRANCH  20  21
ATOM     21  C   UNL A   1      32.403  29.234  26.085  1.00  0.00     0.406 C 
ATOM     22  F   UNL A   1      31.258  28.530  26.008  1.00  0.00    -0.169 F 
ATOM     23  F   UNL A   1      33.162  28.666  27.056  1.00  0.00    -0.169 F 
ATOM     24  F   UNL A   1      32.106  30.484  26.502  1.00  0.00    -0.169 F 
ENDBRANCH  20  21
ENDBRANCH   8  20
ENDBRANCH   7   8
ENDBRANCH   4   7
ENDBRANCH   2   3
ENDBRANCH   1   2
BRANCH   1  25
ATOM     25  C   UNL A   1      36.522  23.409  23.756  1.00  0.00     0.023 C 
BRANCH  25  26
ATOM     26  C   UNL A   1      36.942  23.365  25.219  1.00  0.00     0.116 C 
BRANCH  26  27
ATOM     27  N   UNL A   1      38.077  22.483  25.454  1.00  0.00    -0.352 N 
ATOM     28  C   UNL A   1      39.285  22.762  26.055  1.00  0.00     0.251 C 
ATOM     29  H   UNL A   1      37.966  21.558  25.138  1.00  0.00     0.163 HD
ATOM     30  O   UNL A   1      40.193  21.945  26.031  1.00  0.00    -0.269 OA
BRANCH  28  31
ATOM     31  C   UNL A   1      39.478  24.077  26.702  1.00  0.00     0.039 A 
ATOM     32  C   UNL A   1      38.964  24.284  27.983  1.00  0.00     0.014 A 
ATOM     33  C   UNL A   1      40.214  25.078  26.062  1.00  0.00     0.014 A 
ATOM     34  C   UNL A   1      39.273  25.463  28.664  1.00  0.00     0.010 A 
ATOM     35  C   UNL A   1      40.584  26.216  26.770  1.00  0.00     0.010 A 
ATOM     36  C   UNL A   1      40.128  26.414  28.083  1.00  0.00    -0.014 A 
BRANCH  36  37
ATOM     37  C   UNL A   1      40.601  27.598  28.843  1.00  0.00     0.031 A 
ATOM     38  C   UNL A   1      41.925  27.564  29.552  1.00  0.00     0.074 A 
ATOM     39  C   UNL A   1      39.786  28.663  28.982  1.00  0.00     0.049 A 
ATOM     40  N   UNL A   1      42.460  28.458  30.343  1.00  0.00    -0.248 NA
ATOM     41  C   UNL A   1      42.741  26.353  29.374  1.00  0.00     0.031 C 
ATOM     42  C   UNL A   1      38.444  28.781  28.403  1.00  0.00     0.029 A 
ATOM     43  N   UNL A   1      39.950  29.835  29.675  1.00  0.00    -0.354 N 
ATOM     44  C   UNL A   1      43.661  27.909  30.777  1.00  0.00     0.074 A 
ATOM     45  C   UNL A   1      43.755  26.587  30.195  1.00  0.00     0.031 C 
ATOM     46  C   UNL A   1      37.913  29.961  28.761  1.00  0.00     0.029 A 
ATOM     47  C   UNL A   1      38.857  30.667  29.622  1.00  0.00     0.049 A 
ATOM     48  H   UNL A   1      40.776  30.060  30.164  1.00  0.00     0.167 HD
ATOM     49  C   UNL A   1      44.605  28.464  31.573  1.00  0.00     0.037 A 
ATOM     50  C   UNL A   1      38.629  31.855  30.214  1.00  0.00     0.037 A 
ATOM     51  C   UNL A   1      44.515  29.791  32.123  1.00  0.00     0.049 A 
ATOM     52  C   UNL A   1      39.700  32.464  31.073  1.00  0.00     0.074 A 
ATOM     53  C   UNL A   1      45.465  30.485  32.853  1.00  0.00     0.029 A 
ATOM     54  N   UNL A   1      43.410  30.621  32.015  1.00  0.00    -0.354 N 
ATOM     55  N   UNL A   1      40.875  31.975  31.391  1.00  0.00    -0.248 NA
ATOM     56  C   UNL A   1      39.421  33.786  31.651  1.00  0.00     0.031 C 
ATOM     57  C   UNL A   1      44.914  31.716  33.227  1.00  0.00     0.029 A 
ATOM     58  C   UNL A   1      43.637  31.807  32.693  1.00  0.00     0.049 A 
ATOM     59  H   UNL A   1      42.583  30.399  31.527  1.00  0.00     0.167 HD
ATOM     60  C   UNL A   1      41.479  32.930  32.200  1.00  0.00     0.074 A 
ATOM     61  C   UNL A   1      40.547  34.035  32.306  1.00  0.00     0.031 C 
ATOM     62  C   UNL A   1      42.694  32.893  32.802  1.00  0.00     0.037 A 
BRANCH  49  63
ATOM     63  C   UNL A   1      45.814  27.631  31.898  1.00  0.00     0.058 A 
ATOM     64  C   UNL A   1      45.860  26.805  33.033  1.00  0.00     0.135 A 
ATOM     65  C   UNL A   1      46.937  27.647  31.055  1.00  0.00     0.135 A 
ATOM     66  F   UNL A   1      44.819  26.761  33.880  1.00  0.00    -0.206 F 
ATOM     67  C   UNL A   1      46.991  26.058  33.344  1.00  0.00     0.059 A 
ATOM     68  C   UNL A   1      48.070  26.886  31.332  1.00  0.00     0.059 A 
ATOM     69  F   UNL A   1      46.947  28.417  29.955  1.00  0.00    -0.206 F 
ATOM     70  C   UNL A   1      48.095  26.110  32.489  1.00  0.00     0.060 A 
BRANCH  70  71
ATOM     71  S   UNL A   1      49.562  25.148  32.915  1.00  0.00     0.124 S 
ATOM     72  O   UNL A   1      48.994  24.125  33.786  1.00  0.00    -0.237 OA
ATOM     73  O   UNL A   1      50.023  24.684  31.610  1.00  0.00    -0.237 OA
ATOM     74  O   UNL A   1      50.427  26.123  33.572  1.00  0.00    -0.744 OA
ENDBRANCH  70  71
ENDBRANCH  49  63
BRANCH  50  75
ATOM     75  C   UNL A   1      37.328  32.541  29.999  1.00  0.00     0.058 A 
ATOM     76  C   UNL A   1      36.203  32.215  30.769  1.00  0.00     0.135 A 
ATOM     77  C   UNL A   1      37.200  33.573  29.056  1.00  0.00     0.135 A 
ATOM     78  F   UNL A   1      36.275  31.231  31.678  1.00  0.00    -0.206 F 
ATOM     79  C   UNL A   1      34.996  32.890  30.617  1.00  0.00     0.059 A 
ATOM     80  C   UNL A   1      36.009  34.277  28.900  1.00  0.00     0.059 A 
ATOM     81  F   UNL A   1      38.253  33.933  28.306  1.00  0.00    -0.206 F 
ATOM     82  C   UNL A   1      34.911  33.925  29.683  1.00  0.00     0.060 A 
BRANCH  82  83
ATOM     83  S   UNL A   1      33.365  34.850  29.552  1.00  0.00     0.124 S 
ATOM     84  O   UNL A   1      32.572  33.976  28.696  1.00  0.00    -0.237 OA
ATOM     85  O   UNL A   1      32.940  34.936  30.946  1.00  0.00    -0.237 OA
ATOM     86  O   UNL A   1      33.781  36.115  28.954  1.00  0.00    -0.744 OA
ENDBRANCH  82  83
ENDBRANCH  50  75
BRANCH  62  87
ATOM     87  C   UNL A   1      43.089  34.080  33.634  1.00  0.00     0.058 A 
ATOM     88  C   UNL A   1      43.664  35.221  33.054  1.00  0.00     0.135 A 
ATOM     89  C   UNL A   1      42.834  34.102  35.015  1.00  0.00     0.135 A 
ATOM     90  F   UNL A   1      43.935  35.247  31.739  1.00  0.00    -0.206 F 
ATOM     91  C   UNL A   1      43.986  36.339  33.817  1.00  0.00     0.059 A 
ATOM     92  C   UNL A   1      43.127  35.218  35.792  1.00  0.00     0.059 A 
ATOM     93  F   UNL A   1      42.278  33.039  35.617  1.00  0.00    -0.206 F 
ATOM     94  C   UNL A   1      43.711  36.329  35.185  1.00  0.00     0.060 A 
BRANCH  94  95
ATOM     95  S   UNL A   1      44.093  37.803  36.155  1.00  0.00     0.124 S 
ATOM     96  O   UNL A   1      43.718  38.868  35.231  1.00  0.00    -0.237 OA
ATOM     97  O   UNL A   1      43.230  37.642  37.322  1.00  0.00    -0.237 OA
ATOM     98  O   UNL A   1      45.523  37.674  36.419  1.00  0.00    -0.744 OA
ENDBRANCH  94  95
ENDBRANCH  62  87
ENDBRANCH  36  37
ENDBRANCH  28  31
ENDBRANCH  26  27
ENDBRANCH  25  26
ENDBRANCH   1  25
TORSDOF 20
ENDMDL
