MODEL 1
REMARK VINA RESULT:     -13.2      0.000      0.000
REMARK SMILES COc1ccc2c(c1)c(Cc1nc(-c3ccc(C(=O)NCCCCNC(=O)c4ccc(-c5c6nc(c(-c7c(F)cc(S(=O)(=O)[O-])cc7F)c7ccc([nH]7)c(-c7c(F)cc(S(=O)(=O)[O-])cc7F)c7nc(c(-c8c(F)cc(S(=O)(=O)[O-])cc8F)c8ccc5[nH]8)C=C7)C=C6)cc4)cc3)cs1)c(C)n2C(=O)c1ccc(Cl)cc1
REMARK SMILES IDX 21 1 20 2 18 3 19 4 17 6 14 7 15 8 95 9 16 10 94 11 13 12
REMARK SMILES IDX 11 13 12 14 97 15 96 16 10 17 9 18 3 19 4 20 8 21 5 22 7 23
REMARK SMILES IDX 6 24 100 25 98 26 99 27 2 28 1 29 101 30 102 31 103 32
REMARK SMILES IDX 104 33 109 34 105 35 108 36 106 37 107 38 22 39 23 40 24 41
REMARK SMILES IDX 25 42 26 43 27 45 28 46 29 47 93 48 30 49 92 50 31 51 32 52
REMARK SMILES IDX 33 53 86 54 34 55 91 56 85 57 87 58 35 59 90 60 84 61 83 62
REMARK SMILES IDX 36 64 70 65 49 66 69 67 50 68 53 69 68 70 88 71 51 72 52 73
REMARK SMILES IDX 67 75 89 76 54 77 37 78 38 79 47 80 39 81 40 82 46 83 48 84
REMARK SMILES IDX 41 85 42 86 43 87 44 88 45 89 71 90 72 91 81 92 73 93 74 94
REMARK SMILES IDX 80 95 82 96 75 97 76 98 77 99 78 100 79 101 55 102 56 103
REMARK SMILES IDX 65 104 57 105 58 106 64 107 66 108 59 109 60 110 61 111
REMARK SMILES IDX 62 112 63 113
REMARK H PARENT 20 5 25 44 87 63 53 74
REMARK Flexibility Score: inf
ROOT
ATOM      1  C   UNL A   1      41.236  20.956  27.241  1.00  0.00     0.116 C 
ENDROOT
BRANCH   1   2
ATOM      2  N   UNL A   1      41.247  22.366  27.591  1.00  0.00    -0.352 N 
ATOM      3  C   UNL A   1      40.306  23.347  27.374  1.00  0.00     0.251 C 
ATOM      4  O   UNL A   1      40.520  24.482  27.798  1.00  0.00    -0.269 OA
ATOM      5  H   UNL A   1      42.059  22.668  28.059  1.00  0.00     0.163 HD
BRANCH   3   6
ATOM      6  C   UNL A   1      39.076  23.092  26.577  1.00  0.00     0.039 A 
ATOM      7  C   UNL A   1      36.657  22.378  25.331  1.00  0.00     0.001 A 
ATOM      8  C   UNL A   1      37.707  21.458  25.407  1.00  0.00     0.011 A 
ATOM      9  C   UNL A   1      36.874  23.688  25.776  1.00  0.00     0.011 A 
ATOM     10  C   UNL A   1      38.907  21.812  26.032  1.00  0.00     0.014 A 
ATOM     11  C   UNL A   1      38.088  24.054  26.362  1.00  0.00     0.014 A 
BRANCH   7  12
ATOM     12  C   UNL A   1      35.364  22.033  24.762  1.00  0.00     0.081 A 
ATOM     13  C   UNL A   1      33.606  22.426  23.475  1.00  0.00     0.098 A 
ATOM     14  N   UNL A   1      34.671  22.966  24.025  1.00  0.00    -0.241 NA
ATOM     15  S   UNL A   1      33.264  20.822  23.984  1.00  0.00    -0.126 S 
ATOM     16  C   UNL A   1      34.714  20.823  24.909  1.00  0.00     0.095 A 
BRANCH  13  17
ATOM     17  C   UNL A   1      32.774  23.129  22.445  1.00  0.00     0.105 C 
BRANCH  17  18
ATOM     18  C   UNL A   1      32.335  24.491  22.935  1.00  0.00    -0.012 A 
ATOM     19  C   UNL A   1      30.550  24.442  26.320  1.00  0.00     0.119 A 
ATOM     20  C   UNL A   1      30.281  25.796  26.368  1.00  0.00     0.048 A 
ATOM     21  C   UNL A   1      31.224  23.917  25.219  1.00  0.00     0.057 A 
ATOM     22  C   UNL A   1      30.666  26.637  25.317  1.00  0.00     0.031 A 
ATOM     23  C   UNL A   1      31.656  24.751  24.159  1.00  0.00     0.008 A 
ATOM     24  C   UNL A   1      31.407  26.124  24.229  1.00  0.00     0.057 A 
ATOM     25  N   UNL A   1      32.007  26.735  23.107  1.00  0.00    -0.280 N 
ATOM     26  C   UNL A   1      32.521  25.710  22.293  1.00  0.00     0.028 A 
ATOM     27  C   UNL A   1      33.196  25.892  20.970  1.00  0.00     0.065 C 
BRANCH  19  28
ATOM     28  O   UNL A   1      30.236  23.557  27.313  1.00  0.00    -0.497 OA
ATOM     29  C   UNL A   1      31.257  22.606  27.594  1.00  0.00     0.278 C 
ENDBRANCH  19  28
BRANCH  25  30
ATOM     30  C   UNL A   1      32.064  28.137  22.854  1.00  0.00     0.262 C 
ATOM     31  O   UNL A   1      33.115  28.638  22.439  1.00  0.00    -0.268 OA
BRANCH  30  32
ATOM     32  C   UNL A   1      30.945  29.081  22.998  1.00  0.00     0.040 A 
ATOM     33  C   UNL A   1      30.899  29.991  24.061  1.00  0.00     0.015 A 
ATOM     34  C   UNL A   1      29.901  29.013  22.067  1.00  0.00     0.015 A 
ATOM     35  C   UNL A   1      29.753  30.772  24.241  1.00  0.00     0.021 A 
ATOM     36  C   UNL A   1      28.766  29.803  22.247  1.00  0.00     0.021 A 
ATOM     37  C   UNL A   1      28.688  30.662  23.344  1.00  0.00     0.041 A 
ATOM     38  Cl  UNL A   1      27.252  31.574  23.606  1.00  0.00    -0.084 Cl
ENDBRANCH  30  32
ENDBRANCH  25  30
ENDBRANCH  17  18
ENDBRANCH  13  17
ENDBRANCH   7  12
ENDBRANCH   3   6
ENDBRANCH   1   2
BRANCH   1  39
ATOM     39  C   UNL A   1      42.330  20.527  26.273  1.00  0.00     0.023 C 
BRANCH  39  40
ATOM     40  C   UNL A   1      43.411  21.557  25.946  1.00  0.00     0.023 C 
BRANCH  40  41
ATOM     41  C   UNL A   1      43.074  22.569  24.851  1.00  0.00     0.116 C 
BRANCH  41  42
ATOM     42  N   UNL A   1      44.123  23.524  24.554  1.00  0.00    -0.352 N 
ATOM     43  C   UNL A   1      44.500  24.728  25.079  1.00  0.00     0.251 C 
ATOM     44  H   UNL A   1      44.692  23.241  23.802  1.00  0.00     0.163 HD
ATOM     45  O   UNL A   1      45.612  25.139  24.734  1.00  0.00    -0.269 OA
BRANCH  43  46
ATOM     46  C   UNL A   1      43.652  25.590  25.944  1.00  0.00     0.039 A 
ATOM     47  C   UNL A   1      42.689  26.485  25.483  1.00  0.00     0.014 A 
ATOM     48  C   UNL A   1      43.963  25.581  27.317  1.00  0.00     0.014 A 
ATOM     49  C   UNL A   1      42.183  27.462  26.328  1.00  0.00     0.010 A 
ATOM     50  C   UNL A   1      43.433  26.535  28.176  1.00  0.00     0.010 A 
ATOM     51  C   UNL A   1      42.616  27.531  27.654  1.00  0.00    -0.014 A 
BRANCH  51  52
ATOM     52  C   UNL A   1      42.197  28.688  28.438  1.00  0.00     0.031 A 
ATOM     53  C   UNL A   1      43.176  29.814  28.499  1.00  0.00     0.074 A 
ATOM     54  C   UNL A   1      40.995  28.756  29.043  1.00  0.00     0.049 A 
ATOM     55  N   UNL A   1      43.819  30.269  29.525  1.00  0.00    -0.248 NA
ATOM     56  C   UNL A   1      43.577  30.426  27.222  1.00  0.00     0.031 C 
ATOM     57  C   UNL A   1      39.836  27.868  28.897  1.00  0.00     0.029 A 
ATOM     58  N   UNL A   1      40.528  29.718  29.883  1.00  0.00    -0.354 N 
ATOM     59  C   UNL A   1      44.572  31.348  29.063  1.00  0.00     0.074 A 
ATOM     60  C   UNL A   1      44.485  31.316  27.624  1.00  0.00     0.031 C 
ATOM     61  C   UNL A   1      38.743  28.469  29.423  1.00  0.00     0.029 A 
ATOM     62  C   UNL A   1      39.154  29.699  30.074  1.00  0.00     0.049 A 
ATOM     63  H   UNL A   1      41.118  30.374  30.321  1.00  0.00     0.167 HD
ATOM     64  C   UNL A   1      45.079  32.303  29.893  1.00  0.00     0.037 A 
ATOM     65  C   UNL A   1      38.414  30.674  30.659  1.00  0.00     0.037 A 
ATOM     66  C   UNL A   1      45.099  31.874  31.263  1.00  0.00     0.049 A 
ATOM     67  C   UNL A   1      39.341  31.469  31.508  1.00  0.00     0.074 A 
ATOM     68  C   UNL A   1      45.759  30.883  31.963  1.00  0.00     0.029 A 
ATOM     69  N   UNL A   1      44.083  32.291  32.090  1.00  0.00    -0.354 N 
ATOM     70  N   UNL A   1      39.940  30.999  32.569  1.00  0.00    -0.248 NA
ATOM     71  C   UNL A   1      39.958  32.645  30.914  1.00  0.00     0.031 C 
ATOM     72  C   UNL A   1      44.815  30.420  32.926  1.00  0.00     0.029 A 
ATOM     73  C   UNL A   1      43.658  31.186  32.784  1.00  0.00     0.049 A 
ATOM     74  H   UNL A   1      43.730  33.206  32.169  1.00  0.00     0.167 HD
ATOM     75  C   UNL A   1      41.213  31.553  32.540  1.00  0.00     0.074 A 
ATOM     76  C   UNL A   1      41.140  32.612  31.535  1.00  0.00     0.031 C 
ATOM     77  C   UNL A   1      42.277  30.934  33.130  1.00  0.00     0.037 A 
BRANCH  64  78
ATOM     78  C   UNL A   1      45.274  33.744  29.497  1.00  0.00     0.058 A 
ATOM     79  C   UNL A   1      44.158  34.580  29.290  1.00  0.00     0.135 A 
ATOM     80  C   UNL A   1      46.512  34.250  29.045  1.00  0.00     0.135 A 
ATOM     81  F   UNL A   1      42.931  34.189  29.670  1.00  0.00    -0.206 F 
ATOM     82  C   UNL A   1      44.260  35.807  28.628  1.00  0.00     0.059 A 
ATOM     83  C   UNL A   1      46.643  35.490  28.430  1.00  0.00     0.059 A 
ATOM     84  F   UNL A   1      47.634  33.519  29.094  1.00  0.00    -0.206 F 
ATOM     85  C   UNL A   1      45.506  36.243  28.187  1.00  0.00     0.060 A 
BRANCH  85  86
ATOM     86  S   UNL A   1      45.620  37.761  27.223  1.00  0.00     0.124 S 
ATOM     87  O   UNL A   1      46.539  37.364  26.162  1.00  0.00    -0.237 OA
ATOM     88  O   UNL A   1      44.233  37.972  26.824  1.00  0.00    -0.237 OA
ATOM     89  O   UNL A   1      46.145  38.731  28.181  1.00  0.00    -0.744 OA
ENDBRANCH  85  86
ENDBRANCH  64  78
BRANCH  65  90
ATOM     90  C   UNL A   1      37.125  31.225  30.156  1.00  0.00     0.058 A 
ATOM     91  C   UNL A   1      36.121  31.645  31.046  1.00  0.00     0.135 A 
ATOM     92  C   UNL A   1      36.972  31.628  28.812  1.00  0.00     0.135 A 
ATOM     93  F   UNL A   1      36.196  31.323  32.346  1.00  0.00    -0.206 F 
ATOM     94  C   UNL A   1      35.061  32.465  30.642  1.00  0.00     0.059 A 
ATOM     95  C   UNL A   1      35.921  32.437  28.385  1.00  0.00     0.059 A 
ATOM     96  F   UNL A   1      37.897  31.329  27.889  1.00  0.00    -0.206 F 
ATOM     97  C   UNL A   1      34.984  32.878  29.311  1.00  0.00     0.060 A 
BRANCH  97  98
ATOM     98  S   UNL A   1      33.728  34.084  28.825  1.00  0.00     0.124 S 
ATOM     99  O   UNL A   1      32.794  33.258  28.067  1.00  0.00    -0.237 OA
ATOM    100  O   UNL A   1      33.250  34.565  30.116  1.00  0.00    -0.237 OA
ATOM    101  O   UNL A   1      34.479  35.058  28.039  1.00  0.00    -0.744 OA
ENDBRANCH  97  98
ENDBRANCH  65  90
BRANCH  77 102
ATOM    102  C   UNL A   1      42.005  29.746  34.020  1.00  0.00     0.058 A 
ATOM    103  C   UNL A   1      41.832  28.433  33.546  1.00  0.00     0.135 A 
ATOM    104  C   UNL A   1      42.077  29.919  35.409  1.00  0.00     0.135 A 
ATOM    105  F   UNL A   1      41.859  28.165  32.234  1.00  0.00    -0.206 F 
ATOM    106  C   UNL A   1      41.694  27.348  34.414  1.00  0.00     0.059 A 
ATOM    107  C   UNL A   1      41.971  28.848  36.294  1.00  0.00     0.059 A 
ATOM    108  F   UNL A   1      42.307  31.138  35.924  1.00  0.00    -0.206 F 
ATOM    109  C   UNL A   1      41.768  27.565  35.790  1.00  0.00     0.060 A 
BRANCH 109 110
ATOM    110  S   UNL A   1      41.663  26.151  36.909  1.00  0.00     0.124 S 
ATOM    111  O   UNL A   1      42.754  26.411  37.841  1.00  0.00    -0.237 OA
ATOM    112  O   UNL A   1      40.315  26.282  37.459  1.00  0.00    -0.237 OA
ATOM    113  O   UNL A   1      41.856  25.001  36.028  1.00  0.00    -0.744 OA
ENDBRANCH 109 110
ENDBRANCH  77 102
ENDBRANCH  51  52
ENDBRANCH  43  46
ENDBRANCH  41  42
ENDBRANCH  40  41
ENDBRANCH  39  40
ENDBRANCH   1  39
TORSDOF 20
ENDMDL
MODEL 2
REMARK VINA RESULT:     -12.5      5.232      9.429
REMARK SMILES COc1ccc2c(c1)c(Cc1nc(-c3ccc(C(=O)NCCCCNC(=O)c4ccc(-c5c6nc(c(-c7c(F)cc(S(=O)(=O)[O-])cc7F)c7ccc([nH]7)c(-c7c(F)cc(S(=O)(=O)[O-])cc7F)c7nc(c(-c8c(F)cc(S(=O)(=O)[O-])cc8F)c8ccc5[nH]8)C=C7)C=C6)cc4)cc3)cs1)c(C)n2C(=O)c1ccc(Cl)cc1
REMARK SMILES IDX 21 1 20 2 18 3 19 4 17 6 14 7 15 8 95 9 16 10 94 11 13 12
REMARK SMILES IDX 11 13 12 14 97 15 96 16 10 17 9 18 3 19 4 20 8 21 5 22 7 23
REMARK SMILES IDX 6 24 100 25 98 26 99 27 2 28 1 29 101 30 102 31 103 32
REMARK SMILES IDX 104 33 109 34 105 35 108 36 106 37 107 38 22 39 23 40 24 41
REMARK SMILES IDX 25 42 26 43 27 45 28 46 29 47 93 48 30 49 92 50 31 51 32 52
REMARK SMILES IDX 33 53 86 54 34 55 91 56 85 57 87 58 35 59 90 60 84 61 83 62
REMARK SMILES IDX 36 64 70 65 49 66 69 67 50 68 53 69 68 70 88 71 51 72 52 73
REMARK SMILES IDX 67 75 89 76 54 77 37 78 38 79 47 80 39 81 40 82 46 83 48 84
REMARK SMILES IDX 41 85 42 86 43 87 44 88 45 89 71 90 72 91 81 92 73 93 74 94
REMARK SMILES IDX 80 95 82 96 75 97 76 98 77 99 78 100 79 101 55 102 56 103
REMARK SMILES IDX 65 104 57 105 58 106 64 107 66 108 59 109 60 110 61 111
REMARK SMILES IDX 62 112 63 113
REMARK H PARENT 20 5 25 44 87 63 53 74
REMARK Flexibility Score: inf
ROOT
ATOM      1  C   UNL A   1      42.595  19.379  25.741  1.00  0.00     0.116 C 
ENDROOT
BRANCH   1   2
ATOM      2  N   UNL A   1      43.847  18.693  25.470  1.00  0.00    -0.352 N 
ATOM      3  C   UNL A   1      45.113  19.194  25.271  1.00  0.00     0.251 C 
ATOM      4  O   UNL A   1      46.043  18.408  25.091  1.00  0.00    -0.269 OA
ATOM      5  H   UNL A   1      43.778  17.713  25.423  1.00  0.00     0.163 HD
BRANCH   3   6
ATOM      6  C   UNL A   1      45.376  20.656  25.190  1.00  0.00     0.039 A 
ATOM      7  C   UNL A   1      46.168  23.355  25.237  1.00  0.00     0.001 A 
ATOM      8  C   UNL A   1      45.703  22.739  26.403  1.00  0.00     0.011 A 
ATOM      9  C   UNL A   1      46.118  22.644  24.031  1.00  0.00     0.011 A 
ATOM     10  C   UNL A   1      45.316  21.395  26.380  1.00  0.00     0.014 A 
ATOM     11  C   UNL A   1      45.689  21.315  24.001  1.00  0.00     0.014 A 
BRANCH   7  12
ATOM     12  C   UNL A   1      46.656  24.725  25.226  1.00  0.00     0.081 A 
ATOM     13  C   UNL A   1      46.675  26.819  25.943  1.00  0.00     0.098 A 
ATOM     14  N   UNL A   1      46.004  25.689  25.960  1.00  0.00    -0.241 NA
ATOM     15  S   UNL A   1      48.017  26.848  24.874  1.00  0.00    -0.126 S 
ATOM     16  C   UNL A   1      47.740  25.190  24.507  1.00  0.00     0.095 A 
BRANCH  13  17
ATOM     17  C   UNL A   1      46.333  27.984  26.822  1.00  0.00     0.105 C 
BRANCH  17  18
ATOM     18  C   UNL A   1      47.195  28.001  28.065  1.00  0.00    -0.012 A 
ATOM     19  C   UNL A   1      45.841  25.878  30.946  1.00  0.00     0.119 A 
ATOM     20  C   UNL A   1      46.835  26.198  31.851  1.00  0.00     0.048 A 
ATOM     21  C   UNL A   1      45.874  26.430  29.667  1.00  0.00     0.057 A 
ATOM     22  C   UNL A   1      47.862  27.081  31.497  1.00  0.00     0.031 A 
ATOM     23  C   UNL A   1      46.922  27.297  29.272  1.00  0.00     0.008 A 
ATOM     24  C   UNL A   1      47.940  27.593  30.182  1.00  0.00     0.057 A 
ATOM     25  N   UNL A   1      48.895  28.398  29.524  1.00  0.00    -0.280 N 
ATOM     26  C   UNL A   1      48.391  28.687  28.243  1.00  0.00     0.028 A 
ATOM     27  C   UNL A   1      49.046  29.556  27.216  1.00  0.00     0.065 C 
BRANCH  19  28
ATOM     28  O   UNL A   1      44.820  25.004  31.200  1.00  0.00    -0.497 OA
ATOM     29  C   UNL A   1      44.510  24.852  32.581  1.00  0.00     0.278 C 
ENDBRANCH  19  28
BRANCH  25  30
ATOM     30  C   UNL A   1      50.134  28.838  30.075  1.00  0.00     0.262 C 
ATOM     31  O   UNL A   1      51.115  28.086  30.041  1.00  0.00    -0.268 OA
BRANCH  30  32
ATOM     32  C   UNL A   1      50.390  30.161  30.662  1.00  0.00     0.040 A 
ATOM     33  C   UNL A   1      51.689  30.674  30.754  1.00  0.00     0.015 A 
ATOM     34  C   UNL A   1      49.299  30.878  31.170  1.00  0.00     0.015 A 
ATOM     35  C   UNL A   1      51.903  31.870  31.445  1.00  0.00     0.021 A 
ATOM     36  C   UNL A   1      49.519  32.077  31.849  1.00  0.00     0.021 A 
ATOM     37  C   UNL A   1      50.821  32.556  32.002  1.00  0.00     0.041 A 
ATOM     38  Cl  UNL A   1      51.094  33.993  32.909  1.00  0.00    -0.084 Cl
ENDBRANCH  30  32
ENDBRANCH  25  30
ENDBRANCH  17  18
ENDBRANCH  13  17
ENDBRANCH   7  12
ENDBRANCH   3   6
ENDBRANCH   1   2
BRANCH   1  39
ATOM     39  C   UNL A   1      42.288  19.595  27.216  1.00  0.00     0.023 C 
BRANCH  39  40
ATOM     40  C   UNL A   1      40.999  20.344  27.555  1.00  0.00     0.023 C 
BRANCH  40  41
ATOM     41  C   UNL A   1      40.988  21.844  27.257  1.00  0.00     0.116 C 
BRANCH  41  42
ATOM     42  N   UNL A   1      41.528  22.216  25.965  1.00  0.00    -0.352 N 
ATOM     43  C   UNL A   1      42.299  23.249  25.509  1.00  0.00     0.251 C 
ATOM     44  H   UNL A   1      41.283  21.582  25.253  1.00  0.00     0.163 HD
ATOM     45  O   UNL A   1      42.784  23.101  24.383  1.00  0.00    -0.269 OA
BRANCH  43  46
ATOM     46  C   UNL A   1      42.516  24.535  26.222  1.00  0.00     0.039 A 
ATOM     47  C   UNL A   1      42.862  24.657  27.567  1.00  0.00     0.014 A 
ATOM     48  C   UNL A   1      42.207  25.701  25.497  1.00  0.00     0.014 A 
ATOM     49  C   UNL A   1      42.729  25.878  28.213  1.00  0.00     0.010 A 
ATOM     50  C   UNL A   1      42.108  26.932  26.131  1.00  0.00     0.010 A 
ATOM     51  C   UNL A   1      42.278  26.996  27.509  1.00  0.00    -0.014 A 
BRANCH  51  52
ATOM     52  C   UNL A   1      41.977  28.198  28.280  1.00  0.00     0.031 A 
ATOM     53  C   UNL A   1      43.021  29.265  28.244  1.00  0.00     0.074 A 
ATOM     54  C   UNL A   1      40.822  28.353  28.956  1.00  0.00     0.049 A 
ATOM     55  N   UNL A   1      43.752  29.711  29.214  1.00  0.00    -0.248 NA
ATOM     56  C   UNL A   1      43.374  29.816  26.926  1.00  0.00     0.031 C 
ATOM     57  C   UNL A   1      39.607  27.531  28.910  1.00  0.00     0.029 A 
ATOM     58  N   UNL A   1      40.465  29.364  29.792  1.00  0.00    -0.354 N 
ATOM     59  C   UNL A   1      44.535  30.730  28.671  1.00  0.00     0.074 A 
ATOM     60  C   UNL A   1      44.354  30.662  27.242  1.00  0.00     0.031 C 
ATOM     61  C   UNL A   1      38.586  28.210  29.483  1.00  0.00     0.029 A 
ATOM     62  C   UNL A   1      39.107  29.432  30.068  1.00  0.00     0.049 A 
ATOM     63  H   UNL A   1      41.117  29.996  30.172  1.00  0.00     0.167 HD
ATOM     64  C   UNL A   1      45.147  31.676  29.437  1.00  0.00     0.037 A 
ATOM     65  C   UNL A   1      38.462  30.465  30.667  1.00  0.00     0.037 A 
ATOM     66  C   UNL A   1      45.229  31.286  30.817  1.00  0.00     0.049 A 
ATOM     67  C   UNL A   1      39.485  31.227  31.430  1.00  0.00     0.074 A 
ATOM     68  C   UNL A   1      45.875  30.278  31.506  1.00  0.00     0.029 A 
ATOM     69  N   UNL A   1      44.294  31.785  31.691  1.00  0.00    -0.354 N 
ATOM     70  N   UNL A   1      40.123  30.753  32.467  1.00  0.00    -0.248 NA
ATOM     71  C   UNL A   1      40.129  32.348  30.762  1.00  0.00     0.031 C 
ATOM     72  C   UNL A   1      44.970  29.899  32.540  1.00  0.00     0.029 A 
ATOM     73  C   UNL A   1      43.851  30.727  32.445  1.00  0.00     0.049 A 
ATOM     74  H   UNL A   1      43.999  32.722  31.762  1.00  0.00     0.167 HD
ATOM     75  C   UNL A   1      41.420  31.230  32.341  1.00  0.00     0.074 A 
ATOM     76  C   UNL A   1      41.345  32.263  31.309  1.00  0.00     0.031 C 
ATOM     77  C   UNL A   1      42.483  30.567  32.884  1.00  0.00     0.037 A 
BRANCH  64  78
ATOM     78  C   UNL A   1      45.398  33.092  28.984  1.00  0.00     0.058 A 
ATOM     79  C   UNL A   1      46.709  33.607  28.962  1.00  0.00     0.135 A 
ATOM     80  C   UNL A   1      44.362  34.041  28.838  1.00  0.00     0.135 A 
ATOM     81  F   UNL A   1      47.767  32.793  29.106  1.00  0.00    -0.206 F 
ATOM     82  C   UNL A   1      46.969  34.977  28.860  1.00  0.00     0.059 A 
ATOM     83  C   UNL A   1      44.601  35.402  28.684  1.00  0.00     0.059 A 
ATOM     84  F   UNL A   1      43.071  33.698  28.936  1.00  0.00    -0.206 F 
ATOM     85  C   UNL A   1      45.905  35.866  28.739  1.00  0.00     0.060 A 
BRANCH  85  86
ATOM     86  S   UNL A   1      46.230  37.638  28.736  1.00  0.00     0.124 S 
ATOM     87  O   UNL A   1      44.954  38.170  29.202  1.00  0.00    -0.237 OA
ATOM     88  O   UNL A   1      47.347  37.743  29.669  1.00  0.00    -0.237 OA
ATOM     89  O   UNL A   1      46.558  37.918  27.341  1.00  0.00    -0.744 OA
ENDBRANCH  85  86
ENDBRANCH  64  78
BRANCH  65  90
ATOM     90  C   UNL A   1      37.177  31.077  30.226  1.00  0.00     0.058 A 
ATOM     91  C   UNL A   1      36.282  31.628  31.160  1.00  0.00     0.135 A 
ATOM     92  C   UNL A   1      36.942  31.400  28.873  1.00  0.00     0.135 A 
ATOM     93  F   UNL A   1      36.442  31.388  32.470  1.00  0.00    -0.206 F 
ATOM     94  C   UNL A   1      35.251  32.497  30.781  1.00  0.00     0.059 A 
ATOM     95  C   UNL A   1      35.918  32.255  28.472  1.00  0.00     0.059 A 
ATOM     96  F   UNL A   1      37.764  30.972  27.905  1.00  0.00    -0.206 F 
ATOM     97  C   UNL A   1      35.093  32.825  29.434  1.00  0.00     0.060 A 
BRANCH  97  98
ATOM     98  S   UNL A   1      33.888  34.087  28.962  1.00  0.00     0.124 S 
ATOM     99  O   UNL A   1      33.041  33.359  28.023  1.00  0.00    -0.237 OA
ATOM    100  O   UNL A   1      33.278  34.422  30.243  1.00  0.00    -0.237 OA
ATOM    101  O   UNL A   1      34.711  35.139  28.372  1.00  0.00    -0.744 OA
ENDBRANCH  97  98
ENDBRANCH  65  90
BRANCH  77 102
ATOM    102  C   UNL A   1      42.201  29.423  33.826  1.00  0.00     0.058 A 
ATOM    103  C   UNL A   1      41.972  28.099  33.409  1.00  0.00     0.135 A 
ATOM    104  C   UNL A   1      42.320  29.645  35.206  1.00  0.00     0.135 A 
ATOM    105  F   UNL A   1      41.952  27.781  32.108  1.00  0.00    -0.206 F 
ATOM    106  C   UNL A   1      41.827  27.052  34.322  1.00  0.00     0.059 A 
ATOM    107  C   UNL A   1      42.207  28.612  36.134  1.00  0.00     0.059 A 
ATOM    108  F   UNL A   1      42.604  30.875  35.666  1.00  0.00    -0.206 F 
ATOM    109  C   UNL A   1      41.949  27.318  35.685  1.00  0.00     0.060 A 
BRANCH 109 110
ATOM    110  S   UNL A   1      41.834  25.952  36.861  1.00  0.00     0.124 S 
ATOM    111  O   UNL A   1      42.335  24.827  36.078  1.00  0.00    -0.237 OA
ATOM    112  O   UNL A   1      42.697  26.399  37.951  1.00  0.00    -0.237 OA
ATOM    113  O   UNL A   1      40.410  25.899  37.187  1.00  0.00    -0.744 OA
ENDBRANCH 109 110
ENDBRANCH  77 102
ENDBRANCH  51  52
ENDBRANCH  43  46
ENDBRANCH  41  42
ENDBRANCH  40  41
ENDBRANCH  39  40
ENDBRANCH   1  39
TORSDOF 20
ENDMDL
MODEL 3
REMARK VINA RESULT:     -12.5      3.870      9.416
REMARK SMILES COc1ccc2c(c1)c(Cc1nc(-c3ccc(C(=O)NCCCCNC(=O)c4ccc(-c5c6nc(c(-c7c(F)cc(S(=O)(=O)[O-])cc7F)c7ccc([nH]7)c(-c7c(F)cc(S(=O)(=O)[O-])cc7F)c7nc(c(-c8c(F)cc(S(=O)(=O)[O-])cc8F)c8ccc5[nH]8)C=C7)C=C6)cc4)cc3)cs1)c(C)n2C(=O)c1ccc(Cl)cc1
REMARK SMILES IDX 21 1 20 2 18 3 19 4 17 6 14 7 15 8 95 9 16 10 94 11 13 12
REMARK SMILES IDX 11 13 12 14 97 15 96 16 10 17 9 18 3 19 4 20 8 21 5 22 7 23
REMARK SMILES IDX 6 24 100 25 98 26 99 27 2 28 1 29 101 30 102 31 103 32
REMARK SMILES IDX 104 33 109 34 105 35 108 36 106 37 107 38 22 39 23 40 24 41
REMARK SMILES IDX 25 42 26 43 27 45 28 46 29 47 93 48 30 49 92 50 31 51 32 52
REMARK SMILES IDX 33 53 86 54 34 55 91 56 85 57 87 58 35 59 90 60 84 61 83 62
REMARK SMILES IDX 36 64 70 65 49 66 69 67 50 68 53 69 68 70 88 71 51 72 52 73
REMARK SMILES IDX 67 75 89 76 54 77 37 78 38 79 47 80 39 81 40 82 46 83 48 84
REMARK SMILES IDX 41 85 42 86 43 87 44 88 45 89 71 90 72 91 81 92 73 93 74 94
REMARK SMILES IDX 80 95 82 96 75 97 76 98 77 99 78 100 79 101 55 102 56 103
REMARK SMILES IDX 65 104 57 105 58 106 64 107 66 108 59 109 60 110 61 111
REMARK SMILES IDX 62 112 63 113
REMARK H PARENT 20 5 25 44 87 63 53 74
REMARK Flexibility Score: inf
ROOT
ATOM      1  C   UNL A   1      38.613  29.542  28.350  1.00  0.00     0.116 C 
ENDROOT
BRANCH   1   2
ATOM      2  N   UNL A   1      40.032  29.543  28.664  1.00  0.00    -0.352 N 
ATOM      3  C   UNL A   1      40.990  28.575  28.465  1.00  0.00     0.251 C 
ATOM      4  O   UNL A   1      42.154  28.816  28.783  1.00  0.00    -0.269 OA
ATOM      5  H   UNL A   1      40.360  30.370  29.085  1.00  0.00     0.163 HD
BRANCH   3   6
ATOM      6  C   UNL A   1      40.645  27.223  27.952  1.00  0.00     0.039 A 
ATOM      7  C   UNL A   1      39.647  24.765  27.013  1.00  0.00     0.001 A 
ATOM      8  C   UNL A   1      39.483  25.124  28.355  1.00  0.00     0.011 A 
ATOM      9  C   UNL A   1      40.416  25.590  26.182  1.00  0.00     0.011 A 
ATOM     10  C   UNL A   1      39.974  26.349  28.819  1.00  0.00     0.014 A 
ATOM     11  C   UNL A   1      40.943  26.793  26.658  1.00  0.00     0.014 A 
BRANCH   7  12
ATOM     12  C   UNL A   1      39.087  23.541  26.464  1.00  0.00     0.081 A 
ATOM     13  C   UNL A   1      37.724  22.419  25.128  1.00  0.00     0.098 A 
ATOM     14  N   UNL A   1      37.989  23.602  25.637  1.00  0.00    -0.241 NA
ATOM     15  S   UNL A   1      38.650  21.128  25.778  1.00  0.00    -0.126 S 
ATOM     16  C   UNL A   1      39.544  22.261  26.714  1.00  0.00     0.095 A 
BRANCH  13  17
ATOM     17  C   UNL A   1      36.728  22.209  24.028  1.00  0.00     0.105 C 
BRANCH  17  18
ATOM     18  C   UNL A   1      35.330  22.043  24.583  1.00  0.00    -0.012 A 
ATOM     19  C   UNL A   1      34.104  18.419  24.689  1.00  0.00     0.119 A 
ATOM     20  C   UNL A   1      32.842  18.701  25.176  1.00  0.00     0.048 A 
ATOM     21  C   UNL A   1      34.998  19.463  24.457  1.00  0.00     0.057 A 
ATOM     22  C   UNL A   1      32.453  20.022  25.423  1.00  0.00     0.031 A 
ATOM     23  C   UNL A   1      34.641  20.806  24.733  1.00  0.00     0.008 A 
ATOM     24  C   UNL A   1      33.374  21.080  25.254  1.00  0.00     0.057 A 
ATOM     25  N   UNL A   1      33.300  22.465  25.519  1.00  0.00    -0.280 N 
ATOM     26  C   UNL A   1      34.489  23.048  25.046  1.00  0.00     0.028 A 
ATOM     27  C   UNL A   1      34.822  24.507  25.068  1.00  0.00     0.065 C 
BRANCH  19  28
ATOM     28  O   UNL A   1      34.574  17.158  24.448  1.00  0.00    -0.497 OA
ATOM     29  C   UNL A   1      34.168  16.189  25.409  1.00  0.00     0.278 C 
ENDBRANCH  19  28
BRANCH  25  30
ATOM     30  C   UNL A   1      32.208  23.136  26.144  1.00  0.00     0.262 C 
ATOM     31  O   UNL A   1      32.024  22.996  27.358  1.00  0.00    -0.268 OA
BRANCH  30  32
ATOM     32  C   UNL A   1      31.267  24.047  25.476  1.00  0.00     0.040 A 
ATOM     33  C   UNL A   1      31.067  23.995  24.091  1.00  0.00     0.015 A 
ATOM     34  C   UNL A   1      30.608  25.002  26.259  1.00  0.00     0.015 A 
ATOM     35  C   UNL A   1      30.273  24.969  23.480  1.00  0.00     0.021 A 
ATOM     36  C   UNL A   1      29.808  25.965  25.643  1.00  0.00     0.021 A 
ATOM     37  C   UNL A   1      29.661  25.957  24.256  1.00  0.00     0.041 A 
ATOM     38  Cl  UNL A   1      28.739  27.194  23.494  1.00  0.00    -0.084 Cl
ENDBRANCH  30  32
ENDBRANCH  25  30
ENDBRANCH  17  18
ENDBRANCH  13  17
ENDBRANCH   7  12
ENDBRANCH   3   6
ENDBRANCH   1   2
BRANCH   1  39
ATOM     39  C   UNL A   1      37.844  30.753  28.857  1.00  0.00     0.023 C 
BRANCH  39  40
ATOM     40  C   UNL A   1      36.721  31.285  27.967  1.00  0.00     0.023 C 
BRANCH  40  41
ATOM     41  C   UNL A   1      35.310  30.791  28.288  1.00  0.00     0.116 C 
BRANCH  41  42
ATOM     42  N   UNL A   1      34.371  31.825  28.676  1.00  0.00    -0.352 N 
ATOM     43  C   UNL A   1      34.394  32.850  29.578  1.00  0.00     0.251 C 
ATOM     44  H   UNL A   1      33.524  31.776  28.175  1.00  0.00     0.163 HD
ATOM     45  O   UNL A   1      33.503  33.696  29.453  1.00  0.00    -0.269 OA
BRANCH  43  46
ATOM     46  C   UNL A   1      35.339  32.967  30.720  1.00  0.00     0.039 A 
ATOM     47  C   UNL A   1      36.341  33.928  30.835  1.00  0.00     0.014 A 
ATOM     48  C   UNL A   1      35.285  31.931  31.673  1.00  0.00     0.014 A 
ATOM     49  C   UNL A   1      37.362  33.764  31.760  1.00  0.00     0.010 A 
ATOM     50  C   UNL A   1      36.285  31.782  32.624  1.00  0.00     0.010 A 
ATOM     51  C   UNL A   1      37.372  32.649  32.601  1.00  0.00    -0.014 A 
BRANCH  51  52
ATOM     52  C   UNL A   1      38.563  32.432  33.415  1.00  0.00     0.031 A 
ATOM     53  C   UNL A   1      38.598  33.165  34.715  1.00  0.00     0.074 A 
ATOM     54  C   UNL A   1      39.555  31.601  33.037  1.00  0.00     0.049 A 
ATOM     55  N   UNL A   1      39.406  34.104  35.089  1.00  0.00    -0.248 NA
ATOM     56  C   UNL A   1      37.511  32.895  35.669  1.00  0.00     0.031 C 
ATOM     57  C   UNL A   1      39.581  30.635  31.933  1.00  0.00     0.029 A 
ATOM     58  N   UNL A   1      40.755  31.393  33.642  1.00  0.00    -0.354 N 
ATOM     59  C   UNL A   1      39.048  34.422  36.399  1.00  0.00     0.074 A 
ATOM     60  C   UNL A   1      37.802  33.742  36.656  1.00  0.00     0.031 C 
ATOM     61  C   UNL A   1      40.624  29.789  32.103  1.00  0.00     0.029 A 
ATOM     62  C   UNL A   1      41.418  30.247  33.229  1.00  0.00     0.049 A 
ATOM     63  H   UNL A   1      41.123  32.007  34.318  1.00  0.00     0.167 HD
ATOM     64  C   UNL A   1      39.882  35.082  37.251  1.00  0.00     0.037 A 
ATOM     65  C   UNL A   1      42.497  29.686  33.830  1.00  0.00     0.037 A 
ATOM     66  C   UNL A   1      40.954  35.741  36.558  1.00  0.00     0.049 A 
ATOM     67  C   UNL A   1      43.146  30.754  34.636  1.00  0.00     0.074 A 
ATOM     68  C   UNL A   1      41.032  36.774  35.645  1.00  0.00     0.029 A 
ATOM     69  N   UNL A   1      42.178  35.118  36.511  1.00  0.00    -0.354 N 
ATOM     70  N   UNL A   1      43.721  31.807  34.120  1.00  0.00    -0.248 NA
ATOM     71  C   UNL A   1      42.752  30.880  36.031  1.00  0.00     0.031 C 
ATOM     72  C   UNL A   1      42.085  36.405  34.758  1.00  0.00     0.029 A 
ATOM     73  C   UNL A   1      42.612  35.195  35.211  1.00  0.00     0.049 A 
ATOM     74  H   UNL A   1      42.651  34.698  37.265  1.00  0.00     0.167 HD
ATOM     75  C   UNL A   1      43.398  32.850  34.977  1.00  0.00     0.074 A 
ATOM     76  C   UNL A   1      42.858  32.204  36.172  1.00  0.00     0.031 C 
ATOM     77  C   UNL A   1      43.344  34.143  34.543  1.00  0.00     0.037 A 
BRANCH  64  78
ATOM     78  C   UNL A   1      39.896  34.874  38.744  1.00  0.00     0.058 A 
ATOM     79  C   UNL A   1      40.148  33.595  39.280  1.00  0.00     0.135 A 
ATOM     80  C   UNL A   1      39.395  35.833  39.652  1.00  0.00     0.135 A 
ATOM     81  F   UNL A   1      40.614  32.606  38.500  1.00  0.00    -0.206 F 
ATOM     82  C   UNL A   1      39.867  33.277  40.612  1.00  0.00     0.059 A 
ATOM     83  C   UNL A   1      39.155  35.551  40.993  1.00  0.00     0.059 A 
ATOM     84  F   UNL A   1      39.024  37.056  39.254  1.00  0.00    -0.206 F 
ATOM     85  C   UNL A   1      39.354  34.260  41.454  1.00  0.00     0.060 A 
BRANCH  85  86
ATOM     86  S   UNL A   1      38.871  33.820  43.133  1.00  0.00     0.124 S 
ATOM     87  O   UNL A   1      39.059  32.373  43.121  1.00  0.00    -0.237 OA
ATOM     88  O   UNL A   1      39.824  34.583  43.933  1.00  0.00    -0.237 OA
ATOM     89  O   UNL A   1      37.486  34.276  43.217  1.00  0.00    -0.744 OA
ENDBRANCH  85  86
ENDBRANCH  64  78
BRANCH  65  90
ATOM     90  C   UNL A   1      42.689  28.238  34.124  1.00  0.00     0.058 A 
ATOM     91  C   UNL A   1      43.688  27.494  33.472  1.00  0.00     0.135 A 
ATOM     92  C   UNL A   1      42.103  27.634  35.257  1.00  0.00     0.135 A 
ATOM     93  F   UNL A   1      44.312  28.001  32.398  1.00  0.00    -0.206 F 
ATOM     94  C   UNL A   1      44.123  26.251  33.949  1.00  0.00     0.059 A 
ATOM     95  C   UNL A   1      42.514  26.394  35.744  1.00  0.00     0.059 A 
ATOM     96  F   UNL A   1      41.178  28.275  35.985  1.00  0.00    -0.206 F 
ATOM     97  C   UNL A   1      43.546  25.721  35.103  1.00  0.00     0.060 A 
BRANCH  97  98
ATOM     98  S   UNL A   1      44.230  24.212  35.827  1.00  0.00     0.124 S 
ATOM     99  O   UNL A   1      44.126  24.488  37.255  1.00  0.00    -0.237 OA
ATOM    100  O   UNL A   1      43.329  23.189  35.308  1.00  0.00    -0.237 OA
ATOM    101  O   UNL A   1      45.590  24.168  35.297  1.00  0.00    -0.744 OA
ENDBRANCH  97  98
ENDBRANCH  65  90
BRANCH  77 102
ATOM    102  C   UNL A   1      43.870  34.451  33.163  1.00  0.00     0.058 A 
ATOM    103  C   UNL A   1      43.091  34.392  31.993  1.00  0.00     0.135 A 
ATOM    104  C   UNL A   1      45.165  34.976  33.040  1.00  0.00     0.135 A 
ATOM    105  F   UNL A   1      41.809  34.006  32.039  1.00  0.00    -0.206 F 
ATOM    106  C   UNL A   1      43.590  34.796  30.753  1.00  0.00     0.059 A 
ATOM    107  C   UNL A   1      45.675  35.410  31.818  1.00  0.00     0.059 A 
ATOM    108  F   UNL A   1      45.937  35.120  34.130  1.00  0.00    -0.206 F 
ATOM    109  C   UNL A   1      44.885  35.307  30.675  1.00  0.00     0.060 A 
BRANCH 109 110
ATOM    110  S   UNL A   1      45.502  35.895  29.083  1.00  0.00     0.124 S 
ATOM    111  O   UNL A   1      45.926  37.255  29.398  1.00  0.00    -0.237 OA
ATOM    112  O   UNL A   1      46.577  34.949  28.792  1.00  0.00    -0.237 OA
ATOM    113  O   UNL A   1      44.340  35.792  28.204  1.00  0.00    -0.744 OA
ENDBRANCH 109 110
ENDBRANCH  77 102
ENDBRANCH  51  52
ENDBRANCH  43  46
ENDBRANCH  41  42
ENDBRANCH  40  41
ENDBRANCH  39  40
ENDBRANCH   1  39
TORSDOF 20
ENDMDL
