MODEL 1
REMARK VINA RESULT:     -12.4      0.000      0.000
REMARK SMILES O=C(NCCCCNC(=O)c1cc(NC(=S)NC(=O)c2ccccc2F)ccc1Cl)c1ccc(-c2c3nc(c(-c4c(F)cc(S(=O)(=O)[O-])cc4F)c4ccc([nH]4)c(-c4c(F)cc(S(=O)(=O)[O-])cc4F)c4nc(c(-c5c(F)cc(S(=O)(=O)[O-])cc5F)c5ccc2[nH]5)C=C4)C=C3)cc1
REMARK SMILES IDX 6 1 5 2 4 3 3 4 1 5 2 6 31 8 32 9 96 10 33 11 95 12 34 13
REMARK SMILES IDX 35 14 36 15 89 16 37 17 94 18 88 19 90 20 38 21 93 22 87 23
REMARK SMILES IDX 86 24 39 26 73 27 52 28 72 29 53 30 56 31 71 32 91 33 54 34
REMARK SMILES IDX 55 35 70 37 92 38 57 39 40 40 41 41 50 42 42 43 43 44 49 45
REMARK SMILES IDX 51 46 44 47 45 48 46 49 47 50 48 51 74 52 75 53 84 54 76 55
REMARK SMILES IDX 77 56 83 57 85 58 78 59 79 60 80 61 81 62 82 63 58 64 59 65
REMARK SMILES IDX 68 66 60 67 61 68 67 69 69 70 62 71 63 72 64 73 65 74 66 75
REMARK SMILES IDX 7 76 8 77 9 78 10 80 11 81 12 82 29 83 13 84 28 85 30 86
REMARK SMILES IDX 27 87 14 88 15 90 16 91 17 92 18 93 19 95 20 96 21 97 25 98
REMARK SMILES IDX 22 99 24 100 26 101 23 102
REMARK H PARENT 3 7 90 25 56 36 8 79 14 89 17 94
REMARK Flexibility Score: inf
ROOT
ATOM      1  C   UNL A   1      37.795  23.855  26.407  1.00  0.00     0.023 C 
ENDROOT
BRANCH   1   2
ATOM      2  C   UNL A   1      38.984  22.894  26.434  1.00  0.00     0.023 C 
BRANCH   2   3
ATOM      3  C   UNL A   1      40.252  23.478  27.033  1.00  0.00     0.116 C 
BRANCH   3   4
ATOM      4  N   UNL A   1      41.136  24.049  26.026  1.00  0.00    -0.352 N 
ATOM      5  O   UNL A   1      42.249  25.696  24.954  1.00  0.00    -0.269 OA
ATOM      6  C   UNL A   1      41.624  25.330  25.942  1.00  0.00     0.251 C 
ATOM      7  H   UNL A   1      41.420  23.436  25.310  1.00  0.00     0.163 HD
BRANCH   6   8
ATOM      8  C   UNL A   1      41.346  26.254  27.054  1.00  0.00     0.039 A 
ATOM      9  C   UNL A   1      42.068  27.444  27.160  1.00  0.00     0.014 A 
ATOM     10  C   UNL A   1      40.422  25.887  28.034  1.00  0.00     0.014 A 
ATOM     11  C   UNL A   1      41.984  28.188  28.325  1.00  0.00     0.010 A 
ATOM     12  C   UNL A   1      40.255  26.702  29.153  1.00  0.00     0.010 A 
ATOM     13  C   UNL A   1      41.053  27.846  29.320  1.00  0.00    -0.014 A 
BRANCH  13  14
ATOM     14  C   UNL A   1      40.872  28.755  30.477  1.00  0.00     0.031 A 
ATOM     15  C   UNL A   1      39.799  29.806  30.489  1.00  0.00     0.074 A 
ATOM     16  C   UNL A   1      41.683  28.588  31.541  1.00  0.00     0.049 A 
ATOM     17  N   UNL A   1      39.523  30.681  31.422  1.00  0.00    -0.248 NA
ATOM     18  C   UNL A   1      38.924  29.897  29.308  1.00  0.00     0.031 C 
ATOM     19  C   UNL A   1      42.755  27.588  31.633  1.00  0.00     0.029 A 
ATOM     20  N   UNL A   1      41.724  29.222  32.754  1.00  0.00    -0.354 N 
ATOM     21  C   UNL A   1      38.452  31.427  30.944  1.00  0.00     0.074 A 
ATOM     22  C   UNL A   1      38.149  30.928  29.621  1.00  0.00     0.031 C 
ATOM     23  C   UNL A   1      43.298  27.634  32.856  1.00  0.00     0.029 A 
ATOM     24  C   UNL A   1      42.680  28.720  33.605  1.00  0.00     0.049 A 
ATOM     25  H   UNL A   1      41.127  29.967  32.993  1.00  0.00     0.167 HD
ATOM     26  C   UNL A   1      37.779  32.425  31.566  1.00  0.00     0.037 A 
ATOM     27  C   UNL A   1      43.040  29.103  34.842  1.00  0.00     0.037 A 
ATOM     28  C   UNL A   1      38.092  32.902  32.891  1.00  0.00     0.049 A 
ATOM     29  C   UNL A   1      42.321  30.258  35.474  1.00  0.00     0.074 A 
ATOM     30  C   UNL A   1      37.467  33.906  33.610  1.00  0.00     0.029 A 
ATOM     31  N   UNL A   1      39.108  32.408  33.698  1.00  0.00    -0.354 N 
ATOM     32  N   UNL A   1      41.311  30.952  35.007  1.00  0.00    -0.248 NA
ATOM     33  C   UNL A   1      42.794  30.693  36.793  1.00  0.00     0.031 C 
ATOM     34  C   UNL A   1      38.137  34.056  34.828  1.00  0.00     0.029 A 
ATOM     35  C   UNL A   1      39.140  33.103  34.897  1.00  0.00     0.049 A 
ATOM     36  H   UNL A   1      39.716  31.674  33.454  1.00  0.00     0.167 HD
ATOM     37  C   UNL A   1      41.011  31.890  35.987  1.00  0.00     0.074 A 
ATOM     38  C   UNL A   1      41.935  31.660  37.079  1.00  0.00     0.031 C 
ATOM     39  C   UNL A   1      40.060  32.855  35.980  1.00  0.00     0.037 A 
BRANCH  26  40
ATOM     40  C   UNL A   1      36.631  33.076  30.842  1.00  0.00     0.058 A 
ATOM     41  C   UNL A   1      36.868  34.017  29.825  1.00  0.00     0.135 A 
ATOM     42  C   UNL A   1      35.300  32.858  31.231  1.00  0.00     0.135 A 
ATOM     43  F   UNL A   1      38.120  34.262  29.409  1.00  0.00    -0.206 F 
ATOM     44  C   UNL A   1      35.831  34.739  29.243  1.00  0.00     0.059 A 
ATOM     45  C   UNL A   1      34.243  33.550  30.643  1.00  0.00     0.059 A 
ATOM     46  F   UNL A   1      35.015  31.956  32.184  1.00  0.00    -0.206 F 
ATOM     47  C   UNL A   1      34.521  34.504  29.664  1.00  0.00     0.060 A 
BRANCH  47  48
ATOM     48  S   UNL A   1      33.188  35.456  28.904  1.00  0.00     0.124 S 
ATOM     49  O   UNL A   1      33.928  36.442  28.125  1.00  0.00    -0.237 OA
ATOM     50  O   UNL A   1      32.486  34.433  28.135  1.00  0.00    -0.237 OA
ATOM     51  O   UNL A   1      32.451  35.983  30.049  1.00  0.00    -0.744 OA
ENDBRANCH  47  48
ENDBRANCH  26  40
BRANCH  27  52
ATOM     52  C   UNL A   1      44.130  28.386  35.556  1.00  0.00     0.058 A 
ATOM     53  C   UNL A   1      45.478  28.733  35.370  1.00  0.00     0.135 A 
ATOM     54  C   UNL A   1      43.844  27.321  36.423  1.00  0.00     0.135 A 
ATOM     55  F   UNL A   1      45.810  29.733  34.538  1.00  0.00    -0.206 F 
ATOM     56  C   UNL A   1      46.503  28.041  36.003  1.00  0.00     0.059 A 
ATOM     57  C   UNL A   1      44.851  26.636  37.096  1.00  0.00     0.059 A 
ATOM     58  F   UNL A   1      42.571  26.956  36.636  1.00  0.00    -0.206 F 
ATOM     59  C   UNL A   1      46.178  26.996  36.869  1.00  0.00     0.060 A 
BRANCH  59  60
ATOM     60  S   UNL A   1      47.524  26.132  37.706  1.00  0.00     0.124 S 
ATOM     61  O   UNL A   1      48.691  26.659  37.003  1.00  0.00    -0.237 OA
ATOM     62  O   UNL A   1      47.358  26.578  39.085  1.00  0.00    -0.237 OA
ATOM     63  O   UNL A   1      47.226  24.726  37.462  1.00  0.00    -0.744 OA
ENDBRANCH  59  60
ENDBRANCH  27  52
BRANCH  39  64
ATOM     64  C   UNL A   1      39.943  33.721  37.204  1.00  0.00     0.058 A 
ATOM     65  C   UNL A   1      38.978  33.439  38.183  1.00  0.00     0.135 A 
ATOM     66  C   UNL A   1      40.738  34.866  37.375  1.00  0.00     0.135 A 
ATOM     67  F   UNL A   1      38.188  32.360  38.067  1.00  0.00    -0.206 F 
ATOM     68  C   UNL A   1      38.790  34.273  39.280  1.00  0.00     0.059 A 
ATOM     69  C   UNL A   1      40.591  35.695  38.482  1.00  0.00     0.059 A 
ATOM     70  F   UNL A   1      41.686  35.171  36.474  1.00  0.00    -0.206 F 
ATOM     71  C   UNL A   1      39.602  35.400  39.420  1.00  0.00     0.060 A 
BRANCH  71  72
ATOM     72  S   UNL A   1      39.352  36.463  40.856  1.00  0.00     0.124 S 
ATOM     73  O   UNL A   1      38.453  37.481  40.323  1.00  0.00    -0.237 OA
ATOM     74  O   UNL A   1      38.764  35.540  41.822  1.00  0.00    -0.237 OA
ATOM     75  O   UNL A   1      40.699  36.922  41.178  1.00  0.00    -0.744 OA
ENDBRANCH  71  72
ENDBRANCH  39  64
ENDBRANCH  13  14
ENDBRANCH   6   8
ENDBRANCH   3   4
ENDBRANCH   2   3
ENDBRANCH   1   2
BRANCH   1  76
ATOM     76  C   UNL A   1      36.762  23.540  25.325  1.00  0.00     0.116 C 
BRANCH  76  77
ATOM     77  N   UNL A   1      36.484  22.122  25.261  1.00  0.00    -0.352 N 
ATOM     78  C   UNL A   1      35.325  21.437  25.045  1.00  0.00     0.252 C 
ATOM     79  H   UNL A   1      37.273  21.549  25.398  1.00  0.00     0.163 HD
ATOM     80  O   UNL A   1      35.386  20.212  24.962  1.00  0.00    -0.269 OA
BRANCH  78  81
ATOM     81  C   UNL A   1      34.007  22.163  24.809  1.00  0.00     0.060 A 
ATOM     82  C   UNL A   1      32.949  22.805  23.213  1.00  0.00     0.041 A 
ATOM     83  C   UNL A   1      33.394  22.741  26.416  1.00  0.00     0.053 A 
ATOM     84  C   UNL A   1      31.671  23.922  23.334  1.00  0.00     0.041 A 
ATOM     85  C   UNL A   1      31.969  23.820  26.437  1.00  0.00     0.023 A 
ATOM     86  Cl  UNL A   1      34.135  22.332  27.911  1.00  0.00    -0.083 Cl
ATOM     87  C   UNL A   1      31.153  24.394  24.939  1.00  0.00     0.028 A 
BRANCH  84  88
ATOM     88  N   UNL A   1      31.542  24.615  22.119  1.00  0.00    -0.332 N 
ATOM     89  H   UNL A   1      30.754  24.369  21.582  1.00  0.00     0.169 HD
BRANCH  88  90
ATOM     90  C   UNL A   1      32.349  25.590  21.558  1.00  0.00     0.177 C 
ATOM     91  S   UNL A   1      32.578  25.482  19.893  1.00  0.00    -0.040 S 
BRANCH  90  92
ATOM     92  N   UNL A   1      33.009  26.700  22.198  1.00  0.00    -0.299 N 
ATOM     93  C   UNL A   1      33.277  27.680  23.313  1.00  0.00     0.260 C 
ATOM     94  H   UNL A   1      33.660  26.979  21.514  1.00  0.00     0.172 HD
ATOM     95  O   UNL A   1      34.193  28.487  23.184  1.00  0.00    -0.269 OA
BRANCH  93  96
ATOM     96  C   UNL A   1      32.450  27.684  24.592  1.00  0.00     0.075 A 
ATOM     97  C   UNL A   1      33.624  27.292  25.830  1.00  0.00     0.017 A 
ATOM     98  C   UNL A   1      31.378  29.130  24.669  1.00  0.00     0.135 A 
ATOM     99  C   UNL A   1      33.959  28.509  27.071  1.00  0.00     0.001 A 
ATOM    100  C   UNL A   1      31.608  30.450  25.852  1.00  0.00     0.040 A 
ATOM    101  F   UNL A   1      30.671  29.446  23.572  1.00  0.00    -0.206 F 
ATOM    102  C   UNL A   1      32.928  30.256  27.079  1.00  0.00     0.003 A 
ENDBRANCH  93  96
ENDBRANCH  90  92
ENDBRANCH  88  90
ENDBRANCH  84  88
ENDBRANCH  78  81
ENDBRANCH  76  77
ENDBRANCH   1  76
TORSDOF 18
ENDMDL
MODEL 2
REMARK VINA RESULT:     -12.4      1.193      8.234
REMARK SMILES O=C(NCCCCNC(=O)c1cc(NC(=S)NC(=O)c2ccccc2F)ccc1Cl)c1ccc(-c2c3nc(c(-c4c(F)cc(S(=O)(=O)[O-])cc4F)c4ccc([nH]4)c(-c4c(F)cc(S(=O)(=O)[O-])cc4F)c4nc(c(-c5c(F)cc(S(=O)(=O)[O-])cc5F)c5ccc2[nH]5)C=C4)C=C3)cc1
REMARK SMILES IDX 6 1 5 2 4 3 3 4 1 5 2 6 31 8 32 9 96 10 33 11 95 12 34 13
REMARK SMILES IDX 35 14 36 15 89 16 37 17 94 18 88 19 90 20 38 21 93 22 87 23
REMARK SMILES IDX 86 24 39 26 73 27 52 28 72 29 53 30 56 31 71 32 91 33 54 34
REMARK SMILES IDX 55 35 70 37 92 38 57 39 40 40 41 41 50 42 42 43 43 44 49 45
REMARK SMILES IDX 51 46 44 47 45 48 46 49 47 50 48 51 74 52 75 53 84 54 76 55
REMARK SMILES IDX 77 56 83 57 85 58 78 59 79 60 80 61 81 62 82 63 58 64 59 65
REMARK SMILES IDX 68 66 60 67 61 68 67 69 69 70 62 71 63 72 64 73 65 74 66 75
REMARK SMILES IDX 7 76 8 77 9 78 10 80 11 81 12 82 29 83 13 84 28 85 30 86
REMARK SMILES IDX 27 87 14 88 15 90 16 91 17 92 18 93 19 95 20 96 21 97 25 98
REMARK SMILES IDX 22 99 24 100 26 101 23 102
REMARK H PARENT 3 7 90 25 56 36 8 79 14 89 17 94
REMARK Flexibility Score: inf
ROOT
ATOM      1  C   UNL A   1      37.390  22.844  25.013  1.00  0.00     0.023 C 
ENDROOT
BRANCH   1   2
ATOM      2  C   UNL A   1      37.345  23.565  26.360  1.00  0.00     0.023 C 
BRANCH   2   3
ATOM      3  C   UNL A   1      38.353  24.693  26.505  1.00  0.00     0.116 C 
BRANCH   3   4
ATOM      4  N   UNL A   1      39.690  24.307  26.075  1.00  0.00    -0.352 N 
ATOM      5  O   UNL A   1      41.942  24.448  25.964  1.00  0.00    -0.269 OA
ATOM      6  C   UNL A   1      40.901  24.772  26.525  1.00  0.00     0.251 C 
ATOM      7  H   UNL A   1      39.731  23.624  25.367  1.00  0.00     0.163 HD
BRANCH   6   8
ATOM      8  C   UNL A   1      40.909  25.693  27.674  1.00  0.00     0.039 A 
ATOM      9  C   UNL A   1      39.952  25.551  28.680  1.00  0.00     0.014 A 
ATOM     10  C   UNL A   1      41.824  26.747  27.698  1.00  0.00     0.014 A 
ATOM     11  C   UNL A   1      39.806  26.553  29.624  1.00  0.00     0.010 A 
ATOM     12  C   UNL A   1      41.746  27.694  28.720  1.00  0.00     0.010 A 
ATOM     13  C   UNL A   1      40.721  27.619  29.677  1.00  0.00    -0.014 A 
BRANCH  13  14
ATOM     14  C   UNL A   1      40.635  28.584  30.798  1.00  0.00     0.031 A 
ATOM     15  C   UNL A   1      41.590  28.529  31.957  1.00  0.00     0.074 A 
ATOM     16  C   UNL A   1      39.689  29.542  30.732  1.00  0.00     0.049 A 
ATOM     17  N   UNL A   1      41.636  29.296  33.015  1.00  0.00    -0.248 NA
ATOM     18  C   UNL A   1      42.625  27.481  31.934  1.00  0.00     0.031 C 
ATOM     19  C   UNL A   1      38.714  29.687  29.644  1.00  0.00     0.029 A 
ATOM     20  N   UNL A   1      39.401  30.587  31.570  1.00  0.00    -0.354 N 
ATOM     21  C   UNL A   1      42.693  28.826  33.785  1.00  0.00     0.074 A 
ATOM     22  C   UNL A   1      43.243  27.682  33.091  1.00  0.00     0.031 C 
ATOM     23  C   UNL A   1      37.986  30.793  29.848  1.00  0.00     0.029 A 
ATOM     24  C   UNL A   1      38.376  31.386  31.120  1.00  0.00     0.049 A 
ATOM     25  H   UNL A   1      39.882  30.750  32.413  1.00  0.00     0.167 HD
ATOM     26  C   UNL A   1      43.166  29.320  34.955  1.00  0.00     0.037 A 
ATOM     27  C   UNL A   1      37.795  32.462  31.678  1.00  0.00     0.037 A 
ATOM     28  C   UNL A   1      42.609  30.470  35.626  1.00  0.00     0.049 A 
ATOM     29  C   UNL A   1      38.297  32.940  33.008  1.00  0.00     0.074 A 
ATOM     30  C   UNL A   1      43.019  31.050  36.814  1.00  0.00     0.029 A 
ATOM     31  N   UNL A   1      41.531  31.215  35.169  1.00  0.00    -0.354 N 
ATOM     32  N   UNL A   1      39.298  32.483  33.722  1.00  0.00    -0.248 NA
ATOM     33  C   UNL A   1      37.587  34.071  33.617  1.00  0.00     0.031 C 
ATOM     34  C   UNL A   1      42.157  32.113  37.102  1.00  0.00     0.029 A 
ATOM     35  C   UNL A   1      41.249  32.236  36.063  1.00  0.00     0.049 A 
ATOM     36  H   UNL A   1      41.039  31.044  34.334  1.00  0.00     0.167 HD
ATOM     37  C   UNL A   1      39.354  33.287  34.853  1.00  0.00     0.074 A 
ATOM     38  C   UNL A   1      38.298  34.270  34.718  1.00  0.00     0.031 C 
ATOM     39  C   UNL A   1      40.201  33.215  35.909  1.00  0.00     0.037 A 
BRANCH  26  40
ATOM     40  C   UNL A   1      44.346  28.640  35.596  1.00  0.00     0.058 A 
ATOM     41  C   UNL A   1      44.157  27.663  36.587  1.00  0.00     0.135 A 
ATOM     42  C   UNL A   1      45.663  29.037  35.315  1.00  0.00     0.135 A 
ATOM     43  F   UNL A   1      42.920  27.241  36.894  1.00  0.00    -0.206 F 
ATOM     44  C   UNL A   1      45.226  27.127  37.297  1.00  0.00     0.059 A 
ATOM     45  C   UNL A   1      46.751  28.495  35.994  1.00  0.00     0.059 A 
ATOM     46  F   UNL A   1      45.903  29.953  34.363  1.00  0.00    -0.206 F 
ATOM     47  C   UNL A   1      46.521  27.554  36.998  1.00  0.00     0.060 A 
BRANCH  47  48
ATOM     48  S   UNL A   1      47.897  26.854  37.935  1.00  0.00     0.124 S 
ATOM     49  O   UNL A   1      48.871  27.939  37.896  1.00  0.00    -0.237 OA
ATOM     50  O   UNL A   1      47.280  26.599  39.233  1.00  0.00    -0.237 OA
ATOM     51  O   UNL A   1      48.254  25.661  37.174  1.00  0.00    -0.744 OA
ENDBRANCH  47  48
ENDBRANCH  26  40
BRANCH  27  52
ATOM     52  C   UNL A   1      36.680  33.152  30.978  1.00  0.00     0.058 A 
ATOM     53  C   UNL A   1      35.348  33.003  31.397  1.00  0.00     0.135 A 
ATOM     54  C   UNL A   1      36.924  33.960  29.857  1.00  0.00     0.135 A 
ATOM     55  F   UNL A   1      35.056  32.227  32.454  1.00  0.00    -0.206 F 
ATOM     56  C   UNL A   1      34.299  33.613  30.722  1.00  0.00     0.059 A 
ATOM     57  C   UNL A   1      35.893  34.611  29.186  1.00  0.00     0.059 A 
ATOM     58  F   UNL A   1      38.180  34.137  29.421  1.00  0.00    -0.206 F 
ATOM     59  C   UNL A   1      34.582  34.420  29.620  1.00  0.00     0.060 A 
BRANCH  59  60
ATOM     60  S   UNL A   1      33.206  35.229  28.779  1.00  0.00     0.124 S 
ATOM     61  O   UNL A   1      33.883  36.337  28.111  1.00  0.00    -0.237 OA
ATOM     62  O   UNL A   1      32.716  34.166  27.908  1.00  0.00    -0.237 OA
ATOM     63  O   UNL A   1      32.315  35.604  29.871  1.00  0.00    -0.744 OA
ENDBRANCH  59  60
ENDBRANCH  27  52
BRANCH  39  64
ATOM     64  C   UNL A   1      40.045  34.245  36.994  1.00  0.00     0.058 A 
ATOM     65  C   UNL A   1      39.186  34.008  38.078  1.00  0.00     0.135 A 
ATOM     66  C   UNL A   1      40.691  35.489  36.927  1.00  0.00     0.135 A 
ATOM     67  F   UNL A   1      38.540  32.837  38.190  1.00  0.00    -0.206 F 
ATOM     68  C   UNL A   1      38.957  34.977  39.049  1.00  0.00     0.059 A 
ATOM     69  C   UNL A   1      40.503  36.461  37.905  1.00  0.00     0.059 A 
ATOM     70  F   UNL A   1      41.534  35.759  35.917  1.00  0.00    -0.206 F 
ATOM     71  C   UNL A   1      39.620  36.201  38.953  1.00  0.00     0.060 A 
BRANCH  71  72
ATOM     72  S   UNL A   1      39.319  37.442  40.228  1.00  0.00     0.124 S 
ATOM     73  O   UNL A   1      38.726  36.641  41.293  1.00  0.00    -0.237 OA
ATOM     74  O   UNL A   1      40.664  37.947  40.487  1.00  0.00    -0.237 OA
ATOM     75  O   UNL A   1      38.416  38.387  39.577  1.00  0.00    -0.744 OA
ENDBRANCH  71  72
ENDBRANCH  39  64
ENDBRANCH  13  14
ENDBRANCH   6   8
ENDBRANCH   3   4
ENDBRANCH   2   3
ENDBRANCH   1   2
BRANCH   1  76
ATOM     76  C   UNL A   1      36.023  22.666  24.353  1.00  0.00     0.116 C 
BRANCH  76  77
ATOM     77  N   UNL A   1      35.586  21.289  24.412  1.00  0.00    -0.352 N 
ATOM     78  C   UNL A   1      34.365  20.738  24.665  1.00  0.00     0.252 C 
ATOM     79  H   UNL A   1      36.299  20.631  24.238  1.00  0.00     0.163 HD
ATOM     80  O   UNL A   1      34.253  19.517  24.574  1.00  0.00    -0.269 OA
BRANCH  78  81
ATOM     81  C   UNL A   1      33.147  21.607  24.951  1.00  0.00     0.060 A 
ATOM     82  C   UNL A   1      31.714  22.529  23.867  1.00  0.00     0.041 A 
ATOM     83  C   UNL A   1      33.176  22.045  26.712  1.00  0.00     0.053 A 
ATOM     84  C   UNL A   1      30.701  23.738  24.504  1.00  0.00     0.041 A 
ATOM     85  C   UNL A   1      31.988  23.242  27.303  1.00  0.00     0.023 A 
ATOM     86  Cl  UNL A   1      34.309  21.394  27.827  1.00  0.00    -0.083 Cl
ATOM     87  C   UNL A   1      30.804  24.063  26.222  1.00  0.00     0.028 A 
BRANCH  84  88
ATOM     88  N   UNL A   1      30.269  24.579  23.465  1.00  0.00    -0.332 N 
ATOM     89  H   UNL A   1      29.597  24.184  22.864  1.00  0.00     0.169 HD
BRANCH  88  90
ATOM     90  C   UNL A   1      30.640  25.876  23.156  1.00  0.00     0.177 C 
ATOM     91  S   UNL A   1      29.531  27.073  23.575  1.00  0.00    -0.040 S 
BRANCH  90  92
ATOM     92  N   UNL A   1      31.853  26.350  22.540  1.00  0.00    -0.299 N 
ATOM     93  C   UNL A   1      33.200  27.028  22.504  1.00  0.00     0.260 C 
ATOM     94  H   UNL A   1      31.735  26.070  21.603  1.00  0.00     0.172 HD
ATOM     95  O   UNL A   1      33.833  27.031  21.452  1.00  0.00    -0.269 OA
BRANCH  93  96
ATOM     96  C   UNL A   1      33.793  27.696  23.737  1.00  0.00     0.075 A 
ATOM     97  C   UNL A   1      33.035  29.274  23.742  1.00  0.00     0.017 A 
ATOM     98  C   UNL A   1      33.769  26.584  25.155  1.00  0.00     0.135 A 
ATOM     99  C   UNL A   1      31.973  29.680  25.099  1.00  0.00     0.001 A 
ATOM    100  C   UNL A   1      32.731  26.851  26.585  1.00  0.00     0.040 A 
ATOM    101  F   UNL A   1      34.195  25.323  24.970  1.00  0.00    -0.206 F 
ATOM    102  C   UNL A   1      31.739  28.368  26.629  1.00  0.00     0.003 A 
ENDBRANCH  93  96
ENDBRANCH  90  92
ENDBRANCH  88  90
ENDBRANCH  84  88
ENDBRANCH  78  81
ENDBRANCH  76  77
ENDBRANCH   1  76
TORSDOF 18
ENDMDL
MODEL 3
REMARK VINA RESULT:     -11.8      4.912      6.178
REMARK SMILES O=C(NCCCCNC(=O)c1cc(NC(=S)NC(=O)c2ccccc2F)ccc1Cl)c1ccc(-c2c3nc(c(-c4c(F)cc(S(=O)(=O)[O-])cc4F)c4ccc([nH]4)c(-c4c(F)cc(S(=O)(=O)[O-])cc4F)c4nc(c(-c5c(F)cc(S(=O)(=O)[O-])cc5F)c5ccc2[nH]5)C=C4)C=C3)cc1
REMARK SMILES IDX 6 1 5 2 4 3 3 4 1 5 2 6 31 8 32 9 96 10 33 11 95 12 34 13
REMARK SMILES IDX 35 14 36 15 89 16 37 17 94 18 88 19 90 20 38 21 93 22 87 23
REMARK SMILES IDX 86 24 39 26 73 27 52 28 72 29 53 30 56 31 71 32 91 33 54 34
REMARK SMILES IDX 55 35 70 37 92 38 57 39 40 40 41 41 50 42 42 43 43 44 49 45
REMARK SMILES IDX 51 46 44 47 45 48 46 49 47 50 48 51 74 52 75 53 84 54 76 55
REMARK SMILES IDX 77 56 83 57 85 58 78 59 79 60 80 61 81 62 82 63 58 64 59 65
REMARK SMILES IDX 68 66 60 67 61 68 67 69 69 70 62 71 63 72 64 73 65 74 66 75
REMARK SMILES IDX 7 76 8 77 9 78 10 80 11 81 12 82 29 83 13 84 28 85 30 86
REMARK SMILES IDX 27 87 14 88 15 90 16 91 17 92 18 93 19 95 20 96 21 97 25 98
REMARK SMILES IDX 22 99 24 100 26 101 23 102
REMARK H PARENT 3 7 90 25 56 36 8 79 14 89 17 94
REMARK Flexibility Score: inf
ROOT
ATOM      1  C   UNL A   1      35.966  23.039  23.952  1.00  0.00     0.023 C 
ENDROOT
BRANCH   1   2
ATOM      2  C   UNL A   1      35.805  23.439  25.419  1.00  0.00     0.023 C 
BRANCH   2   3
ATOM      3  C   UNL A   1      37.110  23.742  26.136  1.00  0.00     0.116 C 
BRANCH   3   4
ATOM      4  N   UNL A   1      37.993  22.585  26.205  1.00  0.00    -0.352 N 
ATOM      5  O   UNL A   1      39.972  21.508  26.360  1.00  0.00    -0.269 OA
ATOM      6  C   UNL A   1      39.339  22.551  26.474  1.00  0.00     0.251 C 
ATOM      7  H   UNL A   1      37.570  21.713  26.035  1.00  0.00     0.163 HD
BRANCH   6   8
ATOM      8  C   UNL A   1      40.002  23.804  26.871  1.00  0.00     0.039 A 
ATOM      9  C   UNL A   1      40.366  24.002  28.204  1.00  0.00     0.014 A 
ATOM     10  C   UNL A   1      40.180  24.812  25.922  1.00  0.00     0.014 A 
ATOM     11  C   UNL A   1      40.760  25.262  28.621  1.00  0.00     0.010 A 
ATOM     12  C   UNL A   1      40.688  26.047  26.327  1.00  0.00     0.010 A 
ATOM     13  C   UNL A   1      40.958  26.290  27.683  1.00  0.00    -0.014 A 
BRANCH  13  14
ATOM     14  C   UNL A   1      41.537  27.576  28.140  1.00  0.00     0.031 A 
ATOM     15  C   UNL A   1      40.676  28.662  28.720  1.00  0.00     0.074 A 
ATOM     16  C   UNL A   1      42.873  27.731  28.051  1.00  0.00     0.049 A 
ATOM     17  N   UNL A   1      41.033  29.843  29.155  1.00  0.00    -0.248 NA
ATOM     18  C   UNL A   1      39.231  28.399  28.825  1.00  0.00     0.031 C 
ATOM     19  C   UNL A   1      43.802  26.732  27.509  1.00  0.00     0.029 A 
ATOM     20  N   UNL A   1      43.690  28.761  28.434  1.00  0.00    -0.354 N 
ATOM     21  C   UNL A   1      39.865  30.466  29.579  1.00  0.00     0.074 A 
ATOM     22  C   UNL A   1      38.780  29.547  29.317  1.00  0.00     0.031 C 
ATOM     23  C   UNL A   1      45.058  27.170  27.656  1.00  0.00     0.029 A 
ATOM     24  C   UNL A   1      45.025  28.513  28.219  1.00  0.00     0.049 A 
ATOM     25  H   UNL A   1      43.354  29.600  28.827  1.00  0.00     0.167 HD
ATOM     26  C   UNL A   1      39.724  31.687  30.149  1.00  0.00     0.037 A 
ATOM     27  C   UNL A   1      46.105  29.288  28.426  1.00  0.00     0.037 A 
ATOM     28  C   UNL A   1      40.822  32.585  30.411  1.00  0.00     0.049 A 
ATOM     29  C   UNL A   1      45.905  30.662  28.993  1.00  0.00     0.074 A 
ATOM     30  C   UNL A   1      40.782  33.843  30.988  1.00  0.00     0.029 A 
ATOM     31  N   UNL A   1      42.154  32.322  30.122  1.00  0.00    -0.354 N 
ATOM     32  N   UNL A   1      44.793  31.234  29.388  1.00  0.00    -0.248 NA
ATOM     33  C   UNL A   1      47.100  31.502  29.133  1.00  0.00     0.031 C 
ATOM     34  C   UNL A   1      42.080  34.361  30.999  1.00  0.00     0.029 A 
ATOM     35  C   UNL A   1      42.940  33.403  30.488  1.00  0.00     0.049 A 
ATOM     36  H   UNL A   1      42.490  31.491  29.716  1.00  0.00     0.167 HD
ATOM     37  C   UNL A   1      45.158  32.493  29.847  1.00  0.00     0.074 A 
ATOM     38  C   UNL A   1      46.596  32.589  29.698  1.00  0.00     0.031 C 
ATOM     39  C   UNL A   1      44.373  33.480  30.343  1.00  0.00     0.037 A 
BRANCH  26  40
ATOM     40  C   UNL A   1      38.342  32.139  30.541  1.00  0.00     0.058 A 
ATOM     41  C   UNL A   1      37.595  32.975  29.695  1.00  0.00     0.135 A 
ATOM     42  C   UNL A   1      37.804  31.842  31.804  1.00  0.00     0.135 A 
ATOM     43  F   UNL A   1      38.058  33.289  28.474  1.00  0.00    -0.206 F 
ATOM     44  C   UNL A   1      36.382  33.524  30.096  1.00  0.00     0.059 A 
ATOM     45  C   UNL A   1      36.579  32.359  32.217  1.00  0.00     0.059 A 
ATOM     46  F   UNL A   1      38.466  31.032  32.646  1.00  0.00    -0.206 F 
ATOM     47  C   UNL A   1      35.884  33.215  31.363  1.00  0.00     0.060 A 
BRANCH  47  48
ATOM     48  S   UNL A   1      34.312  33.943  31.872  1.00  0.00     0.124 S 
ATOM     49  O   UNL A   1      33.691  32.842  32.600  1.00  0.00    -0.237 OA
ATOM     50  O   UNL A   1      34.750  35.076  32.682  1.00  0.00    -0.237 OA
ATOM     51  O   UNL A   1      33.676  34.297  30.605  1.00  0.00    -0.744 OA
ENDBRANCH  47  48
ENDBRANCH  26  40
BRANCH  27  52
ATOM     52  C   UNL A   1      47.461  28.777  28.094  1.00  0.00     0.058 A 
ATOM     53  C   UNL A   1      47.954  28.807  26.780  1.00  0.00     0.135 A 
ATOM     54  C   UNL A   1      48.285  28.225  29.087  1.00  0.00     0.135 A 
ATOM     55  F   UNL A   1      47.201  29.309  25.787  1.00  0.00    -0.206 F 
ATOM     56  C   UNL A   1      49.204  28.295  26.458  1.00  0.00     0.059 A 
ATOM     57  C   UNL A   1      49.556  27.738  28.795  1.00  0.00     0.059 A 
ATOM     58  F   UNL A   1      47.860  28.177  30.358  1.00  0.00    -0.206 F 
ATOM     59  C   UNL A   1      50.000  27.767  27.474  1.00  0.00     0.060 A 
BRANCH  59  60
ATOM     60  S   UNL A   1      51.635  27.137  27.038  1.00  0.00     0.124 S 
ATOM     61  O   UNL A   1      52.334  28.366  26.675  1.00  0.00    -0.237 OA
ATOM     62  O   UNL A   1      52.059  26.509  28.284  1.00  0.00    -0.237 OA
ATOM     63  O   UNL A   1      51.361  26.222  25.936  1.00  0.00    -0.744 OA
ENDBRANCH  59  60
ENDBRANCH  27  52
BRANCH  39  64
ATOM     64  C   UNL A   1      45.051  34.745  30.794  1.00  0.00     0.058 A 
ATOM     65  C   UNL A   1      45.471  34.888  32.125  1.00  0.00     0.135 A 
ATOM     66  C   UNL A   1      45.225  35.836  29.929  1.00  0.00     0.135 A 
ATOM     67  F   UNL A   1      45.326  33.877  32.996  1.00  0.00    -0.206 F 
ATOM     68  C   UNL A   1      46.021  36.078  32.589  1.00  0.00     0.059 A 
ATOM     69  C   UNL A   1      45.804  37.024  30.363  1.00  0.00     0.059 A 
ATOM     70  F   UNL A   1      44.853  35.744  28.642  1.00  0.00    -0.206 F 
ATOM     71  C   UNL A   1      46.183  37.141  31.700  1.00  0.00     0.060 A 
BRANCH  71  72
ATOM     72  S   UNL A   1      46.909  38.672  32.318  1.00  0.00     0.124 S 
ATOM     73  O   UNL A   1      47.706  38.195  33.443  1.00  0.00    -0.237 OA
ATOM     74  O   UNL A   1      47.664  39.142  31.160  1.00  0.00    -0.237 OA
ATOM     75  O   UNL A   1      45.747  39.483  32.671  1.00  0.00    -0.744 OA
ENDBRANCH  71  72
ENDBRANCH  39  64
ENDBRANCH  13  14
ENDBRANCH   6   8
ENDBRANCH   3   4
ENDBRANCH   2   3
ENDBRANCH   1   2
BRANCH   1  76
ATOM     76  C   UNL A   1      34.669  23.092  23.144  1.00  0.00     0.116 C 
BRANCH  76  77
ATOM     77  N   UNL A   1      33.869  21.906  23.358  1.00  0.00    -0.352 N 
ATOM     78  C   UNL A   1      32.611  21.744  23.859  1.00  0.00     0.252 C 
ATOM     79  H   UNL A   1      34.311  21.067  23.095  1.00  0.00     0.163 HD
ATOM     80  O   UNL A   1      32.131  20.613  23.858  1.00  0.00    -0.269 OA
BRANCH  78  81
ATOM     81  C   UNL A   1      31.777  22.936  24.312  1.00  0.00     0.060 A 
ATOM     82  C   UNL A   1      30.683  24.384  23.427  1.00  0.00     0.041 A 
ATOM     83  C   UNL A   1      32.053  23.165  26.091  1.00  0.00     0.053 A 
ATOM     84  C   UNL A   1      30.178  25.793  24.236  1.00  0.00     0.041 A 
ATOM     85  C   UNL A   1      31.375  24.624  26.869  1.00  0.00     0.023 A 
ATOM     86  Cl  UNL A   1      32.959  22.067  27.054  1.00  0.00    -0.083 Cl
ATOM     87  C   UNL A   1      30.481  25.895  25.958  1.00  0.00     0.028 A 
BRANCH  84  88
ATOM     88  N   UNL A   1      29.998  26.827  23.303  1.00  0.00    -0.332 N 
ATOM     89  H   UNL A   1      30.031  26.547  22.359  1.00  0.00     0.169 HD
BRANCH  88  90
ATOM     90  C   UNL A   1      29.782  28.180  23.502  1.00  0.00     0.177 C 
ATOM     91  S   UNL A   1      28.554  28.868  22.576  1.00  0.00    -0.040 S 
BRANCH  90  92
ATOM     92  N   UNL A   1      30.449  29.082  24.406  1.00  0.00    -0.299 N 
ATOM     93  C   UNL A   1      31.639  29.755  25.045  1.00  0.00     0.260 C 
ATOM     94  H   UNL A   1      29.693  29.503  24.878  1.00  0.00     0.172 HD
ATOM     95  O   UNL A   1      31.443  30.637  25.876  1.00  0.00    -0.269 OA
BRANCH  93  96
ATOM     96  C   UNL A   1      33.067  29.375  24.677  1.00  0.00     0.075 A 
ATOM     97  C   UNL A   1      33.565  28.354  26.009  1.00  0.00     0.017 A 
ATOM     98  C   UNL A   1      33.182  28.873  22.951  1.00  0.00     0.135 A 
ATOM     99  C   UNL A   1      33.944  26.660  25.660  1.00  0.00     0.001 A 
ATOM    100  C   UNL A   1      33.535  27.195  22.445  1.00  0.00     0.040 A 
ATOM    101  F   UNL A   1      32.579  29.645  22.032  1.00  0.00    -0.206 F 
ATOM    102  C   UNL A   1      33.882  25.983  23.748  1.00  0.00     0.003 A 
ENDBRANCH  93  96
ENDBRANCH  90  92
ENDBRANCH  88  90
ENDBRANCH  84  88
ENDBRANCH  78  81
ENDBRANCH  76  77
ENDBRANCH   1  76
TORSDOF 18
ENDMDL
