MODEL 1
REMARK VINA RESULT:     -11.1      0.000      0.000
REMARK SMILES Cc1ccc(S(=O)(=O)n2cc(C(=O)C(=O)N[C@H](Cc3c[nH]c4ccccc34)C(=O)NCC(=O)NCCCCNC(=O)c3ccc(-c4c5nc(c(-c6c(F)cc(S(=O)(=O)[O-])cc6F)c6ccc([nH]6)c(-c6c(F)cc(S(=O)(=O)[O-])cc6F)c6nc(c(-c7c(F)cc(S(=O)(=O)[O-])cc7F)c7ccc4[nH]7)C=C6)C=C5)cc3)c3ccccc32)cc1
REMARK SMILES IDX 32 1 33 2 34 3 31 5 30 6 28 7 29 8 17 10 16 11 14 12 15 13
REMARK SMILES IDX 12 15 13 16 11 17 9 18 10 19 113 20 108 21 112 22 109 23
REMARK SMILES IDX 111 24 110 25 6 26 7 27 8 28 5 29 1 30 2 31 3 32 115 33 4 34
REMARK SMILES IDX 114 35 18 36 19 37 20 38 27 39 21 40 22 41 26 42 23 44 25 45
REMARK SMILES IDX 24 46 35 47 36 48 37 49 38 50 39 51 40 52 41 54 42 55 43 56
REMARK SMILES IDX 107 57 44 58 106 59 45 60 46 61 47 62 100 63 48 64 105 65
REMARK SMILES IDX 99 66 101 67 49 68 104 69 98 70 97 71 50 73 84 74 63 75
REMARK SMILES IDX 83 76 64 77 67 78 82 79 102 80 65 81 66 82 81 84 103 85
REMARK SMILES IDX 68 86 51 87 52 88 61 89 53 90 54 91 60 92 62 93 55 94 56 95
REMARK SMILES IDX 57 96 58 97 59 98 85 99 86 100 95 101 87 102 88 103 94 104
REMARK SMILES IDX 96 105 89 106 90 107 91 108 92 109 93 110 69 111 70 112
REMARK SMILES IDX 79 113 71 114 72 115 78 116 80 117 73 118 74 119 75 120
REMARK SMILES IDX 76 121 77 122
REMARK H PARENT 34 4 30 9 16 14 21 43 39 53 101 72 67 83
REMARK Flexibility Score: inf
ROOT
ATOM      1  C   UNL A   1      33.794  24.199  26.045  1.00  0.00     0.239 C 
ATOM      2  O   UNL A   1      33.033  23.619  26.830  1.00  0.00    -0.273 OA
ATOM      3  N   UNL A   1      34.720  23.437  25.398  1.00  0.00    -0.355 N 
ATOM      4  H   UNL A   1      34.804  22.516  25.735  1.00  0.00     0.163 HD
ENDROOT
BRANCH   1   5
ATOM      5  C   UNL A   1      33.574  25.689  25.744  1.00  0.00     0.216 C 
BRANCH   5   6
ATOM      6  N   UNL A   1      32.708  26.410  26.645  1.00  0.00    -0.345 N 
ATOM      7  C   UNL A   1      32.326  27.699  26.756  1.00  0.00     0.243 C 
ATOM      8  O   UNL A   1      31.345  27.853  27.499  1.00  0.00    -0.273 OA
ATOM      9  H   UNL A   1      32.306  25.831  27.334  1.00  0.00     0.164 HD
BRANCH   7  10
ATOM     10  C   UNL A   1      32.983  28.951  26.090  1.00  0.00     0.176 C 
BRANCH  10  11
ATOM     11  N   UNL A   1      33.174  30.212  26.887  1.00  0.00    -0.337 N 
ATOM     12  C   UNL A   1      34.186  30.721  27.691  1.00  0.00     0.293 C 
ATOM     13  O   UNL A   1      34.001  31.774  28.295  1.00  0.00    -0.265 OA
ATOM     14  H   UNL A   1      32.401  30.819  26.824  1.00  0.00     0.164 HD
BRANCH  12  15
ATOM     15  C   UNL A   1      35.536  30.008  27.789  1.00  0.00     0.252 C 
ATOM     16  O   UNL A   1      36.027  29.699  26.703  1.00  0.00    -0.283 OA
BRANCH  15  17
ATOM     17  C   UNL A   1      36.273  29.684  29.020  1.00  0.00     0.054 A 
ATOM     18  N   UNL A   1      37.097  29.318  31.089  1.00  0.00    -0.240 N 
ATOM     19  C   UNL A   1      35.937  29.682  30.375  1.00  0.00     0.117 A 
ATOM     20  C   UNL A   1      37.920  28.648  30.189  1.00  0.00     0.065 A 
ATOM     21  C   UNL A   1      37.649  29.285  28.985  1.00  0.00     0.012 A 
ATOM     22  C   UNL A   1      39.027  27.806  30.355  1.00  0.00     0.028 A 
ATOM     23  C   UNL A   1      38.669  29.352  28.021  1.00  0.00     0.011 A 
ATOM     24  C   UNL A   1      39.987  27.822  29.335  1.00  0.00     0.002 A 
ATOM     25  C   UNL A   1      39.851  28.649  28.222  1.00  0.00     0.001 A 
BRANCH  18  26
ATOM     26  S   UNL A   1      37.937  30.568  32.054  1.00  0.00     0.268 S 
ATOM     27  O   UNL A   1      38.843  29.829  32.917  1.00  0.00    -0.201 OA
ATOM     28  O   UNL A   1      36.890  31.406  32.611  1.00  0.00    -0.201 OA
BRANCH  26  29
ATOM     29  C   UNL A   1      38.943  31.631  31.046  1.00  0.00     0.088 A 
ATOM     30  C   UNL A   1      41.498  34.790  29.590  1.00  0.00     0.044 C 
ATOM     31  C   UNL A   1      40.619  33.671  30.071  1.00  0.00    -0.051 A 
ATOM     32  C   UNL A   1      39.259  33.916  30.272  1.00  0.00     0.005 A 
ATOM     33  C   UNL A   1      41.121  32.382  30.322  1.00  0.00     0.005 A 
ATOM     34  C   UNL A   1      38.428  32.907  30.756  1.00  0.00     0.022 A 
ATOM     35  C   UNL A   1      40.292  31.362  30.821  1.00  0.00     0.022 A 
ENDBRANCH  26  29
ENDBRANCH  18  26
ENDBRANCH  15  17
ENDBRANCH  12  15
ENDBRANCH  10  11
BRANCH  10  36
ATOM     36  C   UNL A   1      32.810  29.158  24.554  1.00  0.00     0.072 C 
BRANCH  36  37
ATOM     37  C   UNL A   1      31.517  28.799  23.857  1.00  0.00    -0.020 A 
ATOM     38  C   UNL A   1      31.236  27.551  23.315  1.00  0.00     0.087 A 
ATOM     39  C   UNL A   1      30.301  29.563  23.734  1.00  0.00     0.003 A 
ATOM     40  N   UNL A   1      29.931  27.531  22.892  1.00  0.00    -0.361 N 
ATOM     41  C   UNL A   1      29.376  28.777  23.046  1.00  0.00     0.046 A 
ATOM     42  C   UNL A   1      29.880  30.848  24.141  1.00  0.00     0.010 A 
ATOM     43  H   UNL A   1      29.464  26.742  22.532  1.00  0.00     0.166 HD
ATOM     44  C   UNL A   1      28.103  29.226  22.671  1.00  0.00     0.026 A 
ATOM     45  C   UNL A   1      28.608  31.318  23.778  1.00  0.00     0.001 A 
ATOM     46  C   UNL A   1      27.740  30.522  23.035  1.00  0.00     0.002 A 
ENDBRANCH  36  37
ENDBRANCH  10  36
ENDBRANCH   7  10
ENDBRANCH   5   6
ENDBRANCH   1   5
BRANCH   3  47
ATOM     47  C   UNL A   1      35.607  23.761  24.289  1.00  0.00     0.116 C 
BRANCH  47  48
ATOM     48  C   UNL A   1      36.709  22.720  24.088  1.00  0.00     0.023 C 
BRANCH  48  49
ATOM     49  C   UNL A   1      37.270  22.120  25.382  1.00  0.00     0.023 C 
BRANCH  49  50
ATOM     50  C   UNL A   1      38.607  22.693  25.832  1.00  0.00     0.116 C 
BRANCH  50  51
ATOM     51  N   UNL A   1      38.718  24.142  25.806  1.00  0.00    -0.352 N 
ATOM     52  C   UNL A   1      39.063  24.773  27.013  1.00  0.00     0.251 C 
ATOM     53  H   UNL A   1      38.559  24.657  24.982  1.00  0.00     0.163 HD
ATOM     54  O   UNL A   1      38.345  24.910  27.959  1.00  0.00    -0.269 OA
BRANCH  52  55
ATOM     55  C   UNL A   1      40.539  24.884  27.137  1.00  0.00     0.039 A 
ATOM     56  C   UNL A   1      41.282  24.255  28.133  1.00  0.00     0.014 A 
ATOM     57  C   UNL A   1      41.096  25.875  26.331  1.00  0.00     0.014 A 
ATOM     58  C   UNL A   1      42.579  24.711  28.399  1.00  0.00     0.010 A 
ATOM     59  C   UNL A   1      42.324  26.387  26.660  1.00  0.00     0.010 A 
ATOM     60  C   UNL A   1      43.066  25.819  27.705  1.00  0.00    -0.014 A 
BRANCH  60  61
ATOM     61  C   UNL A   1      44.310  26.536  27.967  1.00  0.00     0.031 A 
ATOM     62  C   UNL A   1      45.519  26.205  27.173  1.00  0.00     0.074 A 
ATOM     63  C   UNL A   1      44.216  27.717  28.617  1.00  0.00     0.049 A 
ATOM     64  N   UNL A   1      46.667  26.778  27.288  1.00  0.00    -0.248 NA
ATOM     65  C   UNL A   1      45.515  25.147  26.170  1.00  0.00     0.031 C 
ATOM     66  C   UNL A   1      45.098  28.872  28.487  1.00  0.00     0.029 A 
ATOM     67  N   UNL A   1      43.387  28.031  29.697  1.00  0.00    -0.354 N 
ATOM     68  C   UNL A   1      47.439  26.410  26.202  1.00  0.00     0.074 A 
ATOM     69  C   UNL A   1      46.707  25.327  25.594  1.00  0.00     0.031 C 
ATOM     70  C   UNL A   1      44.964  29.644  29.575  1.00  0.00     0.029 A 
ATOM     71  C   UNL A   1      44.131  28.912  30.513  1.00  0.00     0.049 A 
ATOM     72  H   UNL A   1      42.471  27.706  29.856  1.00  0.00     0.167 HD
ATOM     73  C   UNL A   1      48.532  27.170  25.886  1.00  0.00     0.037 A 
ATOM     74  C   UNL A   1      44.537  28.523  31.760  1.00  0.00     0.037 A 
ATOM     75  C   UNL A   1      48.812  28.123  26.967  1.00  0.00     0.049 A 
ATOM     76  C   UNL A   1      46.041  28.467  31.929  1.00  0.00     0.074 A 
ATOM     77  C   UNL A   1      48.568  29.478  27.128  1.00  0.00     0.029 A 
ATOM     78  N   UNL A   1      49.157  27.638  28.226  1.00  0.00    -0.354 N 
ATOM     79  N   UNL A   1      46.889  28.470  30.937  1.00  0.00    -0.248 NA
ATOM     80  C   UNL A   1      46.710  28.405  33.226  1.00  0.00     0.031 C 
ATOM     81  C   UNL A   1      48.666  29.780  28.512  1.00  0.00     0.029 A 
ATOM     82  C   UNL A   1      49.001  28.619  29.187  1.00  0.00     0.049 A 
ATOM     83  H   UNL A   1      49.468  26.722  28.407  1.00  0.00     0.167 HD
ATOM     84  C   UNL A   1      48.170  28.385  31.419  1.00  0.00     0.074 A 
ATOM     85  C   UNL A   1      48.004  28.375  32.861  1.00  0.00     0.031 C 
ATOM     86  C   UNL A   1      49.257  28.323  30.592  1.00  0.00     0.037 A 
BRANCH  73  87
ATOM     87  C   UNL A   1      49.187  27.250  24.507  1.00  0.00     0.058 A 
ATOM     88  C   UNL A   1      48.403  27.479  23.350  1.00  0.00     0.135 A 
ATOM     89  C   UNL A   1      50.552  27.028  24.225  1.00  0.00     0.135 A 
ATOM     90  F   UNL A   1      47.102  27.792  23.436  1.00  0.00    -0.206 F 
ATOM     91  C   UNL A   1      48.904  27.390  22.045  1.00  0.00     0.059 A 
ATOM     92  C   UNL A   1      51.071  26.900  22.932  1.00  0.00     0.059 A 
ATOM     93  F   UNL A   1      51.477  26.970  25.185  1.00  0.00    -0.206 F 
ATOM     94  C   UNL A   1      50.236  27.068  21.843  1.00  0.00     0.060 A 
BRANCH  94  95
ATOM     95  S   UNL A   1      50.863  26.892  20.163  1.00  0.00     0.124 S 
ATOM     96  O   UNL A   1      51.546  25.604  20.225  1.00  0.00    -0.237 OA
ATOM     97  O   UNL A   1      49.637  26.924  19.373  1.00  0.00    -0.237 OA
ATOM     98  O   UNL A   1      51.738  28.049  20.002  1.00  0.00    -0.744 OA
ENDBRANCH  94  95
ENDBRANCH  73  87
BRANCH  74  99
ATOM     99  C   UNL A   1      43.535  27.643  32.431  1.00  0.00     0.058 A 
ATOM    100  C   UNL A   1      43.988  26.376  32.857  1.00  0.00     0.135 A 
ATOM    101  C   UNL A   1      42.423  28.187  33.090  1.00  0.00     0.135 A 
ATOM    102  F   UNL A   1      45.030  25.798  32.237  1.00  0.00    -0.206 F 
ATOM    103  C   UNL A   1      43.512  25.784  34.021  1.00  0.00     0.059 A 
ATOM    104  C   UNL A   1      41.913  27.596  34.249  1.00  0.00     0.059 A 
ATOM    105  F   UNL A   1      41.934  29.380  32.719  1.00  0.00    -0.206 F 
ATOM    106  C   UNL A   1      42.534  26.453  34.756  1.00  0.00     0.060 A 
BRANCH 106 107
ATOM    107  S   UNL A   1      42.279  25.942  36.474  1.00  0.00     0.124 S 
ATOM    108  O   UNL A   1      40.832  25.791  36.547  1.00  0.00    -0.237 OA
ATOM    109  O   UNL A   1      43.049  24.695  36.529  1.00  0.00    -0.237 OA
ATOM    110  O   UNL A   1      42.838  27.048  37.244  1.00  0.00    -0.744 OA
ENDBRANCH 106 107
ENDBRANCH  74  99
BRANCH  86 111
ATOM    111  C   UNL A   1      50.678  28.048  31.023  1.00  0.00     0.058 A 
ATOM    112  C   UNL A   1      51.526  29.007  31.602  1.00  0.00     0.135 A 
ATOM    113  C   UNL A   1      51.185  26.724  30.993  1.00  0.00     0.135 A 
ATOM    114  F   UNL A   1      51.122  30.272  31.785  1.00  0.00    -0.206 F 
ATOM    115  C   UNL A   1      52.806  28.692  32.065  1.00  0.00     0.059 A 
ATOM    116  C   UNL A   1      52.434  26.379  31.498  1.00  0.00     0.059 A 
ATOM    117  F   UNL A   1      50.468  25.714  30.476  1.00  0.00    -0.206 F 
ATOM    118  C   UNL A   1      53.252  27.375  32.011  1.00  0.00     0.060 A 
BRANCH 118 119
ATOM    119  S   UNL A   1      54.873  26.940  32.667  1.00  0.00     0.124 S 
ATOM    120  O   UNL A   1      54.859  25.487  32.536  1.00  0.00    -0.237 OA
ATOM    121  O   UNL A   1      55.789  27.643  31.773  1.00  0.00    -0.237 OA
ATOM    122  O   UNL A   1      54.824  27.454  34.032  1.00  0.00    -0.744 OA
ENDBRANCH 118 119
ENDBRANCH  86 111
ENDBRANCH  60  61
ENDBRANCH  52  55
ENDBRANCH  50  51
ENDBRANCH  49  50
ENDBRANCH  48  49
ENDBRANCH  47  48
ENDBRANCH   3  47
TORSDOF 23
ENDMDL
MODEL 2
REMARK VINA RESULT:     -10.6      1.615      2.270
REMARK SMILES Cc1ccc(S(=O)(=O)n2cc(C(=O)C(=O)N[C@H](Cc3c[nH]c4ccccc34)C(=O)NCC(=O)NCCCCNC(=O)c3ccc(-c4c5nc(c(-c6c(F)cc(S(=O)(=O)[O-])cc6F)c6ccc([nH]6)c(-c6c(F)cc(S(=O)(=O)[O-])cc6F)c6nc(c(-c7c(F)cc(S(=O)(=O)[O-])cc7F)c7ccc4[nH]7)C=C6)C=C5)cc3)c3ccccc32)cc1
REMARK SMILES IDX 32 1 33 2 34 3 31 5 30 6 28 7 29 8 17 10 16 11 14 12 15 13
REMARK SMILES IDX 12 15 13 16 11 17 9 18 10 19 113 20 108 21 112 22 109 23
REMARK SMILES IDX 111 24 110 25 6 26 7 27 8 28 5 29 1 30 2 31 3 32 115 33 4 34
REMARK SMILES IDX 114 35 18 36 19 37 20 38 27 39 21 40 22 41 26 42 23 44 25 45
REMARK SMILES IDX 24 46 35 47 36 48 37 49 38 50 39 51 40 52 41 54 42 55 43 56
REMARK SMILES IDX 107 57 44 58 106 59 45 60 46 61 47 62 100 63 48 64 105 65
REMARK SMILES IDX 99 66 101 67 49 68 104 69 98 70 97 71 50 73 84 74 63 75
REMARK SMILES IDX 83 76 64 77 67 78 82 79 102 80 65 81 66 82 81 84 103 85
REMARK SMILES IDX 68 86 51 87 52 88 61 89 53 90 54 91 60 92 62 93 55 94 56 95
REMARK SMILES IDX 57 96 58 97 59 98 85 99 86 100 95 101 87 102 88 103 94 104
REMARK SMILES IDX 96 105 89 106 90 107 91 108 92 109 93 110 69 111 70 112
REMARK SMILES IDX 79 113 71 114 72 115 78 116 80 117 73 118 74 119 75 120
REMARK SMILES IDX 76 121 77 122
REMARK H PARENT 34 4 30 9 16 14 21 43 39 53 101 72 67 83
REMARK Flexibility Score: inf
ROOT
ATOM      1  C   UNL A   1      33.022  23.100  26.351  1.00  0.00     0.239 C 
ATOM      2  O   UNL A   1      32.343  22.731  27.317  1.00  0.00    -0.273 OA
ATOM      3  N   UNL A   1      33.771  22.153  25.719  1.00  0.00    -0.355 N 
ATOM      4  H   UNL A   1      33.826  21.290  26.189  1.00  0.00     0.163 HD
ENDROOT
BRANCH   1   5
ATOM      5  C   UNL A   1      32.889  24.543  25.841  1.00  0.00     0.216 C 
BRANCH   5   6
ATOM      6  N   UNL A   1      32.179  25.467  26.693  1.00  0.00    -0.345 N 
ATOM      7  C   UNL A   1      31.899  26.784  26.627  1.00  0.00     0.243 C 
ATOM      8  O   UNL A   1      31.019  27.135  27.427  1.00  0.00    -0.273 OA
ATOM      9  H   UNL A   1      31.817  25.038  27.503  1.00  0.00     0.164 HD
BRANCH   7  10
ATOM     10  C   UNL A   1      32.561  27.857  25.703  1.00  0.00     0.176 C 
BRANCH  10  11
ATOM     11  N   UNL A   1      32.666  29.284  26.165  1.00  0.00    -0.337 N 
ATOM     12  C   UNL A   1      33.585  30.008  26.915  1.00  0.00     0.293 C 
ATOM     13  O   UNL A   1      33.337  31.175  27.205  1.00  0.00    -0.265 OA
ATOM     14  H   UNL A   1      31.906  29.834  25.865  1.00  0.00     0.164 HD
BRANCH  12  15
ATOM     15  C   UNL A   1      34.913  29.379  27.337  1.00  0.00     0.252 C 
ATOM     16  O   UNL A   1      35.321  28.496  26.581  1.00  0.00    -0.283 OA
BRANCH  15  17
ATOM     17  C   UNL A   1      35.720  29.733  28.516  1.00  0.00     0.054 A 
ATOM     18  N   UNL A   1      36.649  30.464  30.438  1.00  0.00    -0.240 N 
ATOM     19  C   UNL A   1      35.438  30.375  29.722  1.00  0.00     0.117 A 
ATOM     20  C   UNL A   1      37.487  29.481  29.919  1.00  0.00     0.065 A 
ATOM     21  C   UNL A   1      37.121  29.437  28.579  1.00  0.00     0.012 A 
ATOM     22  C   UNL A   1      38.661  28.883  30.392  1.00  0.00     0.028 A 
ATOM     23  C   UNL A   1      38.095  29.076  27.634  1.00  0.00     0.011 A 
ATOM     24  C   UNL A   1      39.578  28.448  29.426  1.00  0.00     0.002 A 
ATOM     25  C   UNL A   1      39.335  28.620  28.065  1.00  0.00     0.001 A 
BRANCH  18  26
ATOM     26  S   UNL A   1      37.425  32.066  30.615  1.00  0.00     0.268 S 
ATOM     27  O   UNL A   1      38.436  32.109  29.573  1.00  0.00    -0.201 OA
ATOM     28  O   UNL A   1      37.790  32.173  32.017  1.00  0.00    -0.201 OA
BRANCH  26  29
ATOM     29  C   UNL A   1      36.296  33.398  30.291  1.00  0.00     0.088 A 
ATOM     30  C   UNL A   1      32.933  35.788  29.023  1.00  0.00     0.044 C 
ATOM     31  C   UNL A   1      34.111  34.980  29.488  1.00  0.00    -0.051 A 
ATOM     32  C   UNL A   1      35.070  34.583  28.554  1.00  0.00     0.005 A 
ATOM     33  C   UNL A   1      34.281  34.614  30.834  1.00  0.00     0.005 A 
ATOM     34  C   UNL A   1      36.153  33.798  28.951  1.00  0.00     0.022 A 
ATOM     35  C   UNL A   1      35.363  33.813  31.240  1.00  0.00     0.022 A 
ENDBRANCH  26  29
ENDBRANCH  18  26
ENDBRANCH  15  17
ENDBRANCH  12  15
ENDBRANCH  10  11
BRANCH  10  36
ATOM     36  C   UNL A   1      32.479  27.665  24.157  1.00  0.00     0.072 C 
BRANCH  36  37
ATOM     37  C   UNL A   1      31.593  28.544  23.306  1.00  0.00    -0.020 A 
ATOM     38  C   UNL A   1      32.057  29.463  22.373  1.00  0.00     0.087 A 
ATOM     39  C   UNL A   1      30.158  28.530  23.161  1.00  0.00     0.003 A 
ATOM     40  N   UNL A   1      30.990  29.980  21.684  1.00  0.00    -0.361 N 
ATOM     41  C   UNL A   1      29.819  29.500  22.217  1.00  0.00     0.046 A 
ATOM     42  C   UNL A   1      29.101  27.787  23.730  1.00  0.00     0.010 A 
ATOM     43  H   UNL A   1      31.054  30.602  20.923  1.00  0.00     0.166 HD
ATOM     44  C   UNL A   1      28.499  29.825  21.879  1.00  0.00     0.026 A 
ATOM     45  C   UNL A   1      27.771  28.095  23.405  1.00  0.00     0.001 A 
ATOM     46  C   UNL A   1      27.476  29.115  22.506  1.00  0.00     0.002 A 
ENDBRANCH  36  37
ENDBRANCH  10  36
ENDBRANCH   7  10
ENDBRANCH   5   6
ENDBRANCH   1   5
BRANCH   3  47
ATOM     47  C   UNL A   1      34.504  22.207  24.461  1.00  0.00     0.116 C 
BRANCH  47  48
ATOM     48  C   UNL A   1      35.981  22.555  24.650  1.00  0.00     0.023 C 
BRANCH  48  49
ATOM     49  C   UNL A   1      36.293  23.373  25.908  1.00  0.00     0.023 C 
BRANCH  49  50
ATOM     50  C   UNL A   1      37.706  23.934  25.980  1.00  0.00     0.116 C 
BRANCH  50  51
ATOM     51  N   UNL A   1      38.496  23.521  27.127  1.00  0.00    -0.352 N 
ATOM     52  C   UNL A   1      39.869  23.315  26.910  1.00  0.00     0.251 C 
ATOM     53  H   UNL A   1      38.089  23.391  28.014  1.00  0.00     0.163 HD
ATOM     54  O   UNL A   1      40.352  22.390  26.326  1.00  0.00    -0.269 OA
BRANCH  52  55
ATOM     55  C   UNL A   1      40.623  24.577  27.125  1.00  0.00     0.039 A 
ATOM     56  C   UNL A   1      40.756  25.574  26.161  1.00  0.00     0.014 A 
ATOM     57  C   UNL A   1      41.405  24.573  28.279  1.00  0.00     0.014 A 
ATOM     58  C   UNL A   1      41.774  26.524  26.308  1.00  0.00     0.010 A 
ATOM     59  C   UNL A   1      42.462  25.439  28.369  1.00  0.00     0.010 A 
ATOM     60  C   UNL A   1      42.663  26.409  27.377  1.00  0.00    -0.014 A 
BRANCH  60  61
ATOM     61  C   UNL A   1      43.876  27.191  27.591  1.00  0.00     0.031 A 
ATOM     62  C   UNL A   1      45.136  26.773  26.926  1.00  0.00     0.074 A 
ATOM     63  C   UNL A   1      43.724  28.456  28.040  1.00  0.00     0.049 A 
ATOM     64  N   UNL A   1      46.265  27.388  27.012  1.00  0.00    -0.248 NA
ATOM     65  C   UNL A   1      45.210  25.571  26.103  1.00  0.00     0.031 C 
ATOM     66  C   UNL A   1      44.591  29.600  27.778  1.00  0.00     0.029 A 
ATOM     67  N   UNL A   1      42.827  28.913  29.010  1.00  0.00    -0.354 N 
ATOM     68  C   UNL A   1      47.105  26.875  26.042  1.00  0.00     0.074 A 
ATOM     69  C   UNL A   1      46.429  25.692  25.572  1.00  0.00     0.031 C 
ATOM     70  C   UNL A   1      44.379  30.529  28.723  1.00  0.00     0.029 A 
ATOM     71  C   UNL A   1      43.506  29.930  29.717  1.00  0.00     0.049 A 
ATOM     72  H   UNL A   1      41.910  28.592  29.168  1.00  0.00     0.167 HD
ATOM     73  C   UNL A   1      48.201  27.606  25.670  1.00  0.00     0.037 A 
ATOM     74  C   UNL A   1      43.845  29.752  31.030  1.00  0.00     0.037 A 
ATOM     75  C   UNL A   1      48.400  28.723  26.602  1.00  0.00     0.049 A 
ATOM     76  C   UNL A   1      45.338  29.763  31.288  1.00  0.00     0.074 A 
ATOM     77  C   UNL A   1      48.122  30.079  26.533  1.00  0.00     0.029 A 
ATOM     78  N   UNL A   1      48.679  28.450  27.938  1.00  0.00    -0.354 N 
ATOM     79  N   UNL A   1      46.243  29.634  30.356  1.00  0.00    -0.248 NA
ATOM     80  C   UNL A   1      45.931  29.923  32.613  1.00  0.00     0.031 C 
ATOM     81  C   UNL A   1      48.134  30.597  27.856  1.00  0.00     0.029 A 
ATOM     82  C   UNL A   1      48.450  29.565  28.723  1.00  0.00     0.049 A 
ATOM     83  H   UNL A   1      48.996  27.582  28.278  1.00  0.00     0.167 HD
ATOM     84  C   UNL A   1      47.494  29.661  30.915  1.00  0.00     0.074 A 
ATOM     85  C   UNL A   1      47.245  29.871  32.329  1.00  0.00     0.031 C 
ATOM     86  C   UNL A   1      48.628  29.500  30.169  1.00  0.00     0.037 A 
BRANCH  73  87
ATOM     87  C   UNL A   1      48.934  27.488  24.335  1.00  0.00     0.058 A 
ATOM     88  C   UNL A   1      48.231  27.634  23.113  1.00  0.00     0.135 A 
ATOM     89  C   UNL A   1      50.292  27.148  24.163  1.00  0.00     0.135 A 
ATOM     90  F   UNL A   1      46.953  28.037  23.084  1.00  0.00    -0.206 F 
ATOM     91  C   UNL A   1      48.795  27.366  21.859  1.00  0.00     0.059 A 
ATOM     92  C   UNL A   1      50.871  26.842  22.926  1.00  0.00     0.059 A 
ATOM     93  F   UNL A   1      51.158  27.140  25.178  1.00  0.00    -0.206 F 
ATOM     94  C   UNL A   1      50.110  26.938  21.776  1.00  0.00     0.060 A 
BRANCH  94  95
ATOM     95  S   UNL A   1      50.813  26.533  20.167  1.00  0.00     0.124 S 
ATOM     96  O   UNL A   1      49.860  25.553  19.656  1.00  0.00    -0.237 OA
ATOM     97  O   UNL A   1      50.814  27.829  19.498  1.00  0.00    -0.237 OA
ATOM     98  O   UNL A   1      52.133  26.001  20.495  1.00  0.00    -0.744 OA
ENDBRANCH  94  95
ENDBRANCH  73  87
BRANCH  74  99
ATOM     99  C   UNL A   1      42.822  28.961  31.775  1.00  0.00     0.058 A 
ATOM    100  C   UNL A   1      43.214  27.682  32.225  1.00  0.00     0.135 A 
ATOM    101  C   UNL A   1      41.778  29.596  32.463  1.00  0.00     0.135 A 
ATOM    102  F   UNL A   1      44.188  27.018  31.581  1.00  0.00    -0.206 F 
ATOM    103  C   UNL A   1      42.756  27.160  33.430  1.00  0.00     0.059 A 
ATOM    104  C   UNL A   1      41.286  29.078  33.663  1.00  0.00     0.059 A 
ATOM    105  F   UNL A   1      41.349  30.806  32.072  1.00  0.00    -0.206 F 
ATOM    106  C   UNL A   1      41.857  27.915  34.183  1.00  0.00     0.060 A 
BRANCH 106 107
ATOM    107  S   UNL A   1      41.649  27.478  35.927  1.00  0.00     0.124 S 
ATOM    108  O   UNL A   1      41.140  26.116  35.854  1.00  0.00    -0.237 OA
ATOM    109  O   UNL A   1      43.019  27.615  36.432  1.00  0.00    -0.237 OA
ATOM    110  O   UNL A   1      40.708  28.478  36.418  1.00  0.00    -0.744 OA
ENDBRANCH 106 107
ENDBRANCH  74  99
BRANCH  86 111
ATOM    111  C   UNL A   1      50.027  29.333  30.715  1.00  0.00     0.058 A 
ATOM    112  C   UNL A   1      50.614  28.092  31.012  1.00  0.00     0.135 A 
ATOM    113  C   UNL A   1      50.887  30.454  30.816  1.00  0.00     0.135 A 
ATOM    114  F   UNL A   1      49.936  26.946  30.853  1.00  0.00    -0.206 F 
ATOM    115  C   UNL A   1      51.940  27.973  31.435  1.00  0.00     0.059 A 
ATOM    116  C   UNL A   1      52.226  30.353  31.182  1.00  0.00     0.059 A 
ATOM    117  F   UNL A   1      50.452  31.695  30.547  1.00  0.00    -0.206 F 
ATOM    118  C   UNL A   1      52.740  29.109  31.516  1.00  0.00     0.060 A 
BRANCH 118 119
ATOM    119  S   UNL A   1      54.472  28.965  31.994  1.00  0.00     0.124 S 
ATOM    120  O   UNL A   1      54.361  28.299  33.288  1.00  0.00    -0.237 OA
ATOM    121  O   UNL A   1      55.043  28.159  30.919  1.00  0.00    -0.237 OA
ATOM    122  O   UNL A   1      54.919  30.353  32.032  1.00  0.00    -0.744 OA
ENDBRANCH 118 119
ENDBRANCH  86 111
ENDBRANCH  60  61
ENDBRANCH  52  55
ENDBRANCH  50  51
ENDBRANCH  49  50
ENDBRANCH  48  49
ENDBRANCH  47  48
ENDBRANCH   3  47
TORSDOF 23
ENDMDL
MODEL 3
REMARK VINA RESULT:     -10.5      3.742      8.540
REMARK SMILES Cc1ccc(S(=O)(=O)n2cc(C(=O)C(=O)N[C@H](Cc3c[nH]c4ccccc34)C(=O)NCC(=O)NCCCCNC(=O)c3ccc(-c4c5nc(c(-c6c(F)cc(S(=O)(=O)[O-])cc6F)c6ccc([nH]6)c(-c6c(F)cc(S(=O)(=O)[O-])cc6F)c6nc(c(-c7c(F)cc(S(=O)(=O)[O-])cc7F)c7ccc4[nH]7)C=C6)C=C5)cc3)c3ccccc32)cc1
REMARK SMILES IDX 32 1 33 2 34 3 31 5 30 6 28 7 29 8 17 10 16 11 14 12 15 13
REMARK SMILES IDX 12 15 13 16 11 17 9 18 10 19 113 20 108 21 112 22 109 23
REMARK SMILES IDX 111 24 110 25 6 26 7 27 8 28 5 29 1 30 2 31 3 32 115 33 4 34
REMARK SMILES IDX 114 35 18 36 19 37 20 38 27 39 21 40 22 41 26 42 23 44 25 45
REMARK SMILES IDX 24 46 35 47 36 48 37 49 38 50 39 51 40 52 41 54 42 55 43 56
REMARK SMILES IDX 107 57 44 58 106 59 45 60 46 61 47 62 100 63 48 64 105 65
REMARK SMILES IDX 99 66 101 67 49 68 104 69 98 70 97 71 50 73 84 74 63 75
REMARK SMILES IDX 83 76 64 77 67 78 82 79 102 80 65 81 66 82 81 84 103 85
REMARK SMILES IDX 68 86 51 87 52 88 61 89 53 90 54 91 60 92 62 93 55 94 56 95
REMARK SMILES IDX 57 96 58 97 59 98 85 99 86 100 95 101 87 102 88 103 94 104
REMARK SMILES IDX 96 105 89 106 90 107 91 108 92 109 93 110 69 111 70 112
REMARK SMILES IDX 79 113 71 114 72 115 78 116 80 117 73 118 74 119 75 120
REMARK SMILES IDX 76 121 77 122
REMARK H PARENT 34 4 30 9 16 14 21 43 39 53 101 72 67 83
REMARK Flexibility Score: inf
ROOT
ATOM      1  C   UNL A   1      33.820  21.866  26.211  1.00  0.00     0.239 C 
ATOM      2  O   UNL A   1      32.760  21.279  25.965  1.00  0.00    -0.273 OA
ATOM      3  N   UNL A   1      34.977  21.230  25.874  1.00  0.00    -0.355 N 
ATOM      4  H   UNL A   1      34.868  20.289  25.610  1.00  0.00     0.163 HD
ENDROOT
BRANCH   1   5
ATOM      5  C   UNL A   1      33.778  23.306  26.748  1.00  0.00     0.216 C 
BRANCH   5   6
ATOM      6  N   UNL A   1      32.483  23.939  26.800  1.00  0.00    -0.345 N 
ATOM      7  C   UNL A   1      32.033  25.184  26.544  1.00  0.00     0.243 C 
ATOM      8  O   UNL A   1      30.798  25.242  26.439  1.00  0.00    -0.273 OA
ATOM      9  H   UNL A   1      31.768  23.324  27.085  1.00  0.00     0.164 HD
BRANCH   7  10
ATOM     10  C   UNL A   1      32.873  26.494  26.400  1.00  0.00     0.176 C 
BRANCH  10  11
ATOM     11  N   UNL A   1      32.306  27.806  26.868  1.00  0.00    -0.337 N 
ATOM     12  C   UNL A   1      32.828  29.073  27.103  1.00  0.00     0.293 C 
ATOM     13  O   UNL A   1      32.105  29.940  27.582  1.00  0.00    -0.265 OA
ATOM     14  H   UNL A   1      31.340  27.756  27.052  1.00  0.00     0.164 HD
BRANCH  12  15
ATOM     15  C   UNL A   1      34.273  29.401  26.725  1.00  0.00     0.252 C 
ATOM     16  O   UNL A   1      34.574  29.115  25.566  1.00  0.00    -0.283 OA
BRANCH  15  17
ATOM     17  C   UNL A   1      35.291  30.017  27.592  1.00  0.00     0.054 A 
ATOM     18  N   UNL A   1      36.988  30.609  28.955  1.00  0.00    -0.240 N 
ATOM     19  C   UNL A   1      36.455  29.545  28.201  1.00  0.00     0.117 A 
ATOM     20  C   UNL A   1      36.462  31.779  28.416  1.00  0.00     0.065 A 
ATOM     21  C   UNL A   1      35.194  31.387  28.002  1.00  0.00     0.012 A 
ATOM     22  C   UNL A   1      36.829  33.126  28.520  1.00  0.00     0.028 A 
ATOM     23  C   UNL A   1      34.167  32.345  28.002  1.00  0.00     0.011 A 
ATOM     24  C   UNL A   1      35.797  34.068  28.425  1.00  0.00     0.002 A 
ATOM     25  C   UNL A   1      34.471  33.678  28.253  1.00  0.00     0.001 A 
BRANCH  18  26
ATOM     26  S   UNL A   1      36.899  30.524  30.741  1.00  0.00     0.268 S 
ATOM     27  O   UNL A   1      38.273  30.340  31.176  1.00  0.00    -0.201 OA
ATOM     28  O   UNL A   1      35.881  29.532  31.037  1.00  0.00    -0.201 OA
BRANCH  26  29
ATOM     29  C   UNL A   1      36.334  32.048  31.457  1.00  0.00     0.088 A 
ATOM     30  C   UNL A   1      34.857  35.090  34.139  1.00  0.00     0.044 C 
ATOM     31  C   UNL A   1      35.385  34.056  33.186  1.00  0.00    -0.051 A 
ATOM     32  C   UNL A   1      34.499  33.128  32.636  1.00  0.00     0.005 A 
ATOM     33  C   UNL A   1      36.742  33.995  32.827  1.00  0.00     0.005 A 
ATOM     34  C   UNL A   1      34.968  32.131  31.780  1.00  0.00     0.022 A 
ATOM     35  C   UNL A   1      37.225  32.987  31.974  1.00  0.00     0.022 A 
ENDBRANCH  26  29
ENDBRANCH  18  26
ENDBRANCH  15  17
ENDBRANCH  12  15
ENDBRANCH  10  11
BRANCH  10  36
ATOM     36  C   UNL A   1      33.903  26.597  25.232  1.00  0.00     0.072 C 
BRANCH  36  37
ATOM     37  C   UNL A   1      33.464  26.481  23.791  1.00  0.00    -0.020 A 
ATOM     38  C   UNL A   1      33.164  27.561  22.970  1.00  0.00     0.087 A 
ATOM     39  C   UNL A   1      33.406  25.317  22.943  1.00  0.00     0.003 A 
ATOM     40  N   UNL A   1      32.944  27.107  21.694  1.00  0.00    -0.361 N 
ATOM     41  C   UNL A   1      32.987  25.735  21.679  1.00  0.00     0.046 A 
ATOM     42  C   UNL A   1      33.672  23.941  23.111  1.00  0.00     0.010 A 
ATOM     43  H   UNL A   1      32.779  27.679  20.910  1.00  0.00     0.166 HD
ATOM     44  C   UNL A   1      32.739  24.859  20.615  1.00  0.00     0.026 A 
ATOM     45  C   UNL A   1      33.431  23.044  22.058  1.00  0.00     0.001 A 
ATOM     46  C   UNL A   1      32.952  23.498  20.832  1.00  0.00     0.002 A 
ENDBRANCH  36  37
ENDBRANCH  10  36
ENDBRANCH   7  10
ENDBRANCH   5   6
ENDBRANCH   1   5
BRANCH   3  47
ATOM     47  C   UNL A   1      36.351  21.715  25.840  1.00  0.00     0.116 C 
BRANCH  47  48
ATOM     48  C   UNL A   1      37.247  20.891  24.915  1.00  0.00     0.023 C 
BRANCH  48  49
ATOM     49  C   UNL A   1      38.733  20.893  25.291  1.00  0.00     0.023 C 
BRANCH  49  50
ATOM     50  C   UNL A   1      39.167  22.035  26.199  1.00  0.00     0.116 C 
BRANCH  50  51
ATOM     51  N   UNL A   1      40.404  21.829  26.932  1.00  0.00    -0.352 N 
ATOM     52  C   UNL A   1      41.572  22.371  26.370  1.00  0.00     0.251 C 
ATOM     53  H   UNL A   1      40.423  21.333  27.783  1.00  0.00     0.163 HD
ATOM     54  O   UNL A   1      42.146  21.948  25.410  1.00  0.00    -0.269 OA
BRANCH  52  55
ATOM     55  C   UNL A   1      41.781  23.762  26.847  1.00  0.00     0.039 A 
ATOM     56  C   UNL A   1      42.118  24.825  26.013  1.00  0.00     0.014 A 
ATOM     57  C   UNL A   1      41.865  23.872  28.234  1.00  0.00     0.014 A 
ATOM     58  C   UNL A   1      42.658  25.986  26.581  1.00  0.00     0.010 A 
ATOM     59  C   UNL A   1      42.487  24.965  28.778  1.00  0.00     0.010 A 
ATOM     60  C   UNL A   1      42.901  26.021  27.955  1.00  0.00    -0.014 A 
BRANCH  60  61
ATOM     61  C   UNL A   1      43.612  27.063  28.689  1.00  0.00     0.031 A 
ATOM     62  C   UNL A   1      42.836  28.121  29.381  1.00  0.00     0.074 A 
ATOM     63  C   UNL A   1      44.890  26.805  29.044  1.00  0.00     0.049 A 
ATOM     64  N   UNL A   1      43.338  29.078  30.082  1.00  0.00    -0.248 NA
ATOM     65  C   UNL A   1      41.380  28.180  29.308  1.00  0.00     0.031 C 
ATOM     66  C   UNL A   1      45.604  27.310  30.212  1.00  0.00     0.029 A 
ATOM     67  N   UNL A   1      45.874  26.169  28.281  1.00  0.00    -0.354 N 
ATOM     68  C   UNL A   1      42.312  29.673  30.791  1.00  0.00     0.074 A 
ATOM     69  C   UNL A   1      41.111  29.135  30.202  1.00  0.00     0.031 C 
ATOM     70  C   UNL A   1      46.923  27.212  29.988  1.00  0.00     0.029 A 
ATOM     71  C   UNL A   1      47.089  26.815  28.601  1.00  0.00     0.049 A 
ATOM     72  H   UNL A   1      45.746  25.424  27.650  1.00  0.00     0.167 HD
ATOM     73  C   UNL A   1      42.626  30.439  31.880  1.00  0.00     0.037 A 
ATOM     74  C   UNL A   1      47.745  27.561  27.661  1.00  0.00     0.037 A 
ATOM     75  C   UNL A   1      44.073  30.684  31.923  1.00  0.00     0.049 A 
ATOM     76  C   UNL A   1      47.867  29.028  28.014  1.00  0.00     0.074 A 
ATOM     77  C   UNL A   1      45.108  30.136  32.664  1.00  0.00     0.029 A 
ATOM     78  N   UNL A   1      44.670  31.400  30.889  1.00  0.00    -0.354 N 
ATOM     79  N   UNL A   1      47.164  29.618  28.943  1.00  0.00    -0.248 NA
ATOM     80  C   UNL A   1      48.788  29.948  27.353  1.00  0.00     0.031 C 
ATOM     81  C   UNL A   1      46.329  30.443  32.005  1.00  0.00     0.029 A 
ATOM     82  C   UNL A   1      46.038  31.201  30.884  1.00  0.00     0.049 A 
ATOM     83  H   UNL A   1      44.185  31.969  30.250  1.00  0.00     0.167 HD
ATOM     84  C   UNL A   1      47.490  30.949  28.999  1.00  0.00     0.074 A 
ATOM     85  C   UNL A   1      48.532  31.099  28.000  1.00  0.00     0.031 C 
ATOM     86  C   UNL A   1      46.870  31.815  29.855  1.00  0.00     0.037 A 
BRANCH  73  87
ATOM     87  C   UNL A   1      41.689  30.746  33.049  1.00  0.00     0.058 A 
ATOM     88  C   UNL A   1      40.975  29.704  33.691  1.00  0.00     0.135 A 
ATOM     89  C   UNL A   1      41.369  32.029  33.538  1.00  0.00     0.135 A 
ATOM     90  F   UNL A   1      41.215  28.415  33.412  1.00  0.00    -0.206 F 
ATOM     91  C   UNL A   1      39.973  29.925  34.644  1.00  0.00     0.059 A 
ATOM     92  C   UNL A   1      40.349  32.281  34.463  1.00  0.00     0.059 A 
ATOM     93  F   UNL A   1      42.057  33.117  33.188  1.00  0.00    -0.206 F 
ATOM     94  C   UNL A   1      39.642  31.222  35.003  1.00  0.00     0.060 A 
BRANCH  94  95
ATOM     95  S   UNL A   1      38.309  31.505  36.181  1.00  0.00     0.124 S 
ATOM     96  O   UNL A   1      37.209  31.899  35.308  1.00  0.00    -0.237 OA
ATOM     97  O   UNL A   1      38.180  30.200  36.818  1.00  0.00    -0.237 OA
ATOM     98  O   UNL A   1      38.831  32.567  37.037  1.00  0.00    -0.744 OA
ENDBRANCH  94  95
ENDBRANCH  73  87
BRANCH  74  99
ATOM     99  C   UNL A   1      47.611  26.986  26.290  1.00  0.00     0.058 A 
ATOM    100  C   UNL A   1      46.661  27.591  25.439  1.00  0.00     0.135 A 
ATOM    101  C   UNL A   1      48.675  26.300  25.687  1.00  0.00     0.135 A 
ATOM    102  F   UNL A   1      45.606  28.233  25.967  1.00  0.00    -0.206 F 
ATOM    103  C   UNL A   1      46.878  27.709  24.071  1.00  0.00     0.059 A 
ATOM    104  C   UNL A   1      48.899  26.385  24.311  1.00  0.00     0.059 A 
ATOM    105  F   UNL A   1      49.601  25.689  26.442  1.00  0.00    -0.206 F 
ATOM    106  C   UNL A   1      48.050  27.177  23.534  1.00  0.00     0.060 A 
BRANCH 106 107
ATOM    107  S   UNL A   1      48.555  27.745  21.891  1.00  0.00     0.124 S 
ATOM    108  O   UNL A   1      48.415  26.542  21.083  1.00  0.00    -0.237 OA
ATOM    109  O   UNL A   1      47.572  28.802  21.629  1.00  0.00    -0.237 OA
ATOM    110  O   UNL A   1      49.921  28.211  22.098  1.00  0.00    -0.744 OA
ENDBRANCH 106 107
ENDBRANCH  74  99
BRANCH  86 111
ATOM    111  C   UNL A   1      47.031  33.317  29.861  1.00  0.00     0.058 A 
ATOM    112  C   UNL A   1      46.359  34.184  28.983  1.00  0.00     0.135 A 
ATOM    113  C   UNL A   1      47.781  33.946  30.885  1.00  0.00     0.135 A 
ATOM    114  F   UNL A   1      45.534  33.714  28.037  1.00  0.00    -0.206 F 
ATOM    115  C   UNL A   1      46.469  35.574  29.074  1.00  0.00     0.059 A 
ATOM    116  C   UNL A   1      47.860  35.328  31.028  1.00  0.00     0.059 A 
ATOM    117  F   UNL A   1      48.459  33.230  31.795  1.00  0.00    -0.206 F 
ATOM    118  C   UNL A   1      47.220  36.138  30.101  1.00  0.00     0.060 A 
BRANCH 118 119
ATOM    119  S   UNL A   1      47.316  37.929  30.275  1.00  0.00     0.124 S 
ATOM    120  O   UNL A   1      46.032  38.230  30.898  1.00  0.00    -0.237 OA
ATOM    121  O   UNL A   1      48.488  38.115  31.127  1.00  0.00    -0.237 OA
ATOM    122  O   UNL A   1      47.475  38.385  28.897  1.00  0.00    -0.744 OA
ENDBRANCH 118 119
ENDBRANCH  86 111
ENDBRANCH  60  61
ENDBRANCH  52  55
ENDBRANCH  50  51
ENDBRANCH  49  50
ENDBRANCH  48  49
ENDBRANCH  47  48
ENDBRANCH   3  47
TORSDOF 23
ENDMDL
