MODEL 1
REMARK VINA RESULT:     -13.1      0.000      0.000
REMARK SMILES C[C@@]1(C(=O)c2ccccc2N)[C@H](C(=O)NCCCCNC(=O)c2ccc(-c3c4nc(c(-c5c(F)cc(S(=O)(=O)[O-])cc5F)c5ccc([nH]5)c(-c5c(F)cc(S(=O)(=O)[O-])cc5F)c5nc(c(-c6c(F)cc(S(=O)(=O)[O-])cc6F)c6ccc3[nH]6)C=C5)C=C4)cc2)[C@@H]1C(=O)N1CCOCC1
REMARK SMILES IDX 17 1 16 2 15 3 13 4 14 5 12 7 1 8 2 9 89 10 3 11 4 12 5 13
REMARK SMILES IDX 6 14 10 15 7 16 9 17 8 18 11 19 90 22 91 23 92 24 93 25
REMARK SMILES IDX 97 26 94 27 96 28 95 29 18 30 19 31 20 32 21 33 22 35 23 36
REMARK SMILES IDX 24 37 88 38 25 39 87 40 26 41 27 42 28 43 81 44 29 45 86 46
REMARK SMILES IDX 80 47 82 48 30 49 85 50 79 51 78 52 31 54 65 55 44 56 64 57
REMARK SMILES IDX 45 58 48 59 63 60 83 61 46 62 47 63 62 65 84 66 49 67 32 68
REMARK SMILES IDX 33 69 42 70 34 71 35 72 41 73 43 74 36 75 37 76 38 77 39 78
REMARK SMILES IDX 40 79 66 80 67 81 76 82 68 83 69 84 75 85 77 86 70 87 71 88
REMARK SMILES IDX 72 89 73 90 74 91 50 92 51 93 60 94 52 95 53 96 59 97 61 98
REMARK SMILES IDX 54 99 55 100 56 101 57 102 58 103
REMARK H PARENT 15 6 11 20 11 21 20 34 82 53 48 64
REMARK Flexibility Score: inf
ROOT
ATOM      1  C   UNL A   1      37.589  22.120  24.988  1.00  0.00     0.023 C 
ENDROOT
BRANCH   1   2
ATOM      2  C   UNL A   1      37.063  22.995  26.134  1.00  0.00     0.116 C 
BRANCH   2   3
ATOM      3  N   UNL A   1      35.731  22.564  26.491  1.00  0.00    -0.356 N 
ATOM      4  C   UNL A   1      34.576  23.270  26.648  1.00  0.00     0.224 C 
ATOM      5  O   UNL A   1      33.857  22.954  27.594  1.00  0.00    -0.275 OA
ATOM      6  H   UNL A   1      35.642  21.596  26.646  1.00  0.00     0.163 HD
BRANCH   4   7
ATOM      7  C   UNL A   1      33.965  24.087  25.585  1.00  0.00     0.106 C 
ATOM      8  C   UNL A   1      33.833  23.659  23.078  1.00  0.00     0.022 C 
ATOM      9  C   UNL A   1      33.171  23.414  24.436  1.00  0.00     0.056 C 
ATOM     10  C   UNL A   1      32.633  24.619  25.196  1.00  0.00     0.106 C 
BRANCH   9  11
ATOM     11  C   UNL A   1      32.663  22.001  24.522  1.00  0.00     0.172 C 
ATOM     12  O   UNL A   1      31.742  21.729  25.287  1.00  0.00    -0.293 OA
BRANCH  11  13
ATOM     13  C   UNL A   1      33.215  20.883  23.718  1.00  0.00     0.041 A 
ATOM     14  C   UNL A   1      34.254  19.878  24.684  1.00  0.00     0.014 A 
ATOM     15  C   UNL A   1      32.252  20.094  22.460  1.00  0.00     0.042 A 
ATOM     16  C   UNL A   1      34.305  18.162  24.590  1.00  0.00     0.001 A 
ATOM     17  C   UNL A   1      32.284  18.127  22.425  1.00  0.00     0.026 A 
ATOM     18  C   UNL A   1      33.364  17.245  23.501  1.00  0.00     0.002 A 
BRANCH  15  19
ATOM     19  N   UNL A   1      31.528  21.050  21.687  1.00  0.00    -0.398 N 
ATOM     20  H   UNL A   1      31.213  20.816  20.784  1.00  0.00     0.156 HD
ATOM     21  H   UNL A   1      31.342  21.943  22.057  1.00  0.00     0.156 HD
ENDBRANCH  15  19
ENDBRANCH  11  13
ENDBRANCH   9  11
BRANCH  10  22
ATOM     22  C   UNL A   1      31.564  24.994  26.170  1.00  0.00     0.227 C 
ATOM     23  O   UNL A   1      31.522  24.347  27.214  1.00  0.00    -0.275 OA
ATOM     24  N   UNL A   1      30.931  26.224  26.078  1.00  0.00    -0.338 N 
ATOM     25  C   UNL A   1      30.107  26.713  24.533  1.00  0.00     0.148 C 
ATOM     26  C   UNL A   1      31.411  27.422  27.224  1.00  0.00     0.148 C 
ATOM     27  C   UNL A   1      30.527  28.759  23.833  1.00  0.00     0.181 C 
ATOM     28  C   UNL A   1      31.812  29.179  26.655  1.00  0.00     0.181 C 
ATOM     29  O   UNL A   1      31.367  29.819  25.091  1.00  0.00    -0.378 OA
ENDBRANCH  10  22
ENDBRANCH   4   7
ENDBRANCH   2   3
ENDBRANCH   1   2
BRANCH   1  30
ATOM     30  C   UNL A   1      38.215  20.797  25.381  1.00  0.00     0.023 C 
BRANCH  30  31
ATOM     31  C   UNL A   1      39.561  20.847  26.079  1.00  0.00     0.116 C 
BRANCH  31  32
ATOM     32  N   UNL A   1      40.343  19.617  26.053  1.00  0.00    -0.352 N 
ATOM     33  C   UNL A   1      41.710  19.456  26.168  1.00  0.00     0.251 C 
ATOM     34  H   UNL A   1      39.825  18.788  25.936  1.00  0.00     0.163 HD
ATOM     35  O   UNL A   1      42.227  18.349  26.073  1.00  0.00    -0.269 OA
BRANCH  33  36
ATOM     36  C   UNL A   1      42.542  20.658  26.369  1.00  0.00     0.039 A 
ATOM     37  C   UNL A   1      43.062  21.336  25.266  1.00  0.00     0.014 A 
ATOM     38  C   UNL A   1      42.658  21.190  27.651  1.00  0.00     0.014 A 
ATOM     39  C   UNL A   1      43.583  22.618  25.445  1.00  0.00     0.010 A 
ATOM     40  C   UNL A   1      43.014  22.519  27.795  1.00  0.00     0.010 A 
ATOM     41  C   UNL A   1      43.493  23.248  26.698  1.00  0.00    -0.014 A 
BRANCH  41  42
ATOM     42  C   UNL A   1      43.901  24.661  26.906  1.00  0.00     0.031 A 
ATOM     43  C   UNL A   1      45.350  25.041  26.742  1.00  0.00     0.074 A 
ATOM     44  C   UNL A   1      43.000  25.570  27.332  1.00  0.00     0.049 A 
ATOM     45  N   UNL A   1      45.936  26.183  26.987  1.00  0.00    -0.248 NA
ATOM     46  C   UNL A   1      46.273  23.984  26.291  1.00  0.00     0.031 C 
ATOM     47  C   UNL A   1      41.584  25.304  27.602  1.00  0.00     0.029 A 
ATOM     48  N   UNL A   1      43.143  26.903  27.629  1.00  0.00    -0.354 N 
ATOM     49  C   UNL A   1      47.289  25.970  26.745  1.00  0.00     0.074 A 
ATOM     50  C   UNL A   1      47.450  24.575  26.416  1.00  0.00     0.031 C 
ATOM     51  C   UNL A   1      40.983  26.443  27.984  1.00  0.00     0.029 A 
ATOM     52  C   UNL A   1      41.977  27.509  28.040  1.00  0.00     0.049 A 
ATOM     53  H   UNL A   1      43.999  27.382  27.553  1.00  0.00     0.167 HD
ATOM     54  C   UNL A   1      48.302  26.866  26.761  1.00  0.00     0.037 A 
ATOM     55  C   UNL A   1      41.739  28.777  28.429  1.00  0.00     0.037 A 
ATOM     56  C   UNL A   1      48.121  28.263  27.050  1.00  0.00     0.049 A 
ATOM     57  C   UNL A   1      42.878  29.761  28.423  1.00  0.00     0.074 A 
ATOM     58  C   UNL A   1      49.064  29.273  27.018  1.00  0.00     0.029 A 
ATOM     59  N   UNL A   1      46.919  28.845  27.424  1.00  0.00    -0.354 N 
ATOM     60  N   UNL A   1      44.138  29.560  28.116  1.00  0.00    -0.248 NA
ATOM     61  C   UNL A   1      42.566  31.144  28.806  1.00  0.00     0.031 C 
ATOM     62  C   UNL A   1      48.447  30.454  27.437  1.00  0.00     0.029 A 
ATOM     63  C   UNL A   1      47.102  30.196  27.656  1.00  0.00     0.049 A 
ATOM     64  H   UNL A   1      46.063  28.367  27.512  1.00  0.00     0.167 HD
ATOM     65  C   UNL A   1      44.764  30.796  28.241  1.00  0.00     0.074 A 
ATOM     66  C   UNL A   1      43.738  31.739  28.637  1.00  0.00     0.031 C 
ATOM     67  C   UNL A   1      46.065  31.121  28.044  1.00  0.00     0.037 A 
BRANCH  54  68
ATOM     68  C   UNL A   1      49.687  26.367  26.449  1.00  0.00     0.058 A 
ATOM     69  C   UNL A   1      50.508  25.789  27.433  1.00  0.00     0.135 A 
ATOM     70  C   UNL A   1      50.185  26.429  25.138  1.00  0.00     0.135 A 
ATOM     71  F   UNL A   1      50.093  25.724  28.709  1.00  0.00    -0.206 F 
ATOM     72  C   UNL A   1      51.779  25.314  27.134  1.00  0.00     0.059 A 
ATOM     73  C   UNL A   1      51.441  25.927  24.809  1.00  0.00     0.059 A 
ATOM     74  F   UNL A   1      49.449  26.978  24.160  1.00  0.00    -0.206 F 
ATOM     75  C   UNL A   1      52.234  25.380  25.817  1.00  0.00     0.060 A 
BRANCH  75  76
ATOM     76  S   UNL A   1      53.874  24.725  25.441  1.00  0.00     0.124 S 
ATOM     77  O   UNL A   1      54.562  24.916  26.715  1.00  0.00    -0.237 OA
ATOM     78  O   UNL A   1      53.579  23.343  25.080  1.00  0.00    -0.237 OA
ATOM     79  O   UNL A   1      54.336  25.573  24.346  1.00  0.00    -0.744 OA
ENDBRANCH  75  76
ENDBRANCH  54  68
BRANCH  55  80
ATOM     80  C   UNL A   1      40.366  29.188  28.835  1.00  0.00     0.058 A 
ATOM     81  C   UNL A   1      40.025  29.347  30.187  1.00  0.00     0.135 A 
ATOM     82  C   UNL A   1      39.373  29.454  27.878  1.00  0.00     0.135 A 
ATOM     83  F   UNL A   1      40.935  29.099  31.141  1.00  0.00    -0.206 F 
ATOM     84  C   UNL A   1      38.748  29.740  30.577  1.00  0.00     0.059 A 
ATOM     85  C   UNL A   1      38.098  29.878  28.243  1.00  0.00     0.059 A 
ATOM     86  F   UNL A   1      39.648  29.334  26.570  1.00  0.00    -0.206 F 
ATOM     87  C   UNL A   1      37.793  30.011  29.596  1.00  0.00     0.060 A 
BRANCH  87  88
ATOM     88  S   UNL A   1      36.158  30.579  30.114  1.00  0.00     0.124 S 
ATOM     89  O   UNL A   1      36.023  29.941  31.417  1.00  0.00    -0.237 OA
ATOM     90  O   UNL A   1      36.331  32.028  30.125  1.00  0.00    -0.237 OA
ATOM     91  O   UNL A   1      35.279  30.069  29.066  1.00  0.00    -0.744 OA
ENDBRANCH  87  88
ENDBRANCH  55  80
BRANCH  67  92
ATOM     92  C   UNL A   1      46.455  32.564  28.213  1.00  0.00     0.058 A 
ATOM     93  C   UNL A   1      47.011  33.048  29.407  1.00  0.00     0.135 A 
ATOM     94  C   UNL A   1      46.328  33.458  27.138  1.00  0.00     0.135 A 
ATOM     95  F   UNL A   1      47.151  32.237  30.468  1.00  0.00    -0.206 F 
ATOM     96  C   UNL A   1      47.400  34.377  29.538  1.00  0.00     0.059 A 
ATOM     97  C   UNL A   1      46.745  34.781  27.234  1.00  0.00     0.059 A 
ATOM     98  F   UNL A   1      45.815  33.043  25.968  1.00  0.00    -0.206 F 
ATOM     99  C   UNL A   1      47.269  35.234  28.444  1.00  0.00     0.060 A 
BRANCH  99 100
ATOM    100  S   UNL A   1      47.811  36.946  28.618  1.00  0.00     0.124 S 
ATOM    101  O   UNL A   1      46.686  37.671  28.037  1.00  0.00    -0.237 OA
ATOM    102  O   UNL A   1      47.970  37.075  30.064  1.00  0.00    -0.237 OA
ATOM    103  O   UNL A   1      49.052  36.991  27.850  1.00  0.00    -0.744 OA
ENDBRANCH  99 100
ENDBRANCH  67  92
ENDBRANCH  41  42
ENDBRANCH  33  36
ENDBRANCH  31  32
ENDBRANCH  30  31
ENDBRANCH   1  30
TORSDOF 18
ENDMDL
MODEL 2
REMARK VINA RESULT:     -13.1      6.354     12.040
REMARK SMILES C[C@@]1(C(=O)c2ccccc2N)[C@H](C(=O)NCCCCNC(=O)c2ccc(-c3c4nc(c(-c5c(F)cc(S(=O)(=O)[O-])cc5F)c5ccc([nH]5)c(-c5c(F)cc(S(=O)(=O)[O-])cc5F)c5nc(c(-c6c(F)cc(S(=O)(=O)[O-])cc6F)c6ccc3[nH]6)C=C5)C=C4)cc2)[C@@H]1C(=O)N1CCOCC1
REMARK SMILES IDX 17 1 16 2 15 3 13 4 14 5 12 7 1 8 2 9 89 10 3 11 4 12 5 13
REMARK SMILES IDX 6 14 10 15 7 16 9 17 8 18 11 19 90 22 91 23 92 24 93 25
REMARK SMILES IDX 97 26 94 27 96 28 95 29 18 30 19 31 20 32 21 33 22 35 23 36
REMARK SMILES IDX 24 37 88 38 25 39 87 40 26 41 27 42 28 43 81 44 29 45 86 46
REMARK SMILES IDX 80 47 82 48 30 49 85 50 79 51 78 52 31 54 65 55 44 56 64 57
REMARK SMILES IDX 45 58 48 59 63 60 83 61 46 62 47 63 62 65 84 66 49 67 32 68
REMARK SMILES IDX 33 69 42 70 34 71 35 72 41 73 43 74 36 75 37 76 38 77 39 78
REMARK SMILES IDX 40 79 66 80 67 81 76 82 68 83 69 84 75 85 77 86 70 87 71 88
REMARK SMILES IDX 72 89 73 90 74 91 50 92 51 93 60 94 52 95 53 96 59 97 61 98
REMARK SMILES IDX 54 99 55 100 56 101 57 102 58 103
REMARK H PARENT 15 6 11 20 11 21 20 34 82 53 48 64
REMARK Flexibility Score: inf
ROOT
ATOM      1  C   UNL A   1      32.934  29.868  27.247  1.00  0.00     0.023 C 
ENDROOT
BRANCH   1   2
ATOM      2  C   UNL A   1      34.143  29.419  26.416  1.00  0.00     0.116 C 
BRANCH   2   3
ATOM      3  N   UNL A   1      33.708  29.096  25.076  1.00  0.00    -0.356 N 
ATOM      4  C   UNL A   1      33.870  27.965  24.334  1.00  0.00     0.224 C 
ATOM      5  O   UNL A   1      34.135  28.116  23.142  1.00  0.00    -0.275 OA
ATOM      6  H   UNL A   1      33.211  29.815  24.623  1.00  0.00     0.163 HD
BRANCH   4   7
ATOM      7  C   UNL A   1      33.385  26.636  24.749  1.00  0.00     0.106 C 
ATOM      8  C   UNL A   1      31.186  25.980  25.852  1.00  0.00     0.022 C 
ATOM      9  C   UNL A   1      31.905  26.235  24.524  1.00  0.00     0.056 C 
ATOM     10  C   UNL A   1      33.059  25.317  24.149  1.00  0.00     0.106 C 
BRANCH   9  11
ATOM     11  C   UNL A   1      31.001  26.972  23.574  1.00  0.00     0.172 C 
ATOM     12  O   UNL A   1      31.155  26.844  22.363  1.00  0.00    -0.293 OA
BRANCH  11  13
ATOM     13  C   UNL A   1      29.903  27.866  24.016  1.00  0.00     0.041 A 
ATOM     14  C   UNL A   1      30.374  29.535  23.892  1.00  0.00     0.014 A 
ATOM     15  C   UNL A   1      28.209  27.467  23.697  1.00  0.00     0.042 A 
ATOM     16  C   UNL A   1      29.340  30.796  23.348  1.00  0.00     0.001 A 
ATOM     17  C   UNL A   1      27.072  28.920  23.013  1.00  0.00     0.026 A 
ATOM     18  C   UNL A   1      27.709  30.559  22.904  1.00  0.00     0.002 A 
BRANCH  15  19
ATOM     19  N   UNL A   1      27.949  26.085  23.933  1.00  0.00    -0.398 N 
ATOM     20  H   UNL A   1      27.112  25.809  24.372  1.00  0.00     0.156 HD
ATOM     21  H   UNL A   1      28.607  25.406  23.657  1.00  0.00     0.156 HD
ENDBRANCH  15  19
ENDBRANCH  11  13
ENDBRANCH   9  11
BRANCH  10  22
ATOM     22  C   UNL A   1      33.749  24.747  22.952  1.00  0.00     0.227 C 
ATOM     23  O   UNL A   1      34.178  25.555  22.132  1.00  0.00    -0.275 OA
ATOM     24  N   UNL A   1      34.214  23.442  22.965  1.00  0.00    -0.338 N 
ATOM     25  C   UNL A   1      33.077  22.071  23.330  1.00  0.00     0.148 C 
ATOM     26  C   UNL A   1      35.916  23.236  23.163  1.00  0.00     0.148 C 
ATOM     27  C   UNL A   1      33.815  20.575  24.768  1.00  0.00     0.181 C 
ATOM     28  C   UNL A   1      36.586  21.986  24.413  1.00  0.00     0.181 C 
ATOM     29  O   UNL A   1      35.621  20.720  25.132  1.00  0.00    -0.378 OA
ENDBRANCH  10  22
ENDBRANCH   4   7
ENDBRANCH   2   3
ENDBRANCH   1   2
BRANCH   1  30
ATOM     30  C   UNL A   1      32.518  31.319  27.105  1.00  0.00     0.023 C 
BRANCH  30  31
ATOM     31  C   UNL A   1      33.481  32.369  27.627  1.00  0.00     0.116 C 
BRANCH  31  32
ATOM     32  N   UNL A   1      32.935  33.710  27.799  1.00  0.00    -0.352 N 
ATOM     33  C   UNL A   1      33.294  34.682  28.713  1.00  0.00     0.251 C 
ATOM     34  H   UNL A   1      32.210  33.956  27.180  1.00  0.00     0.163 HD
ATOM     35  O   UNL A   1      32.699  35.752  28.766  1.00  0.00    -0.269 OA
BRANCH  33  36
ATOM     36  C   UNL A   1      34.391  34.386  29.655  1.00  0.00     0.039 A 
ATOM     37  C   UNL A   1      34.103  33.851  30.911  1.00  0.00     0.014 A 
ATOM     38  C   UNL A   1      35.707  34.493  29.211  1.00  0.00     0.014 A 
ATOM     39  C   UNL A   1      35.139  33.300  31.665  1.00  0.00     0.010 A 
ATOM     40  C   UNL A   1      36.697  33.796  29.881  1.00  0.00     0.010 A 
ATOM     41  C   UNL A   1      36.431  33.202  31.122  1.00  0.00    -0.014 A 
BRANCH  41  42
ATOM     42  C   UNL A   1      37.535  32.497  31.824  1.00  0.00     0.031 A 
ATOM     43  C   UNL A   1      38.018  33.023  33.152  1.00  0.00     0.074 A 
ATOM     44  C   UNL A   1      38.160  31.458  31.232  1.00  0.00     0.049 A 
ATOM     45  N   UNL A   1      39.035  32.633  33.873  1.00  0.00    -0.248 NA
ATOM     46  C   UNL A   1      37.291  34.173  33.721  1.00  0.00     0.031 C 
ATOM     47  C   UNL A   1      37.834  30.907  29.914  1.00  0.00     0.029 A 
ATOM     48  N   UNL A   1      39.213  30.686  31.656  1.00  0.00    -0.354 N 
ATOM     49  C   UNL A   1      39.083  33.503  34.957  1.00  0.00     0.074 A 
ATOM     50  C   UNL A   1      38.047  34.489  34.760  1.00  0.00     0.031 C 
ATOM     51  C   UNL A   1      38.641  29.865  29.656  1.00  0.00     0.029 A 
ATOM     52  C   UNL A   1      39.577  29.705  30.763  1.00  0.00     0.049 A 
ATOM     53  H   UNL A   1      39.666  30.821  32.520  1.00  0.00     0.167 HD
ATOM     54  C   UNL A   1      39.892  33.462  36.039  1.00  0.00     0.037 A 
ATOM     55  C   UNL A   1      40.562  28.786  30.824  1.00  0.00     0.037 A 
ATOM     56  C   UNL A   1      40.892  32.449  36.244  1.00  0.00     0.049 A 
ATOM     57  C   UNL A   1      41.442  28.749  32.045  1.00  0.00     0.074 A 
ATOM     58  C   UNL A   1      41.715  32.267  37.339  1.00  0.00     0.029 A 
ATOM     59  N   UNL A   1      41.204  31.450  35.334  1.00  0.00    -0.354 N 
ATOM     60  N   UNL A   1      41.421  29.532  33.098  1.00  0.00    -0.248 NA
ATOM     61  C   UNL A   1      42.470  27.702  32.094  1.00  0.00     0.031 C 
ATOM     62  C   UNL A   1      42.571  31.198  37.064  1.00  0.00     0.029 A 
ATOM     63  C   UNL A   1      42.230  30.665  35.830  1.00  0.00     0.049 A 
ATOM     64  H   UNL A   1      40.762  31.319  34.464  1.00  0.00     0.167 HD
ATOM     65  C   UNL A   1      42.414  29.054  33.948  1.00  0.00     0.074 A 
ATOM     66  C   UNL A   1      43.004  27.907  33.290  1.00  0.00     0.031 C 
ATOM     67  C   UNL A   1      42.800  29.521  35.161  1.00  0.00     0.037 A 
BRANCH  54  68
ATOM     68  C   UNL A   1      39.725  34.533  37.083  1.00  0.00     0.058 A 
ATOM     69  C   UNL A   1      38.874  34.366  38.189  1.00  0.00     0.135 A 
ATOM     70  C   UNL A   1      40.459  35.727  36.999  1.00  0.00     0.135 A 
ATOM     71  F   UNL A   1      38.130  33.255  38.310  1.00  0.00    -0.206 F 
ATOM     72  C   UNL A   1      38.739  35.352  39.159  1.00  0.00     0.059 A 
ATOM     73  C   UNL A   1      40.366  36.712  37.977  1.00  0.00     0.059 A 
ATOM     74  F   UNL A   1      41.280  35.944  35.960  1.00  0.00    -0.206 F 
ATOM     75  C   UNL A   1      39.495  36.519  39.049  1.00  0.00     0.060 A 
BRANCH  75  76
ATOM     76  S   UNL A   1      39.333  37.773  40.337  1.00  0.00     0.124 S 
ATOM     77  O   UNL A   1      38.146  38.496  39.891  1.00  0.00    -0.237 OA
ATOM     78  O   UNL A   1      39.166  36.961  41.538  1.00  0.00    -0.237 OA
ATOM     79  O   UNL A   1      40.587  38.514  40.252  1.00  0.00    -0.744 OA
ENDBRANCH  75  76
ENDBRANCH  54  68
BRANCH  55  80
ATOM     80  C   UNL A   1      40.752  27.820  29.706  1.00  0.00     0.058 A 
ATOM     81  C   UNL A   1      39.863  26.753  29.509  1.00  0.00     0.135 A 
ATOM     82  C   UNL A   1      41.815  27.957  28.798  1.00  0.00     0.135 A 
ATOM     83  F   UNL A   1      38.834  26.573  30.351  1.00  0.00    -0.206 F 
ATOM     84  C   UNL A   1      40.026  25.849  28.462  1.00  0.00     0.059 A 
ATOM     85  C   UNL A   1      41.981  27.085  27.726  1.00  0.00     0.059 A 
ATOM     86  F   UNL A   1      42.687  28.969  28.930  1.00  0.00    -0.206 F 
ATOM     87  C   UNL A   1      41.085  26.029  27.571  1.00  0.00     0.060 A 
BRANCH  87  88
ATOM     88  S   UNL A   1      41.249  24.887  26.181  1.00  0.00     0.124 S 
ATOM     89  O   UNL A   1      39.964  24.199  26.211  1.00  0.00    -0.237 OA
ATOM     90  O   UNL A   1      41.461  25.799  25.062  1.00  0.00    -0.237 OA
ATOM     91  O   UNL A   1      42.407  24.077  26.548  1.00  0.00    -0.744 OA
ENDBRANCH  87  88
ENDBRANCH  55  80
BRANCH  67  92
ATOM     92  C   UNL A   1      43.886  28.770  35.881  1.00  0.00     0.058 A 
ATOM     93  C   UNL A   1      45.235  29.146  35.790  1.00  0.00     0.135 A 
ATOM     94  C   UNL A   1      43.560  27.698  36.727  1.00  0.00     0.135 A 
ATOM     95  F   UNL A   1      45.603  30.162  34.992  1.00  0.00    -0.206 F 
ATOM     96  C   UNL A   1      46.225  28.465  36.490  1.00  0.00     0.059 A 
ATOM     97  C   UNL A   1      44.529  27.027  37.465  1.00  0.00     0.059 A 
ATOM     98  F   UNL A   1      42.282  27.306  36.862  1.00  0.00    -0.206 F 
ATOM     99  C   UNL A   1      45.861  27.411  37.329  1.00  0.00     0.060 A 
BRANCH  99 100
ATOM    100  S   UNL A   1      47.154  26.560  38.257  1.00  0.00     0.124 S 
ATOM    101  O   UNL A   1      48.284  27.467  38.084  1.00  0.00    -0.237 OA
ATOM    102  O   UNL A   1      46.586  26.504  39.600  1.00  0.00    -0.237 OA
ATOM    103  O   UNL A   1      47.271  25.273  37.577  1.00  0.00    -0.744 OA
ENDBRANCH  99 100
ENDBRANCH  67  92
ENDBRANCH  41  42
ENDBRANCH  33  36
ENDBRANCH  31  32
ENDBRANCH  30  31
ENDBRANCH   1  30
TORSDOF 18
ENDMDL
MODEL 3
REMARK VINA RESULT:     -13.0      5.818      7.862
REMARK SMILES C[C@@]1(C(=O)c2ccccc2N)[C@H](C(=O)NCCCCNC(=O)c2ccc(-c3c4nc(c(-c5c(F)cc(S(=O)(=O)[O-])cc5F)c5ccc([nH]5)c(-c5c(F)cc(S(=O)(=O)[O-])cc5F)c5nc(c(-c6c(F)cc(S(=O)(=O)[O-])cc6F)c6ccc3[nH]6)C=C5)C=C4)cc2)[C@@H]1C(=O)N1CCOCC1
REMARK SMILES IDX 17 1 16 2 15 3 13 4 14 5 12 7 1 8 2 9 89 10 3 11 4 12 5 13
REMARK SMILES IDX 6 14 10 15 7 16 9 17 8 18 11 19 90 22 91 23 92 24 93 25
REMARK SMILES IDX 97 26 94 27 96 28 95 29 18 30 19 31 20 32 21 33 22 35 23 36
REMARK SMILES IDX 24 37 88 38 25 39 87 40 26 41 27 42 28 43 81 44 29 45 86 46
REMARK SMILES IDX 80 47 82 48 30 49 85 50 79 51 78 52 31 54 65 55 44 56 64 57
REMARK SMILES IDX 45 58 48 59 63 60 83 61 46 62 47 63 62 65 84 66 49 67 32 68
REMARK SMILES IDX 33 69 42 70 34 71 35 72 41 73 43 74 36 75 37 76 38 77 39 78
REMARK SMILES IDX 40 79 66 80 67 81 76 82 68 83 69 84 75 85 77 86 70 87 71 88
REMARK SMILES IDX 72 89 73 90 74 91 50 92 51 93 60 94 52 95 53 96 59 97 61 98
REMARK SMILES IDX 54 99 55 100 56 101 57 102 58 103
REMARK H PARENT 15 6 11 20 11 21 20 34 82 53 48 64
REMARK Flexibility Score: inf
ROOT
ATOM      1  C   UNL A   1      37.940  21.926  25.601  1.00  0.00     0.023 C 
ENDROOT
BRANCH   1   2
ATOM      2  C   UNL A   1      37.063  23.117  26.008  1.00  0.00     0.116 C 
BRANCH   2   3
ATOM      3  N   UNL A   1      35.748  22.639  26.371  1.00  0.00    -0.356 N 
ATOM      4  C   UNL A   1      34.569  23.305  26.533  1.00  0.00     0.224 C 
ATOM      5  O   UNL A   1      33.866  22.965  27.483  1.00  0.00    -0.275 OA
ATOM      6  H   UNL A   1      35.694  21.669  26.528  1.00  0.00     0.163 HD
BRANCH   4   7
ATOM      7  C   UNL A   1      33.925  24.099  25.472  1.00  0.00     0.106 C 
ATOM      8  C   UNL A   1      33.735  23.628  22.977  1.00  0.00     0.022 C 
ATOM      9  C   UNL A   1      33.108  23.400  24.355  1.00  0.00     0.056 C 
ATOM     10  C   UNL A   1      32.579  24.613  25.108  1.00  0.00     0.106 C 
BRANCH   9  11
ATOM     11  C   UNL A   1      32.615  21.984  24.478  1.00  0.00     0.172 C 
ATOM     12  O   UNL A   1      31.690  21.725  25.241  1.00  0.00    -0.293 OA
BRANCH  11  13
ATOM     13  C   UNL A   1      33.187  20.850  23.711  1.00  0.00     0.041 A 
ATOM     14  C   UNL A   1      34.182  19.853  24.731  1.00  0.00     0.014 A 
ATOM     15  C   UNL A   1      32.265  20.048  22.431  1.00  0.00     0.042 A 
ATOM     16  C   UNL A   1      34.223  18.136  24.665  1.00  0.00     0.001 A 
ATOM     17  C   UNL A   1      32.282  18.080  22.428  1.00  0.00     0.026 A 
ATOM     18  C   UNL A   1      33.315  17.208  23.556  1.00  0.00     0.002 A 
BRANCH  15  19
ATOM     19  N   UNL A   1      31.577  20.997  21.618  1.00  0.00    -0.398 N 
ATOM     20  H   UNL A   1      31.546  20.877  20.640  1.00  0.00     0.156 HD
ATOM     21  H   UNL A   1      31.133  21.771  22.032  1.00  0.00     0.156 HD
ENDBRANCH  15  19
ENDBRANCH  11  13
ENDBRANCH   9  11
BRANCH  10  22
ATOM     22  C   UNL A   1      31.531  24.996  26.102  1.00  0.00     0.227 C 
ATOM     23  O   UNL A   1      31.520  24.365  27.157  1.00  0.00    -0.275 OA
ATOM     24  N   UNL A   1      30.888  26.220  26.007  1.00  0.00    -0.338 N 
ATOM     25  C   UNL A   1      30.023  26.680  24.476  1.00  0.00     0.148 C 
ATOM     26  C   UNL A   1      31.387  27.438  27.123  1.00  0.00     0.148 C 
ATOM     27  C   UNL A   1      30.411  28.718  23.736  1.00  0.00     0.181 C 
ATOM     28  C   UNL A   1      31.762  29.189  26.519  1.00  0.00     0.181 C 
ATOM     29  O   UNL A   1      31.274  29.802  24.957  1.00  0.00    -0.378 OA
ENDBRANCH  10  22
ENDBRANCH   4   7
ENDBRANCH   2   3
ENDBRANCH   1   2
BRANCH   1  30
ATOM     30  C   UNL A   1      39.316  21.854  26.233  1.00  0.00     0.023 C 
BRANCH  30  31
ATOM     31  C   UNL A   1      39.936  23.160  26.693  1.00  0.00     0.116 C 
BRANCH  31  32
ATOM     32  N   UNL A   1      41.239  23.486  26.126  1.00  0.00    -0.352 N 
ATOM     33  C   UNL A   1      41.986  24.638  26.277  1.00  0.00     0.251 C 
ATOM     34  H   UNL A   1      41.640  22.791  25.556  1.00  0.00     0.163 HD
ATOM     35  O   UNL A   1      43.051  24.784  25.687  1.00  0.00    -0.269 OA
BRANCH  33  36
ATOM     36  C   UNL A   1      41.452  25.711  27.138  1.00  0.00     0.039 A 
ATOM     37  C   UNL A   1      40.505  25.411  28.117  1.00  0.00     0.014 A 
ATOM     38  C   UNL A   1      42.026  26.979  27.067  1.00  0.00     0.014 A 
ATOM     39  C   UNL A   1      40.235  26.354  29.109  1.00  0.00     0.010 A 
ATOM     40  C   UNL A   1      41.884  27.839  28.142  1.00  0.00     0.010 A 
ATOM     41  C   UNL A   1      40.979  27.545  29.171  1.00  0.00    -0.014 A 
BRANCH  41  42
ATOM     42  C   UNL A   1      40.831  28.516  30.286  1.00  0.00     0.031 A 
ATOM     43  C   UNL A   1      41.698  28.367  31.511  1.00  0.00     0.074 A 
ATOM     44  C   UNL A   1      39.866  29.457  30.242  1.00  0.00     0.049 A 
ATOM     45  N   UNL A   1      41.654  29.028  32.637  1.00  0.00    -0.248 NA
ATOM     46  C   UNL A   1      42.717  27.302  31.485  1.00  0.00     0.031 C 
ATOM     47  C   UNL A   1      38.914  29.649  29.144  1.00  0.00     0.029 A 
ATOM     48  N   UNL A   1      39.513  30.423  31.151  1.00  0.00    -0.354 N 
ATOM     49  C   UNL A   1      42.614  28.442  33.454  1.00  0.00     0.074 A 
ATOM     50  C   UNL A   1      43.167  27.323  32.729  1.00  0.00     0.031 C 
ATOM     51  C   UNL A   1      38.115  30.692  29.426  1.00  0.00     0.029 A 
ATOM     52  C   UNL A   1      38.459  31.209  30.746  1.00  0.00     0.049 A 
ATOM     53  H   UNL A   1      39.973  30.543  32.014  1.00  0.00     0.167 HD
ATOM     54  C   UNL A   1      43.026  28.823  34.684  1.00  0.00     0.037 A 
ATOM     55  C   UNL A   1      37.833  32.225  31.372  1.00  0.00     0.037 A 
ATOM     56  C   UNL A   1      42.496  29.966  35.379  1.00  0.00     0.049 A 
ATOM     57  C   UNL A   1      38.318  32.644  32.735  1.00  0.00     0.074 A 
ATOM     58  C   UNL A   1      42.893  30.488  36.595  1.00  0.00     0.029 A 
ATOM     59  N   UNL A   1      41.456  30.760  34.918  1.00  0.00    -0.354 N 
ATOM     60  N   UNL A   1      39.280  32.126  33.460  1.00  0.00    -0.248 NA
ATOM     61  C   UNL A   1      37.640  33.787  33.361  1.00  0.00     0.031 C 
ATOM     62  C   UNL A   1      42.048  31.559  36.901  1.00  0.00     0.029 A 
ATOM     63  C   UNL A   1      41.176  31.751  35.841  1.00  0.00     0.049 A 
ATOM     64  H   UNL A   1      40.986  30.635  34.062  1.00  0.00     0.167 HD
ATOM     65  C   UNL A   1      39.345  32.898  34.616  1.00  0.00     0.074 A 
ATOM     66  C   UNL A   1      38.332  33.925  34.483  1.00  0.00     0.031 C 
ATOM     67  C   UNL A   1      40.166  32.770  35.687  1.00  0.00     0.037 A 
BRANCH  54  68
ATOM     68  C   UNL A   1      44.101  28.008  35.351  1.00  0.00     0.058 A 
ATOM     69  C   UNL A   1      43.798  26.910  36.173  1.00  0.00     0.135 A 
ATOM     70  C   UNL A   1      45.455  28.306  35.131  1.00  0.00     0.135 A 
ATOM     71  F   UNL A   1      42.521  26.593  36.438  1.00  0.00    -0.206 F 
ATOM     72  C   UNL A   1      44.798  26.151  36.771  1.00  0.00     0.059 A 
ATOM     73  C   UNL A   1      46.472  27.538  35.690  1.00  0.00     0.059 A 
ATOM     74  F   UNL A   1      45.802  29.349  34.362  1.00  0.00    -0.206 F 
ATOM     75  C   UNL A   1      46.133  26.468  36.517  1.00  0.00     0.060 A 
BRANCH  75  76
ATOM     76  S   UNL A   1      47.416  25.449  37.274  1.00  0.00     0.124 S 
ATOM     77  O   UNL A   1      47.860  26.306  38.369  1.00  0.00    -0.237 OA
ATOM     78  O   UNL A   1      46.673  24.256  37.663  1.00  0.00    -0.237 OA
ATOM     79  O   UNL A   1      48.382  25.261  36.195  1.00  0.00    -0.744 OA
ENDBRANCH  75  76
ENDBRANCH  54  68
BRANCH  55  80
ATOM     80  C   UNL A   1      36.698  32.925  30.708  1.00  0.00     0.058 A 
ATOM     81  C   UNL A   1      35.374  32.718  31.124  1.00  0.00     0.135 A 
ATOM     82  C   UNL A   1      36.915  33.834  29.660  1.00  0.00     0.135 A 
ATOM     83  F   UNL A   1      35.110  31.855  32.117  1.00  0.00    -0.206 F 
ATOM     84  C   UNL A   1      34.306  33.374  30.517  1.00  0.00     0.059 A 
ATOM     85  C   UNL A   1      35.867  34.524  29.058  1.00  0.00     0.059 A 
ATOM     86  F   UNL A   1      38.163  34.082  29.232  1.00  0.00    -0.206 F 
ATOM     87  C   UNL A   1      34.564  34.281  29.489  1.00  0.00     0.060 A 
BRANCH  87  88
ATOM     88  S   UNL A   1      33.176  35.172  28.752  1.00  0.00     0.124 S 
ATOM     89  O   UNL A   1      32.447  35.613  29.935  1.00  0.00    -0.237 OA
ATOM     90  O   UNL A   1      33.855  36.217  27.992  1.00  0.00    -0.237 OA
ATOM     91  O   UNL A   1      32.514  34.151  27.945  1.00  0.00    -0.744 OA
ENDBRANCH  87  88
ENDBRANCH  55  80
BRANCH  67  92
ATOM     92  C   UNL A   1      40.038  33.787  36.787  1.00  0.00     0.058 A 
ATOM     93  C   UNL A   1      40.780  34.978  36.788  1.00  0.00     0.135 A 
ATOM     94  C   UNL A   1      39.107  33.593  37.821  1.00  0.00     0.135 A 
ATOM     95  F   UNL A   1      41.687  35.212  35.826  1.00  0.00    -0.206 F 
ATOM     96  C   UNL A   1      40.625  35.927  37.793  1.00  0.00     0.059 A 
ATOM     97  C   UNL A   1      38.908  34.546  38.815  1.00  0.00     0.059 A 
ATOM     98  F   UNL A   1      38.360  32.478  37.860  1.00  0.00    -0.206 F 
ATOM     99  C   UNL A   1      39.682  35.704  38.798  1.00  0.00     0.060 A 
BRANCH  99 100
ATOM    100  S   UNL A   1      39.469  36.961  40.075  1.00  0.00     0.124 S 
ATOM    101  O   UNL A   1      38.858  38.048  39.318  1.00  0.00    -0.237 OA
ATOM    102  O   UNL A   1      38.597  36.286  41.032  1.00  0.00    -0.237 OA
ATOM    103  O   UNL A   1      40.831  37.208  40.541  1.00  0.00    -0.744 OA
ENDBRANCH  99 100
ENDBRANCH  67  92
ENDBRANCH  41  42
ENDBRANCH  33  36
ENDBRANCH  31  32
ENDBRANCH  30  31
ENDBRANCH   1  30
TORSDOF 18
ENDMDL
