MODEL 1
REMARK VINA RESULT:     -10.6      0.000      0.000
REMARK SMILES CC(C)(C)OCC[C@@H]1CCC[C@]1([NH2+]C1CC1)C(=O)NCCCCNC(=O)c1ccc(-c2c3nc(c(-c4c(F)cc(S(=O)(=O)[O-])cc4F)c4ccc([nH]4)c(-c4c(F)cc(S(=O)(=O)[O-])cc4F)c4nc(c(-c5c(F)cc(S(=O)(=O)[O-])cc5F)c5ccc2[nH]5)C=C4)C=C3)cc1
REMARK SMILES IDX 21 1 20 2 19 3 17 4 18 5 12 7 8 8 9 9 10 10 11 11 7 12 6 13
REMARK SMILES IDX 5 14 2 15 1 16 3 17 4 18 13 19 14 22 15 23 16 24 22 25 23 26
REMARK SMILES IDX 24 27 25 28 26 30 27 31 28 32 92 33 29 34 91 35 30 36 31 37
REMARK SMILES IDX 32 38 85 39 33 40 90 41 84 42 86 43 34 44 89 45 83 46 82 47
REMARK SMILES IDX 35 49 69 50 48 51 68 52 49 53 52 54 67 55 87 56 50 57 51 58
REMARK SMILES IDX 66 60 88 61 53 62 36 63 37 64 46 65 38 66 39 67 45 68 47 69
REMARK SMILES IDX 40 70 41 71 42 72 43 73 44 74 70 75 71 76 80 77 72 78 73 79
REMARK SMILES IDX 79 80 81 81 74 82 75 83 76 84 77 85 78 86 54 87 55 88 64 89
REMARK SMILES IDX 56 90 57 91 63 92 65 93 58 94 59 95 60 96 61 97 62 98
REMARK H PARENT 19 6 13 20 13 21 24 29 86 48 52 59
REMARK Flexibility Score: inf
ROOT
ATOM      1  C   UNL A   1      33.987  26.722  25.123  1.00  0.00     0.023 C 
ENDROOT
BRANCH   1   2
ATOM      2  C   UNL A   1      32.913  25.626  25.065  1.00  0.00     0.116 C 
BRANCH   2   3
ATOM      3  N   UNL A   1      33.182  24.634  24.036  1.00  0.00    -0.351 N 
ATOM      4  C   UNL A   1      33.384  23.283  24.084  1.00  0.00     0.281 C 
ATOM      5  O   UNL A   1      33.429  22.717  22.982  1.00  0.00    -0.268 OA
ATOM      6  H   UNL A   1      33.225  25.009  23.126  1.00  0.00     0.163 HD
BRANCH   4   7
ATOM      7  C   UNL A   1      33.624  22.465  25.416  1.00  0.00     0.178 C 
ATOM      8  C   UNL A   1      32.619  21.229  25.507  1.00  0.00     0.063 C 
ATOM      9  C   UNL A   1      31.316  22.011  25.761  1.00  0.00     0.011 C 
ATOM     10  C   UNL A   1      31.677  22.986  26.861  1.00  0.00     0.008 C 
ATOM     11  C   UNL A   1      33.157  23.267  26.669  1.00  0.00     0.079 C 
BRANCH   8  12
ATOM     12  C   UNL A   1      32.574  20.302  24.282  1.00  0.00     0.039 C 
BRANCH  12  13
ATOM     13  C   UNL A   1      32.576  18.766  24.383  1.00  0.00     0.161 C 
BRANCH  13  14
ATOM     14  O   UNL A   1      33.744  18.142  24.896  1.00  0.00    -0.376 OA
BRANCH  14  15
ATOM     15  C   UNL A   1      34.000  16.763  24.615  1.00  0.00     0.060 C 
ATOM     16  C   UNL A   1      34.119  16.634  23.089  1.00  0.00     0.042 C 
ATOM     17  C   UNL A   1      32.800  15.944  25.040  1.00  0.00     0.042 C 
ATOM     18  C   UNL A   1      35.283  16.226  25.259  1.00  0.00     0.042 C 
ENDBRANCH  14  15
ENDBRANCH  13  14
ENDBRANCH  12  13
ENDBRANCH   8  12
BRANCH   7  19
ATOM     19  N   UNL A   1      35.057  22.132  25.581  1.00  0.00    -0.331 N 
ATOM     20  H   UNL A   1      35.369  21.722  24.701  1.00  0.00     0.347 HD
ATOM     21  H   UNL A   1      35.067  21.531  26.405  1.00  0.00     0.347 HD
BRANCH  19  22
ATOM     22  C   UNL A   1      36.026  23.203  25.923  1.00  0.00     0.183 C 
ATOM     23  C   UNL A   1      37.519  23.064  26.057  1.00  0.00     0.071 C 
ATOM     24  C   UNL A   1      36.944  23.768  24.866  1.00  0.00     0.071 C 
ENDBRANCH  19  22
ENDBRANCH   7  19
ENDBRANCH   4   7
ENDBRANCH   2   3
ENDBRANCH   1   2
BRANCH   1  25
ATOM     25  C   UNL A   1      33.502  28.089  25.574  1.00  0.00     0.023 C 
BRANCH  25  26
ATOM     26  C   UNL A   1      33.582  28.303  27.071  1.00  0.00     0.116 C 
BRANCH  26  27
ATOM     27  N   UNL A   1      33.467  29.704  27.451  1.00  0.00    -0.352 N 
ATOM     28  C   UNL A   1      34.415  30.507  28.046  1.00  0.00     0.251 C 
ATOM     29  H   UNL A   1      32.600  30.131  27.259  1.00  0.00     0.163 HD
ATOM     30  O   UNL A   1      34.131  31.627  28.437  1.00  0.00    -0.269 OA
BRANCH  28  31
ATOM     31  C   UNL A   1      35.774  29.959  28.225  1.00  0.00     0.039 A 
ATOM     32  C   UNL A   1      36.695  30.065  27.182  1.00  0.00     0.014 A 
ATOM     33  C   UNL A   1      36.152  29.430  29.461  1.00  0.00     0.014 A 
ATOM     34  C   UNL A   1      38.023  29.701  27.407  1.00  0.00     0.010 A 
ATOM     35  C   UNL A   1      37.491  29.178  29.715  1.00  0.00     0.010 A 
ATOM     36  C   UNL A   1      38.438  29.294  28.687  1.00  0.00    -0.014 A 
BRANCH  36  37
ATOM     37  C   UNL A   1      39.851  28.952  28.975  1.00  0.00     0.031 A 
ATOM     38  C   UNL A   1      40.747  29.983  29.606  1.00  0.00     0.074 A 
ATOM     39  C   UNL A   1      40.341  27.753  28.603  1.00  0.00     0.049 A 
ATOM     40  N   UNL A   1      42.026  29.918  29.868  1.00  0.00    -0.248 NA
ATOM     41  C   UNL A   1      40.132  31.275  29.951  1.00  0.00     0.031 C 
ATOM     42  C   UNL A   1      39.582  26.695  27.931  1.00  0.00     0.029 A 
ATOM     43  N   UNL A   1      41.598  27.222  28.735  1.00  0.00    -0.354 N 
ATOM     44  C   UNL A   1      42.368  31.162  30.385  1.00  0.00     0.074 A 
ATOM     45  C   UNL A   1      41.182  31.985  30.332  1.00  0.00     0.031 C 
ATOM     46  C   UNL A   1      40.378  25.630  27.747  1.00  0.00     0.029 A 
ATOM     47  C   UNL A   1      41.713  25.941  28.249  1.00  0.00     0.049 A 
ATOM     48  H   UNL A   1      42.350  27.712  29.141  1.00  0.00     0.167 HD
ATOM     49  C   UNL A   1      43.555  31.571  30.890  1.00  0.00     0.037 A 
ATOM     50  C   UNL A   1      42.774  25.114  28.215  1.00  0.00     0.037 A 
ATOM     51  C   UNL A   1      44.718  30.731  30.972  1.00  0.00     0.049 A 
ATOM     52  C   UNL A   1      44.084  25.588  28.786  1.00  0.00     0.074 A 
ATOM     53  C   UNL A   1      45.953  31.020  31.525  1.00  0.00     0.029 A 
ATOM     54  N   UNL A   1      44.790  29.433  30.486  1.00  0.00    -0.354 N 
ATOM     55  N   UNL A   1      44.373  26.744  29.337  1.00  0.00    -0.248 NA
ATOM     56  C   UNL A   1      45.210  24.646  28.737  1.00  0.00     0.031 C 
ATOM     57  C   UNL A   1      46.784  29.910  31.335  1.00  0.00     0.029 A 
ATOM     58  C   UNL A   1      46.053  28.913  30.707  1.00  0.00     0.049 A 
ATOM     59  H   UNL A   1      44.051  28.952  30.048  1.00  0.00     0.167 HD
ATOM     60  C   UNL A   1      45.705  26.656  29.727  1.00  0.00     0.074 A 
ATOM     61  C   UNL A   1      46.159  25.331  29.358  1.00  0.00     0.031 C 
ATOM     62  C   UNL A   1      46.480  27.586  30.339  1.00  0.00     0.037 A 
BRANCH  49  63
ATOM     63  C   UNL A   1      43.640  32.987  31.394  1.00  0.00     0.058 A 
ATOM     64  C   UNL A   1      44.047  34.045  30.564  1.00  0.00     0.135 A 
ATOM     65  C   UNL A   1      43.314  33.291  32.726  1.00  0.00     0.135 A 
ATOM     66  F   UNL A   1      44.387  33.809  29.286  1.00  0.00    -0.206 F 
ATOM     67  C   UNL A   1      44.172  35.343  31.046  1.00  0.00     0.059 A 
ATOM     68  C   UNL A   1      43.401  34.590  33.221  1.00  0.00     0.059 A 
ATOM     69  F   UNL A   1      42.919  32.321  33.565  1.00  0.00    -0.206 F 
ATOM     70  C   UNL A   1      43.852  35.605  32.378  1.00  0.00     0.060 A 
BRANCH  70  71
ATOM     71  S   UNL A   1      44.038  37.292  32.994  1.00  0.00     0.124 S 
ATOM     72  O   UNL A   1      43.923  38.064  31.762  1.00  0.00    -0.237 OA
ATOM     73  O   UNL A   1      42.920  37.410  33.923  1.00  0.00    -0.237 OA
ATOM     74  O   UNL A   1      45.361  37.284  33.609  1.00  0.00    -0.744 OA
ENDBRANCH  70  71
ENDBRANCH  49  63
BRANCH  50  75
ATOM     75  C   UNL A   1      42.633  23.739  27.664  1.00  0.00     0.058 A 
ATOM     76  C   UNL A   1      42.395  22.649  28.514  1.00  0.00     0.135 A 
ATOM     77  C   UNL A   1      42.715  23.486  26.286  1.00  0.00     0.135 A 
ATOM     78  F   UNL A   1      42.312  22.837  29.840  1.00  0.00    -0.206 F 
ATOM     79  C   UNL A   1      42.261  21.354  28.022  1.00  0.00     0.059 A 
ATOM     80  C   UNL A   1      42.559  22.204  25.767  1.00  0.00     0.059 A 
ATOM     81  F   UNL A   1      42.924  24.497  25.428  1.00  0.00    -0.206 F 
ATOM     82  C   UNL A   1      42.342  21.142  26.645  1.00  0.00     0.060 A 
BRANCH  82  83
ATOM     83  S   UNL A   1      42.121  19.464  26.014  1.00  0.00     0.124 S 
ATOM     84  O   UNL A   1      42.644  18.665  27.115  1.00  0.00    -0.237 OA
ATOM     85  O   UNL A   1      40.677  19.402  25.810  1.00  0.00    -0.237 OA
ATOM     86  O   UNL A   1      42.920  19.458  24.793  1.00  0.00    -0.744 OA
ENDBRANCH  82  83
ENDBRANCH  50  75
BRANCH  62  87
ATOM     87  C   UNL A   1      47.890  27.191  30.683  1.00  0.00     0.058 A 
ATOM     88  C   UNL A   1      48.197  26.512  31.871  1.00  0.00     0.135 A 
ATOM     89  C   UNL A   1      48.936  27.449  29.782  1.00  0.00     0.135 A 
ATOM     90  F   UNL A   1      47.234  26.246  32.767  1.00  0.00    -0.206 F 
ATOM     91  C   UNL A   1      49.499  26.120  32.167  1.00  0.00     0.059 A 
ATOM     92  C   UNL A   1      50.240  27.041  30.044  1.00  0.00     0.059 A 
ATOM     93  F   UNL A   1      48.693  28.087  28.626  1.00  0.00    -0.206 F 
ATOM     94  C   UNL A   1      50.513  26.388  31.244  1.00  0.00     0.060 A 
BRANCH  94  95
ATOM     95  S   UNL A   1      52.191  25.841  31.622  1.00  0.00     0.124 S 
ATOM     96  O   UNL A   1      51.960  24.474  32.076  1.00  0.00    -0.237 OA
ATOM     97  O   UNL A   1      52.863  25.976  30.332  1.00  0.00    -0.237 OA
ATOM     98  O   UNL A   1      52.630  26.779  32.650  1.00  0.00    -0.744 OA
ENDBRANCH  94  95
ENDBRANCH  62  87
ENDBRANCH  36  37
ENDBRANCH  28  31
ENDBRANCH  26  27
ENDBRANCH  25  26
ENDBRANCH   1  25
TORSDOF 20
ENDMDL
MODEL 2
REMARK VINA RESULT:     -10.3      1.008      2.390
REMARK SMILES CC(C)(C)OCC[C@@H]1CCC[C@]1([NH2+]C1CC1)C(=O)NCCCCNC(=O)c1ccc(-c2c3nc(c(-c4c(F)cc(S(=O)(=O)[O-])cc4F)c4ccc([nH]4)c(-c4c(F)cc(S(=O)(=O)[O-])cc4F)c4nc(c(-c5c(F)cc(S(=O)(=O)[O-])cc5F)c5ccc2[nH]5)C=C4)C=C3)cc1
REMARK SMILES IDX 21 1 20 2 19 3 17 4 18 5 12 7 8 8 9 9 10 10 11 11 7 12 6 13
REMARK SMILES IDX 5 14 2 15 1 16 3 17 4 18 13 19 14 22 15 23 16 24 22 25 23 26
REMARK SMILES IDX 24 27 25 28 26 30 27 31 28 32 92 33 29 34 91 35 30 36 31 37
REMARK SMILES IDX 32 38 85 39 33 40 90 41 84 42 86 43 34 44 89 45 83 46 82 47
REMARK SMILES IDX 35 49 69 50 48 51 68 52 49 53 52 54 67 55 87 56 50 57 51 58
REMARK SMILES IDX 66 60 88 61 53 62 36 63 37 64 46 65 38 66 39 67 45 68 47 69
REMARK SMILES IDX 40 70 41 71 42 72 43 73 44 74 70 75 71 76 80 77 72 78 73 79
REMARK SMILES IDX 79 80 81 81 74 82 75 83 76 84 77 85 78 86 54 87 55 88 64 89
REMARK SMILES IDX 56 90 57 91 63 92 65 93 58 94 59 95 60 96 61 97 62 98
REMARK H PARENT 19 6 13 20 13 21 24 29 86 48 52 59
REMARK Flexibility Score: inf
ROOT
ATOM      1  C   UNL A   1      33.658  27.272  24.793  1.00  0.00     0.023 C 
ENDROOT
BRANCH   1   2
ATOM      2  C   UNL A   1      32.689  26.270  25.439  1.00  0.00     0.116 C 
BRANCH   2   3
ATOM      3  N   UNL A   1      33.379  25.179  26.110  1.00  0.00    -0.351 N 
ATOM      4  C   UNL A   1      33.488  23.845  25.834  1.00  0.00     0.281 C 
ATOM      5  O   UNL A   1      34.296  23.224  26.539  1.00  0.00    -0.268 OA
ATOM      6  H   UNL A   1      33.862  25.456  26.922  1.00  0.00     0.163 HD
BRANCH   4   7
ATOM      7  C   UNL A   1      32.616  23.084  24.755  1.00  0.00     0.178 C 
ATOM      8  C   UNL A   1      33.518  22.072  23.914  1.00  0.00     0.063 C 
ATOM      9  C   UNL A   1      34.326  23.103  23.104  1.00  0.00     0.011 C 
ATOM     10  C   UNL A   1      33.280  24.061  22.574  1.00  0.00     0.008 C 
ATOM     11  C   UNL A   1      32.168  24.041  23.608  1.00  0.00     0.079 C 
BRANCH   8  12
ATOM     12  C   UNL A   1      34.377  21.093  24.730  1.00  0.00     0.039 C 
BRANCH  12  13
ATOM     13  C   UNL A   1      33.795  19.889  25.493  1.00  0.00     0.161 C 
BRANCH  13  14
ATOM     14  O   UNL A   1      32.866  19.062  24.807  1.00  0.00    -0.376 OA
BRANCH  14  15
ATOM     15  C   UNL A   1      33.281  17.790  24.301  1.00  0.00     0.060 C 
ATOM     16  C   UNL A   1      32.763  17.694  22.858  1.00  0.00     0.042 C 
ATOM     17  C   UNL A   1      32.594  16.699  25.094  1.00  0.00     0.042 C 
ATOM     18  C   UNL A   1      34.800  17.589  24.297  1.00  0.00     0.042 C 
ENDBRANCH  14  15
ENDBRANCH  13  14
ENDBRANCH  12  13
ENDBRANCH   8  12
BRANCH   7  19
ATOM     19  N   UNL A   1      31.407  22.496  25.372  1.00  0.00    -0.331 N 
ATOM     20  H   UNL A   1      31.609  21.509  25.536  1.00  0.00     0.347 HD
ATOM     21  H   UNL A   1      30.669  22.715  24.703  1.00  0.00     0.347 HD
BRANCH  19  22
ATOM     22  C   UNL A   1      30.890  23.046  26.650  1.00  0.00     0.183 C 
ATOM     23  C   UNL A   1      29.805  24.075  26.819  1.00  0.00     0.071 C 
ATOM     24  C   UNL A   1      29.527  22.643  27.160  1.00  0.00     0.071 C 
ENDBRANCH  19  22
ENDBRANCH   7  19
ENDBRANCH   4   7
ENDBRANCH   2   3
ENDBRANCH   1   2
BRANCH   1  25
ATOM     25  C   UNL A   1      33.681  28.655  25.421  1.00  0.00     0.023 C 
BRANCH  25  26
ATOM     26  C   UNL A   1      33.808  28.639  26.930  1.00  0.00     0.116 C 
BRANCH  26  27
ATOM     27  N   UNL A   1      33.677  29.962  27.524  1.00  0.00    -0.352 N 
ATOM     28  C   UNL A   1      34.601  30.655  28.274  1.00  0.00     0.251 C 
ATOM     29  H   UNL A   1      32.817  30.419  27.371  1.00  0.00     0.163 HD
ATOM     30  O   UNL A   1      34.301  31.700  28.829  1.00  0.00    -0.269 OA
BRANCH  28  31
ATOM     31  C   UNL A   1      35.953  30.079  28.414  1.00  0.00     0.039 A 
ATOM     32  C   UNL A   1      36.848  30.172  27.348  1.00  0.00     0.014 A 
ATOM     33  C   UNL A   1      36.353  29.536  29.637  1.00  0.00     0.014 A 
ATOM     34  C   UNL A   1      38.174  29.780  27.536  1.00  0.00     0.010 A 
ATOM     35  C   UNL A   1      37.693  29.255  29.855  1.00  0.00     0.010 A 
ATOM     36  C   UNL A   1      38.614  29.358  28.802  1.00  0.00    -0.014 A 
BRANCH  36  37
ATOM     37  C   UNL A   1      40.027  28.985  29.051  1.00  0.00     0.031 A 
ATOM     38  C   UNL A   1      40.965  30.000  29.645  1.00  0.00     0.074 A 
ATOM     39  C   UNL A   1      40.477  27.772  28.676  1.00  0.00     0.049 A 
ATOM     40  N   UNL A   1      42.250  29.908  29.869  1.00  0.00    -0.248 NA
ATOM     41  C   UNL A   1      40.390  31.310  29.996  1.00  0.00     0.031 C 
ATOM     42  C   UNL A   1      39.674  26.726  28.037  1.00  0.00     0.029 A 
ATOM     43  N   UNL A   1      41.726  27.213  28.775  1.00  0.00    -0.354 N 
ATOM     44  C   UNL A   1      42.636  31.148  30.363  1.00  0.00     0.074 A 
ATOM     45  C   UNL A   1      41.467  31.999  30.339  1.00  0.00     0.031 C 
ATOM     46  C   UNL A   1      40.440  25.642  27.839  1.00  0.00     0.029 A 
ATOM     47  C   UNL A   1      41.796  25.926  28.298  1.00  0.00     0.049 A 
ATOM     48  H   UNL A   1      42.501  27.690  29.153  1.00  0.00     0.167 HD
ATOM     49  C   UNL A   1      43.847  31.535  30.829  1.00  0.00     0.037 A 
ATOM     50  C   UNL A   1      42.837  25.074  28.240  1.00  0.00     0.037 A 
ATOM     51  C   UNL A   1      44.992  30.668  30.883  1.00  0.00     0.049 A 
ATOM     52  C   UNL A   1      44.174  25.523  28.767  1.00  0.00     0.074 A 
ATOM     53  C   UNL A   1      46.249  30.933  31.397  1.00  0.00     0.029 A 
ATOM     54  N   UNL A   1      45.019  29.365  30.408  1.00  0.00    -0.354 N 
ATOM     55  N   UNL A   1      44.506  26.677  29.297  1.00  0.00    -0.248 NA
ATOM     56  C   UNL A   1      45.276  24.554  28.692  1.00  0.00     0.031 C 
ATOM     57  C   UNL A   1      47.048  29.803  31.192  1.00  0.00     0.029 A 
ATOM     58  C   UNL A   1      46.276  28.818  30.596  1.00  0.00     0.049 A 
ATOM     59  H   UNL A   1      44.256  28.897  29.997  1.00  0.00     0.167 HD
ATOM     60  C   UNL A   1      45.847  26.561  29.648  1.00  0.00     0.074 A 
ATOM     61  C   UNL A   1      46.259  25.222  29.278  1.00  0.00     0.031 C 
ATOM     62  C   UNL A   1      46.661  27.478  30.227  1.00  0.00     0.037 A 
BRANCH  49  63
ATOM     63  C   UNL A   1      43.979  32.953  31.317  1.00  0.00     0.058 A 
ATOM     64  C   UNL A   1      43.750  33.297  32.660  1.00  0.00     0.135 A 
ATOM     65  C   UNL A   1      44.336  33.982  30.431  1.00  0.00     0.135 A 
ATOM     66  F   UNL A   1      43.389  32.356  33.547  1.00  0.00    -0.206 F 
ATOM     67  C   UNL A   1      43.824  34.615  33.097  1.00  0.00     0.059 A 
ATOM     68  C   UNL A   1      44.448  35.304  30.855  1.00  0.00     0.059 A 
ATOM     69  F   UNL A   1      44.567  33.712  29.136  1.00  0.00    -0.206 F 
ATOM     70  C   UNL A   1      44.169  35.613  32.185  1.00  0.00     0.060 A 
BRANCH  70  71
ATOM     71  S   UNL A   1      44.242  37.321  32.764  1.00  0.00     0.124 S 
ATOM     72  O   UNL A   1      43.110  37.364  33.684  1.00  0.00    -0.237 OA
ATOM     73  O   UNL A   1      45.563  37.386  33.380  1.00  0.00    -0.237 OA
ATOM     74  O   UNL A   1      44.086  38.101  31.540  1.00  0.00    -0.744 OA
ENDBRANCH  70  71
ENDBRANCH  49  63
BRANCH  50  75
ATOM     75  C   UNL A   1      42.647  23.698  27.706  1.00  0.00     0.058 A 
ATOM     76  C   UNL A   1      42.674  23.456  26.325  1.00  0.00     0.135 A 
ATOM     77  C   UNL A   1      42.452  22.599  28.558  1.00  0.00     0.135 A 
ATOM     78  F   UNL A   1      42.853  24.474  25.469  1.00  0.00    -0.206 F 
ATOM     79  C   UNL A   1      42.497  22.179  25.803  1.00  0.00     0.059 A 
ATOM     80  C   UNL A   1      42.298  21.308  28.060  1.00  0.00     0.059 A 
ATOM     81  F   UNL A   1      42.436  22.774  29.888  1.00  0.00    -0.206 F 
ATOM     82  C   UNL A   1      42.313  21.109  26.680  1.00  0.00     0.060 A 
BRANCH  82  83
ATOM     83  S   UNL A   1      42.129  19.449  25.993  1.00  0.00     0.124 S 
ATOM     84  O   UNL A   1      42.955  19.534  24.795  1.00  0.00    -0.237 OA
ATOM     85  O   UNL A   1      42.650  18.613  27.071  1.00  0.00    -0.237 OA
ATOM     86  O   UNL A   1      40.692  19.338  25.763  1.00  0.00    -0.744 OA
ENDBRANCH  82  83
ENDBRANCH  50  75
BRANCH  62  87
ATOM     87  C   UNL A   1      48.071  27.053  30.533  1.00  0.00     0.058 A 
ATOM     88  C   UNL A   1      49.117  27.253  29.620  1.00  0.00     0.135 A 
ATOM     89  C   UNL A   1      48.385  26.489  31.780  1.00  0.00     0.135 A 
ATOM     90  F   UNL A   1      48.868  27.784  28.412  1.00  0.00    -0.206 F 
ATOM     91  C   UNL A   1      50.424  26.888  29.923  1.00  0.00     0.059 A 
ATOM     92  C   UNL A   1      49.689  26.143  32.116  1.00  0.00     0.059 A 
ATOM     93  F   UNL A   1      47.423  26.287  32.694  1.00  0.00    -0.206 F 
ATOM     94  C   UNL A   1      50.701  26.336  31.176  1.00  0.00     0.060 A 
BRANCH  94  95
ATOM     95  S   UNL A   1      52.407  25.901  31.571  1.00  0.00     0.124 S 
ATOM     96  O   UNL A   1      52.733  26.890  32.593  1.00  0.00    -0.237 OA
ATOM     97  O   UNL A   1      52.279  24.523  32.040  1.00  0.00    -0.237 OA
ATOM     98  O   UNL A   1      53.102  26.060  30.298  1.00  0.00    -0.744 OA
ENDBRANCH  94  95
ENDBRANCH  62  87
ENDBRANCH  36  37
ENDBRANCH  28  31
ENDBRANCH  26  27
ENDBRANCH  25  26
ENDBRANCH   1  25
TORSDOF 20
ENDMDL
MODEL 3
REMARK VINA RESULT:     -10.2      4.672     10.102
REMARK SMILES CC(C)(C)OCC[C@@H]1CCC[C@]1([NH2+]C1CC1)C(=O)NCCCCNC(=O)c1ccc(-c2c3nc(c(-c4c(F)cc(S(=O)(=O)[O-])cc4F)c4ccc([nH]4)c(-c4c(F)cc(S(=O)(=O)[O-])cc4F)c4nc(c(-c5c(F)cc(S(=O)(=O)[O-])cc5F)c5ccc2[nH]5)C=C4)C=C3)cc1
REMARK SMILES IDX 21 1 20 2 19 3 17 4 18 5 12 7 8 8 9 9 10 10 11 11 7 12 6 13
REMARK SMILES IDX 5 14 2 15 1 16 3 17 4 18 13 19 14 22 15 23 16 24 22 25 23 26
REMARK SMILES IDX 24 27 25 28 26 30 27 31 28 32 92 33 29 34 91 35 30 36 31 37
REMARK SMILES IDX 32 38 85 39 33 40 90 41 84 42 86 43 34 44 89 45 83 46 82 47
REMARK SMILES IDX 35 49 69 50 48 51 68 52 49 53 52 54 67 55 87 56 50 57 51 58
REMARK SMILES IDX 66 60 88 61 53 62 36 63 37 64 46 65 38 66 39 67 45 68 47 69
REMARK SMILES IDX 40 70 41 71 42 72 43 73 44 74 70 75 71 76 80 77 72 78 73 79
REMARK SMILES IDX 79 80 81 81 74 82 75 83 76 84 77 85 78 86 54 87 55 88 64 89
REMARK SMILES IDX 56 90 57 91 63 92 65 93 58 94 59 95 60 96 61 97 62 98
REMARK H PARENT 19 6 13 20 13 21 24 29 86 48 52 59
REMARK Flexibility Score: inf
ROOT
ATOM      1  C   UNL A   1      38.545  23.644  26.177  1.00  0.00     0.023 C 
ENDROOT
BRANCH   1   2
ATOM      2  C   UNL A   1      37.135  23.119  25.869  1.00  0.00     0.116 C 
BRANCH   2   3
ATOM      3  N   UNL A   1      36.932  22.862  24.451  1.00  0.00    -0.351 N 
ATOM      4  C   UNL A   1      35.941  23.218  23.580  1.00  0.00     0.281 C 
ATOM      5  O   UNL A   1      36.168  22.959  22.389  1.00  0.00    -0.268 OA
ATOM      6  H   UNL A   1      37.648  22.326  24.040  1.00  0.00     0.163 HD
BRANCH   4   7
ATOM      7  C   UNL A   1      34.557  23.848  24.013  1.00  0.00     0.178 C 
ATOM      8  C   UNL A   1      33.527  22.706  24.438  1.00  0.00     0.063 C 
ATOM      9  C   UNL A   1      33.261  22.107  23.045  1.00  0.00     0.011 C 
ATOM     10  C   UNL A   1      32.989  23.311  22.169  1.00  0.00     0.008 C 
ATOM     11  C   UNL A   1      33.792  24.440  22.791  1.00  0.00     0.079 C 
BRANCH   8  12
ATOM     12  C   UNL A   1      34.031  21.693  25.479  1.00  0.00     0.039 C 
BRANCH  12  13
ATOM     13  C   UNL A   1      33.595  20.217  25.504  1.00  0.00     0.161 C 
BRANCH  13  14
ATOM     14  O   UNL A   1      34.121  19.359  24.501  1.00  0.00    -0.376 OA
BRANCH  14  15
ATOM     15  C   UNL A   1      33.463  18.126  24.199  1.00  0.00     0.060 C 
ATOM     16  C   UNL A   1      32.515  17.828  25.370  1.00  0.00     0.042 C 
ATOM     17  C   UNL A   1      34.492  17.016  24.165  1.00  0.00     0.042 C 
ATOM     18  C   UNL A   1      32.652  18.158  22.899  1.00  0.00     0.042 C 
ENDBRANCH  14  15
ENDBRANCH  13  14
ENDBRANCH  12  13
ENDBRANCH   8  12
BRANCH   7  19
ATOM     19  N   UNL A   1      34.755  24.927  25.007  1.00  0.00    -0.331 N 
ATOM     20  H   UNL A   1      35.721  25.242  24.913  1.00  0.00     0.347 HD
ATOM     21  H   UNL A   1      34.493  24.487  25.889  1.00  0.00     0.347 HD
BRANCH  19  22
ATOM     22  C   UNL A   1      33.901  26.139  24.958  1.00  0.00     0.183 C 
ATOM     23  C   UNL A   1      32.602  26.362  25.684  1.00  0.00     0.071 C 
ATOM     24  C   UNL A   1      33.837  27.078  26.139  1.00  0.00     0.071 C 
ENDBRANCH  19  22
ENDBRANCH   7  19
ENDBRANCH   4   7
ENDBRANCH   2   3
ENDBRANCH   1   2
BRANCH   1  25
ATOM     25  C   UNL A   1      39.457  22.674  26.908  1.00  0.00     0.023 C 
BRANCH  25  26
ATOM     26  C   UNL A   1      40.829  23.238  27.213  1.00  0.00     0.116 C 
BRANCH  26  27
ATOM     27  N   UNL A   1      41.383  24.011  26.111  1.00  0.00    -0.352 N 
ATOM     28  C   UNL A   1      41.699  25.351  26.083  1.00  0.00     0.251 C 
ATOM     29  H   UNL A   1      41.553  23.511  25.279  1.00  0.00     0.163 HD
ATOM     30  O   UNL A   1      42.026  25.896  25.041  1.00  0.00    -0.269 OA
BRANCH  28  31
ATOM     31  C   UNL A   1      41.598  26.113  27.343  1.00  0.00     0.039 A 
ATOM     32  C   UNL A   1      42.629  26.984  27.698  1.00  0.00     0.014 A 
ATOM     33  C   UNL A   1      40.437  26.030  28.113  1.00  0.00     0.014 A 
ATOM     34  C   UNL A   1      42.459  27.827  28.797  1.00  0.00     0.010 A 
ATOM     35  C   UNL A   1      40.225  26.945  29.133  1.00  0.00     0.010 A 
ATOM     36  C   UNL A   1      41.240  27.841  29.496  1.00  0.00    -0.014 A 
BRANCH  36  37
ATOM     37  C   UNL A   1      41.007  28.761  30.635  1.00  0.00     0.031 A 
ATOM     38  C   UNL A   1      41.857  28.638  31.870  1.00  0.00     0.074 A 
ATOM     39  C   UNL A   1      39.993  29.647  30.586  1.00  0.00     0.049 A 
ATOM     40  N   UNL A   1      41.769  29.285  33.003  1.00  0.00    -0.248 NA
ATOM     41  C   UNL A   1      42.923  27.622  31.844  1.00  0.00     0.031 C 
ATOM     42  C   UNL A   1      39.065  29.816  29.465  1.00  0.00     0.029 A 
ATOM     43  N   UNL A   1      39.568  30.570  31.507  1.00  0.00    -0.354 N 
ATOM     44  C   UNL A   1      42.749  28.741  33.825  1.00  0.00     0.074 A 
ATOM     45  C   UNL A   1      43.371  27.663  33.089  1.00  0.00     0.031 C 
ATOM     46  C   UNL A   1      38.208  30.810  29.748  1.00  0.00     0.029 A 
ATOM     47  C   UNL A   1      38.497  31.321  31.085  1.00  0.00     0.049 A 
ATOM     48  H   UNL A   1      39.991  30.684  32.390  1.00  0.00     0.167 HD
ATOM     49  C   UNL A   1      43.122  29.126  35.068  1.00  0.00     0.037 A 
ATOM     50  C   UNL A   1      37.828  32.310  31.706  1.00  0.00     0.037 A 
ATOM     51  C   UNL A   1      42.521  30.224  35.774  1.00  0.00     0.049 A 
ATOM     52  C   UNL A   1      38.262  32.726  33.087  1.00  0.00     0.074 A 
ATOM     53  C   UNL A   1      42.863  30.743  37.010  1.00  0.00     0.029 A 
ATOM     54  N   UNL A   1      41.451  30.973  35.306  1.00  0.00    -0.354 N 
ATOM     55  N   UNL A   1      39.237  32.247  33.823  1.00  0.00    -0.248 NA
ATOM     56  C   UNL A   1      37.508  33.817  33.719  1.00  0.00     0.031 C 
ATOM     57  C   UNL A   1      41.972  31.780  37.306  1.00  0.00     0.029 A 
ATOM     58  C   UNL A   1      41.106  31.939  36.236  1.00  0.00     0.049 A 
ATOM     59  H   UNL A   1      41.003  30.838  34.439  1.00  0.00     0.167 HD
ATOM     60  C   UNL A   1      39.234  33.000  34.992  1.00  0.00     0.074 A 
ATOM     61  C   UNL A   1      38.166  33.970  34.859  1.00  0.00     0.031 C 
ATOM     62  C   UNL A   1      40.044  32.901  36.076  1.00  0.00     0.037 A 
BRANCH  49  63
ATOM     63  C   UNL A   1      44.232  28.352  35.727  1.00  0.00     0.058 A 
ATOM     64  C   UNL A   1      43.975  27.224  36.526  1.00  0.00     0.135 A 
ATOM     65  C   UNL A   1      45.570  28.744  35.563  1.00  0.00     0.135 A 
ATOM     66  F   UNL A   1      42.712  26.816  36.732  1.00  0.00    -0.206 F 
ATOM     67  C   UNL A   1      44.998  26.542  37.174  1.00  0.00     0.059 A 
ATOM     68  C   UNL A   1      46.613  28.055  36.176  1.00  0.00     0.059 A 
ATOM     69  F   UNL A   1      45.875  29.813  34.811  1.00  0.00    -0.206 F 
ATOM     70  C   UNL A   1      46.314  26.968  36.997  1.00  0.00     0.060 A 
BRANCH  70  71
ATOM     71  S   UNL A   1      47.630  26.084  37.861  1.00  0.00     0.124 S 
ATOM     72  O   UNL A   1      47.745  24.875  37.053  1.00  0.00    -0.237 OA
ATOM     73  O   UNL A   1      48.748  27.017  37.767  1.00  0.00    -0.237 OA
ATOM     74  O   UNL A   1      47.088  25.894  39.202  1.00  0.00    -0.744 OA
ENDBRANCH  70  71
ENDBRANCH  49  63
BRANCH  50  75
ATOM     75  C   UNL A   1      36.711  33.008  31.013  1.00  0.00     0.058 A 
ATOM     76  C   UNL A   1      36.969  33.908  29.969  1.00  0.00     0.135 A 
ATOM     77  C   UNL A   1      35.371  32.780  31.363  1.00  0.00     0.135 A 
ATOM     78  F   UNL A   1      38.233  34.164  29.600  1.00  0.00    -0.206 F 
ATOM     79  C   UNL A   1      35.941  34.573  29.307  1.00  0.00     0.059 A 
ATOM     80  C   UNL A   1      34.325  33.414  30.699  1.00  0.00     0.059 A 
ATOM     81  F   UNL A   1      35.070  31.914  32.343  1.00  0.00    -0.206 F 
ATOM     82  C   UNL A   1      34.620  34.316  29.678  1.00  0.00     0.060 A 
BRANCH  82  83
ATOM     83  S   UNL A   1      33.293  35.151  28.781  1.00  0.00     0.124 S 
ATOM     84  O   UNL A   1      32.758  34.065  27.969  1.00  0.00    -0.237 OA
ATOM     85  O   UNL A   1      32.437  35.617  29.868  1.00  0.00    -0.237 OA
ATOM     86  O   UNL A   1      33.992  36.202  28.049  1.00  0.00    -0.744 OA
ENDBRANCH  82  83
ENDBRANCH  50  75
BRANCH  62  87
ATOM     87  C   UNL A   1      39.832  33.890  37.189  1.00  0.00     0.058 A 
ATOM     88  C   UNL A   1      38.926  33.646  38.232  1.00  0.00     0.135 A 
ATOM     89  C   UNL A   1      40.589  35.072  37.237  1.00  0.00     0.135 A 
ATOM     90  F   UNL A   1      38.175  32.534  38.228  1.00  0.00    -0.206 F 
ATOM     91  C   UNL A   1      38.760  34.551  39.275  1.00  0.00     0.059 A 
ATOM     92  C   UNL A   1      40.461  35.977  38.285  1.00  0.00     0.059 A 
ATOM     93  F   UNL A   1      41.478  35.348  36.270  1.00  0.00    -0.206 F 
ATOM     94  C   UNL A   1      39.536  35.713  39.294  1.00  0.00     0.060 A 
BRANCH  94  95
ATOM     95  S   UNL A   1      39.338  36.861  40.673  1.00  0.00     0.124 S 
ATOM     96  O   UNL A   1      38.740  38.016  40.011  1.00  0.00    -0.237 OA
ATOM     97  O   UNL A   1      38.459  36.121  41.573  1.00  0.00    -0.237 OA
ATOM     98  O   UNL A   1      40.703  37.051  41.154  1.00  0.00    -0.744 OA
ENDBRANCH  94  95
ENDBRANCH  62  87
ENDBRANCH  36  37
ENDBRANCH  28  31
ENDBRANCH  26  27
ENDBRANCH  25  26
ENDBRANCH   1  25
TORSDOF 20
ENDMDL
