MODEL 1
REMARK VINA RESULT:     -12.3      0.000      0.000
REMARK SMILES C/C(=N\NC(N)=S)c1nnn(-c2ccc(C(=O)NCCCCNC(=O)c3ccc(-c4c5nc(c(-c6c(F)cc(S(=O)(=O)[O-])cc6F)c6ccc([nH]6)c(-c6c(F)cc(S(=O)(=O)[O-])cc6F)c6nc(c(-c7c(F)cc(S(=O)(=O)[O-])cc7F)c7ccc4[nH]7)C=C6)C=C5)cc3)cc2)c1C
REMARK SMILES IDX 19 1 18 2 16 3 17 4 15 6 12 7 13 8 93 9 14 10 92 11 11 12
REMARK SMILES IDX 8 13 9 14 94 15 10 16 95 17 2 18 1 19 3 20 4 21 5 23 7 24
REMARK SMILES IDX 6 25 20 28 21 29 22 30 23 31 24 32 25 34 26 35 27 36 91 37
REMARK SMILES IDX 28 38 90 39 29 40 30 41 31 42 84 43 32 44 89 45 83 46 85 47
REMARK SMILES IDX 33 48 88 49 82 50 81 51 34 53 68 54 47 55 67 56 48 57 51 58
REMARK SMILES IDX 66 59 86 60 49 61 50 62 65 64 87 65 52 66 35 67 36 68 45 69
REMARK SMILES IDX 37 70 38 71 44 72 46 73 39 74 40 75 41 76 42 77 43 78 69 79
REMARK SMILES IDX 70 80 79 81 71 82 72 83 78 84 80 85 73 86 74 87 75 88 76 89
REMARK SMILES IDX 77 90 53 91 54 92 63 93 55 94 56 95 62 96 64 97 57 98 58 99
REMARK SMILES IDX 59 100 60 101 61 102
REMARK H PARENT 18 5 4 22 6 26 6 27 23 33 85 52 51 63
REMARK Flexibility Score: inf
ROOT
ATOM      1  C   UNL A   1      37.778  21.921  24.983  1.00  0.00     0.116 C 
ENDROOT
BRANCH   1   2
ATOM      2  N   UNL A   1      36.961  20.728  24.842  1.00  0.00    -0.352 N 
ATOM      3  C   UNL A   1      35.617  20.485  25.009  1.00  0.00     0.251 C 
ATOM      4  O   UNL A   1      35.215  19.340  24.799  1.00  0.00    -0.269 OA
ATOM      5  H   UNL A   1      37.473  19.932  24.573  1.00  0.00     0.163 HD
BRANCH   3   6
ATOM      6  C   UNL A   1      34.623  21.535  25.380  1.00  0.00     0.039 A 
ATOM      7  C   UNL A   1      32.883  23.669  25.861  1.00  0.00     0.067 A 
ATOM      8  C   UNL A   1      32.846  23.035  24.620  1.00  0.00     0.029 A 
ATOM      9  C   UNL A   1      33.687  23.185  26.891  1.00  0.00     0.029 A 
ATOM     10  C   UNL A   1      33.741  21.986  24.377  1.00  0.00     0.016 A 
ATOM     11  C   UNL A   1      34.516  22.092  26.655  1.00  0.00     0.016 A 
BRANCH   7  12
ATOM     12  N   UNL A   1      32.192  24.875  26.060  1.00  0.00    -0.217 N 
ATOM     13  C   UNL A   1      31.575  26.955  26.099  1.00  0.00     0.132 A 
ATOM     14  N   UNL A   1      30.548  26.180  26.576  1.00  0.00    -0.128 NA
ATOM     15  C   UNL A   1      32.639  26.147  25.753  1.00  0.00     0.071 A 
ATOM     16  N   UNL A   1      30.912  24.908  26.485  1.00  0.00    -0.061 NA
ATOM     17  C   UNL A   1      33.896  26.445  25.026  1.00  0.00     0.069 C 
BRANCH  13  18
ATOM     18  C   UNL A   1      31.389  28.356  25.768  1.00  0.00     0.087 C 
ATOM     19  C   UNL A   1      31.947  29.324  26.774  1.00  0.00     0.071 C 
ATOM     20  N   UNL A   1      30.810  28.600  24.629  1.00  0.00    -0.176 NA
BRANCH  20  21
ATOM     21  N   UNL A   1      30.650  29.864  24.139  1.00  0.00    -0.254 N 
ATOM     22  H   UNL A   1      31.446  30.440  24.202  1.00  0.00     0.193 HD
BRANCH  21  23
ATOM     23  C   UNL A   1      29.543  30.458  23.567  1.00  0.00     0.184 C 
ATOM     24  S   UNL A   1      28.404  29.830  22.534  1.00  0.00    -0.040 S 
BRANCH  23  25
ATOM     25  N   UNL A   1      29.417  31.771  23.941  1.00  0.00    -0.375 N 
ATOM     26  H   UNL A   1      30.221  32.321  24.080  1.00  0.00     0.159 HD
ATOM     27  H   UNL A   1      28.523  32.162  24.070  1.00  0.00     0.159 HD
ENDBRANCH  23  25
ENDBRANCH  21  23
ENDBRANCH  20  21
ENDBRANCH  13  18
ENDBRANCH   7  12
ENDBRANCH   3   6
ENDBRANCH   1   2
BRANCH   1  28
ATOM     28  C   UNL A   1      38.779  21.785  26.140  1.00  0.00     0.023 C 
BRANCH  28  29
ATOM     29  C   UNL A   1      39.669  20.534  26.103  1.00  0.00     0.023 C 
BRANCH  29  30
ATOM     30  C   UNL A   1      40.980  20.660  26.867  1.00  0.00     0.116 C 
BRANCH  30  31
ATOM     31  N   UNL A   1      42.128  20.931  25.997  1.00  0.00    -0.352 N 
ATOM     32  C   UNL A   1      42.676  22.162  25.661  1.00  0.00     0.251 C 
ATOM     33  H   UNL A   1      42.565  20.143  25.602  1.00  0.00     0.163 HD
ATOM     34  O   UNL A   1      43.342  22.301  24.652  1.00  0.00    -0.269 OA
BRANCH  32  35
ATOM     35  C   UNL A   1      42.446  23.291  26.581  1.00  0.00     0.039 A 
ATOM     36  C   UNL A   1      43.034  23.361  27.848  1.00  0.00     0.014 A 
ATOM     37  C   UNL A   1      41.653  24.326  26.101  1.00  0.00     0.014 A 
ATOM     38  C   UNL A   1      42.878  24.531  28.591  1.00  0.00     0.010 A 
ATOM     39  C   UNL A   1      41.669  25.534  26.739  1.00  0.00     0.010 A 
ATOM     40  C   UNL A   1      42.205  25.619  28.018  1.00  0.00    -0.014 A 
BRANCH  40  41
ATOM     41  C   UNL A   1      42.106  26.910  28.686  1.00  0.00     0.031 A 
ATOM     42  C   UNL A   1      43.239  27.837  28.416  1.00  0.00     0.074 A 
ATOM     43  C   UNL A   1      40.953  27.317  29.264  1.00  0.00     0.049 A 
ATOM     44  N   UNL A   1      44.156  28.227  29.236  1.00  0.00    -0.248 NA
ATOM     45  C   UNL A   1      43.482  28.256  27.024  1.00  0.00     0.031 C 
ATOM     46  C   UNL A   1      39.655  26.626  29.296  1.00  0.00     0.029 A 
ATOM     47  N   UNL A   1      40.660  28.505  29.849  1.00  0.00    -0.354 N 
ATOM     48  C   UNL A   1      44.938  29.142  28.533  1.00  0.00     0.074 A 
ATOM     49  C   UNL A   1      44.623  28.938  27.145  1.00  0.00     0.031 C 
ATOM     50  C   UNL A   1      38.680  27.500  29.632  1.00  0.00     0.029 A 
ATOM     51  C   UNL A   1      39.300  28.751  30.019  1.00  0.00     0.049 A 
ATOM     52  H   UNL A   1      41.354  29.144  30.132  1.00  0.00     0.167 HD
ATOM     53  C   UNL A   1      45.573  30.166  29.172  1.00  0.00     0.037 A 
ATOM     54  C   UNL A   1      38.730  29.916  30.421  1.00  0.00     0.037 A 
ATOM     55  C   UNL A   1      45.572  29.949  30.600  1.00  0.00     0.049 A 
ATOM     56  C   UNL A   1      39.798  30.693  31.109  1.00  0.00     0.074 A 
ATOM     57  C   UNL A   1      46.054  28.960  31.435  1.00  0.00     0.029 A 
ATOM     58  N   UNL A   1      44.650  30.651  31.342  1.00  0.00    -0.354 N 
ATOM     59  N   UNL A   1      40.373  30.303  32.216  1.00  0.00    -0.248 NA
ATOM     60  C   UNL A   1      40.567  31.631  30.305  1.00  0.00     0.031 C 
ATOM     61  C   UNL A   1      45.054  28.811  32.440  1.00  0.00     0.029 A 
ATOM     62  C   UNL A   1      44.065  29.772  32.215  1.00  0.00     0.049 A 
ATOM     63  H   UNL A   1      44.448  31.611  31.261  1.00  0.00     0.167 HD
ATOM     64  C   UNL A   1      41.719  30.599  32.044  1.00  0.00     0.074 A 
ATOM     65  C   UNL A   1      41.765  31.483  30.880  1.00  0.00     0.031 C 
ATOM     66  C   UNL A   1      42.693  29.872  32.669  1.00  0.00     0.037 A 
BRANCH  53  67
ATOM     67  C   UNL A   1      45.837  31.541  28.589  1.00  0.00     0.058 A 
ATOM     68  C   UNL A   1      44.760  32.246  28.005  1.00  0.00     0.135 A 
ATOM     69  C   UNL A   1      47.118  32.061  28.310  1.00  0.00     0.135 A 
ATOM     70  F   UNL A   1      43.492  31.861  28.218  1.00  0.00    -0.206 F 
ATOM     71  C   UNL A   1      44.950  33.306  27.118  1.00  0.00     0.059 A 
ATOM     72  C   UNL A   1      47.327  33.151  27.470  1.00  0.00     0.059 A 
ATOM     73  F   UNL A   1      48.243  31.490  28.752  1.00  0.00    -0.206 F 
ATOM     74  C   UNL A   1      46.242  33.734  26.839  1.00  0.00     0.060 A 
BRANCH  74  75
ATOM     75  S   UNL A   1      46.500  35.013  25.599  1.00  0.00     0.124 S 
ATOM     76  O   UNL A   1      46.320  36.225  26.391  1.00  0.00    -0.237 OA
ATOM     77  O   UNL A   1      47.860  34.733  25.155  1.00  0.00    -0.237 OA
ATOM     78  O   UNL A   1      45.456  34.740  24.615  1.00  0.00    -0.744 OA
ENDBRANCH  74  75
ENDBRANCH  53  67
BRANCH  54  79
ATOM     79  C   UNL A   1      37.467  30.524  29.915  1.00  0.00     0.058 A 
ATOM     80  C   UNL A   1      36.514  31.078  30.788  1.00  0.00     0.135 A 
ATOM     81  C   UNL A   1      37.292  30.815  28.545  1.00  0.00     0.135 A 
ATOM     82  F   UNL A   1      36.614  30.876  32.110  1.00  0.00    -0.206 F 
ATOM     83  C   UNL A   1      35.472  31.901  30.335  1.00  0.00     0.059 A 
ATOM     84  C   UNL A   1      36.260  31.625  28.071  1.00  0.00     0.059 A 
ATOM     85  F   UNL A   1      38.176  30.390  27.630  1.00  0.00    -0.206 F 
ATOM     86  C   UNL A   1      35.364  32.183  28.974  1.00  0.00     0.060 A 
BRANCH  86  87
ATOM     87  S   UNL A   1      34.116  33.363  28.398  1.00  0.00     0.124 S 
ATOM     88  O   UNL A   1      33.687  33.982  29.647  1.00  0.00    -0.237 OA
ATOM     89  O   UNL A   1      34.887  34.212  27.496  1.00  0.00    -0.237 OA
ATOM     90  O   UNL A   1      33.120  32.513  27.749  1.00  0.00    -0.744 OA
ENDBRANCH  86  87
ENDBRANCH  54  79
BRANCH  66  91
ATOM     91  C   UNL A   1      42.302  28.930  33.779  1.00  0.00     0.058 A 
ATOM     92  C   UNL A   1      41.942  27.582  33.594  1.00  0.00     0.135 A 
ATOM     93  C   UNL A   1      42.519  29.357  35.097  1.00  0.00     0.135 A 
ATOM     94  F   UNL A   1      41.804  27.068  32.366  1.00  0.00    -0.206 F 
ATOM     95  C   UNL A   1      41.796  26.705  34.672  1.00  0.00     0.059 A 
ATOM     96  C   UNL A   1      42.406  28.495  36.183  1.00  0.00     0.059 A 
ATOM     97  F   UNL A   1      42.922  30.617  35.336  1.00  0.00    -0.206 F 
ATOM     98  C   UNL A   1      42.042  27.169  35.965  1.00  0.00     0.060 A 
BRANCH  98  99
ATOM     99  S   UNL A   1      41.968  26.011  37.349  1.00  0.00     0.124 S 
ATOM    100  O   UNL A   1      40.583  26.147  37.789  1.00  0.00    -0.237 OA
ATOM    101  O   UNL A   1      42.312  24.740  36.718  1.00  0.00    -0.237 OA
ATOM    102  O   UNL A   1      42.971  26.526  38.278  1.00  0.00    -0.744 OA
ENDBRANCH  98  99
ENDBRANCH  66  91
ENDBRANCH  40  41
ENDBRANCH  32  35
ENDBRANCH  30  31
ENDBRANCH  29  30
ENDBRANCH  28  29
ENDBRANCH   1  28
TORSDOF 19
ENDMDL
MODEL 2
REMARK VINA RESULT:     -12.2      1.615      2.148
REMARK SMILES C/C(=N\NC(N)=S)c1nnn(-c2ccc(C(=O)NCCCCNC(=O)c3ccc(-c4c5nc(c(-c6c(F)cc(S(=O)(=O)[O-])cc6F)c6ccc([nH]6)c(-c6c(F)cc(S(=O)(=O)[O-])cc6F)c6nc(c(-c7c(F)cc(S(=O)(=O)[O-])cc7F)c7ccc4[nH]7)C=C6)C=C5)cc3)cc2)c1C
REMARK SMILES IDX 19 1 18 2 16 3 17 4 15 6 12 7 13 8 93 9 14 10 92 11 11 12
REMARK SMILES IDX 8 13 9 14 94 15 10 16 95 17 2 18 1 19 3 20 4 21 5 23 7 24
REMARK SMILES IDX 6 25 20 28 21 29 22 30 23 31 24 32 25 34 26 35 27 36 91 37
REMARK SMILES IDX 28 38 90 39 29 40 30 41 31 42 84 43 32 44 89 45 83 46 85 47
REMARK SMILES IDX 33 48 88 49 82 50 81 51 34 53 68 54 47 55 67 56 48 57 51 58
REMARK SMILES IDX 66 59 86 60 49 61 50 62 65 64 87 65 52 66 35 67 36 68 45 69
REMARK SMILES IDX 37 70 38 71 44 72 46 73 39 74 40 75 41 76 42 77 43 78 69 79
REMARK SMILES IDX 70 80 79 81 71 82 72 83 78 84 80 85 73 86 74 87 75 88 76 89
REMARK SMILES IDX 77 90 53 91 54 92 63 93 55 94 56 95 62 96 64 97 57 98 58 99
REMARK SMILES IDX 59 100 60 101 61 102
REMARK H PARENT 18 5 4 22 6 26 6 27 23 33 85 52 51 63
REMARK Flexibility Score: inf
ROOT
ATOM      1  C   UNL A   1      38.575  21.987  25.949  1.00  0.00     0.116 C 
ENDROOT
BRANCH   1   2
ATOM      2  N   UNL A   1      37.964  20.775  25.430  1.00  0.00    -0.352 N 
ATOM      3  C   UNL A   1      36.661  20.413  25.180  1.00  0.00     0.251 C 
ATOM      4  O   UNL A   1      36.460  19.289  24.718  1.00  0.00    -0.269 OA
ATOM      5  H   UNL A   1      38.615  20.070  25.213  1.00  0.00     0.163 HD
BRANCH   3   6
ATOM      6  C   UNL A   1      35.492  21.318  25.391  1.00  0.00     0.039 A 
ATOM      7  C   UNL A   1      33.431  23.196  25.589  1.00  0.00     0.067 A 
ATOM      8  C   UNL A   1      33.653  22.563  24.367  1.00  0.00     0.029 A 
ATOM      9  C   UNL A   1      34.142  22.825  26.728  1.00  0.00     0.029 A 
ATOM     10  C   UNL A   1      34.706  21.646  24.269  1.00  0.00     0.016 A 
ATOM     11  C   UNL A   1      35.135  21.855  26.629  1.00  0.00     0.016 A 
BRANCH   7  12
ATOM     12  N   UNL A   1      32.563  24.296  25.669  1.00  0.00    -0.217 N 
ATOM     13  C   UNL A   1      31.690  26.284  25.650  1.00  0.00     0.132 A 
ATOM     14  N   UNL A   1      30.689  25.363  25.829  1.00  0.00    -0.128 NA
ATOM     15  C   UNL A   1      32.902  25.630  25.537  1.00  0.00     0.071 A 
ATOM     16  N   UNL A   1      31.226  24.151  25.771  1.00  0.00    -0.061 NA
ATOM     17  C   UNL A   1      34.245  26.124  25.151  1.00  0.00     0.069 C 
BRANCH  13  18
ATOM     18  C   UNL A   1      31.409  27.674  25.348  1.00  0.00     0.087 C 
ATOM     19  C   UNL A   1      31.391  28.591  26.540  1.00  0.00     0.071 C 
ATOM     20  N   UNL A   1      31.255  27.964  24.089  1.00  0.00    -0.176 NA
BRANCH  20  21
ATOM     21  N   UNL A   1      31.078  29.242  23.642  1.00  0.00    -0.254 N 
ATOM     22  H   UNL A   1      31.711  29.902  24.005  1.00  0.00     0.193 HD
BRANCH  21  23
ATOM     23  C   UNL A   1      30.147  29.748  22.758  1.00  0.00     0.184 C 
ATOM     24  S   UNL A   1      28.517  30.009  22.951  1.00  0.00    -0.040 S 
BRANCH  23  25
ATOM     25  N   UNL A   1      30.708  30.061  21.548  1.00  0.00    -0.375 N 
ATOM     26  H   UNL A   1      31.219  29.380  21.053  1.00  0.00     0.159 HD
ATOM     27  H   UNL A   1      30.601  30.965  21.174  1.00  0.00     0.159 HD
ENDBRANCH  23  25
ENDBRANCH  21  23
ENDBRANCH  20  21
ENDBRANCH  13  18
ENDBRANCH   7  12
ENDBRANCH   3   6
ENDBRANCH   1   2
BRANCH   1  28
ATOM     28  C   UNL A   1      40.020  21.738  26.408  1.00  0.00     0.023 C 
BRANCH  28  29
ATOM     29  C   UNL A   1      40.552  20.316  26.177  1.00  0.00     0.023 C 
BRANCH  29  30
ATOM     30  C   UNL A   1      41.827  19.980  26.939  1.00  0.00     0.116 C 
BRANCH  30  31
ATOM     31  N   UNL A   1      42.964  19.694  26.059  1.00  0.00    -0.352 N 
ATOM     32  C   UNL A   1      43.696  20.587  25.289  1.00  0.00     0.251 C 
ATOM     33  H   UNL A   1      43.243  18.751  26.007  1.00  0.00     0.163 HD
ATOM     34  O   UNL A   1      44.330  20.212  24.320  1.00  0.00    -0.269 OA
BRANCH  32  35
ATOM     35  C   UNL A   1      43.703  22.003  25.698  1.00  0.00     0.039 A 
ATOM     36  C   UNL A   1      43.016  22.994  24.990  1.00  0.00     0.014 A 
ATOM     37  C   UNL A   1      44.386  22.303  26.870  1.00  0.00     0.014 A 
ATOM     38  C   UNL A   1      42.957  24.279  25.529  1.00  0.00     0.010 A 
ATOM     39  C   UNL A   1      44.160  23.499  27.490  1.00  0.00     0.010 A 
ATOM     40  C   UNL A   1      43.522  24.516  26.791  1.00  0.00    -0.014 A 
BRANCH  40  41
ATOM     41  C   UNL A   1      43.397  25.800  27.469  1.00  0.00     0.031 A 
ATOM     42  C   UNL A   1      44.416  26.811  27.075  1.00  0.00     0.074 A 
ATOM     43  C   UNL A   1      42.287  26.119  28.173  1.00  0.00     0.049 A 
ATOM     44  N   UNL A   1      45.385  27.278  27.788  1.00  0.00    -0.248 NA
ATOM     45  C   UNL A   1      44.468  27.238  25.665  1.00  0.00     0.031 C 
ATOM     46  C   UNL A   1      41.059  25.329  28.349  1.00  0.00     0.029 A 
ATOM     47  N   UNL A   1      41.969  27.285  28.789  1.00  0.00    -0.354 N 
ATOM     48  C   UNL A   1      46.009  28.246  27.003  1.00  0.00     0.074 A 
ATOM     49  C   UNL A   1      45.559  28.008  25.659  1.00  0.00     0.031 C 
ATOM     50  C   UNL A   1      40.062  26.127  28.794  1.00  0.00     0.029 A 
ATOM     51  C   UNL A   1      40.622  27.425  29.111  1.00  0.00     0.049 A 
ATOM     52  H   UNL A   1      42.638  27.978  28.994  1.00  0.00     0.167 HD
ATOM     53  C   UNL A   1      46.629  29.321  27.569  1.00  0.00     0.037 A 
ATOM     54  C   UNL A   1      40.010  28.544  29.576  1.00  0.00     0.037 A 
ATOM     55  C   UNL A   1      46.805  29.114  28.988  1.00  0.00     0.049 A 
ATOM     56  C   UNL A   1      41.083  29.407  30.142  1.00  0.00     0.074 A 
ATOM     57  C   UNL A   1      47.454  28.172  29.761  1.00  0.00     0.029 A 
ATOM     58  N   UNL A   1      45.920  29.747  29.830  1.00  0.00    -0.354 N 
ATOM     59  N   UNL A   1      41.808  29.071  31.177  1.00  0.00    -0.248 NA
ATOM     60  C   UNL A   1      41.682  30.397  29.259  1.00  0.00     0.031 C 
ATOM     61  C   UNL A   1      46.588  27.953  30.872  1.00  0.00     0.029 A 
ATOM     62  C   UNL A   1      45.506  28.831  30.761  1.00  0.00     0.049 A 
ATOM     63  H   UNL A   1      45.635  30.688  29.773  1.00  0.00     0.167 HD
ATOM     64  C   UNL A   1      43.099  29.471  30.855  1.00  0.00     0.074 A 
ATOM     65  C   UNL A   1      42.944  30.348  29.695  1.00  0.00     0.031 C 
ATOM     66  C   UNL A   1      44.191  28.827  31.366  1.00  0.00     0.037 A 
BRANCH  53  67
ATOM     67  C   UNL A   1      46.717  30.708  26.963  1.00  0.00     0.058 A 
ATOM     68  C   UNL A   1      47.965  31.373  26.975  1.00  0.00     0.135 A 
ATOM     69  C   UNL A   1      45.606  31.520  26.652  1.00  0.00     0.135 A 
ATOM     70  F   UNL A   1      49.098  30.702  27.233  1.00  0.00    -0.206 F 
ATOM     71  C   UNL A   1      48.081  32.754  26.811  1.00  0.00     0.059 A 
ATOM     72  C   UNL A   1      45.707  32.890  26.433  1.00  0.00     0.059 A 
ATOM     73  F   UNL A   1      44.352  31.055  26.638  1.00  0.00    -0.206 F 
ATOM     74  C   UNL A   1      46.939  33.507  26.565  1.00  0.00     0.060 A 
BRANCH  74  75
ATOM     75  S   UNL A   1      47.064  35.300  26.483  1.00  0.00     0.124 S 
ATOM     76  O   UNL A   1      45.659  35.685  26.401  1.00  0.00    -0.237 OA
ATOM     77  O   UNL A   1      47.742  35.613  27.735  1.00  0.00    -0.237 OA
ATOM     78  O   UNL A   1      47.853  35.526  25.275  1.00  0.00    -0.744 OA
ENDBRANCH  74  75
ENDBRANCH  53  67
BRANCH  54  79
ATOM     79  C   UNL A   1      38.655  29.048  29.217  1.00  0.00     0.058 A 
ATOM     80  C   UNL A   1      37.656  29.237  30.189  1.00  0.00     0.135 A 
ATOM     81  C   UNL A   1      38.395  29.609  27.948  1.00  0.00     0.135 A 
ATOM     82  F   UNL A   1      37.826  28.761  31.431  1.00  0.00    -0.206 F 
ATOM     83  C   UNL A   1      36.488  29.970  29.929  1.00  0.00     0.059 A 
ATOM     84  C   UNL A   1      37.238  30.335  27.665  1.00  0.00     0.059 A 
ATOM     85  F   UNL A   1      39.305  29.542  26.964  1.00  0.00    -0.206 F 
ATOM     86  C   UNL A   1      36.296  30.531  28.667  1.00  0.00     0.060 A 
BRANCH  86  87
ATOM     87  S   UNL A   1      34.868  31.603  28.369  1.00  0.00     0.124 S 
ATOM     88  O   UNL A   1      34.541  32.053  29.717  1.00  0.00    -0.237 OA
ATOM     89  O   UNL A   1      35.420  32.613  27.474  1.00  0.00    -0.237 OA
ATOM     90  O   UNL A   1      33.891  30.703  27.759  1.00  0.00    -0.744 OA
ENDBRANCH  86  87
ENDBRANCH  54  79
BRANCH  66  91
ATOM     91  C   UNL A   1      44.002  27.865  32.512  1.00  0.00     0.058 A 
ATOM     92  C   UNL A   1      43.901  26.468  32.373  1.00  0.00     0.135 A 
ATOM     93  C   UNL A   1      44.154  28.368  33.811  1.00  0.00     0.135 A 
ATOM     94  F   UNL A   1      43.844  25.897  31.164  1.00  0.00    -0.206 F 
ATOM     95  C   UNL A   1      43.939  25.615  33.480  1.00  0.00     0.059 A 
ATOM     96  C   UNL A   1      44.223  27.537  34.924  1.00  0.00     0.059 A 
ATOM     97  F   UNL A   1      44.315  29.689  34.005  1.00  0.00    -0.206 F 
ATOM     98  C   UNL A   1      44.112  26.159  34.753  1.00  0.00     0.060 A 
BRANCH  98  99
ATOM     99  S   UNL A   1      44.280  25.054  36.171  1.00  0.00     0.124 S 
ATOM    100  O   UNL A   1      43.066  24.248  36.078  1.00  0.00    -0.237 OA
ATOM    101  O   UNL A   1      45.529  24.355  35.884  1.00  0.00    -0.237 OA
ATOM    102  O   UNL A   1      44.336  25.967  37.311  1.00  0.00    -0.744 OA
ENDBRANCH  98  99
ENDBRANCH  66  91
ENDBRANCH  40  41
ENDBRANCH  32  35
ENDBRANCH  30  31
ENDBRANCH  29  30
ENDBRANCH  28  29
ENDBRANCH   1  28
TORSDOF 19
ENDMDL
MODEL 3
REMARK VINA RESULT:     -11.9      3.139      9.667
REMARK SMILES C/C(=N\NC(N)=S)c1nnn(-c2ccc(C(=O)NCCCCNC(=O)c3ccc(-c4c5nc(c(-c6c(F)cc(S(=O)(=O)[O-])cc6F)c6ccc([nH]6)c(-c6c(F)cc(S(=O)(=O)[O-])cc6F)c6nc(c(-c7c(F)cc(S(=O)(=O)[O-])cc7F)c7ccc4[nH]7)C=C6)C=C5)cc3)cc2)c1C
REMARK SMILES IDX 19 1 18 2 16 3 17 4 15 6 12 7 13 8 93 9 14 10 92 11 11 12
REMARK SMILES IDX 8 13 9 14 94 15 10 16 95 17 2 18 1 19 3 20 4 21 5 23 7 24
REMARK SMILES IDX 6 25 20 28 21 29 22 30 23 31 24 32 25 34 26 35 27 36 91 37
REMARK SMILES IDX 28 38 90 39 29 40 30 41 31 42 84 43 32 44 89 45 83 46 85 47
REMARK SMILES IDX 33 48 88 49 82 50 81 51 34 53 68 54 47 55 67 56 48 57 51 58
REMARK SMILES IDX 66 59 86 60 49 61 50 62 65 64 87 65 52 66 35 67 36 68 45 69
REMARK SMILES IDX 37 70 38 71 44 72 46 73 39 74 40 75 41 76 42 77 43 78 69 79
REMARK SMILES IDX 70 80 79 81 71 82 72 83 78 84 80 85 73 86 74 87 75 88 76 89
REMARK SMILES IDX 77 90 53 91 54 92 63 93 55 94 56 95 62 96 64 97 57 98 58 99
REMARK SMILES IDX 59 100 60 101 61 102
REMARK H PARENT 18 5 4 22 6 26 6 27 23 33 85 52 51 63
REMARK Flexibility Score: inf
ROOT
ATOM      1  C   UNL A   1      31.401  29.855  25.140  1.00  0.00     0.116 C 
ENDROOT
BRANCH   1   2
ATOM      2  N   UNL A   1      30.763  29.700  23.844  1.00  0.00    -0.352 N 
ATOM      3  C   UNL A   1      30.520  28.610  23.041  1.00  0.00     0.251 C 
ATOM      4  O   UNL A   1      29.933  28.807  21.976  1.00  0.00    -0.269 OA
ATOM      5  H   UNL A   1      30.438  30.548  23.464  1.00  0.00     0.163 HD
BRANCH   3   6
ATOM      6  C   UNL A   1      30.883  27.210  23.410  1.00  0.00     0.039 A 
ATOM      7  C   UNL A   1      31.541  24.673  24.383  1.00  0.00     0.067 A 
ATOM      8  C   UNL A   1      30.280  25.199  24.664  1.00  0.00     0.029 A 
ATOM      9  C   UNL A   1      32.424  25.341  23.538  1.00  0.00     0.029 A 
ATOM     10  C   UNL A   1      29.970  26.482  24.198  1.00  0.00     0.016 A 
ATOM     11  C   UNL A   1      32.068  26.583  23.020  1.00  0.00     0.016 A 
BRANCH   7  12
ATOM     12  N   UNL A   1      31.986  23.514  25.037  1.00  0.00    -0.217 N 
ATOM     13  C   UNL A   1      32.666  21.510  25.521  1.00  0.00     0.132 A 
ATOM     14  N   UNL A   1      32.745  22.288  26.648  1.00  0.00    -0.128 NA
ATOM     15  C   UNL A   1      32.190  22.269  24.470  1.00  0.00     0.071 A 
ATOM     16  N   UNL A   1      32.391  23.524  26.323  1.00  0.00    -0.061 NA
ATOM     17  C   UNL A   1      32.096  21.978  23.019  1.00  0.00     0.069 C 
BRANCH  13  18
ATOM     18  C   UNL A   1      33.275  20.195  25.452  1.00  0.00     0.087 C 
ATOM     19  C   UNL A   1      34.711  20.185  25.002  1.00  0.00     0.071 C 
ATOM     20  N   UNL A   1      32.528  19.200  25.830  1.00  0.00    -0.176 NA
BRANCH  20  21
ATOM     21  N   UNL A   1      32.991  17.918  25.910  1.00  0.00    -0.254 N 
ATOM     22  H   UNL A   1      33.410  17.678  26.768  1.00  0.00     0.193 HD
BRANCH  21  23
ATOM     23  C   UNL A   1      32.960  16.907  24.971  1.00  0.00     0.184 C 
ATOM     24  S   UNL A   1      33.724  16.785  23.501  1.00  0.00    -0.040 S 
BRANCH  23  25
ATOM     25  N   UNL A   1      32.153  15.870  25.363  1.00  0.00    -0.375 N 
ATOM     26  H   UNL A   1      32.283  14.974  24.977  1.00  0.00     0.159 HD
ATOM     27  H   UNL A   1      31.444  16.023  26.029  1.00  0.00     0.159 HD
ENDBRANCH  23  25
ENDBRANCH  21  23
ENDBRANCH  20  21
ENDBRANCH  13  18
ENDBRANCH   7  12
ENDBRANCH   3   6
ENDBRANCH   1   2
BRANCH   1  28
ATOM     28  C   UNL A   1      32.903  29.539  25.070  1.00  0.00     0.023 C 
BRANCH  28  29
ATOM     29  C   UNL A   1      33.385  28.407  25.989  1.00  0.00     0.023 C 
BRANCH  29  30
ATOM     30  C   UNL A   1      34.285  28.853  27.133  1.00  0.00     0.116 C 
BRANCH  30  31
ATOM     31  N   UNL A   1      34.043  30.238  27.548  1.00  0.00    -0.352 N 
ATOM     32  C   UNL A   1      34.843  31.044  28.348  1.00  0.00     0.251 C 
ATOM     33  H   UNL A   1      33.211  30.648  27.219  1.00  0.00     0.163 HD
ATOM     34  O   UNL A   1      34.379  31.998  28.945  1.00  0.00    -0.269 OA
BRANCH  32  35
ATOM     35  C   UNL A   1      36.279  30.722  28.430  1.00  0.00     0.039 A 
ATOM     36  C   UNL A   1      37.224  31.622  28.932  1.00  0.00     0.014 A 
ATOM     37  C   UNL A   1      36.648  29.443  28.032  1.00  0.00     0.014 A 
ATOM     38  C   UNL A   1      38.536  31.182  29.108  1.00  0.00     0.010 A 
ATOM     39  C   UNL A   1      37.874  28.958  28.390  1.00  0.00     0.010 A 
ATOM     40  C   UNL A   1      38.845  29.839  28.847  1.00  0.00    -0.014 A 
BRANCH  40  41
ATOM     41  C   UNL A   1      40.163  29.280  29.119  1.00  0.00     0.031 A 
ATOM     42  C   UNL A   1      40.476  29.102  30.564  1.00  0.00     0.074 A 
ATOM     43  C   UNL A   1      40.906  28.718  28.138  1.00  0.00     0.049 A 
ATOM     44  N   UNL A   1      41.335  29.753  31.274  1.00  0.00    -0.248 NA
ATOM     45  C   UNL A   1      39.618  28.206  31.359  1.00  0.00     0.031 C 
ATOM     46  C   UNL A   1      40.553  28.525  26.723  1.00  0.00     0.029 A 
ATOM     47  N   UNL A   1      42.101  28.083  28.225  1.00  0.00    -0.354 N 
ATOM     48  C   UNL A   1      41.307  29.170  32.540  1.00  0.00     0.074 A 
ATOM     49  C   UNL A   1      40.091  28.405  32.591  1.00  0.00     0.031 C 
ATOM     50  C   UNL A   1      41.382  27.614  26.166  1.00  0.00     0.029 A 
ATOM     51  C   UNL A   1      42.428  27.304  27.118  1.00  0.00     0.049 A 
ATOM     52  H   UNL A   1      42.692  28.166  29.008  1.00  0.00     0.167 HD
ATOM     53  C   UNL A   1      42.417  29.155  33.334  1.00  0.00     0.037 A 
ATOM     54  C   UNL A   1      43.473  26.444  27.011  1.00  0.00     0.037 A 
ATOM     55  C   UNL A   1      43.418  30.060  32.821  1.00  0.00     0.049 A 
ATOM     56  C   UNL A   1      44.457  26.843  28.055  1.00  0.00     0.074 A 
ATOM     57  C   UNL A   1      43.465  31.416  32.566  1.00  0.00     0.029 A 
ATOM     58  N   UNL A   1      44.463  29.509  32.116  1.00  0.00    -0.354 N 
ATOM     59  N   UNL A   1      45.081  27.992  28.054  1.00  0.00    -0.248 NA
ATOM     60  C   UNL A   1      44.365  26.185  29.349  1.00  0.00     0.031 C 
ATOM     61  C   UNL A   1      44.204  31.534  31.353  1.00  0.00     0.029 A 
ATOM     62  C   UNL A   1      44.640  30.258  30.984  1.00  0.00     0.049 A 
ATOM     63  H   UNL A   1      44.987  28.718  32.378  1.00  0.00     0.167 HD
ATOM     64  C   UNL A   1      45.082  28.399  29.383  1.00  0.00     0.074 A 
ATOM     65  C   UNL A   1      44.693  27.211  30.142  1.00  0.00     0.031 C 
ATOM     66  C   UNL A   1      45.106  29.723  29.721  1.00  0.00     0.037 A 
BRANCH  53  67
ATOM     67  C   UNL A   1      42.780  28.061  34.319  1.00  0.00     0.058 A 
ATOM     68  C   UNL A   1      42.945  28.404  35.681  1.00  0.00     0.135 A 
ATOM     69  C   UNL A   1      43.261  26.784  33.959  1.00  0.00     0.135 A 
ATOM     70  F   UNL A   1      42.506  29.583  36.148  1.00  0.00    -0.206 F 
ATOM     71  C   UNL A   1      43.638  27.594  36.580  1.00  0.00     0.059 A 
ATOM     72  C   UNL A   1      43.908  25.938  34.853  1.00  0.00     0.059 A 
ATOM     73  F   UNL A   1      43.218  26.323  32.704  1.00  0.00    -0.206 F 
ATOM     74  C   UNL A   1      44.138  26.372  36.148  1.00  0.00     0.060 A 
BRANCH  74  75
ATOM     75  S   UNL A   1      45.144  25.383  37.266  1.00  0.00     0.124 S 
ATOM     76  O   UNL A   1      45.175  24.102  36.570  1.00  0.00    -0.237 OA
ATOM     77  O   UNL A   1      46.395  26.132  37.287  1.00  0.00    -0.237 OA
ATOM     78  O   UNL A   1      44.383  25.408  38.511  1.00  0.00    -0.744 OA
ENDBRANCH  74  75
ENDBRANCH  53  67
BRANCH  54  79
ATOM     79  C   UNL A   1      43.481  25.113  26.340  1.00  0.00     0.058 A 
ATOM     80  C   UNL A   1      44.332  24.840  25.254  1.00  0.00     0.135 A 
ATOM     81  C   UNL A   1      42.845  23.996  26.922  1.00  0.00     0.135 A 
ATOM     82  F   UNL A   1      45.000  25.836  24.654  1.00  0.00    -0.206 F 
ATOM     83  C   UNL A   1      44.567  23.534  24.797  1.00  0.00     0.059 A 
ATOM     84  C   UNL A   1      43.057  22.690  26.480  1.00  0.00     0.059 A 
ATOM     85  F   UNL A   1      42.059  24.133  28.001  1.00  0.00    -0.206 F 
ATOM     86  C   UNL A   1      43.937  22.463  25.429  1.00  0.00     0.060 A 
BRANCH  86  87
ATOM     87  S   UNL A   1      44.349  20.767  24.945  1.00  0.00     0.124 S 
ATOM     88  O   UNL A   1      45.568  20.523  25.709  1.00  0.00    -0.237 OA
ATOM     89  O   UNL A   1      43.168  20.027  25.375  1.00  0.00    -0.237 OA
ATOM     90  O   UNL A   1      44.529  20.862  23.498  1.00  0.00    -0.744 OA
ENDBRANCH  86  87
ENDBRANCH  54  79
BRANCH  66  91
ATOM     91  C   UNL A   1      45.427  30.742  28.658  1.00  0.00     0.058 A 
ATOM     92  C   UNL A   1      44.474  31.350  27.819  1.00  0.00     0.135 A 
ATOM     93  C   UNL A   1      46.722  31.281  28.648  1.00  0.00     0.135 A 
ATOM     94  F   UNL A   1      43.194  30.958  27.832  1.00  0.00    -0.206 F 
ATOM     95  C   UNL A   1      44.800  32.436  27.002  1.00  0.00     0.059 A 
ATOM     96  C   UNL A   1      47.061  32.379  27.865  1.00  0.00     0.059 A 
ATOM     97  F   UNL A   1      47.661  30.783  29.471  1.00  0.00    -0.206 F 
ATOM     98  C   UNL A   1      46.096  32.952  27.041  1.00  0.00     0.060 A 
BRANCH  98  99
ATOM     99  S   UNL A   1      46.489  34.427  26.076  1.00  0.00     0.124 S 
ATOM    100  O   UNL A   1      46.286  35.494  27.050  1.00  0.00    -0.237 OA
ATOM    101  O   UNL A   1      47.874  34.187  25.679  1.00  0.00    -0.237 OA
ATOM    102  O   UNL A   1      45.522  34.388  24.982  1.00  0.00    -0.744 OA
ENDBRANCH  98  99
ENDBRANCH  66  91
ENDBRANCH  40  41
ENDBRANCH  32  35
ENDBRANCH  30  31
ENDBRANCH  29  30
ENDBRANCH  28  29
ENDBRANCH   1  28
TORSDOF 19
ENDMDL
