MODEL 1
REMARK VINA RESULT:     -10.5      0.000      0.000
REMARK SMILES C[C@@H](Sc1nncn1C)[C@@H](C)C(=O)NCCCCNC(=O)c1ccc(-c2c3nc(c(-c4c(F)cc(S(=O)(=O)[O-])cc4F)c4ccc([nH]4)c(-c4c(F)cc(S(=O)(=O)[O-])cc4F)c4nc(c(-c5c(F)cc(S(=O)(=O)[O-])cc5F)c5ccc2[nH]5)C=C4)C=C3)cc1
REMARK SMILES IDX 16 1 15 2 14 3 12 4 13 5 10 7 11 8 2 9 1 10 3 11 4 12 5 13
REMARK SMILES IDX 8 14 6 15 7 16 9 17 17 18 18 19 19 20 20 21 21 23 22 24
REMARK SMILES IDX 23 25 87 26 24 27 86 28 25 29 26 30 27 31 80 32 28 33 85 34
REMARK SMILES IDX 79 35 81 36 29 37 84 38 78 39 77 40 30 42 64 43 43 44 63 45
REMARK SMILES IDX 44 46 47 47 62 48 82 49 45 50 46 51 61 53 83 54 48 55 31 56
REMARK SMILES IDX 32 57 41 58 33 59 34 60 40 61 42 62 35 63 36 64 37 65 38 66
REMARK SMILES IDX 39 67 65 68 66 69 75 70 67 71 68 72 74 73 76 74 69 75 70 76
REMARK SMILES IDX 71 77 72 78 73 79 49 80 50 81 59 82 51 83 52 84 58 85 60 86
REMARK SMILES IDX 53 87 54 88 55 89 56 90 57 91
REMARK H PARENT 14 6 19 22 81 41 47 52
REMARK Flexibility Score: inf
ROOT
ATOM      1  C   UNL A   1      32.484  28.937  24.923  1.00  0.00     0.023 C 
ENDROOT
BRANCH   1   2
ATOM      2  C   UNL A   1      31.753  27.792  24.227  1.00  0.00     0.116 C 
BRANCH   2   3
ATOM      3  N   UNL A   1      32.567  27.191  23.194  1.00  0.00    -0.356 N 
ATOM      4  C   UNL A   1      33.274  26.031  23.161  1.00  0.00     0.223 C 
ATOM      5  O   UNL A   1      33.883  25.777  22.116  1.00  0.00    -0.275 OA
ATOM      6  H   UNL A   1      32.618  27.717  22.363  1.00  0.00     0.163 HD
BRANCH   4   7
ATOM      7  C   UNL A   1      33.283  25.028  24.315  1.00  0.00     0.088 C 
ATOM      8  C   UNL A   1      34.730  24.787  24.765  1.00  0.00     0.019 C 
BRANCH   7   9
ATOM      9  C   UNL A   1      32.449  23.740  24.084  1.00  0.00     0.064 C 
ATOM     10  C   UNL A   1      31.212  24.023  23.225  1.00  0.00     0.021 C 
BRANCH   9  11
ATOM     11  S   UNL A   1      33.523  22.456  23.311  1.00  0.00    -0.082 SA
BRANCH  11  12
ATOM     12  C   UNL A   1      33.094  21.015  24.158  1.00  0.00     0.191 A 
ATOM     13  N   UNL A   1      32.306  20.069  23.700  1.00  0.00    -0.124 NA
ATOM     14  N   UNL A   1      33.579  20.652  25.380  1.00  0.00    -0.312 N 
ATOM     15  N   UNL A   1      32.254  19.070  24.646  1.00  0.00    -0.138 NA
ATOM     16  C   UNL A   1      33.030  19.430  25.642  1.00  0.00     0.226 A 
ATOM     17  C   UNL A   1      34.453  21.367  26.270  1.00  0.00     0.153 C 
ENDBRANCH  11  12
ENDBRANCH   9  11
ENDBRANCH   7   9
ENDBRANCH   4   7
ENDBRANCH   2   3
ENDBRANCH   1   2
BRANCH   1  18
ATOM     18  C   UNL A   1      33.633  28.516  25.836  1.00  0.00     0.023 C 
BRANCH  18  19
ATOM     19  C   UNL A   1      33.387  28.712  27.329  1.00  0.00     0.116 C 
BRANCH  19  20
ATOM     20  N   UNL A   1      33.435  30.108  27.738  1.00  0.00    -0.352 N 
ATOM     21  C   UNL A   1      34.484  30.814  28.285  1.00  0.00     0.251 C 
ATOM     22  H   UNL A   1      32.603  30.619  27.606  1.00  0.00     0.163 HD
ATOM     23  O   UNL A   1      34.314  31.966  28.674  1.00  0.00    -0.269 OA
BRANCH  21  24
ATOM     24  C   UNL A   1      35.796  30.155  28.437  1.00  0.00     0.039 A 
ATOM     25  C   UNL A   1      36.680  30.153  27.356  1.00  0.00     0.014 A 
ATOM     26  C   UNL A   1      36.174  29.604  29.664  1.00  0.00     0.014 A 
ATOM     27  C   UNL A   1      37.985  29.691  27.535  1.00  0.00     0.010 A 
ATOM     28  C   UNL A   1      37.491  29.205  29.859  1.00  0.00     0.010 A 
ATOM     29  C   UNL A   1      38.415  29.267  28.804  1.00  0.00    -0.014 A 
BRANCH  29  30
ATOM     30  C   UNL A   1      39.836  28.935  29.073  1.00  0.00     0.031 A 
ATOM     31  C   UNL A   1      40.769  29.984  29.603  1.00  0.00     0.074 A 
ATOM     32  C   UNL A   1      40.305  27.716  28.738  1.00  0.00     0.049 A 
ATOM     33  N   UNL A   1      42.064  29.928  29.767  1.00  0.00    -0.248 NA
ATOM     34  C   UNL A   1      40.168  31.275  29.971  1.00  0.00     0.031 C 
ATOM     35  C   UNL A   1      39.504  26.624  28.179  1.00  0.00     0.029 A 
ATOM     36  N   UNL A   1      41.573  27.196  28.800  1.00  0.00    -0.354 N 
ATOM     37  C   UNL A   1      42.438  31.178  30.242  1.00  0.00     0.074 A 
ATOM     38  C   UNL A   1      41.238  31.985  30.300  1.00  0.00     0.031 C 
ATOM     39  C   UNL A   1      40.297  25.562  27.965  1.00  0.00     0.029 A 
ATOM     40  C   UNL A   1      41.667  25.909  28.327  1.00  0.00     0.049 A 
ATOM     41  H   UNL A   1      42.344  27.699  29.150  1.00  0.00     0.167 HD
ATOM     42  C   UNL A   1      43.668  31.609  30.612  1.00  0.00     0.037 A 
ATOM     43  C   UNL A   1      42.737  25.105  28.183  1.00  0.00     0.037 A 
ATOM     44  C   UNL A   1      44.854  30.795  30.575  1.00  0.00     0.049 A 
ATOM     45  C   UNL A   1      44.097  25.614  28.570  1.00  0.00     0.074 A 
ATOM     46  C   UNL A   1      46.132  31.115  30.998  1.00  0.00     0.029 A 
ATOM     47  N   UNL A   1      44.908  29.499  30.081  1.00  0.00    -0.354 N 
ATOM     48  N   UNL A   1      44.426  26.783  29.065  1.00  0.00    -0.248 NA
ATOM     49  C   UNL A   1      45.232  24.703  28.364  1.00  0.00     0.031 C 
ATOM     50  C   UNL A   1      46.967  30.025  30.728  1.00  0.00     0.029 A 
ATOM     51  C   UNL A   1      46.203  29.015  30.163  1.00  0.00     0.049 A 
ATOM     52  H   UNL A   1      44.140  28.998  29.725  1.00  0.00     0.167 HD
ATOM     53  C   UNL A   1      45.804  26.746  29.242  1.00  0.00     0.074 A 
ATOM     54  C   UNL A   1      46.245  25.434  28.810  1.00  0.00     0.031 C 
ATOM     55  C   UNL A   1      46.626  27.710  29.720  1.00  0.00     0.037 A 
BRANCH  42  56
ATOM     56  C   UNL A   1      43.782  33.027  31.089  1.00  0.00     0.058 A 
ATOM     57  C   UNL A   1      44.072  34.077  30.203  1.00  0.00     0.135 A 
ATOM     58  C   UNL A   1      43.605  33.343  32.446  1.00  0.00     0.135 A 
ATOM     59  F   UNL A   1      44.266  33.824  28.898  1.00  0.00    -0.206 F 
ATOM     60  C   UNL A   1      44.222  35.384  30.649  1.00  0.00     0.059 A 
ATOM     61  C   UNL A   1      43.727  34.649  32.911  1.00  0.00     0.059 A 
ATOM     62  F   UNL A   1      43.327  32.377  33.334  1.00  0.00    -0.206 F 
ATOM     63  C   UNL A   1      44.057  35.659  32.008  1.00  0.00     0.060 A 
BRANCH  63  64
ATOM     64  S   UNL A   1      44.285  37.356  32.581  1.00  0.00     0.124 S 
ATOM     65  O   UNL A   1      43.267  37.447  33.624  1.00  0.00    -0.237 OA
ATOM     66  O   UNL A   1      45.669  37.349  33.047  1.00  0.00    -0.237 OA
ATOM     67  O   UNL A   1      44.033  38.153  31.385  1.00  0.00    -0.744 OA
ENDBRANCH  63  64
ENDBRANCH  42  56
BRANCH  43  68
ATOM     68  C   UNL A   1      42.558  23.728  27.655  1.00  0.00     0.058 A 
ATOM     69  C   UNL A   1      42.574  23.487  26.275  1.00  0.00     0.135 A 
ATOM     70  C   UNL A   1      42.411  22.628  28.513  1.00  0.00     0.135 A 
ATOM     71  F   UNL A   1      42.706  24.510  25.416  1.00  0.00    -0.206 F 
ATOM     72  C   UNL A   1      42.454  22.200  25.759  1.00  0.00     0.059 A 
ATOM     73  C   UNL A   1      42.306  21.330  28.023  1.00  0.00     0.059 A 
ATOM     74  F   UNL A   1      42.406  22.809  29.843  1.00  0.00    -0.206 F 
ATOM     75  C   UNL A   1      42.326  21.127  26.643  1.00  0.00     0.060 A 
BRANCH  75  76
ATOM     76  S   UNL A   1      42.255  19.453  25.970  1.00  0.00     0.124 S 
ATOM     77  O   UNL A   1      43.155  19.558  24.828  1.00  0.00    -0.237 OA
ATOM     78  O   UNL A   1      42.733  18.650  27.090  1.00  0.00    -0.237 OA
ATOM     79  O   UNL A   1      40.840  19.283  25.648  1.00  0.00    -0.744 OA
ENDBRANCH  75  76
ENDBRANCH  43  68
BRANCH  55  80
ATOM     80  C   UNL A   1      48.090  27.390  29.801  1.00  0.00     0.058 A 
ATOM     81  C   UNL A   1      48.961  27.688  28.742  1.00  0.00     0.135 A 
ATOM     82  C   UNL A   1      48.639  26.845  30.974  1.00  0.00     0.135 A 
ATOM     83  F   UNL A   1      48.481  28.198  27.597  1.00  0.00    -0.206 F 
ATOM     84  C   UNL A   1      50.328  27.454  28.841  1.00  0.00     0.059 A 
ATOM     85  C   UNL A   1      50.006  26.621  31.101  1.00  0.00     0.059 A 
ATOM     86  F   UNL A   1      47.847  26.548  32.015  1.00  0.00    -0.206 F 
ATOM     87  C   UNL A   1      50.842  26.925  30.027  1.00  0.00     0.060 A 
BRANCH  87  88
ATOM     88  S   UNL A   1      52.626  26.683  30.166  1.00  0.00     0.124 S 
ATOM     89  O   UNL A   1      52.703  25.642  31.186  1.00  0.00    -0.237 OA
ATOM     90  O   UNL A   1      52.995  26.276  28.814  1.00  0.00    -0.237 OA
ATOM     91  O   UNL A   1      53.114  27.998  30.573  1.00  0.00    -0.744 OA
ENDBRANCH  87  88
ENDBRANCH  55  80
ENDBRANCH  29  30
ENDBRANCH  21  24
ENDBRANCH  19  20
ENDBRANCH  18  19
ENDBRANCH   1  18
TORSDOF 17
ENDMDL
MODEL 2
REMARK VINA RESULT:     -10.4      1.266      1.796
REMARK SMILES C[C@@H](Sc1nncn1C)[C@@H](C)C(=O)NCCCCNC(=O)c1ccc(-c2c3nc(c(-c4c(F)cc(S(=O)(=O)[O-])cc4F)c4ccc([nH]4)c(-c4c(F)cc(S(=O)(=O)[O-])cc4F)c4nc(c(-c5c(F)cc(S(=O)(=O)[O-])cc5F)c5ccc2[nH]5)C=C4)C=C3)cc1
REMARK SMILES IDX 16 1 15 2 14 3 12 4 13 5 10 7 11 8 2 9 1 10 3 11 4 12 5 13
REMARK SMILES IDX 8 14 6 15 7 16 9 17 17 18 18 19 19 20 20 21 21 23 22 24
REMARK SMILES IDX 23 25 87 26 24 27 86 28 25 29 26 30 27 31 80 32 28 33 85 34
REMARK SMILES IDX 79 35 81 36 29 37 84 38 78 39 77 40 30 42 64 43 43 44 63 45
REMARK SMILES IDX 44 46 47 47 62 48 82 49 45 50 46 51 61 53 83 54 48 55 31 56
REMARK SMILES IDX 32 57 41 58 33 59 34 60 40 61 42 62 35 63 36 64 37 65 38 66
REMARK SMILES IDX 39 67 65 68 66 69 75 70 67 71 68 72 74 73 76 74 69 75 70 76
REMARK SMILES IDX 71 77 72 78 73 79 49 80 50 81 59 82 51 83 52 84 58 85 60 86
REMARK SMILES IDX 53 87 54 88 55 89 56 90 57 91
REMARK H PARENT 14 6 19 22 81 41 47 52
REMARK Flexibility Score: inf
ROOT
ATOM      1  C   UNL A   1      31.519  28.282  25.786  1.00  0.00     0.023 C 
ENDROOT
BRANCH   1   2
ATOM      2  C   UNL A   1      30.676  27.069  25.405  1.00  0.00     0.116 C 
BRANCH   2   3
ATOM      3  N   UNL A   1      30.796  26.008  26.381  1.00  0.00    -0.356 N 
ATOM      4  C   UNL A   1      31.311  24.754  26.294  1.00  0.00     0.223 C 
ATOM      5  O   UNL A   1      31.274  24.062  27.317  1.00  0.00    -0.275 OA
ATOM      6  H   UNL A   1      30.440  26.236  27.270  1.00  0.00     0.163 HD
BRANCH   4   7
ATOM      7  C   UNL A   1      31.975  24.212  25.028  1.00  0.00     0.088 C 
ATOM      8  C   UNL A   1      31.359  22.852  24.674  1.00  0.00     0.019 C 
BRANCH   7   9
ATOM      9  C   UNL A   1      33.526  24.246  25.023  1.00  0.00     0.064 C 
ATOM     10  C   UNL A   1      34.100  23.708  26.338  1.00  0.00     0.021 C 
BRANCH   9  11
ATOM     11  S   UNL A   1      34.146  23.284  23.578  1.00  0.00    -0.082 SA
BRANCH  11  12
ATOM     12  C   UNL A   1      35.572  22.526  24.186  1.00  0.00     0.191 A 
ATOM     13  N   UNL A   1      36.766  23.074  24.228  1.00  0.00    -0.124 NA
ATOM     14  N   UNL A   1      35.618  21.290  24.759  1.00  0.00    -0.312 N 
ATOM     15  N   UNL A   1      37.621  22.174  24.824  1.00  0.00    -0.138 NA
ATOM     16  C   UNL A   1      36.916  21.115  25.146  1.00  0.00     0.226 A 
ATOM     17  C   UNL A   1      34.575  20.316  24.924  1.00  0.00     0.153 C 
ENDBRANCH  11  12
ENDBRANCH   9  11
ENDBRANCH   7   9
ENDBRANCH   4   7
ENDBRANCH   2   3
ENDBRANCH   1   2
BRANCH   1  18
ATOM     18  C   UNL A   1      32.105  28.250  27.197  1.00  0.00     0.023 C 
BRANCH  18  19
ATOM     19  C   UNL A   1      33.521  28.799  27.329  1.00  0.00     0.116 C 
BRANCH  19  20
ATOM     20  N   UNL A   1      33.562  30.160  27.844  1.00  0.00    -0.352 N 
ATOM     21  C   UNL A   1      34.606  30.828  28.445  1.00  0.00     0.251 C 
ATOM     22  H   UNL A   1      32.728  30.675  27.750  1.00  0.00     0.163 HD
ATOM     23  O   UNL A   1      34.430  31.945  28.921  1.00  0.00    -0.269 OA
BRANCH  21  24
ATOM     24  C   UNL A   1      35.921  30.166  28.549  1.00  0.00     0.039 A 
ATOM     25  C   UNL A   1      36.769  30.170  27.439  1.00  0.00     0.014 A 
ATOM     26  C   UNL A   1      36.339  29.606  29.759  1.00  0.00     0.014 A 
ATOM     27  C   UNL A   1      38.079  29.705  27.572  1.00  0.00     0.010 A 
ATOM     28  C   UNL A   1      37.662  29.203  29.907  1.00  0.00     0.010 A 
ATOM     29  C   UNL A   1      38.549  29.271  28.822  1.00  0.00    -0.014 A 
BRANCH  29  30
ATOM     30  C   UNL A   1      39.978  28.935  29.042  1.00  0.00     0.031 A 
ATOM     31  C   UNL A   1      40.934  29.985  29.526  1.00  0.00     0.074 A 
ATOM     32  C   UNL A   1      40.429  27.710  28.702  1.00  0.00     0.049 A 
ATOM     33  N   UNL A   1      42.235  29.924  29.642  1.00  0.00    -0.248 NA
ATOM     34  C   UNL A   1      40.353  31.282  29.903  1.00  0.00     0.031 C 
ATOM     35  C   UNL A   1      39.603  26.616  28.184  1.00  0.00     0.029 A 
ATOM     36  N   UNL A   1      41.696  27.185  28.722  1.00  0.00    -0.354 N 
ATOM     37  C   UNL A   1      42.632  31.177  30.089  1.00  0.00     0.074 A 
ATOM     38  C   UNL A   1      41.438  31.990  30.183  1.00  0.00     0.031 C 
ATOM     39  C   UNL A   1      40.383  25.548  27.952  1.00  0.00     0.029 A 
ATOM     40  C   UNL A   1      41.766  25.893  28.259  1.00  0.00     0.049 A 
ATOM     41  H   UNL A   1      42.482  27.688  29.038  1.00  0.00     0.167 HD
ATOM     42  C   UNL A   1      43.877  31.606  30.409  1.00  0.00     0.037 A 
ATOM     43  C   UNL A   1      42.828  25.082  28.084  1.00  0.00     0.037 A 
ATOM     44  C   UNL A   1      45.057  30.786  30.336  1.00  0.00     0.049 A 
ATOM     45  C   UNL A   1      44.203  25.589  28.414  1.00  0.00     0.074 A 
ATOM     46  C   UNL A   1      46.351  31.104  30.708  1.00  0.00     0.029 A 
ATOM     47  N   UNL A   1      45.087  29.485  29.854  1.00  0.00    -0.354 N 
ATOM     48  N   UNL A   1      44.555  26.761  28.884  1.00  0.00    -0.248 NA
ATOM     49  C   UNL A   1      45.325  24.671  28.176  1.00  0.00     0.031 C 
ATOM     50  C   UNL A   1      47.171  30.007  30.418  1.00  0.00     0.029 A 
ATOM     51  C   UNL A   1      46.382  28.996  29.893  1.00  0.00     0.049 A 
ATOM     52  H   UNL A   1      44.304  28.984  29.532  1.00  0.00     0.167 HD
ATOM     53  C   UNL A   1      45.939  26.719  29.011  1.00  0.00     0.074 A 
ATOM     54  C   UNL A   1      46.358  25.401  28.576  1.00  0.00     0.031 C 
ATOM     55  C   UNL A   1      46.783  27.685  29.447  1.00  0.00     0.037 A 
BRANCH  42  56
ATOM     56  C   UNL A   1      44.015  33.028  30.867  1.00  0.00     0.058 A 
ATOM     57  C   UNL A   1      44.338  34.058  29.969  1.00  0.00     0.135 A 
ATOM     58  C   UNL A   1      43.827  33.368  32.216  1.00  0.00     0.135 A 
ATOM     59  F   UNL A   1      44.542  33.783  28.671  1.00  0.00    -0.206 F 
ATOM     60  C   UNL A   1      44.509  35.369  30.398  1.00  0.00     0.059 A 
ATOM     61  C   UNL A   1      43.972  34.678  32.664  1.00  0.00     0.059 A 
ATOM     62  F   UNL A   1      43.519  32.421  33.115  1.00  0.00    -0.206 F 
ATOM     63  C   UNL A   1      44.333  35.668  31.751  1.00  0.00     0.060 A 
BRANCH  63  64
ATOM     64  S   UNL A   1      44.590  37.367  32.302  1.00  0.00     0.124 S 
ATOM     65  O   UNL A   1      46.018  37.358  32.608  1.00  0.00    -0.237 OA
ATOM     66  O   UNL A   1      44.199  38.143  31.129  1.00  0.00    -0.237 OA
ATOM     67  O   UNL A   1      43.702  37.487  33.454  1.00  0.00    -0.744 OA
ENDBRANCH  63  64
ENDBRANCH  42  56
BRANCH  43  68
ATOM     68  C   UNL A   1      42.623  23.701  27.577  1.00  0.00     0.058 A 
ATOM     69  C   UNL A   1      42.675  23.431  26.203  1.00  0.00     0.135 A 
ATOM     70  C   UNL A   1      42.415  22.624  28.451  1.00  0.00     0.135 A 
ATOM     71  F   UNL A   1      42.864  24.433  25.329  1.00  0.00    -0.206 F 
ATOM     72  C   UNL A   1      42.531  22.139  25.709  1.00  0.00     0.059 A 
ATOM     73  C   UNL A   1      42.286  21.320  27.983  1.00  0.00     0.059 A 
ATOM     74  F   UNL A   1      42.374  22.831  29.776  1.00  0.00    -0.206 F 
ATOM     75  C   UNL A   1      42.342  21.089  26.609  1.00  0.00     0.060 A 
BRANCH  75  76
ATOM     76  S   UNL A   1      42.241  19.404  25.966  1.00  0.00     0.124 S 
ATOM     77  O   UNL A   1      42.764  18.630  27.085  1.00  0.00    -0.237 OA
ATOM     78  O   UNL A   1      40.814  19.260  25.700  1.00  0.00    -0.237 OA
ATOM     79  O   UNL A   1      43.088  19.450  24.776  1.00  0.00    -0.744 OA
ENDBRANCH  75  76
ENDBRANCH  43  68
BRANCH  55  80
ATOM     80  C   UNL A   1      48.247  27.358  29.478  1.00  0.00     0.058 A 
ATOM     81  C   UNL A   1      49.081  27.653  28.389  1.00  0.00     0.135 A 
ATOM     82  C   UNL A   1      48.834  26.811  30.630  1.00  0.00     0.135 A 
ATOM     83  F   UNL A   1      48.564  28.166  27.261  1.00  0.00    -0.206 F 
ATOM     84  C   UNL A   1      50.450  27.413  28.439  1.00  0.00     0.059 A 
ATOM     85  C   UNL A   1      50.204  26.581  30.709  1.00  0.00     0.059 A 
ATOM     86  F   UNL A   1      48.077  26.517  31.698  1.00  0.00    -0.206 F 
ATOM     87  C   UNL A   1      51.003  26.882  29.607  1.00  0.00     0.060 A 
BRANCH  87  88
ATOM     88  S   UNL A   1      52.789  26.633  29.683  1.00  0.00     0.124 S 
ATOM     89  O   UNL A   1      53.266  27.991  29.922  1.00  0.00    -0.237 OA
ATOM     90  O   UNL A   1      52.931  25.705  30.801  1.00  0.00    -0.237 OA
ATOM     91  O   UNL A   1      53.110  26.076  28.372  1.00  0.00    -0.744 OA
ENDBRANCH  87  88
ENDBRANCH  55  80
ENDBRANCH  29  30
ENDBRANCH  21  24
ENDBRANCH  19  20
ENDBRANCH  18  19
ENDBRANCH   1  18
TORSDOF 17
ENDMDL
MODEL 3
REMARK VINA RESULT:     -10.4      5.190     10.228
REMARK SMILES C[C@@H](Sc1nncn1C)[C@@H](C)C(=O)NCCCCNC(=O)c1ccc(-c2c3nc(c(-c4c(F)cc(S(=O)(=O)[O-])cc4F)c4ccc([nH]4)c(-c4c(F)cc(S(=O)(=O)[O-])cc4F)c4nc(c(-c5c(F)cc(S(=O)(=O)[O-])cc5F)c5ccc2[nH]5)C=C4)C=C3)cc1
REMARK SMILES IDX 16 1 15 2 14 3 12 4 13 5 10 7 11 8 2 9 1 10 3 11 4 12 5 13
REMARK SMILES IDX 8 14 6 15 7 16 9 17 17 18 18 19 19 20 20 21 21 23 22 24
REMARK SMILES IDX 23 25 87 26 24 27 86 28 25 29 26 30 27 31 80 32 28 33 85 34
REMARK SMILES IDX 79 35 81 36 29 37 84 38 78 39 77 40 30 42 64 43 43 44 63 45
REMARK SMILES IDX 44 46 47 47 62 48 82 49 45 50 46 51 61 53 83 54 48 55 31 56
REMARK SMILES IDX 32 57 41 58 33 59 34 60 40 61 42 62 35 63 36 64 37 65 38 66
REMARK SMILES IDX 39 67 65 68 66 69 75 70 67 71 68 72 74 73 76 74 69 75 70 76
REMARK SMILES IDX 71 77 72 78 73 79 49 80 50 81 59 82 51 83 52 84 58 85 60 86
REMARK SMILES IDX 53 87 54 88 55 89 56 90 57 91
REMARK H PARENT 14 6 19 22 81 41 47 52
REMARK Flexibility Score: inf
ROOT
ATOM      1  C   UNL A   1      39.457  22.167  26.245  1.00  0.00     0.023 C 
ENDROOT
BRANCH   1   2
ATOM      2  C   UNL A   1      38.117  22.876  26.065  1.00  0.00     0.116 C 
BRANCH   2   3
ATOM      3  N   UNL A   1      37.771  23.014  24.667  1.00  0.00    -0.356 N 
ATOM      4  C   UNL A   1      36.646  22.687  23.978  1.00  0.00     0.223 C 
ATOM      5  O   UNL A   1      36.643  22.931  22.767  1.00  0.00    -0.275 OA
ATOM      6  H   UNL A   1      38.479  23.418  24.114  1.00  0.00     0.163 HD
BRANCH   4   7
ATOM      7  C   UNL A   1      35.399  22.109  24.646  1.00  0.00     0.088 C 
ATOM      8  C   UNL A   1      35.595  20.603  24.869  1.00  0.00     0.019 C 
BRANCH   7   9
ATOM      9  C   UNL A   1      34.049  22.501  23.988  1.00  0.00     0.064 C 
ATOM     10  C   UNL A   1      33.029  21.363  24.088  1.00  0.00     0.021 C 
BRANCH   9  11
ATOM     11  S   UNL A   1      33.417  24.040  24.781  1.00  0.00    -0.082 SA
BRANCH  11  12
ATOM     12  C   UNL A   1      33.440  25.190  23.495  1.00  0.00     0.191 A 
ATOM     13  N   UNL A   1      33.777  24.934  22.250  1.00  0.00    -0.124 NA
ATOM     14  N   UNL A   1      33.044  26.491  23.600  1.00  0.00    -0.312 N 
ATOM     15  N   UNL A   1      33.619  26.093  21.524  1.00  0.00    -0.138 NA
ATOM     16  C   UNL A   1      33.170  27.014  22.345  1.00  0.00     0.226 A 
ATOM     17  C   UNL A   1      32.611  27.227  24.756  1.00  0.00     0.153 C 
ENDBRANCH  11  12
ENDBRANCH   9  11
ENDBRANCH   7   9
ENDBRANCH   4   7
ENDBRANCH   2   3
ENDBRANCH   1   2
BRANCH   1  18
ATOM     18  C   UNL A   1      40.286  22.636  27.439  1.00  0.00     0.023 C 
BRANCH  18  19
ATOM     19  C   UNL A   1      41.653  23.218  27.095  1.00  0.00     0.116 C 
BRANCH  19  20
ATOM     20  N   UNL A   1      41.598  24.232  26.053  1.00  0.00    -0.352 N 
ATOM     21  C   UNL A   1      41.411  25.591  26.176  1.00  0.00     0.251 C 
ATOM     22  H   UNL A   1      41.709  23.901  25.132  1.00  0.00     0.163 HD
ATOM     23  O   UNL A   1      41.281  26.288  25.174  1.00  0.00    -0.269 OA
BRANCH  21  24
ATOM     24  C   UNL A   1      41.323  26.188  27.523  1.00  0.00     0.039 A 
ATOM     25  C   UNL A   1      42.388  26.963  27.989  1.00  0.00     0.014 A 
ATOM     26  C   UNL A   1      40.165  26.039  28.290  1.00  0.00     0.014 A 
ATOM     27  C   UNL A   1      42.250  27.675  29.181  1.00  0.00     0.010 A 
ATOM     28  C   UNL A   1      40.005  26.798  29.444  1.00  0.00     0.010 A 
ATOM     29  C   UNL A   1      41.035  27.641  29.887  1.00  0.00    -0.014 A 
BRANCH  29  30
ATOM     30  C   UNL A   1      40.792  28.517  31.060  1.00  0.00     0.031 A 
ATOM     31  C   UNL A   1      39.742  29.587  30.997  1.00  0.00     0.074 A 
ATOM     32  C   UNL A   1      41.592  28.413  32.140  1.00  0.00     0.049 A 
ATOM     33  N   UNL A   1      39.479  30.535  31.859  1.00  0.00    -0.248 NA
ATOM     34  C   UNL A   1      38.894  29.609  29.796  1.00  0.00     0.031 C 
ATOM     35  C   UNL A   1      42.674  27.438  32.303  1.00  0.00     0.029 A 
ATOM     36  N   UNL A   1      41.635  29.149  33.297  1.00  0.00    -0.354 N 
ATOM     37  C   UNL A   1      38.448  31.277  31.298  1.00  0.00     0.074 A 
ATOM     38  C   UNL A   1      38.162  30.694  30.005  1.00  0.00     0.031 C 
ATOM     39  C   UNL A   1      43.260  27.627  33.496  1.00  0.00     0.029 A 
ATOM     40  C   UNL A   1      42.630  28.761  34.162  1.00  0.00     0.049 A 
ATOM     41  H   UNL A   1      41.011  29.887  33.489  1.00  0.00     0.167 HD
ATOM     42  C   UNL A   1      37.788  32.338  31.822  1.00  0.00     0.037 A 
ATOM     43  C   UNL A   1      43.006  29.273  35.350  1.00  0.00     0.037 A 
ATOM     44  C   UNL A   1      38.061  32.899  33.119  1.00  0.00     0.049 A 
ATOM     45  C   UNL A   1      42.281  30.470  35.898  1.00  0.00     0.074 A 
ATOM     46  C   UNL A   1      37.400  33.925  33.770  1.00  0.00     0.029 A 
ATOM     47  N   UNL A   1      39.083  32.483  33.961  1.00  0.00    -0.354 N 
ATOM     48  N   UNL A   1      41.274  31.129  35.378  1.00  0.00    -0.248 NA
ATOM     49  C   UNL A   1      42.753  31.002  37.184  1.00  0.00     0.031 C 
ATOM     50  C   UNL A   1      38.044  34.154  34.991  1.00  0.00     0.029 A 
ATOM     51  C   UNL A   1      39.088  33.250  35.114  1.00  0.00     0.049 A 
ATOM     52  H   UNL A   1      39.712  31.751  33.767  1.00  0.00     0.167 HD
ATOM     53  C   UNL A   1      40.982  32.147  36.278  1.00  0.00     0.074 A 
ATOM     54  C   UNL A   1      41.914  32.011  37.380  1.00  0.00     0.031 C 
ATOM     55  C   UNL A   1      40.029  33.106  36.197  1.00  0.00     0.037 A 
BRANCH  42  56
ATOM     56  C   UNL A   1      36.707  32.954  30.984  1.00  0.00     0.058 A 
ATOM     57  C   UNL A   1      36.994  33.946  30.032  1.00  0.00     0.135 A 
ATOM     58  C   UNL A   1      35.369  32.555  31.134  1.00  0.00     0.135 A 
ATOM     59  F   UNL A   1      38.255  34.374  29.862  1.00  0.00    -0.206 F 
ATOM     60  C   UNL A   1      35.988  34.549  29.286  1.00  0.00     0.059 A 
ATOM     61  C   UNL A   1      34.349  33.129  30.380  1.00  0.00     0.059 A 
ATOM     62  F   UNL A   1      35.041  31.611  32.030  1.00  0.00    -0.206 F 
ATOM     63  C   UNL A   1      34.667  34.141  29.474  1.00  0.00     0.060 A 
BRANCH  63  64
ATOM     64  S   UNL A   1      33.366  34.953  28.523  1.00  0.00     0.124 S 
ATOM     65  O   UNL A   1      32.677  33.806  27.938  1.00  0.00    -0.237 OA
ATOM     66  O   UNL A   1      32.626  35.678  29.552  1.00  0.00    -0.237 OA
ATOM     67  O   UNL A   1      34.106  35.788  27.582  1.00  0.00    -0.744 OA
ENDBRANCH  63  64
ENDBRANCH  42  56
BRANCH  43  68
ATOM     68  C   UNL A   1      44.120  28.643  36.104  1.00  0.00     0.058 A 
ATOM     69  C   UNL A   1      45.429  29.129  35.978  1.00  0.00     0.135 A 
ATOM     70  C   UNL A   1      43.896  27.579  36.990  1.00  0.00     0.135 A 
ATOM     71  F   UNL A   1      45.691  30.141  35.136  1.00  0.00    -0.206 F 
ATOM     72  C   UNL A   1      46.480  28.584  36.708  1.00  0.00     0.059 A 
ATOM     73  C   UNL A   1      44.928  27.028  37.743  1.00  0.00     0.059 A 
ATOM     74  F   UNL A   1      42.657  27.091  37.155  1.00  0.00    -0.206 F 
ATOM     75  C   UNL A   1      46.218  27.537  37.593  1.00  0.00     0.060 A 
BRANCH  75  76
ATOM     76  S   UNL A   1      47.572  26.892  38.598  1.00  0.00     0.124 S 
ATOM     77  O   UNL A   1      46.886  25.895  39.411  1.00  0.00    -0.237 OA
ATOM     78  O   UNL A   1      48.487  26.372  37.587  1.00  0.00    -0.237 OA
ATOM     79  O   UNL A   1      48.049  28.073  39.312  1.00  0.00    -0.744 OA
ENDBRANCH  75  76
ENDBRANCH  43  68
BRANCH  55  80
ATOM     80  C   UNL A   1      39.941  34.088  37.328  1.00  0.00     0.058 A 
ATOM     81  C   UNL A   1      40.681  35.281  37.316  1.00  0.00     0.135 A 
ATOM     82  C   UNL A   1      39.059  33.870  38.398  1.00  0.00     0.135 A 
ATOM     83  F   UNL A   1      41.546  35.528  36.320  1.00  0.00    -0.206 F 
ATOM     84  C   UNL A   1      40.551  36.223  38.330  1.00  0.00     0.059 A 
ATOM     85  C   UNL A   1      38.899  34.807  39.413  1.00  0.00     0.059 A 
ATOM     86  F   UNL A   1      38.327  32.746  38.451  1.00  0.00    -0.206 F 
ATOM     87  C   UNL A   1      39.653  35.980  39.372  1.00  0.00     0.060 A 
BRANCH  87  88
ATOM     88  S   UNL A   1      39.448  37.239  40.650  1.00  0.00     0.124 S 
ATOM     89  O   UNL A   1      39.142  36.423  41.820  1.00  0.00    -0.237 OA
ATOM     90  O   UNL A   1      40.751  37.896  40.657  1.00  0.00    -0.237 OA
ATOM     91  O   UNL A   1      38.345  38.053  40.147  1.00  0.00    -0.744 OA
ENDBRANCH  87  88
ENDBRANCH  55  80
ENDBRANCH  29  30
ENDBRANCH  21  24
ENDBRANCH  19  20
ENDBRANCH  18  19
ENDBRANCH   1  18
TORSDOF 17
ENDMDL
