MODEL 1
REMARK VINA RESULT:     -14.5      0.000      0.000
REMARK SMILES C[C@]12C(=O)N(c3ccc(C(=O)NCCCCNC(=O)c4ccc(-c5c6nc(c(-c7c(F)cc(S(=O)(=O)[O-])cc7F)c7ccc([nH]7)c(-c7c(F)cc(S(=O)(=O)[O-])cc7F)c7nc(c(-c8c(F)cc(S(=O)(=O)[O-])cc8F)c8ccc5[nH]8)C=C7)C=C6)cc4)cc3)C(=O)[C@H]1[C@H]1c3ccccc3[C@@H]2c2ccccc21
REMARK SMILES IDX 15 1 14 2 13 3 12 4 10 5 11 6 9 8 6 9 7 10 87 11 8 12 86 13
REMARK SMILES IDX 5 14 1 15 2 16 3 17 90 18 98 19 4 20 88 21 91 22 97 23 99 24
REMARK SMILES IDX 89 25 92 26 104 27 96 28 100 29 93 30 103 31 95 32 101 33
REMARK SMILES IDX 94 34 102 35 16 36 17 37 18 38 19 40 20 41 21 42 85 43 22 44
REMARK SMILES IDX 84 45 23 46 24 47 25 48 78 49 26 50 83 51 77 52 79 53 27 54
REMARK SMILES IDX 82 55 76 56 75 57 28 59 62 60 41 61 61 62 42 63 45 64 60 65
REMARK SMILES IDX 80 66 43 67 44 68 59 70 81 71 46 72 29 73 30 74 39 75 31 76
REMARK SMILES IDX 32 77 38 78 40 79 33 80 34 81 35 82 36 83 37 84 63 85 64 86
REMARK SMILES IDX 73 87 65 88 66 89 72 90 74 91 67 92 68 93 69 94 70 95 71 96
REMARK SMILES IDX 47 97 48 98 57 99 49 100 50 101 56 102 58 103 51 104 52 105
REMARK SMILES IDX 53 106 54 107 55 108
REMARK H PARENT 12 7 17 39 79 58 45 69
REMARK Flexibility Score: inf
ROOT
ATOM      1  C   UNL A   1      39.897  22.567  27.197  1.00  0.00     0.023 C 
ENDROOT
BRANCH   1   2
ATOM      2  C   UNL A   1      39.183  21.978  25.988  1.00  0.00     0.023 C 
BRANCH   2   3
ATOM      3  C   UNL A   1      37.836  22.602  25.652  1.00  0.00     0.116 C 
BRANCH   3   4
ATOM      4  N   UNL A   1      36.715  21.918  26.271  1.00  0.00    -0.352 N 
ATOM      5  C   UNL A   1      35.371  22.185  26.204  1.00  0.00     0.251 C 
ATOM      6  O   UNL A   1      34.581  21.537  26.884  1.00  0.00    -0.269 OA
ATOM      7  H   UNL A   1      36.957  21.140  26.825  1.00  0.00     0.163 HD
BRANCH   5   8
ATOM      8  C   UNL A   1      34.858  23.265  25.334  1.00  0.00     0.039 A 
ATOM      9  C   UNL A   1      33.829  25.375  23.747  1.00  0.00     0.052 A 
ATOM     10  C   UNL A   1      34.217  25.582  25.084  1.00  0.00     0.027 A 
ATOM     11  C   UNL A   1      33.977  24.080  23.231  1.00  0.00     0.027 A 
ATOM     12  C   UNL A   1      34.724  24.541  25.871  1.00  0.00     0.016 A 
ATOM     13  C   UNL A   1      34.443  23.029  24.026  1.00  0.00     0.016 A 
BRANCH   9  14
ATOM     14  N   UNL A   1      33.128  26.377  23.011  1.00  0.00    -0.250 N 
ATOM     15  C   UNL A   1      32.394  29.628  21.873  1.00  0.00     0.024 C 
ATOM     16  C   UNL A   1      32.091  28.464  22.825  1.00  0.00     0.071 C 
ATOM     17  C   UNL A   1      33.369  27.728  23.133  1.00  0.00     0.241 C 
ATOM     18  C   UNL A   1      31.191  27.398  22.141  1.00  0.00     0.107 C 
ATOM     19  C   UNL A   1      31.451  28.902  24.191  1.00  0.00     0.066 C 
ATOM     20  O   UNL A   1      34.394  28.308  23.451  1.00  0.00    -0.273 OA
ATOM     21  C   UNL A   1      32.037  26.148  22.196  1.00  0.00     0.238 C 
ATOM     22  C   UNL A   1      29.861  27.208  22.940  1.00  0.00     0.063 C 
ATOM     23  C   UNL A   1      31.136  27.634  25.006  1.00  0.00    -0.036 A 
ATOM     24  C   UNL A   1      30.104  29.508  23.813  1.00  0.00    -0.036 A 
ATOM     25  O   UNL A   1      31.725  25.133  21.584  1.00  0.00    -0.274 OA
ATOM     26  C   UNL A   1      30.261  26.735  24.338  1.00  0.00    -0.036 A 
ATOM     27  C   UNL A   1      29.256  28.605  23.113  1.00  0.00    -0.036 A 
ATOM     28  C   UNL A   1      31.683  27.292  26.234  1.00  0.00     0.005 A 
ATOM     29  C   UNL A   1      29.698  30.802  24.101  1.00  0.00     0.005 A 
ATOM     30  C   UNL A   1      29.921  25.512  24.902  1.00  0.00     0.004 A 
ATOM     31  C   UNL A   1      27.996  29.011  22.705  1.00  0.00     0.004 A 
ATOM     32  C   UNL A   1      31.349  26.055  26.794  1.00  0.00     0.000 A 
ATOM     33  C   UNL A   1      28.432  31.203  23.683  1.00  0.00     0.000 A 
ATOM     34  C   UNL A   1      30.473  25.176  26.139  1.00  0.00     0.000 A 
ATOM     35  C   UNL A   1      27.590  30.318  22.993  1.00  0.00     0.000 A 
ENDBRANCH   9  14
ENDBRANCH   5   8
ENDBRANCH   3   4
ENDBRANCH   2   3
ENDBRANCH   1   2
BRANCH   1  36
ATOM     36  C   UNL A   1      41.291  23.125  26.939  1.00  0.00     0.116 C 
BRANCH  36  37
ATOM     37  N   UNL A   1      41.342  24.161  25.914  1.00  0.00    -0.352 N 
ATOM     38  C   UNL A   1      41.341  25.531  26.055  1.00  0.00     0.251 C 
ATOM     39  H   UNL A   1      41.382  23.833  24.986  1.00  0.00     0.163 HD
ATOM     40  O   UNL A   1      41.347  26.253  25.064  1.00  0.00    -0.269 OA
BRANCH  38  41
ATOM     41  C   UNL A   1      41.273  26.117  27.409  1.00  0.00     0.039 A 
ATOM     42  C   UNL A   1      40.105  26.021  28.164  1.00  0.00     0.014 A 
ATOM     43  C   UNL A   1      42.362  26.852  27.884  1.00  0.00     0.014 A 
ATOM     44  C   UNL A   1      39.948  26.832  29.281  1.00  0.00     0.010 A 
ATOM     45  C   UNL A   1      42.235  27.591  29.063  1.00  0.00     0.010 A 
ATOM     46  C   UNL A   1      41.004  27.641  29.735  1.00  0.00    -0.014 A 
BRANCH  46  47
ATOM     47  C   UNL A   1      40.777  28.555  30.886  1.00  0.00     0.031 A 
ATOM     48  C   UNL A   1      41.690  28.520  32.088  1.00  0.00     0.074 A 
ATOM     49  C   UNL A   1      39.799  29.478  30.809  1.00  0.00     0.049 A 
ATOM     50  N   UNL A   1      41.650  29.253  33.172  1.00  0.00    -0.248 NA
ATOM     51  C   UNL A   1      42.786  27.535  32.077  1.00  0.00     0.031 C 
ATOM     52  C   UNL A   1      38.866  29.625  29.688  1.00  0.00     0.029 A 
ATOM     53  N   UNL A   1      39.445  30.487  31.667  1.00  0.00    -0.354 N 
ATOM     54  C   UNL A   1      42.698  28.812  33.974  1.00  0.00     0.074 A 
ATOM     55  C   UNL A   1      43.342  27.728  33.266  1.00  0.00     0.031 C 
ATOM     56  C   UNL A   1      38.093  30.701  29.897  1.00  0.00     0.029 A 
ATOM     57  C   UNL A   1      38.426  31.280  31.194  1.00  0.00     0.049 A 
ATOM     58  H   UNL A   1      39.879  30.631  32.540  1.00  0.00     0.167 HD
ATOM     59  C   UNL A   1      43.094  29.279  35.181  1.00  0.00     0.037 A 
ATOM     60  C   UNL A   1      37.818  32.348  31.745  1.00  0.00     0.037 A 
ATOM     61  C   UNL A   1      42.473  30.383  35.868  1.00  0.00     0.049 A 
ATOM     62  C   UNL A   1      38.256  32.819  33.102  1.00  0.00     0.074 A 
ATOM     63  C   UNL A   1      42.805  30.927  37.097  1.00  0.00     0.029 A 
ATOM     64  N   UNL A   1      41.407  31.121  35.379  1.00  0.00    -0.354 N 
ATOM     65  N   UNL A   1      39.229  32.367  33.855  1.00  0.00    -0.248 NA
ATOM     66  C   UNL A   1      37.504  33.936  33.691  1.00  0.00     0.031 C 
ATOM     67  C   UNL A   1      41.921  31.977  37.363  1.00  0.00     0.029 A 
ATOM     68  C   UNL A   1      41.063  32.110  36.285  1.00  0.00     0.049 A 
ATOM     69  H   UNL A   1      40.960  30.966  34.516  1.00  0.00     0.167 HD
ATOM     70  C   UNL A   1      39.212  33.149  35.003  1.00  0.00     0.074 A 
ATOM     71  C   UNL A   1      38.146  34.116  34.838  1.00  0.00     0.031 C 
ATOM     72  C   UNL A   1      40.003  33.068  36.100  1.00  0.00     0.037 A 
BRANCH  59  73
ATOM     73  C   UNL A   1      44.262  28.611  35.854  1.00  0.00     0.058 A 
ATOM     74  C   UNL A   1      45.572  29.081  35.682  1.00  0.00     0.135 A 
ATOM     75  C   UNL A   1      44.056  27.554  36.756  1.00  0.00     0.135 A 
ATOM     76  F   UNL A   1      45.825  30.076  34.819  1.00  0.00    -0.206 F 
ATOM     77  C   UNL A   1      46.639  28.528  36.383  1.00  0.00     0.059 A 
ATOM     78  C   UNL A   1      45.106  26.998  37.483  1.00  0.00     0.059 A 
ATOM     79  F   UNL A   1      42.822  27.066  36.954  1.00  0.00    -0.206 F 
ATOM     80  C   UNL A   1      46.395  27.491  37.287  1.00  0.00     0.060 A 
BRANCH  80  81
ATOM     81  S   UNL A   1      47.786  26.819  38.222  1.00  0.00     0.124 S 
ATOM     82  O   UNL A   1      47.753  25.415  37.824  1.00  0.00    -0.237 OA
ATOM     83  O   UNL A   1      48.910  27.595  37.711  1.00  0.00    -0.237 OA
ATOM     84  O   UNL A   1      47.424  27.084  39.611  1.00  0.00    -0.744 OA
ENDBRANCH  80  81
ENDBRANCH  59  73
BRANCH  60  85
ATOM     85  C   UNL A   1      36.720  33.034  31.017  1.00  0.00     0.058 A 
ATOM     86  C   UNL A   1      36.995  33.902  29.951  1.00  0.00     0.135 A 
ATOM     87  C   UNL A   1      35.377  32.830  31.367  1.00  0.00     0.135 A 
ATOM     88  F   UNL A   1      38.264  34.132  29.583  1.00  0.00    -0.206 F 
ATOM     89  C   UNL A   1      35.977  34.557  29.266  1.00  0.00     0.059 A 
ATOM     90  C   UNL A   1      34.340  33.452  30.681  1.00  0.00     0.059 A 
ATOM     91  F   UNL A   1      35.062  31.995  32.371  1.00  0.00    -0.206 F 
ATOM     92  C   UNL A   1      34.652  34.325  29.639  1.00  0.00     0.060 A 
BRANCH  92  93
ATOM     93  S   UNL A   1      33.333  35.149  28.722  1.00  0.00     0.124 S 
ATOM     94  O   UNL A   1      34.086  36.123  27.941  1.00  0.00    -0.237 OA
ATOM     95  O   UNL A   1      32.745  34.045  27.970  1.00  0.00    -0.237 OA
ATOM     96  O   UNL A   1      32.487  35.701  29.776  1.00  0.00    -0.744 OA
ENDBRANCH  92  93
ENDBRANCH  60  85
BRANCH  72  97
ATOM     97  C   UNL A   1      39.760  34.058  37.201  1.00  0.00     0.058 A 
ATOM     98  C   UNL A   1      38.947  33.742  38.300  1.00  0.00     0.135 A 
ATOM     99  C   UNL A   1      40.397  35.310  37.188  1.00  0.00     0.135 A 
ATOM    100  F   UNL A   1      38.311  32.562  38.352  1.00  0.00    -0.206 F 
ATOM    101  C   UNL A   1      38.762  34.641  39.345  1.00  0.00     0.059 A 
ATOM    102  C   UNL A   1      40.242  36.214  38.233  1.00  0.00     0.059 A 
ATOM    103  F   UNL A   1      41.191  35.654  36.162  1.00  0.00    -0.206 F 
ATOM    104  C   UNL A   1      39.417  35.874  39.304  1.00  0.00     0.060 A 
BRANCH 104 105
ATOM    105  S   UNL A   1      39.203  37.010  40.689  1.00  0.00     0.124 S 
ATOM    106  O   UNL A   1      38.343  38.032  40.102  1.00  0.00    -0.237 OA
ATOM    107  O   UNL A   1      38.580  36.161  41.699  1.00  0.00    -0.237 OA
ATOM    108  O   UNL A   1      40.567  37.437  40.992  1.00  0.00    -0.744 OA
ENDBRANCH 104 105
ENDBRANCH  72  97
ENDBRANCH  46  47
ENDBRANCH  38  41
ENDBRANCH  36  37
ENDBRANCH   1  36
TORSDOF 15
ENDMDL
MODEL 2
REMARK VINA RESULT:     -14.5      6.328     11.806
REMARK SMILES C[C@]12C(=O)N(c3ccc(C(=O)NCCCCNC(=O)c4ccc(-c5c6nc(c(-c7c(F)cc(S(=O)(=O)[O-])cc7F)c7ccc([nH]7)c(-c7c(F)cc(S(=O)(=O)[O-])cc7F)c7nc(c(-c8c(F)cc(S(=O)(=O)[O-])cc8F)c8ccc5[nH]8)C=C7)C=C6)cc4)cc3)C(=O)[C@H]1[C@H]1c3ccccc3[C@@H]2c2ccccc21
REMARK SMILES IDX 15 1 14 2 13 3 12 4 10 5 11 6 9 8 6 9 7 10 87 11 8 12 86 13
REMARK SMILES IDX 5 14 1 15 2 16 3 17 90 18 98 19 4 20 88 21 91 22 97 23 99 24
REMARK SMILES IDX 89 25 92 26 104 27 96 28 100 29 93 30 103 31 95 32 101 33
REMARK SMILES IDX 94 34 102 35 16 36 17 37 18 38 19 40 20 41 21 42 85 43 22 44
REMARK SMILES IDX 84 45 23 46 24 47 25 48 78 49 26 50 83 51 77 52 79 53 27 54
REMARK SMILES IDX 82 55 76 56 75 57 28 59 62 60 41 61 61 62 42 63 45 64 60 65
REMARK SMILES IDX 80 66 43 67 44 68 59 70 81 71 46 72 29 73 30 74 39 75 31 76
REMARK SMILES IDX 32 77 38 78 40 79 33 80 34 81 35 82 36 83 37 84 63 85 64 86
REMARK SMILES IDX 73 87 65 88 66 89 72 90 74 91 67 92 68 93 69 94 70 95 71 96
REMARK SMILES IDX 47 97 48 98 57 99 49 100 50 101 56 102 58 103 51 104 52 105
REMARK SMILES IDX 53 106 54 107 55 108
REMARK H PARENT 12 7 17 39 79 58 45 69
REMARK Flexibility Score: inf
ROOT
ATOM      1  C   UNL A   1      34.404  31.627  27.649  1.00  0.00     0.023 C 
ENDROOT
BRANCH   1   2
ATOM      2  C   UNL A   1      33.962  30.235  27.216  1.00  0.00     0.023 C 
BRANCH   2   3
ATOM      3  C   UNL A   1      32.666  30.177  26.419  1.00  0.00     0.116 C 
BRANCH   3   4
ATOM      4  N   UNL A   1      32.877  30.076  24.986  1.00  0.00    -0.352 N 
ATOM      5  C   UNL A   1      33.011  28.967  24.189  1.00  0.00     0.251 C 
ATOM      6  O   UNL A   1      33.280  29.096  22.998  1.00  0.00    -0.269 OA
ATOM      7  H   UNL A   1      32.931  30.938  24.512  1.00  0.00     0.163 HD
BRANCH   5   8
ATOM      8  C   UNL A   1      32.857  27.609  24.752  1.00  0.00     0.039 A 
ATOM      9  C   UNL A   1      32.649  24.979  25.786  1.00  0.00     0.052 A 
ATOM     10  C   UNL A   1      33.897  25.612  25.631  1.00  0.00     0.027 A 
ATOM     11  C   UNL A   1      31.511  25.706  25.409  1.00  0.00     0.027 A 
ATOM     12  C   UNL A   1      34.003  26.910  25.120  1.00  0.00     0.016 A 
ATOM     13  C   UNL A   1      31.616  26.987  24.859  1.00  0.00     0.016 A 
BRANCH   9  14
ATOM     14  N   UNL A   1      32.552  23.593  26.113  1.00  0.00    -0.250 N 
ATOM     15  C   UNL A   1      33.587  20.518  27.482  1.00  0.00     0.024 C 
ATOM     16  C   UNL A   1      33.436  21.433  26.260  1.00  0.00     0.071 C 
ATOM     17  C   UNL A   1      33.569  22.870  26.696  1.00  0.00     0.241 C 
ATOM     18  C   UNL A   1      32.003  21.346  25.667  1.00  0.00     0.107 C 
ATOM     19  C   UNL A   1      34.496  21.178  25.130  1.00  0.00     0.066 C 
ATOM     20  O   UNL A   1      34.470  23.247  27.427  1.00  0.00    -0.273 OA
ATOM     21  C   UNL A   1      31.500  22.766  25.770  1.00  0.00     0.238 C 
ATOM     22  C   UNL A   1      32.054  20.879  24.176  1.00  0.00     0.063 C 
ATOM     23  C   UNL A   1      34.177  22.110  23.948  1.00  0.00    -0.036 A 
ATOM     24  C   UNL A   1      34.210  19.762  24.642  1.00  0.00    -0.036 A 
ATOM     25  O   UNL A   1      30.327  23.050  25.560  1.00  0.00    -0.274 OA
ATOM     26  C   UNL A   1      32.869  21.931  23.421  1.00  0.00    -0.036 A 
ATOM     27  C   UNL A   1      32.885  19.591  24.153  1.00  0.00    -0.036 A 
ATOM     28  C   UNL A   1      34.998  23.111  23.449  1.00  0.00     0.005 A 
ATOM     29  C   UNL A   1      35.116  18.713  24.651  1.00  0.00     0.005 A 
ATOM     30  C   UNL A   1      32.393  22.732  22.392  1.00  0.00     0.004 A 
ATOM     31  C   UNL A   1      32.475  18.358  23.671  1.00  0.00     0.004 A 
ATOM     32  C   UNL A   1      34.512  23.926  22.421  1.00  0.00     0.000 A 
ATOM     33  C   UNL A   1      34.696  17.476  24.169  1.00  0.00     0.000 A 
ATOM     34  C   UNL A   1      33.225  23.735  21.894  1.00  0.00     0.000 A 
ATOM     35  C   UNL A   1      33.390  17.300  23.685  1.00  0.00     0.000 A 
ENDBRANCH   9  14
ENDBRANCH   5   8
ENDBRANCH   3   4
ENDBRANCH   2   3
ENDBRANCH   1   2
BRANCH   1  36
ATOM     36  C   UNL A   1      35.614  31.682  28.573  1.00  0.00     0.116 C 
BRANCH  36  37
ATOM     37  N   UNL A   1      35.512  30.822  29.746  1.00  0.00    -0.352 N 
ATOM     38  C   UNL A   1      36.483  30.066  30.364  1.00  0.00     0.251 C 
ATOM     39  H   UNL A   1      34.618  30.774  30.156  1.00  0.00     0.163 HD
ATOM     40  O   UNL A   1      36.199  29.364  31.328  1.00  0.00    -0.269 OA
BRANCH  38  41
ATOM     41  C   UNL A   1      37.855  30.065  29.815  1.00  0.00     0.039 A 
ATOM     42  C   UNL A   1      38.088  29.690  28.493  1.00  0.00     0.014 A 
ATOM     43  C   UNL A   1      38.925  30.352  30.666  1.00  0.00     0.014 A 
ATOM     44  C   UNL A   1      39.384  29.394  28.087  1.00  0.00     0.010 A 
ATOM     45  C   UNL A   1      40.234  30.146  30.225  1.00  0.00     0.010 A 
ATOM     46  C   UNL A   1      40.471  29.599  28.954  1.00  0.00    -0.014 A 
BRANCH  46  47
ATOM     47  C   UNL A   1      41.835  29.198  28.517  1.00  0.00     0.031 A 
ATOM     48  C   UNL A   1      42.987  30.169  28.600  1.00  0.00     0.074 A 
ATOM     49  C   UNL A   1      42.051  27.927  28.126  1.00  0.00     0.049 A 
ATOM     50  N   UNL A   1      44.243  29.984  28.279  1.00  0.00    -0.248 NA
ATOM     51  C   UNL A   1      42.697  31.522  29.106  1.00  0.00     0.031 C 
ATOM     52  C   UNL A   1      41.021  26.889  28.025  1.00  0.00     0.029 A 
ATOM     53  N   UNL A   1      43.207  27.279  27.774  1.00  0.00    -0.354 N 
ATOM     54  C   UNL A   1      44.886  31.193  28.526  1.00  0.00     0.074 A 
ATOM     55  C   UNL A   1      43.878  32.116  29.000  1.00  0.00     0.031 C 
ATOM     56  C   UNL A   1      41.600  25.724  27.703  1.00  0.00     0.029 A 
ATOM     57  C   UNL A   1      43.029  25.941  27.508  1.00  0.00     0.049 A 
ATOM     58  H   UNL A   1      44.082  27.728  27.718  1.00  0.00     0.167 HD
ATOM     59  C   UNL A   1      46.197  31.499  28.385  1.00  0.00     0.037 A 
ATOM     60  C   UNL A   1      43.914  24.996  27.136  1.00  0.00     0.037 A 
ATOM     61  C   UNL A   1      47.205  30.567  27.948  1.00  0.00     0.049 A 
ATOM     62  C   UNL A   1      45.355  25.375  26.953  1.00  0.00     0.074 A 
ATOM     63  C   UNL A   1      48.561  30.786  27.773  1.00  0.00     0.029 A 
ATOM     64  N   UNL A   1      46.972  29.238  27.633  1.00  0.00    -0.354 N 
ATOM     65  N   UNL A   1      45.935  26.532  27.163  1.00  0.00    -0.248 NA
ATOM     66  C   UNL A   1      46.261  24.325  26.467  1.00  0.00     0.031 C 
ATOM     67  C   UNL A   1      49.142  29.596  27.326  1.00  0.00     0.029 A 
ATOM     68  C   UNL A   1      48.156  28.627  27.257  1.00  0.00     0.049 A 
ATOM     69  H   UNL A   1      46.094  28.793  27.670  1.00  0.00     0.167 HD
ATOM     70  C   UNL A   1      47.274  26.347  26.844  1.00  0.00     0.074 A 
ATOM     71  C   UNL A   1      47.424  24.963  26.446  1.00  0.00     0.031 C 
ATOM     72  C   UNL A   1      48.287  27.246  26.870  1.00  0.00     0.037 A 
BRANCH  59  73
ATOM     73  C   UNL A   1      46.640  32.899  28.711  1.00  0.00     0.058 A 
ATOM     74  C   UNL A   1      47.095  33.243  29.992  1.00  0.00     0.135 A 
ATOM     75  C   UNL A   1      46.704  33.879  27.707  1.00  0.00     0.135 A 
ATOM     76  F   UNL A   1      47.040  32.350  30.992  1.00  0.00    -0.206 F 
ATOM     77  C   UNL A   1      47.600  34.510  30.267  1.00  0.00     0.059 A 
ATOM     78  C   UNL A   1      47.223  35.147  27.954  1.00  0.00     0.059 A 
ATOM     79  F   UNL A   1      46.278  33.601  26.465  1.00  0.00    -0.206 F 
ATOM     80  C   UNL A   1      47.667  35.453  29.239  1.00  0.00     0.060 A 
BRANCH  80  81
ATOM     81  S   UNL A   1      48.370  37.077  29.604  1.00  0.00     0.124 S 
ATOM     82  O   UNL A   1      48.496  37.646  28.266  1.00  0.00    -0.237 OA
ATOM     83  O   UNL A   1      47.346  37.677  30.453  1.00  0.00    -0.237 OA
ATOM     84  O   UNL A   1      49.629  36.762  30.271  1.00  0.00    -0.744 OA
ENDBRANCH  80  81
ENDBRANCH  59  73
BRANCH  60  85
ATOM     85  C   UNL A   1      43.455  23.603  26.900  1.00  0.00     0.058 A 
ATOM     86  C   UNL A   1      43.286  23.111  25.598  1.00  0.00     0.135 A 
ATOM     87  C   UNL A   1      43.185  22.737  27.969  1.00  0.00     0.135 A 
ATOM     88  F   UNL A   1      43.528  23.905  24.544  1.00  0.00    -0.206 F 
ATOM     89  C   UNL A   1      42.850  21.812  25.363  1.00  0.00     0.059 A 
ATOM     90  C   UNL A   1      42.772  21.425  27.760  1.00  0.00     0.059 A 
ATOM     91  F   UNL A   1      43.346  23.157  29.234  1.00  0.00    -0.206 F 
ATOM     92  C   UNL A   1      42.596  20.976  26.452  1.00  0.00     0.060 A 
BRANCH  92  93
ATOM     93  S   UNL A   1      42.066  19.278  26.140  1.00  0.00     0.124 S 
ATOM     94  O   UNL A   1      42.863  18.935  24.969  1.00  0.00    -0.237 OA
ATOM     95  O   UNL A   1      42.434  18.607  27.383  1.00  0.00    -0.237 OA
ATOM     96  O   UNL A   1      40.631  19.413  25.911  1.00  0.00    -0.744 OA
ENDBRANCH  92  93
ENDBRANCH  60  85
BRANCH  72  97
ATOM     97  C   UNL A   1      49.650  26.760  26.474  1.00  0.00     0.058 A 
ATOM     98  C   UNL A   1      50.496  26.128  27.397  1.00  0.00     0.135 A 
ATOM     99  C   UNL A   1      50.089  26.871  25.144  1.00  0.00     0.135 A 
ATOM    100  F   UNL A   1      50.124  26.006  28.681  1.00  0.00    -0.206 F 
ATOM    101  C   UNL A   1      51.739  25.633  27.018  1.00  0.00     0.059 A 
ATOM    102  C   UNL A   1      51.319  26.364  24.740  1.00  0.00     0.059 A 
ATOM    103  F   UNL A   1      49.312  27.462  24.223  1.00  0.00    -0.206 F 
ATOM    104  C   UNL A   1      52.141  25.752  25.687  1.00  0.00     0.060 A 
BRANCH 104 105
ATOM    105  S   UNL A   1      53.736  25.064  25.201  1.00  0.00     0.124 S 
ATOM    106  O   UNL A   1      54.620  25.621  26.219  1.00  0.00    -0.237 OA
ATOM    107  O   UNL A   1      53.497  23.627  25.287  1.00  0.00    -0.237 OA
ATOM    108  O   UNL A   1      53.932  25.581  23.849  1.00  0.00    -0.744 OA
ENDBRANCH 104 105
ENDBRANCH  72  97
ENDBRANCH  46  47
ENDBRANCH  38  41
ENDBRANCH  36  37
ENDBRANCH   1  36
TORSDOF 15
ENDMDL
MODEL 3
REMARK VINA RESULT:     -14.4      5.721     12.713
REMARK SMILES C[C@]12C(=O)N(c3ccc(C(=O)NCCCCNC(=O)c4ccc(-c5c6nc(c(-c7c(F)cc(S(=O)(=O)[O-])cc7F)c7ccc([nH]7)c(-c7c(F)cc(S(=O)(=O)[O-])cc7F)c7nc(c(-c8c(F)cc(S(=O)(=O)[O-])cc8F)c8ccc5[nH]8)C=C7)C=C6)cc4)cc3)C(=O)[C@H]1[C@H]1c3ccccc3[C@@H]2c2ccccc21
REMARK SMILES IDX 15 1 14 2 13 3 12 4 10 5 11 6 9 8 6 9 7 10 87 11 8 12 86 13
REMARK SMILES IDX 5 14 1 15 2 16 3 17 90 18 98 19 4 20 88 21 91 22 97 23 99 24
REMARK SMILES IDX 89 25 92 26 104 27 96 28 100 29 93 30 103 31 95 32 101 33
REMARK SMILES IDX 94 34 102 35 16 36 17 37 18 38 19 40 20 41 21 42 85 43 22 44
REMARK SMILES IDX 84 45 23 46 24 47 25 48 78 49 26 50 83 51 77 52 79 53 27 54
REMARK SMILES IDX 82 55 76 56 75 57 28 59 62 60 41 61 61 62 42 63 45 64 60 65
REMARK SMILES IDX 80 66 43 67 44 68 59 70 81 71 46 72 29 73 30 74 39 75 31 76
REMARK SMILES IDX 32 77 38 78 40 79 33 80 34 81 35 82 36 83 37 84 63 85 64 86
REMARK SMILES IDX 73 87 65 88 66 89 72 90 74 91 67 92 68 93 69 94 70 95 71 96
REMARK SMILES IDX 47 97 48 98 57 99 49 100 50 101 56 102 58 103 51 104 52 105
REMARK SMILES IDX 53 106 54 107 55 108
REMARK H PARENT 12 7 17 39 79 58 45 69
REMARK Flexibility Score: inf
ROOT
ATOM      1  C   UNL A   1      35.470  33.053  28.194  1.00  0.00     0.023 C 
ENDROOT
BRANCH   1   2
ATOM      2  C   UNL A   1      34.894  34.435  28.478  1.00  0.00     0.023 C 
BRANCH   2   3
ATOM      3  C   UNL A   1      33.415  34.469  28.836  1.00  0.00     0.116 C 
BRANCH   3   4
ATOM      4  N   UNL A   1      33.046  35.615  29.648  1.00  0.00    -0.352 N 
ATOM      5  C   UNL A   1      33.313  35.886  30.966  1.00  0.00     0.251 C 
ATOM      6  O   UNL A   1      32.826  36.878  31.500  1.00  0.00    -0.269 OA
ATOM      7  H   UNL A   1      32.523  36.305  29.180  1.00  0.00     0.163 HD
BRANCH   5   8
ATOM      8  C   UNL A   1      34.168  34.982  31.765  1.00  0.00     0.039 A 
ATOM      9  C   UNL A   1      35.888  33.294  33.257  1.00  0.00     0.052 A 
ATOM     10  C   UNL A   1      36.215  34.639  33.003  1.00  0.00     0.027 A 
ATOM     11  C   UNL A   1      34.671  32.824  32.743  1.00  0.00     0.027 A 
ATOM     12  C   UNL A   1      35.369  35.475  32.265  1.00  0.00     0.016 A 
ATOM     13  C   UNL A   1      33.843  33.643  31.970  1.00  0.00     0.016 A 
BRANCH   9  14
ATOM     14  N   UNL A   1      36.834  32.392  33.830  1.00  0.00    -0.250 N 
ATOM     15  C   UNL A   1      39.321  31.320  36.081  1.00  0.00     0.024 C 
ATOM     16  C   UNL A   1      38.941  31.881  34.704  1.00  0.00     0.071 C 
ATOM     17  C   UNL A   1      37.706  32.735  34.839  1.00  0.00     0.241 C 
ATOM     18  C   UNL A   1      38.517  30.746  33.733  1.00  0.00     0.107 C 
ATOM     19  C   UNL A   1      40.059  32.762  34.038  1.00  0.00     0.066 C 
ATOM     20  O   UNL A   1      37.590  33.579  35.712  1.00  0.00    -0.273 OA
ATOM     21  C   UNL A   1      37.099  31.118  33.367  1.00  0.00     0.238 C 
ATOM     22  C   UNL A   1      39.435  30.736  32.467  1.00  0.00     0.063 C 
ATOM     23  C   UNL A   1      39.569  33.190  32.643  1.00  0.00    -0.036 A 
ATOM     24  C   UNL A   1      41.220  31.802  33.804  1.00  0.00    -0.036 A 
ATOM     25  O   UNL A   1      36.371  30.349  32.750  1.00  0.00    -0.274 OA
ATOM     26  C   UNL A   1      39.256  32.096  31.792  1.00  0.00    -0.036 A 
ATOM     27  C   UNL A   1      40.879  30.694  32.980  1.00  0.00    -0.036 A 
ATOM     28  C   UNL A   1      39.344  34.491  32.217  1.00  0.00     0.005 A 
ATOM     29  C   UNL A   1      42.499  31.953  34.317  1.00  0.00     0.005 A 
ATOM     30  C   UNL A   1      38.741  32.301  30.519  1.00  0.00     0.004 A 
ATOM     31  C   UNL A   1      41.832  29.736  32.674  1.00  0.00     0.004 A 
ATOM     32  C   UNL A   1      38.814  34.696  30.940  1.00  0.00     0.000 A 
ATOM     33  C   UNL A   1      43.450  30.983  34.008  1.00  0.00     0.000 A 
ATOM     34  C   UNL A   1      38.521  33.613  30.096  1.00  0.00     0.000 A 
ATOM     35  C   UNL A   1      43.121  29.887  33.196  1.00  0.00     0.000 A 
ENDBRANCH   9  14
ENDBRANCH   5   8
ENDBRANCH   3   4
ENDBRANCH   2   3
ENDBRANCH   1   2
BRANCH   1  36
ATOM     36  C   UNL A   1      35.081  31.957  29.178  1.00  0.00     0.116 C 
BRANCH  36  37
ATOM     37  N   UNL A   1      34.660  30.709  28.551  1.00  0.00    -0.352 N 
ATOM     38  C   UNL A   1      35.414  29.615  28.191  1.00  0.00     0.251 C 
ATOM     39  H   UNL A   1      33.698  30.640  28.357  1.00  0.00     0.163 HD
ATOM     40  O   UNL A   1      34.887  28.661  27.629  1.00  0.00    -0.269 OA
BRANCH  38  41
ATOM     41  C   UNL A   1      36.871  29.629  28.434  1.00  0.00     0.039 A 
ATOM     42  C   UNL A   1      37.744  30.134  27.472  1.00  0.00     0.014 A 
ATOM     43  C   UNL A   1      37.369  29.043  29.601  1.00  0.00     0.014 A 
ATOM     44  C   UNL A   1      39.102  29.858  27.574  1.00  0.00     0.010 A 
ATOM     45  C   UNL A   1      38.745  28.854  29.746  1.00  0.00     0.010 A 
ATOM     46  C   UNL A   1      39.618  29.198  28.702  1.00  0.00    -0.014 A 
BRANCH  46  47
ATOM     47  C   UNL A   1      41.063  28.849  28.744  1.00  0.00     0.031 A 
ATOM     48  C   UNL A   1      41.535  27.476  28.329  1.00  0.00     0.074 A 
ATOM     49  C   UNL A   1      41.959  29.800  29.073  1.00  0.00     0.049 A 
ATOM     50  N   UNL A   1      42.756  27.005  28.288  1.00  0.00    -0.248 NA
ATOM     51  C   UNL A   1      40.510  26.505  27.910  1.00  0.00     0.031 C 
ATOM     52  C   UNL A   1      41.625  31.170  29.471  1.00  0.00     0.029 A 
ATOM     53  N   UNL A   1      43.330  29.775  29.094  1.00  0.00    -0.354 N 
ATOM     54  C   UNL A   1      42.646  25.687  27.857  1.00  0.00     0.074 A 
ATOM     55  C   UNL A   1      41.237  25.421  27.674  1.00  0.00     0.031 C 
ATOM     56  C   UNL A   1      42.758  31.870  29.630  1.00  0.00     0.029 A 
ATOM     57  C   UNL A   1      43.897  30.986  29.415  1.00  0.00     0.049 A 
ATOM     58  H   UNL A   1      43.858  28.967  28.897  1.00  0.00     0.167 HD
ATOM     59  C   UNL A   1      43.631  24.788  27.621  1.00  0.00     0.037 A 
ATOM     60  C   UNL A   1      45.190  31.344  29.535  1.00  0.00     0.037 A 
ATOM     61  C   UNL A   1      45.036  25.068  27.769  1.00  0.00     0.049 A 
ATOM     62  C   UNL A   1      46.258  30.314  29.302  1.00  0.00     0.074 A 
ATOM     63  C   UNL A   1      46.109  24.219  27.554  1.00  0.00     0.029 A 
ATOM     64  N   UNL A   1      45.565  26.290  28.152  1.00  0.00    -0.354 N 
ATOM     65  N   UNL A   1      46.129  29.065  28.925  1.00  0.00    -0.248 NA
ATOM     66  C   UNL A   1      47.647  30.737  29.526  1.00  0.00     0.031 C 
ATOM     67  C   UNL A   1      47.285  24.921  27.834  1.00  0.00     0.029 A 
ATOM     68  C   UNL A   1      46.948  26.216  28.188  1.00  0.00     0.049 A 
ATOM     69  H   UNL A   1      45.037  27.093  28.367  1.00  0.00     0.167 HD
ATOM     70  C   UNL A   1      47.419  28.556  28.858  1.00  0.00     0.074 A 
ATOM     71  C   UNL A   1      48.317  29.636  29.213  1.00  0.00     0.031 C 
ATOM     72  C   UNL A   1      47.825  27.303  28.538  1.00  0.00     0.037 A 
BRANCH  59  73
ATOM     73  C   UNL A   1      43.241  23.408  27.168  1.00  0.00     0.058 A 
ATOM     74  C   UNL A   1      43.444  22.987  25.846  1.00  0.00     0.135 A 
ATOM     75  C   UNL A   1      42.751  22.467  28.089  1.00  0.00     0.135 A 
ATOM     76  F   UNL A   1      43.893  23.851  24.923  1.00  0.00    -0.206 F 
ATOM     77  C   UNL A   1      43.178  21.680  25.451  1.00  0.00     0.059 A 
ATOM     78  C   UNL A   1      42.497  21.149  27.721  1.00  0.00     0.059 A 
ATOM     79  F   UNL A   1      42.537  22.820  29.366  1.00  0.00    -0.206 F 
ATOM     80  C   UNL A   1      42.711  20.766  26.398  1.00  0.00     0.060 A 
BRANCH  80  81
ATOM     81  S   UNL A   1      42.418  19.061  25.878  1.00  0.00     0.124 S 
ATOM     82  O   UNL A   1      43.219  18.986  24.660  1.00  0.00    -0.237 OA
ATOM     83  O   UNL A   1      42.921  18.297  27.014  1.00  0.00    -0.237 OA
ATOM     84  O   UNL A   1      40.972  19.008  25.681  1.00  0.00    -0.744 OA
ENDBRANCH  80  81
ENDBRANCH  59  73
BRANCH  60  85
ATOM     85  C   UNL A   1      45.542  32.738  29.906  1.00  0.00     0.058 A 
ATOM     86  C   UNL A   1      45.788  33.088  31.241  1.00  0.00     0.135 A 
ATOM     87  C   UNL A   1      45.647  33.744  28.934  1.00  0.00     0.135 A 
ATOM     88  F   UNL A   1      45.695  32.161  32.206  1.00  0.00    -0.206 F 
ATOM     89  C   UNL A   1      46.111  34.392  31.603  1.00  0.00     0.059 A 
ATOM     90  C   UNL A   1      45.994  35.049  29.267  1.00  0.00     0.059 A 
ATOM     91  F   UNL A   1      45.436  33.455  27.640  1.00  0.00    -0.206 F 
ATOM     92  C   UNL A   1      46.211  35.366  30.607  1.00  0.00     0.060 A 
BRANCH  92  93
ATOM     93  S   UNL A   1      46.668  37.047  31.079  1.00  0.00     0.124 S 
ATOM     94  O   UNL A   1      46.996  37.634  29.785  1.00  0.00    -0.237 OA
ATOM     95  O   UNL A   1      45.444  37.534  31.708  1.00  0.00    -0.237 OA
ATOM     96  O   UNL A   1      47.793  36.846  31.987  1.00  0.00    -0.744 OA
ENDBRANCH  92  93
ENDBRANCH  60  85
BRANCH  72  97
ATOM     97  C   UNL A   1      49.300  27.034  28.542  1.00  0.00     0.058 A 
ATOM     98  C   UNL A   1      50.087  27.265  27.404  1.00  0.00     0.135 A 
ATOM     99  C   UNL A   1      49.944  26.600  29.712  1.00  0.00     0.135 A 
ATOM    100  F   UNL A   1      49.517  27.672  26.259  1.00  0.00    -0.206 F 
ATOM    101  C   UNL A   1      51.463  27.063  27.422  1.00  0.00     0.059 A 
ATOM    102  C   UNL A   1      51.321  26.413  29.758  1.00  0.00     0.059 A 
ATOM    103  F   UNL A   1      49.235  26.372  30.829  1.00  0.00    -0.206 F 
ATOM    104  C   UNL A   1      52.072  26.640  28.605  1.00  0.00     0.060 A 
BRANCH 104 105
ATOM    105  S   UNL A   1      53.863  26.427  28.625  1.00  0.00     0.124 S 
ATOM    106  O   UNL A   1      54.090  25.968  29.992  1.00  0.00    -0.237 OA
ATOM    107  O   UNL A   1      54.073  25.432  27.579  1.00  0.00    -0.237 OA
ATOM    108  O   UNL A   1      54.368  27.763  28.321  1.00  0.00    -0.744 OA
ENDBRANCH 104 105
ENDBRANCH  72  97
ENDBRANCH  46  47
ENDBRANCH  38  41
ENDBRANCH  36  37
ENDBRANCH   1  36
TORSDOF 15
ENDMDL
