MODEL 1
REMARK VINA RESULT:     -11.6      0.000      0.000
REMARK SMILES C[C@H]1CC[C@@]1(C(=O)NCCCCNC(=O)c1ccc(-c2c3nc(c(-c4c(F)cc(S(=O)(=O)[O-])cc4F)c4ccc([nH]4)c(-c4c(F)cc(S(=O)(=O)[O-])cc4F)c4nc(c(-c5c(F)cc(S(=O)(=O)[O-])cc5F)c5ccc2[nH]5)C=C4)C=C3)cc1)c1ccc(Cl)cc1Cl
REMARK SMILES IDX 11 1 10 2 9 3 8 4 6 5 7 6 5 8 1 9 2 10 3 11 4 12 82 13 83 14
REMARK SMILES IDX 88 15 84 16 87 17 89 18 85 19 86 20 12 21 13 22 14 23 15 25
REMARK SMILES IDX 16 26 17 27 81 28 18 29 80 30 19 31 20 32 21 33 74 34 22 35
REMARK SMILES IDX 79 36 73 37 75 38 23 39 78 40 72 41 71 42 24 44 58 45 37 46
REMARK SMILES IDX 57 47 38 48 41 49 56 50 76 51 39 52 40 53 55 55 77 56 42 57
REMARK SMILES IDX 25 58 26 59 35 60 27 61 28 62 34 63 36 64 29 65 30 66 31 67
REMARK SMILES IDX 32 68 33 69 59 70 60 71 69 72 61 73 62 74 68 75 70 76 63 77
REMARK SMILES IDX 64 78 65 79 66 80 67 81 43 82 44 83 53 84 45 85 46 86 52 87
REMARK SMILES IDX 54 88 47 89 48 90 49 91 50 92 51 93
REMARK H PARENT 8 7 13 24 75 43 41 54
REMARK Flexibility Score: inf
ROOT
ATOM      1  C   UNL A   1      32.080  28.298  26.691  1.00  0.00     0.023 C 
ENDROOT
BRANCH   1   2
ATOM      2  C   UNL A   1      32.093  27.566  25.348  1.00  0.00     0.023 C 
BRANCH   2   3
ATOM      3  C   UNL A   1      33.399  26.863  24.989  1.00  0.00     0.116 C 
BRANCH   3   4
ATOM      4  N   UNL A   1      33.572  26.656  23.566  1.00  0.00    -0.355 N 
ATOM      5  C   UNL A   1      33.442  25.507  22.818  1.00  0.00     0.230 C 
ATOM      6  O   UNL A   1      33.490  25.653  21.589  1.00  0.00    -0.274 OA
ATOM      7  H   UNL A   1      33.820  27.460  23.055  1.00  0.00     0.163 HD
BRANCH   5   8
ATOM      8  C   UNL A   1      33.183  24.103  23.553  1.00  0.00     0.078 C 
ATOM      9  C   UNL A   1      32.405  21.570  22.998  1.00  0.00     0.009 C 
ATOM     10  C   UNL A   1      32.322  23.062  22.692  1.00  0.00     0.006 C 
ATOM     11  C   UNL A   1      31.054  23.734  23.271  1.00  0.00     0.006 C 
ATOM     12  C   UNL A   1      31.895  24.170  24.482  1.00  0.00     0.022 C 
BRANCH   8  13
ATOM     13  C   UNL A   1      34.596  23.504  24.163  1.00  0.00    -0.013 A 
ATOM     14  C   UNL A   1      35.680  23.209  23.297  1.00  0.00     0.008 A 
ATOM     15  C   UNL A   1      34.861  23.263  25.538  1.00  0.00     0.046 A 
ATOM     16  C   UNL A   1      36.893  22.670  23.743  1.00  0.00     0.021 A 
ATOM     17  C   UNL A   1      36.059  22.683  25.989  1.00  0.00     0.041 A 
ATOM     18  Cl  UNL A   1      33.743  23.693  26.785  1.00  0.00    -0.084 Cl
ATOM     19  C   UNL A   1      37.067  22.386  25.086  1.00  0.00     0.042 A 
ATOM     20  Cl  UNL A   1      38.539  21.685  25.631  1.00  0.00    -0.084 Cl
ENDBRANCH   8  13
ENDBRANCH   5   8
ENDBRANCH   3   4
ENDBRANCH   2   3
ENDBRANCH   1   2
BRANCH   1  21
ATOM     21  C   UNL A   1      33.443  28.714  27.235  1.00  0.00     0.116 C 
BRANCH  21  22
ATOM     22  N   UNL A   1      33.478  30.091  27.707  1.00  0.00    -0.352 N 
ATOM     23  C   UNL A   1      34.500  30.786  28.311  1.00  0.00     0.251 C 
ATOM     24  H   UNL A   1      32.647  30.600  27.575  1.00  0.00     0.163 HD
ATOM     25  O   UNL A   1      34.297  31.919  28.736  1.00  0.00    -0.269 OA
BRANCH  23  26
ATOM     26  C   UNL A   1      35.825  30.152  28.489  1.00  0.00     0.039 A 
ATOM     27  C   UNL A   1      36.721  30.158  27.416  1.00  0.00     0.014 A 
ATOM     28  C   UNL A   1      36.197  29.588  29.712  1.00  0.00     0.014 A 
ATOM     29  C   UNL A   1      38.025  29.694  27.602  1.00  0.00     0.010 A 
ATOM     30  C   UNL A   1      37.516  29.186  29.914  1.00  0.00     0.010 A 
ATOM     31  C   UNL A   1      38.449  29.259  28.869  1.00  0.00    -0.014 A 
BRANCH  31  32
ATOM     32  C   UNL A   1      39.876  28.946  29.139  1.00  0.00     0.031 A 
ATOM     33  C   UNL A   1      40.806  30.003  29.665  1.00  0.00     0.074 A 
ATOM     34  C   UNL A   1      40.352  27.726  28.817  1.00  0.00     0.049 A 
ATOM     35  N   UNL A   1      42.098  29.941  29.859  1.00  0.00    -0.248 NA
ATOM     36  C   UNL A   1      40.208  31.307  29.993  1.00  0.00     0.031 C 
ATOM     37  C   UNL A   1      39.561  26.630  28.252  1.00  0.00     0.029 A 
ATOM     38  N   UNL A   1      41.622  27.207  28.899  1.00  0.00    -0.354 N 
ATOM     39  C   UNL A   1      42.473  31.197  30.320  1.00  0.00     0.074 A 
ATOM     40  C   UNL A   1      41.277  32.013  30.338  1.00  0.00     0.031 C 
ATOM     41  C   UNL A   1      40.357  25.569  28.049  1.00  0.00     0.029 A 
ATOM     42  C   UNL A   1      41.722  25.918  28.430  1.00  0.00     0.049 A 
ATOM     43  H   UNL A   1      42.386  27.710  29.260  1.00  0.00     0.167 HD
ATOM     44  C   UNL A   1      43.699  31.625  30.707  1.00  0.00     0.037 A 
ATOM     45  C   UNL A   1      42.794  25.113  28.300  1.00  0.00     0.037 A 
ATOM     46  C   UNL A   1      44.882  30.802  30.705  1.00  0.00     0.049 A 
ATOM     47  C   UNL A   1      44.146  25.616  28.722  1.00  0.00     0.074 A 
ATOM     48  C   UNL A   1      46.153  31.123  31.149  1.00  0.00     0.029 A 
ATOM     49  N   UNL A   1      44.942  29.501  30.229  1.00  0.00    -0.354 N 
ATOM     50  N   UNL A   1      44.470  26.786  29.220  1.00  0.00    -0.248 NA
ATOM     51  C   UNL A   1      45.279  24.694  28.561  1.00  0.00     0.031 C 
ATOM     52  C   UNL A   1      46.991  30.029  30.903  1.00  0.00     0.029 A 
ATOM     53  C   UNL A   1      46.234  29.013  30.342  1.00  0.00     0.049 A 
ATOM     54  H   UNL A   1      44.178  28.997  29.864  1.00  0.00     0.167 HD
ATOM     55  C   UNL A   1      45.841  26.736  29.441  1.00  0.00     0.074 A 
ATOM     56  C   UNL A   1      46.282  25.415  29.042  1.00  0.00     0.031 C 
ATOM     57  C   UNL A   1      46.660  27.700  29.929  1.00  0.00     0.037 A 
BRANCH  44  58
ATOM     58  C   UNL A   1      43.824  33.049  31.171  1.00  0.00     0.058 A 
ATOM     59  C   UNL A   1      44.224  34.072  30.298  1.00  0.00     0.135 A 
ATOM     60  C   UNL A   1      43.506  33.401  32.492  1.00  0.00     0.135 A 
ATOM     61  F   UNL A   1      44.554  33.788  29.027  1.00  0.00    -0.206 F 
ATOM     62  C   UNL A   1      44.329  35.393  30.725  1.00  0.00     0.059 A 
ATOM     63  C   UNL A   1      43.581  34.719  32.935  1.00  0.00     0.059 A 
ATOM     64  F   UNL A   1      43.118  32.462  33.368  1.00  0.00    -0.206 F 
ATOM     65  C   UNL A   1      44.008  35.706  32.046  1.00  0.00     0.060 A 
BRANCH  65  66
ATOM     66  S   UNL A   1      44.147  37.423  32.583  1.00  0.00     0.124 S 
ATOM     67  O   UNL A   1      45.539  37.479  33.022  1.00  0.00    -0.237 OA
ATOM     68  O   UNL A   1      43.839  38.160  31.362  1.00  0.00    -0.237 OA
ATOM     69  O   UNL A   1      43.151  37.530  33.645  1.00  0.00    -0.744 OA
ENDBRANCH  65  66
ENDBRANCH  44  58
BRANCH  45  70
ATOM     70  C   UNL A   1      42.628  23.743  27.748  1.00  0.00     0.058 A 
ATOM     71  C   UNL A   1      42.625  23.522  26.364  1.00  0.00     0.135 A 
ATOM     72  C   UNL A   1      42.489  22.629  28.590  1.00  0.00     0.135 A 
ATOM     73  F   UNL A   1      42.746  24.558  25.519  1.00  0.00    -0.206 F 
ATOM     74  C   UNL A   1      42.482  22.246  25.830  1.00  0.00     0.059 A 
ATOM     75  C   UNL A   1      42.368  21.339  28.081  1.00  0.00     0.059 A 
ATOM     76  F   UNL A   1      42.501  22.787  29.923  1.00  0.00    -0.206 F 
ATOM     77  C   UNL A   1      42.357  21.159  26.698  1.00  0.00     0.060 A 
BRANCH  77  78
ATOM     78  S   UNL A   1      42.232  19.499  25.998  1.00  0.00     0.124 S 
ATOM     79  O   UNL A   1      43.097  19.609  24.829  1.00  0.00    -0.237 OA
ATOM     80  O   UNL A   1      42.733  18.666  27.087  1.00  0.00    -0.237 OA
ATOM     81  O   UNL A   1      40.806  19.360  25.720  1.00  0.00    -0.744 OA
ENDBRANCH  77  78
ENDBRANCH  45  70
BRANCH  57  82
ATOM     82  C   UNL A   1      48.119  27.360  30.063  1.00  0.00     0.058 A 
ATOM     83  C   UNL A   1      49.027  27.616  29.024  1.00  0.00     0.135 A 
ATOM     84  C   UNL A   1      48.620  26.816  31.255  1.00  0.00     0.135 A 
ATOM     85  F   UNL A   1      48.594  28.127  27.860  1.00  0.00    -0.206 F 
ATOM     86  C   UNL A   1      50.381  27.329  29.156  1.00  0.00     0.059 A 
ATOM     87  C   UNL A   1      49.975  26.542  31.418  1.00  0.00     0.059 A 
ATOM     88  F   UNL A   1      47.794  26.558  32.281  1.00  0.00    -0.206 F 
ATOM     89  C   UNL A   1      50.846  26.792  30.358  1.00  0.00     0.060 A 
BRANCH  89  90
ATOM     90  S   UNL A   1      52.612  26.458  30.533  1.00  0.00     0.124 S 
ATOM     91  O   UNL A   1      52.603  25.279  31.393  1.00  0.00    -0.237 OA
ATOM     92  O   UNL A   1      53.026  26.231  29.151  1.00  0.00    -0.237 OA
ATOM     93  O   UNL A   1      53.129  27.679  31.143  1.00  0.00    -0.744 OA
ENDBRANCH  89  90
ENDBRANCH  57  82
ENDBRANCH  31  32
ENDBRANCH  23  26
ENDBRANCH  21  22
ENDBRANCH   1  21
TORSDOF 15
ENDMDL
MODEL 2
REMARK VINA RESULT:     -11.5      1.729      3.067
REMARK SMILES C[C@H]1CC[C@@]1(C(=O)NCCCCNC(=O)c1ccc(-c2c3nc(c(-c4c(F)cc(S(=O)(=O)[O-])cc4F)c4ccc([nH]4)c(-c4c(F)cc(S(=O)(=O)[O-])cc4F)c4nc(c(-c5c(F)cc(S(=O)(=O)[O-])cc5F)c5ccc2[nH]5)C=C4)C=C3)cc1)c1ccc(Cl)cc1Cl
REMARK SMILES IDX 11 1 10 2 9 3 8 4 6 5 7 6 5 8 1 9 2 10 3 11 4 12 82 13 83 14
REMARK SMILES IDX 88 15 84 16 87 17 89 18 85 19 86 20 12 21 13 22 14 23 15 25
REMARK SMILES IDX 16 26 17 27 81 28 18 29 80 30 19 31 20 32 21 33 74 34 22 35
REMARK SMILES IDX 79 36 73 37 75 38 23 39 78 40 72 41 71 42 24 44 58 45 37 46
REMARK SMILES IDX 57 47 38 48 41 49 56 50 76 51 39 52 40 53 55 55 77 56 42 57
REMARK SMILES IDX 25 58 26 59 35 60 27 61 28 62 34 63 36 64 29 65 30 66 31 67
REMARK SMILES IDX 32 68 33 69 59 70 60 71 69 72 61 73 62 74 68 75 70 76 63 77
REMARK SMILES IDX 64 78 65 79 66 80 67 81 43 82 44 83 53 84 45 85 46 86 52 87
REMARK SMILES IDX 54 88 47 89 48 90 49 91 50 92 51 93
REMARK H PARENT 8 7 13 24 75 43 41 54
REMARK Flexibility Score: inf
ROOT
ATOM      1  C   UNL A   1      32.152  28.435  26.518  1.00  0.00     0.023 C 
ENDROOT
BRANCH   1   2
ATOM      2  C   UNL A   1      31.539  27.068  26.826  1.00  0.00     0.023 C 
BRANCH   2   3
ATOM      3  C   UNL A   1      32.430  25.862  26.544  1.00  0.00     0.116 C 
BRANCH   3   4
ATOM      4  N   UNL A   1      31.733  24.764  25.909  1.00  0.00    -0.355 N 
ATOM      5  C   UNL A   1      31.563  24.480  24.572  1.00  0.00     0.230 C 
ATOM      6  O   UNL A   1      31.058  23.381  24.311  1.00  0.00    -0.274 OA
ATOM      7  H   UNL A   1      31.317  24.121  26.527  1.00  0.00     0.163 HD
BRANCH   5   8
ATOM      8  C   UNL A   1      32.069  25.529  23.464  1.00  0.00     0.078 C 
ATOM      9  C   UNL A   1      32.557  25.682  20.807  1.00  0.00     0.009 C 
ATOM     10  C   UNL A   1      32.531  24.855  22.087  1.00  0.00     0.006 C 
ATOM     11  C   UNL A   1      33.929  24.672  22.724  1.00  0.00     0.006 C 
ATOM     12  C   UNL A   1      33.613  25.858  23.648  1.00  0.00     0.022 C 
BRANCH   8  13
ATOM     13  C   UNL A   1      30.985  26.766  23.307  1.00  0.00    -0.013 A 
ATOM     14  C   UNL A   1      29.608  26.546  23.563  1.00  0.00     0.008 A 
ATOM     15  C   UNL A   1      31.310  28.101  22.947  1.00  0.00     0.046 A 
ATOM     16  C   UNL A   1      28.633  27.541  23.418  1.00  0.00     0.021 A 
ATOM     17  C   UNL A   1      30.333  29.094  22.757  1.00  0.00     0.041 A 
ATOM     18  Cl  UNL A   1      32.942  28.633  22.738  1.00  0.00    -0.084 Cl
ATOM     19  C   UNL A   1      28.999  28.805  22.990  1.00  0.00     0.042 A 
ATOM     20  Cl  UNL A   1      27.799  30.017  22.771  1.00  0.00    -0.084 Cl
ENDBRANCH   8  13
ENDBRANCH   5   8
ENDBRANCH   3   4
ENDBRANCH   2   3
ENDBRANCH   1   2
BRANCH   1  21
ATOM     21  C   UNL A   1      33.442  28.768  27.261  1.00  0.00     0.116 C 
BRANCH  21  22
ATOM     22  N   UNL A   1      33.471  30.126  27.783  1.00  0.00    -0.352 N 
ATOM     23  C   UNL A   1      34.493  30.806  28.403  1.00  0.00     0.251 C 
ATOM     24  H   UNL A   1      32.635  30.634  27.677  1.00  0.00     0.163 HD
ATOM     25  O   UNL A   1      34.286  31.922  28.871  1.00  0.00    -0.269 OA
BRANCH  23  26
ATOM     26  C   UNL A   1      35.825  30.177  28.547  1.00  0.00     0.039 A 
ATOM     27  C   UNL A   1      36.675  30.145  27.438  1.00  0.00     0.014 A 
ATOM     28  C   UNL A   1      36.247  29.653  29.772  1.00  0.00     0.014 A 
ATOM     29  C   UNL A   1      37.985  29.685  27.585  1.00  0.00     0.010 A 
ATOM     30  C   UNL A   1      37.572  29.256  29.932  1.00  0.00     0.010 A 
ATOM     31  C   UNL A   1      38.462  29.292  28.847  1.00  0.00    -0.014 A 
BRANCH  31  32
ATOM     32  C   UNL A   1      39.899  28.986  29.068  1.00  0.00     0.031 A 
ATOM     33  C   UNL A   1      40.844  30.052  29.544  1.00  0.00     0.074 A 
ATOM     34  C   UNL A   1      40.366  27.763  28.745  1.00  0.00     0.049 A 
ATOM     35  N   UNL A   1      42.143  29.996  29.690  1.00  0.00    -0.248 NA
ATOM     36  C   UNL A   1      40.256  31.359  29.877  1.00  0.00     0.031 C 
ATOM     37  C   UNL A   1      39.556  26.657  28.224  1.00  0.00     0.029 A 
ATOM     38  N   UNL A   1      41.638  27.248  28.786  1.00  0.00    -0.354 N 
ATOM     39  C   UNL A   1      42.532  31.259  30.119  1.00  0.00     0.074 A 
ATOM     40  C   UNL A   1      41.335  32.072  30.171  1.00  0.00     0.031 C 
ATOM     41  C   UNL A   1      40.347  25.596  28.007  1.00  0.00     0.029 A 
ATOM     42  C   UNL A   1      41.724  25.953  28.331  1.00  0.00     0.049 A 
ATOM     43  H   UNL A   1      42.414  27.758  29.111  1.00  0.00     0.167 HD
ATOM     44  C   UNL A   1      43.770  31.694  30.455  1.00  0.00     0.037 A 
ATOM     45  C   UNL A   1      42.793  25.148  28.172  1.00  0.00     0.037 A 
ATOM     46  C   UNL A   1      44.954  30.874  30.419  1.00  0.00     0.049 A 
ATOM     47  C   UNL A   1      44.158  25.660  28.536  1.00  0.00     0.074 A 
ATOM     48  C   UNL A   1      46.240  31.203  30.811  1.00  0.00     0.029 A 
ATOM     49  N   UNL A   1      45.000  29.566  29.959  1.00  0.00    -0.354 N 
ATOM     50  N   UNL A   1      44.498  26.837  29.006  1.00  0.00    -0.248 NA
ATOM     51  C   UNL A   1      45.287  24.738  28.345  1.00  0.00     0.031 C 
ATOM     52  C   UNL A   1      47.071  30.108  30.549  1.00  0.00     0.029 A 
ATOM     53  C   UNL A   1      46.297  29.083  30.030  1.00  0.00     0.049 A 
ATOM     54  H   UNL A   1      44.225  29.056  29.631  1.00  0.00     0.167 HD
ATOM     55  C   UNL A   1      45.876  26.793  29.176  1.00  0.00     0.074 A 
ATOM     56  C   UNL A   1      46.305  25.468  28.779  1.00  0.00     0.031 C 
ATOM     57  C   UNL A   1      46.710  27.765  29.620  1.00  0.00     0.037 A 
BRANCH  44  58
ATOM     58  C   UNL A   1      43.909  33.124  30.895  1.00  0.00     0.058 A 
ATOM     59  C   UNL A   1      43.833  33.486  32.249  1.00  0.00     0.135 A 
ATOM     60  C   UNL A   1      44.157  34.140  29.958  1.00  0.00     0.135 A 
ATOM     61  F   UNL A   1      43.583  32.556  33.185  1.00  0.00    -0.206 F 
ATOM     62  C   UNL A   1      43.973  34.809  32.657  1.00  0.00     0.059 A 
ATOM     63  C   UNL A   1      44.325  35.467  30.346  1.00  0.00     0.059 A 
ATOM     64  F   UNL A   1      44.240  33.849  28.651  1.00  0.00    -0.206 F 
ATOM     65  C   UNL A   1      44.216  35.793  31.698  1.00  0.00     0.060 A 
BRANCH  65  66
ATOM     66  S   UNL A   1      44.397  37.503  32.245  1.00  0.00     0.124 S 
ATOM     67  O   UNL A   1      44.122  38.233  31.011  1.00  0.00    -0.237 OA
ATOM     68  O   UNL A   1      43.379  37.610  33.284  1.00  0.00    -0.237 OA
ATOM     69  O   UNL A   1      45.778  37.566  32.715  1.00  0.00    -0.744 OA
ENDBRANCH  65  66
ENDBRANCH  44  58
BRANCH  45  70
ATOM     70  C   UNL A   1      42.610  23.770  27.645  1.00  0.00     0.058 A 
ATOM     71  C   UNL A   1      42.637  23.519  26.266  1.00  0.00     0.135 A 
ATOM     72  C   UNL A   1      42.425  22.678  28.507  1.00  0.00     0.135 A 
ATOM     73  F   UNL A   1      42.803  24.533  25.403  1.00  0.00    -0.206 F 
ATOM     74  C   UNL A   1      42.479  22.235  25.757  1.00  0.00     0.059 A 
ATOM     75  C   UNL A   1      42.287  21.381  28.023  1.00  0.00     0.059 A 
ATOM     76  F   UNL A   1      42.406  22.865  29.836  1.00  0.00    -0.206 F 
ATOM     77  C   UNL A   1      42.307  21.171  26.644  1.00  0.00     0.060 A 
BRANCH  77  78
ATOM     78  S   UNL A   1      42.162  19.499  25.976  1.00  0.00     0.124 S 
ATOM     79  O   UNL A   1      42.684  18.698  27.077  1.00  0.00    -0.237 OA
ATOM     80  O   UNL A   1      40.728  19.388  25.729  1.00  0.00    -0.237 OA
ATOM     81  O   UNL A   1      42.994  19.546  24.777  1.00  0.00    -0.744 OA
ENDBRANCH  77  78
ENDBRANCH  45  70
BRANCH  57  82
ATOM     82  C   UNL A   1      48.174  27.430  29.704  1.00  0.00     0.058 A 
ATOM     83  C   UNL A   1      49.068  27.806  28.690  1.00  0.00     0.135 A 
ATOM     84  C   UNL A   1      48.693  26.768  30.826  1.00  0.00     0.135 A 
ATOM     85  F   UNL A   1      48.619  28.433  27.591  1.00  0.00    -0.206 F 
ATOM     86  C   UNL A   1      50.427  27.522  28.778  1.00  0.00     0.059 A 
ATOM     87  C   UNL A   1      50.052  26.494  30.947  1.00  0.00     0.059 A 
ATOM     88  F   UNL A   1      47.880  26.392  31.827  1.00  0.00    -0.206 F 
ATOM     89  C   UNL A   1      50.910  26.866  29.912  1.00  0.00     0.060 A 
BRANCH  89  90
ATOM     90  S   UNL A   1      52.681  26.536  30.034  1.00  0.00     0.124 S 
ATOM     91  O   UNL A   1      52.724  25.571  31.128  1.00  0.00    -0.237 OA
ATOM     92  O   UNL A   1      52.994  26.008  28.709  1.00  0.00    -0.237 OA
ATOM     93  O   UNL A   1      53.251  27.847  30.329  1.00  0.00    -0.744 OA
ENDBRANCH  89  90
ENDBRANCH  57  82
ENDBRANCH  31  32
ENDBRANCH  23  26
ENDBRANCH  21  22
ENDBRANCH   1  21
TORSDOF 15
ENDMDL
MODEL 3
REMARK VINA RESULT:     -11.5      1.025      1.576
REMARK SMILES C[C@H]1CC[C@@]1(C(=O)NCCCCNC(=O)c1ccc(-c2c3nc(c(-c4c(F)cc(S(=O)(=O)[O-])cc4F)c4ccc([nH]4)c(-c4c(F)cc(S(=O)(=O)[O-])cc4F)c4nc(c(-c5c(F)cc(S(=O)(=O)[O-])cc5F)c5ccc2[nH]5)C=C4)C=C3)cc1)c1ccc(Cl)cc1Cl
REMARK SMILES IDX 11 1 10 2 9 3 8 4 6 5 7 6 5 8 1 9 2 10 3 11 4 12 82 13 83 14
REMARK SMILES IDX 88 15 84 16 87 17 89 18 85 19 86 20 12 21 13 22 14 23 15 25
REMARK SMILES IDX 16 26 17 27 81 28 18 29 80 30 19 31 20 32 21 33 74 34 22 35
REMARK SMILES IDX 79 36 73 37 75 38 23 39 78 40 72 41 71 42 24 44 58 45 37 46
REMARK SMILES IDX 57 47 38 48 41 49 56 50 76 51 39 52 40 53 55 55 77 56 42 57
REMARK SMILES IDX 25 58 26 59 35 60 27 61 28 62 34 63 36 64 29 65 30 66 31 67
REMARK SMILES IDX 32 68 33 69 59 70 60 71 69 72 61 73 62 74 68 75 70 76 63 77
REMARK SMILES IDX 64 78 65 79 66 80 67 81 43 82 44 83 53 84 45 85 46 86 52 87
REMARK SMILES IDX 54 88 47 89 48 90 49 91 50 92 51 93
REMARK H PARENT 8 7 13 24 75 43 41 54
REMARK Flexibility Score: inf
ROOT
ATOM      1  C   UNL A   1      33.058  28.572  25.722  1.00  0.00     0.023 C 
ENDROOT
BRANCH   1   2
ATOM      2  C   UNL A   1      33.654  27.413  24.920  1.00  0.00     0.023 C 
BRANCH   2   3
ATOM      3  C   UNL A   1      32.690  26.283  24.572  1.00  0.00     0.116 C 
BRANCH   3   4
ATOM      4  N   UNL A   1      32.170  25.589  25.732  1.00  0.00    -0.355 N 
ATOM      5  C   UNL A   1      32.231  24.254  26.064  1.00  0.00     0.230 C 
ATOM      6  O   UNL A   1      31.841  23.960  27.202  1.00  0.00    -0.274 OA
ATOM      7  H   UNL A   1      31.701  26.159  26.383  1.00  0.00     0.163 HD
BRANCH   5   8
ATOM      8  C   UNL A   1      32.843  23.199  25.018  1.00  0.00     0.078 C 
ATOM      9  C   UNL A   1      33.386  22.956  22.377  1.00  0.00     0.009 C 
ATOM     10  C   UNL A   1      32.509  23.527  23.486  1.00  0.00     0.006 C 
ATOM     11  C   UNL A   1      31.185  22.749  23.678  1.00  0.00     0.006 C 
ATOM     12  C   UNL A   1      31.866  21.963  24.810  1.00  0.00     0.022 C 
BRANCH   8  13
ATOM     13  C   UNL A   1      34.440  22.929  25.342  1.00  0.00    -0.013 A 
ATOM     14  C   UNL A   1      35.278  23.999  25.747  1.00  0.00     0.008 A 
ATOM     15  C   UNL A   1      35.090  21.667  25.276  1.00  0.00     0.046 A 
ATOM     16  C   UNL A   1      36.646  23.847  26.005  1.00  0.00     0.021 A 
ATOM     17  C   UNL A   1      36.469  21.513  25.492  1.00  0.00     0.041 A 
ATOM     18  Cl  UNL A   1      34.233  20.201  24.954  1.00  0.00    -0.084 Cl
ATOM     19  C   UNL A   1      37.240  22.607  25.852  1.00  0.00     0.042 A 
ATOM     20  Cl  UNL A   1      38.928  22.424  26.128  1.00  0.00    -0.084 Cl
ENDBRANCH   8  13
ENDBRANCH   5   8
ENDBRANCH   3   4
ENDBRANCH   2   3
ENDBRANCH   1   2
BRANCH   1  21
ATOM     21  C   UNL A   1      33.514  28.681  27.173  1.00  0.00     0.116 C 
BRANCH  21  22
ATOM     22  N   UNL A   1      33.537  30.049  27.668  1.00  0.00    -0.352 N 
ATOM     23  C   UNL A   1      34.548  30.741  28.292  1.00  0.00     0.251 C 
ATOM     24  H   UNL A   1      32.703  30.555  27.538  1.00  0.00     0.163 HD
ATOM     25  O   UNL A   1      34.334  31.866  28.734  1.00  0.00    -0.269 OA
BRANCH  23  26
ATOM     26  C   UNL A   1      35.877  30.113  28.471  1.00  0.00     0.039 A 
ATOM     27  C   UNL A   1      36.766  30.107  27.393  1.00  0.00     0.014 A 
ATOM     28  C   UNL A   1      36.257  29.566  29.699  1.00  0.00     0.014 A 
ATOM     29  C   UNL A   1      38.073  29.649  27.577  1.00  0.00     0.010 A 
ATOM     30  C   UNL A   1      37.578  29.171  29.898  1.00  0.00     0.010 A 
ATOM     31  C   UNL A   1      38.505  29.232  28.847  1.00  0.00    -0.014 A 
BRANCH  31  32
ATOM     32  C   UNL A   1      39.935  28.926  29.113  1.00  0.00     0.031 A 
ATOM     33  C   UNL A   1      40.859  29.988  29.639  1.00  0.00     0.074 A 
ATOM     34  C   UNL A   1      40.417  27.710  28.787  1.00  0.00     0.049 A 
ATOM     35  N   UNL A   1      42.152  29.933  29.829  1.00  0.00    -0.248 NA
ATOM     36  C   UNL A   1      40.256  31.287  29.971  1.00  0.00     0.031 C 
ATOM     37  C   UNL A   1      39.630  26.611  28.221  1.00  0.00     0.029 A 
ATOM     38  N   UNL A   1      41.689  27.198  28.865  1.00  0.00    -0.354 N 
ATOM     39  C   UNL A   1      42.522  31.190  30.291  1.00  0.00     0.074 A 
ATOM     40  C   UNL A   1      41.321  31.999  30.314  1.00  0.00     0.031 C 
ATOM     41  C   UNL A   1      40.432  25.555  28.015  1.00  0.00     0.029 A 
ATOM     42  C   UNL A   1      41.795  25.911  28.392  1.00  0.00     0.049 A 
ATOM     43  H   UNL A   1      42.452  27.705  29.225  1.00  0.00     0.167 HD
ATOM     44  C   UNL A   1      43.746  31.624  30.677  1.00  0.00     0.037 A 
ATOM     45  C   UNL A   1      42.872  25.112  28.258  1.00  0.00     0.037 A 
ATOM     46  C   UNL A   1      44.933  30.808  30.670  1.00  0.00     0.049 A 
ATOM     47  C   UNL A   1      44.222  25.622  28.677  1.00  0.00     0.074 A 
ATOM     48  C   UNL A   1      46.204  31.135  31.111  1.00  0.00     0.029 A 
ATOM     49  N   UNL A   1      44.999  29.508  30.191  1.00  0.00    -0.354 N 
ATOM     50  N   UNL A   1      44.541  26.792  29.177  1.00  0.00    -0.248 NA
ATOM     51  C   UNL A   1      45.359  24.707  28.512  1.00  0.00     0.031 C 
ATOM     52  C   UNL A   1      47.047  30.046  30.861  1.00  0.00     0.029 A 
ATOM     53  C   UNL A   1      46.295  29.028  30.300  1.00  0.00     0.049 A 
ATOM     54  H   UNL A   1      44.238  29.000  29.827  1.00  0.00     0.167 HD
ATOM     55  C   UNL A   1      45.912  26.750  29.395  1.00  0.00     0.074 A 
ATOM     56  C   UNL A   1      46.360  25.432  28.992  1.00  0.00     0.031 C 
ATOM     57  C   UNL A   1      46.727  27.717  29.883  1.00  0.00     0.037 A 
BRANCH  44  58
ATOM     58  C   UNL A   1      43.864  33.047  31.144  1.00  0.00     0.058 A 
ATOM     59  C   UNL A   1      44.116  34.096  30.244  1.00  0.00     0.135 A 
ATOM     60  C   UNL A   1      43.688  33.373  32.498  1.00  0.00     0.135 A 
ATOM     61  F   UNL A   1      44.306  33.838  28.940  1.00  0.00    -0.206 F 
ATOM     62  C   UNL A   1      44.215  35.415  30.675  1.00  0.00     0.059 A 
ATOM     63  C   UNL A   1      43.759  34.689  32.947  1.00  0.00     0.059 A 
ATOM     64  F   UNL A   1      43.445  32.409  33.399  1.00  0.00    -0.206 F 
ATOM     65  C   UNL A   1      44.037  35.702  32.030  1.00  0.00     0.060 A 
BRANCH  65  66
ATOM     66  S   UNL A   1      44.165  37.418  32.572  1.00  0.00     0.124 S 
ATOM     67  O   UNL A   1      43.099  37.490  33.566  1.00  0.00    -0.237 OA
ATOM     68  O   UNL A   1      45.525  37.481  33.097  1.00  0.00    -0.237 OA
ATOM     69  O   UNL A   1      43.934  38.180  31.348  1.00  0.00    -0.744 OA
ENDBRANCH  65  66
ENDBRANCH  44  58
BRANCH  45  70
ATOM     70  C   UNL A   1      42.712  23.742  27.704  1.00  0.00     0.058 A 
ATOM     71  C   UNL A   1      42.528  22.641  28.551  1.00  0.00     0.135 A 
ATOM     72  C   UNL A   1      42.720  23.510  26.320  1.00  0.00     0.135 A 
ATOM     73  F   UNL A   1      42.522  22.813  29.882  1.00  0.00    -0.206 F 
ATOM     74  C   UNL A   1      42.365  21.355  28.049  1.00  0.00     0.059 A 
ATOM     75  C   UNL A   1      42.536  22.236  25.791  1.00  0.00     0.059 A 
ATOM     76  F   UNL A   1      42.877  24.534  25.467  1.00  0.00    -0.206 F 
ATOM     77  C   UNL A   1      42.368  21.162  26.666  1.00  0.00     0.060 A 
BRANCH  77  78
ATOM     78  S   UNL A   1      42.095  19.498  26.021  1.00  0.00     0.124 S 
ATOM     79  O   UNL A   1      42.536  18.674  27.141  1.00  0.00    -0.237 OA
ATOM     80  O   UNL A   1      40.660  19.501  25.755  1.00  0.00    -0.237 OA
ATOM     81  O   UNL A   1      42.943  19.457  24.833  1.00  0.00    -0.744 OA
ENDBRANCH  77  78
ENDBRANCH  45  70
BRANCH  57  82
ATOM     82  C   UNL A   1      48.188  27.385  30.012  1.00  0.00     0.058 A 
ATOM     83  C   UNL A   1      49.092  27.651  28.973  1.00  0.00     0.135 A 
ATOM     84  C   UNL A   1      48.695  26.839  31.201  1.00  0.00     0.135 A 
ATOM     85  F   UNL A   1      48.654  28.164  27.812  1.00  0.00    -0.206 F 
ATOM     86  C   UNL A   1      50.448  27.371  29.100  1.00  0.00     0.059 A 
ATOM     87  C   UNL A   1      50.052  26.573  31.360  1.00  0.00     0.059 A 
ATOM     88  F   UNL A   1      47.873  26.572  32.228  1.00  0.00    -0.206 F 
ATOM     89  C   UNL A   1      50.919  26.832  30.300  1.00  0.00     0.060 A 
BRANCH  89  90
ATOM     90  S   UNL A   1      52.688  26.508  30.469  1.00  0.00     0.124 S 
ATOM     91  O   UNL A   1      52.690  25.374  31.388  1.00  0.00    -0.237 OA
ATOM     92  O   UNL A   1      53.085  26.212  29.096  1.00  0.00    -0.237 OA
ATOM     93  O   UNL A   1      53.211  27.757  31.011  1.00  0.00    -0.744 OA
ENDBRANCH  89  90
ENDBRANCH  57  82
ENDBRANCH  31  32
ENDBRANCH  23  26
ENDBRANCH  21  22
ENDBRANCH   1  21
TORSDOF 15
ENDMDL
