MODEL 1
REMARK VINA RESULT:     -11.8      0.000      0.000
REMARK SMILES CSc1nc2nnc(C(=O)NCCCCNC(=O)c3ccc(-c4c5nc(c(-c6c(F)cc(S(=O)(=O)[O-])cc6F)c6ccc([nH]6)c(-c6c(F)cc(S(=O)(=O)[O-])cc6F)c6nc(c(-c7c(F)cc(S(=O)(=O)[O-])cc7F)c7ccc4[nH]7)C=C6)C=C5)cc3)c(O)n2n1
REMARK SMILES IDX 14 1 13 2 12 3 11 4 9 5 10 6 8 8 3 9 4 10 88 11 5 12 87 13
REMARK SMILES IDX 6 14 85 15 7 16 2 17 1 18 86 19 15 21 16 22 17 23 18 25
REMARK SMILES IDX 19 26 20 27 84 28 21 29 83 30 22 31 23 32 24 33 77 34 25 35
REMARK SMILES IDX 82 36 76 37 78 38 26 39 81 40 75 41 74 42 27 44 61 45 40 46
REMARK SMILES IDX 60 47 41 48 44 49 59 50 79 51 42 52 43 53 58 55 80 56 45 57
REMARK SMILES IDX 28 58 29 59 38 60 30 61 31 62 37 63 39 64 32 65 33 66 34 67
REMARK SMILES IDX 35 68 36 69 62 70 63 71 72 72 64 73 65 74 71 75 73 76 66 77
REMARK SMILES IDX 67 78 68 79 69 80 70 81 46 82 47 83 56 84 48 85 49 86 55 87
REMARK SMILES IDX 57 88 50 89 51 90 52 91 53 92 54 93
REMARK H PARENT 11 7 86 20 16 24 78 43 44 54
REMARK Flexibility Score: inf
ROOT
ATOM      1  C   UNL A   1      42.635  20.665  26.919  1.00  0.00     0.023 C 
ENDROOT
BRANCH   1   2
ATOM      2  C   UNL A   1      42.541  19.347  26.133  1.00  0.00     0.023 C 
BRANCH   2   3
ATOM      3  C   UNL A   1      43.825  18.512  26.086  1.00  0.00     0.116 C 
BRANCH   3   4
ATOM      4  N   UNL A   1      44.319  18.352  24.725  1.00  0.00    -0.350 N 
ATOM      5  C   UNL A   1      44.805  19.216  23.795  1.00  0.00     0.277 C 
ATOM      6  O   UNL A   1      45.101  18.740  22.692  1.00  0.00    -0.267 OA
ATOM      7  H   UNL A   1      44.297  17.419  24.413  1.00  0.00     0.163 HD
BRANCH   5   8
ATOM      8  C   UNL A   1      44.998  20.690  24.034  1.00  0.00     0.212 A 
ATOM      9  C   UNL A   1      46.375  24.404  25.858  1.00  0.00     0.210 A 
ATOM     10  N   UNL A   1      45.534  24.575  24.800  1.00  0.00    -0.182 NA
ATOM     11  N   UNL A   1      46.669  23.142  26.162  1.00  0.00    -0.134 NA
ATOM     12  C   UNL A   1      45.261  23.342  24.430  1.00  0.00     0.275 A 
ATOM     13  N   UNL A   1      45.942  22.450  25.249  1.00  0.00    -0.159 N 
ATOM     14  N   UNL A   1      44.472  22.865  23.426  1.00  0.00    -0.108 NA
ATOM     15  C   UNL A   1      45.813  21.073  25.050  1.00  0.00     0.249 A 
ATOM     16  N   UNL A   1      44.356  21.623  23.240  1.00  0.00    -0.136 NA
BRANCH   9  17
ATOM     17  S   UNL A   1      47.051  25.762  26.720  1.00  0.00    -0.088 SA
ATOM     18  C   UNL A   1      45.582  26.411  27.545  1.00  0.00     0.094 C 
ENDBRANCH   9  17
BRANCH  15  19
ATOM     19  O   UNL A   1      46.513  20.219  25.891  1.00  0.00    -0.491 OA
ATOM     20  H   UNL A   1      47.088  20.569  26.542  1.00  0.00     0.295 HD
ENDBRANCH  15  19
ENDBRANCH   5   8
ENDBRANCH   3   4
ENDBRANCH   2   3
ENDBRANCH   1   2
BRANCH   1  21
ATOM     21  C   UNL A   1      42.105  21.886  26.177  1.00  0.00     0.116 C 
BRANCH  21  22
ATOM     22  N   UNL A   1      40.659  21.843  25.964  1.00  0.00    -0.352 N 
ATOM     23  C   UNL A   1      39.716  22.712  26.478  1.00  0.00     0.251 C 
ATOM     24  H   UNL A   1      40.321  21.117  25.391  1.00  0.00     0.163 HD
ATOM     25  O   UNL A   1      38.533  22.389  26.547  1.00  0.00    -0.269 OA
BRANCH  23  26
ATOM     26  C   UNL A   1      40.165  24.034  26.941  1.00  0.00     0.039 A 
ATOM     27  C   UNL A   1      39.771  25.208  26.294  1.00  0.00     0.014 A 
ATOM     28  C   UNL A   1      40.947  24.075  28.094  1.00  0.00     0.014 A 
ATOM     29  C   UNL A   1      40.093  26.434  26.874  1.00  0.00     0.010 A 
ATOM     30  C   UNL A   1      41.148  25.275  28.730  1.00  0.00     0.010 A 
ATOM     31  C   UNL A   1      40.763  26.461  28.107  1.00  0.00    -0.014 A 
BRANCH  31  32
ATOM     32  C   UNL A   1      40.978  27.721  28.813  1.00  0.00     0.031 A 
ATOM     33  C   UNL A   1      42.082  28.578  28.289  1.00  0.00     0.074 A 
ATOM     34  C   UNL A   1      40.099  28.204  29.718  1.00  0.00     0.049 A 
ATOM     35  N   UNL A   1      43.179  28.920  28.882  1.00  0.00    -0.248 NA
ATOM     36  C   UNL A   1      42.006  29.026  26.889  1.00  0.00     0.031 C 
ATOM     37  C   UNL A   1      38.801  27.648  30.124  1.00  0.00     0.029 A 
ATOM     38  N   UNL A   1      40.146  29.377  30.403  1.00  0.00    -0.354 N 
ATOM     39  C   UNL A   1      43.838  29.792  28.016  1.00  0.00     0.074 A 
ATOM     40  C   UNL A   1      43.159  29.685  26.751  1.00  0.00     0.031 C 
ATOM     41  C   UNL A   1      38.096  28.586  30.793  1.00  0.00     0.029 A 
ATOM     42  C   UNL A   1      38.955  29.731  31.024  1.00  0.00     0.049 A 
ATOM     43  H   UNL A   1      40.958  29.931  30.455  1.00  0.00     0.167 HD
ATOM     44  C   UNL A   1      44.762  30.690  28.467  1.00  0.00     0.037 A 
ATOM     45  C   UNL A   1      38.688  30.890  31.674  1.00  0.00     0.037 A 
ATOM     46  C   UNL A   1      45.206  30.355  29.796  1.00  0.00     0.049 A 
ATOM     47  C   UNL A   1      39.997  31.478  32.056  1.00  0.00     0.074 A 
ATOM     48  C   UNL A   1      45.832  29.261  30.362  1.00  0.00     0.029 A 
ATOM     49  N   UNL A   1      44.675  31.060  30.851  1.00  0.00    -0.354 N 
ATOM     50  N   UNL A   1      40.819  30.925  32.909  1.00  0.00    -0.248 NA
ATOM     51  C   UNL A   1      40.603  32.433  31.140  1.00  0.00     0.031 C 
ATOM     52  C   UNL A   1      45.207  29.099  31.634  1.00  0.00     0.029 A 
ATOM     53  C   UNL A   1      44.292  30.141  31.796  1.00  0.00     0.049 A 
ATOM     54  H   UNL A   1      44.586  32.038  30.916  1.00  0.00     0.167 HD
ATOM     55  C   UNL A   1      42.083  31.133  32.376  1.00  0.00     0.074 A 
ATOM     56  C   UNL A   1      41.892  32.142  31.335  1.00  0.00     0.031 C 
ATOM     57  C   UNL A   1      43.117  30.277  32.633  1.00  0.00     0.037 A 
BRANCH  44  58
ATOM     58  C   UNL A   1      45.023  32.050  27.854  1.00  0.00     0.058 A 
ATOM     59  C   UNL A   1      46.292  32.332  27.300  1.00  0.00     0.135 A 
ATOM     60  C   UNL A   1      44.183  33.170  28.038  1.00  0.00     0.135 A 
ATOM     61  F   UNL A   1      47.177  31.346  27.078  1.00  0.00    -0.206 F 
ATOM     62  C   UNL A   1      46.721  33.633  27.030  1.00  0.00     0.059 A 
ATOM     63  C   UNL A   1      44.571  34.469  27.725  1.00  0.00     0.059 A 
ATOM     64  F   UNL A   1      42.984  33.075  28.623  1.00  0.00    -0.206 F 
ATOM     65  C   UNL A   1      45.857  34.697  27.266  1.00  0.00     0.060 A 
BRANCH  65  66
ATOM     66  S   UNL A   1      46.451  36.386  27.050  1.00  0.00     0.124 S 
ATOM     67  O   UNL A   1      45.198  37.130  27.002  1.00  0.00    -0.237 OA
ATOM     68  O   UNL A   1      47.264  36.575  28.247  1.00  0.00    -0.237 OA
ATOM     69  O   UNL A   1      47.196  36.321  25.797  1.00  0.00    -0.744 OA
ENDBRANCH  65  66
ENDBRANCH  44  58
BRANCH  45  70
ATOM     70  C   UNL A   1      37.407  31.639  31.700  1.00  0.00     0.058 A 
ATOM     71  C   UNL A   1      36.683  31.824  32.890  1.00  0.00     0.135 A 
ATOM     72  C   UNL A   1      36.997  32.417  30.596  1.00  0.00     0.135 A 
ATOM     73  F   UNL A   1      37.023  31.146  33.996  1.00  0.00    -0.206 F 
ATOM     74  C   UNL A   1      35.635  32.748  32.989  1.00  0.00     0.059 A 
ATOM     75  C   UNL A   1      35.954  33.338  30.669  1.00  0.00     0.059 A 
ATOM     76  F   UNL A   1      37.663  32.365  29.432  1.00  0.00    -0.206 F 
ATOM     77  C   UNL A   1      35.289  33.514  31.876  1.00  0.00     0.060 A 
BRANCH  77  78
ATOM     78  S   UNL A   1      34.034  34.807  32.040  1.00  0.00     0.124 S 
ATOM     79  O   UNL A   1      33.531  34.916  30.676  1.00  0.00    -0.237 OA
ATOM     80  O   UNL A   1      33.118  34.221  33.013  1.00  0.00    -0.237 OA
ATOM     81  O   UNL A   1      34.795  35.959  32.520  1.00  0.00    -0.744 OA
ENDBRANCH  77  78
ENDBRANCH  45  70
BRANCH  57  82
ATOM     82  C   UNL A   1      42.936  29.230  33.709  1.00  0.00     0.058 A 
ATOM     83  C   UNL A   1      43.137  29.465  35.081  1.00  0.00     0.135 A 
ATOM     84  C   UNL A   1      42.361  28.001  33.354  1.00  0.00     0.135 A 
ATOM     85  F   UNL A   1      43.585  30.646  35.521  1.00  0.00    -0.206 F 
ATOM     86  C   UNL A   1      42.812  28.513  36.051  1.00  0.00     0.059 A 
ATOM     87  C   UNL A   1      42.000  27.048  34.305  1.00  0.00     0.059 A 
ATOM     88  F   UNL A   1      42.083  27.737  32.066  1.00  0.00    -0.206 F 
ATOM     89  C   UNL A   1      42.237  27.308  35.653  1.00  0.00     0.060 A 
BRANCH  89  90
ATOM     90  S   UNL A   1      41.732  26.119  36.916  1.00  0.00     0.124 S 
ATOM     91  O   UNL A   1      41.649  24.878  36.154  1.00  0.00    -0.237 OA
ATOM     92  O   UNL A   1      42.825  26.198  37.881  1.00  0.00    -0.237 OA
ATOM     93  O   UNL A   1      40.454  26.645  37.391  1.00  0.00    -0.744 OA
ENDBRANCH  89  90
ENDBRANCH  57  82
ENDBRANCH  31  32
ENDBRANCH  23  26
ENDBRANCH  21  22
ENDBRANCH   1  21
TORSDOF 16
ENDMDL
MODEL 2
REMARK VINA RESULT:     -11.5      3.885      6.220
REMARK SMILES CSc1nc2nnc(C(=O)NCCCCNC(=O)c3ccc(-c4c5nc(c(-c6c(F)cc(S(=O)(=O)[O-])cc6F)c6ccc([nH]6)c(-c6c(F)cc(S(=O)(=O)[O-])cc6F)c6nc(c(-c7c(F)cc(S(=O)(=O)[O-])cc7F)c7ccc4[nH]7)C=C6)C=C5)cc3)c(O)n2n1
REMARK SMILES IDX 14 1 13 2 12 3 11 4 9 5 10 6 8 8 3 9 4 10 88 11 5 12 87 13
REMARK SMILES IDX 6 14 85 15 7 16 2 17 1 18 86 19 15 21 16 22 17 23 18 25
REMARK SMILES IDX 19 26 20 27 84 28 21 29 83 30 22 31 23 32 24 33 77 34 25 35
REMARK SMILES IDX 82 36 76 37 78 38 26 39 81 40 75 41 74 42 27 44 61 45 40 46
REMARK SMILES IDX 60 47 41 48 44 49 59 50 79 51 42 52 43 53 58 55 80 56 45 57
REMARK SMILES IDX 28 58 29 59 38 60 30 61 31 62 37 63 39 64 32 65 33 66 34 67
REMARK SMILES IDX 35 68 36 69 62 70 63 71 72 72 64 73 65 74 71 75 73 76 66 77
REMARK SMILES IDX 67 78 68 79 69 80 70 81 46 82 47 83 56 84 48 85 49 86 55 87
REMARK SMILES IDX 57 88 50 89 51 90 52 91 53 92 54 93
REMARK H PARENT 11 7 86 20 16 24 78 43 44 54
REMARK Flexibility Score: inf
ROOT
ATOM      1  C   UNL A   1      37.057  22.591  24.414  1.00  0.00     0.023 C 
ENDROOT
BRANCH   1   2
ATOM      2  C   UNL A   1      35.592  22.145  24.555  1.00  0.00     0.023 C 
BRANCH   2   3
ATOM      3  C   UNL A   1      35.268  21.321  25.805  1.00  0.00     0.116 C 
BRANCH   3   4
ATOM      4  N   UNL A   1      34.133  20.434  25.591  1.00  0.00    -0.350 N 
ATOM      5  C   UNL A   1      32.789  20.629  25.526  1.00  0.00     0.277 C 
ATOM      6  O   UNL A   1      32.086  19.622  25.373  1.00  0.00    -0.267 OA
ATOM      7  H   UNL A   1      34.394  19.494  25.466  1.00  0.00     0.163 HD
BRANCH   5   8
ATOM      8  C   UNL A   1      32.127  21.978  25.627  1.00  0.00     0.212 A 
ATOM      9  C   UNL A   1      30.204  25.703  24.429  1.00  0.00     0.210 A 
ATOM     10  N   UNL A   1      30.414  25.584  25.770  1.00  0.00    -0.182 NA
ATOM     11  N   UNL A   1      30.590  24.664  23.691  1.00  0.00    -0.134 NA
ATOM     12  C   UNL A   1      30.994  24.408  25.881  1.00  0.00     0.275 A 
ATOM     13  N   UNL A   1      31.113  23.829  24.624  1.00  0.00    -0.159 N 
ATOM     14  N   UNL A   1      31.444  23.735  26.976  1.00  0.00    -0.108 NA
ATOM     15  C   UNL A   1      31.698  22.567  24.483  1.00  0.00     0.249 A 
ATOM     16  N   UNL A   1      31.969  22.594  26.854  1.00  0.00    -0.136 NA
BRANCH   9  17
ATOM     17  S   UNL A   1      29.435  27.111  23.743  1.00  0.00    -0.088 SA
ATOM     18  C   UNL A   1      30.750  28.337  23.910  1.00  0.00     0.094 C 
ENDBRANCH   9  17
BRANCH  15  19
ATOM     19  O   UNL A   1      31.794  22.027  23.208  1.00  0.00    -0.491 OA
ATOM     20  H   UNL A   1      31.019  21.864  22.708  1.00  0.00     0.295 HD
ENDBRANCH  15  19
ENDBRANCH   5   8
ENDBRANCH   3   4
ENDBRANCH   2   3
ENDBRANCH   1   2
BRANCH   1  21
ATOM     21  C   UNL A   1      37.671  23.166  25.684  1.00  0.00     0.116 C 
BRANCH  21  22
ATOM     22  N   UNL A   1      38.553  22.224  26.371  1.00  0.00    -0.352 N 
ATOM     23  C   UNL A   1      39.767  22.503  26.968  1.00  0.00     0.251 C 
ATOM     24  H   UNL A   1      38.248  21.288  26.413  1.00  0.00     0.163 HD
ATOM     25  O   UNL A   1      40.583  21.611  27.187  1.00  0.00    -0.269 OA
BRANCH  23  26
ATOM     26  C   UNL A   1      40.057  23.897  27.337  1.00  0.00     0.039 A 
ATOM     27  C   UNL A   1      39.085  24.896  27.239  1.00  0.00     0.014 A 
ATOM     28  C   UNL A   1      41.322  24.172  27.852  1.00  0.00     0.014 A 
ATOM     29  C   UNL A   1      39.368  26.160  27.756  1.00  0.00     0.010 A 
ATOM     30  C   UNL A   1      41.550  25.373  28.477  1.00  0.00     0.010 A 
ATOM     31  C   UNL A   1      40.596  26.386  28.397  1.00  0.00    -0.014 A 
BRANCH  31  32
ATOM     32  C   UNL A   1      40.860  27.649  29.081  1.00  0.00     0.031 A 
ATOM     33  C   UNL A   1      41.950  28.487  28.500  1.00  0.00     0.074 A 
ATOM     34  C   UNL A   1      40.031  28.150  30.022  1.00  0.00     0.049 A 
ATOM     35  N   UNL A   1      43.077  28.818  29.038  1.00  0.00    -0.248 NA
ATOM     36  C   UNL A   1      41.814  28.925  27.101  1.00  0.00     0.031 C 
ATOM     37  C   UNL A   1      38.746  27.614  30.492  1.00  0.00     0.029 A 
ATOM     38  N   UNL A   1      40.124  29.327  30.695  1.00  0.00    -0.354 N 
ATOM     39  C   UNL A   1      43.707  29.675  28.136  1.00  0.00     0.074 A 
ATOM     40  C   UNL A   1      42.968  29.567  26.905  1.00  0.00     0.031 C 
ATOM     41  C   UNL A   1      38.084  28.567  31.186  1.00  0.00     0.029 A 
ATOM     42  C   UNL A   1      38.968  29.702  31.367  1.00  0.00     0.049 A 
ATOM     43  H   UNL A   1      40.945  29.871  30.704  1.00  0.00     0.167 HD
ATOM     44  C   UNL A   1      44.662  30.564  28.536  1.00  0.00     0.037 A 
ATOM     45  C   UNL A   1      38.746  30.869  32.020  1.00  0.00     0.037 A 
ATOM     46  C   UNL A   1      45.163  30.233  29.846  1.00  0.00     0.049 A 
ATOM     47  C   UNL A   1      40.079  31.443  32.335  1.00  0.00     0.074 A 
ATOM     48  C   UNL A   1      45.800  29.135  30.391  1.00  0.00     0.029 A 
ATOM     49  N   UNL A   1      44.691  30.953  30.918  1.00  0.00    -0.354 N 
ATOM     50  N   UNL A   1      40.933  30.886  33.154  1.00  0.00    -0.248 NA
ATOM     51  C   UNL A   1      40.654  32.383  31.385  1.00  0.00     0.031 C 
ATOM     52  C   UNL A   1      45.233  28.992  31.692  1.00  0.00     0.029 A 
ATOM     53  C   UNL A   1      44.340  30.047  31.888  1.00  0.00     0.049 A 
ATOM     54  H   UNL A   1      44.617  31.933  30.979  1.00  0.00     0.167 HD
ATOM     55  C   UNL A   1      42.174  31.072  32.561  1.00  0.00     0.074 A 
ATOM     56  C   UNL A   1      41.948  32.076  31.522  1.00  0.00     0.031 C 
ATOM     57  C   UNL A   1      43.207  30.205  32.777  1.00  0.00     0.037 A 
BRANCH  44  58
ATOM     58  C   UNL A   1      44.912  31.916  27.900  1.00  0.00     0.058 A 
ATOM     59  C   UNL A   1      46.150  32.171  27.269  1.00  0.00     0.135 A 
ATOM     60  C   UNL A   1      44.106  33.053  28.128  1.00  0.00     0.135 A 
ATOM     61  F   UNL A   1      47.001  31.167  27.001  1.00  0.00    -0.206 F 
ATOM     62  C   UNL A   1      46.587  33.462  26.967  1.00  0.00     0.059 A 
ATOM     63  C   UNL A   1      44.499  34.343  27.784  1.00  0.00     0.059 A 
ATOM     64  F   UNL A   1      42.943  32.985  28.784  1.00  0.00    -0.206 F 
ATOM     65  C   UNL A   1      45.760  34.544  27.248  1.00  0.00     0.060 A 
BRANCH  65  66
ATOM     66  S   UNL A   1      46.372  36.219  26.987  1.00  0.00     0.124 S 
ATOM     67  O   UNL A   1      47.138  36.442  28.207  1.00  0.00    -0.237 OA
ATOM     68  O   UNL A   1      47.148  36.069  25.760  1.00  0.00    -0.237 OA
ATOM     69  O   UNL A   1      45.149  37.005  26.856  1.00  0.00    -0.744 OA
ENDBRANCH  65  66
ENDBRANCH  44  58
BRANCH  45  70
ATOM     70  C   UNL A   1      37.478  31.636  32.099  1.00  0.00     0.058 A 
ATOM     71  C   UNL A   1      36.878  31.946  33.331  1.00  0.00     0.135 A 
ATOM     72  C   UNL A   1      36.963  32.308  30.970  1.00  0.00     0.135 A 
ATOM     73  F   UNL A   1      37.324  31.375  34.459  1.00  0.00    -0.206 F 
ATOM     74  C   UNL A   1      35.849  32.890  33.442  1.00  0.00     0.059 A 
ATOM     75  C   UNL A   1      35.936  33.246  31.055  1.00  0.00     0.059 A 
ATOM     76  F   UNL A   1      37.508  32.132  29.756  1.00  0.00    -0.206 F 
ATOM     77  C   UNL A   1      35.396  33.548  32.298  1.00  0.00     0.060 A 
BRANCH  77  78
ATOM     78  S   UNL A   1      34.170  34.868  32.459  1.00  0.00     0.124 S 
ATOM     79  O   UNL A   1      33.032  34.157  33.029  1.00  0.00    -0.237 OA
ATOM     80  O   UNL A   1      34.846  35.808  33.347  1.00  0.00    -0.237 OA
ATOM     81  O   UNL A   1      33.991  35.333  31.085  1.00  0.00    -0.744 OA
ENDBRANCH  77  78
ENDBRANCH  45  70
BRANCH  57  82
ATOM     82  C   UNL A   1      43.063  29.169  33.869  1.00  0.00     0.058 A 
ATOM     83  C   UNL A   1      43.271  29.427  35.236  1.00  0.00     0.135 A 
ATOM     84  C   UNL A   1      42.515  27.921  33.536  1.00  0.00     0.135 A 
ATOM     85  F   UNL A   1      43.694  30.625  35.655  1.00  0.00    -0.206 F 
ATOM     86  C   UNL A   1      42.980  28.481  36.221  1.00  0.00     0.059 A 
ATOM     87  C   UNL A   1      42.188  26.972  34.504  1.00  0.00     0.059 A 
ATOM     88  F   UNL A   1      42.231  27.632  32.255  1.00  0.00    -0.206 F 
ATOM     89  C   UNL A   1      42.431  27.256  35.845  1.00  0.00     0.060 A 
BRANCH  89  90
ATOM     90  S   UNL A   1      41.968  26.073  37.130  1.00  0.00     0.124 S 
ATOM     91  O   UNL A   1      40.589  26.453  37.416  1.00  0.00    -0.237 OA
ATOM     92  O   UNL A   1      42.144  24.789  36.456  1.00  0.00    -0.237 OA
ATOM     93  O   UNL A   1      42.924  26.339  38.201  1.00  0.00    -0.744 OA
ENDBRANCH  89  90
ENDBRANCH  57  82
ENDBRANCH  31  32
ENDBRANCH  23  26
ENDBRANCH  21  22
ENDBRANCH   1  21
TORSDOF 16
ENDMDL
MODEL 3
REMARK VINA RESULT:     -11.5      5.338     11.781
REMARK SMILES CSc1nc2nnc(C(=O)NCCCCNC(=O)c3ccc(-c4c5nc(c(-c6c(F)cc(S(=O)(=O)[O-])cc6F)c6ccc([nH]6)c(-c6c(F)cc(S(=O)(=O)[O-])cc6F)c6nc(c(-c7c(F)cc(S(=O)(=O)[O-])cc7F)c7ccc4[nH]7)C=C6)C=C5)cc3)c(O)n2n1
REMARK SMILES IDX 14 1 13 2 12 3 11 4 9 5 10 6 8 8 3 9 4 10 88 11 5 12 87 13
REMARK SMILES IDX 6 14 85 15 7 16 2 17 1 18 86 19 15 21 16 22 17 23 18 25
REMARK SMILES IDX 19 26 20 27 84 28 21 29 83 30 22 31 23 32 24 33 77 34 25 35
REMARK SMILES IDX 82 36 76 37 78 38 26 39 81 40 75 41 74 42 27 44 61 45 40 46
REMARK SMILES IDX 60 47 41 48 44 49 59 50 79 51 42 52 43 53 58 55 80 56 45 57
REMARK SMILES IDX 28 58 29 59 38 60 30 61 31 62 37 63 39 64 32 65 33 66 34 67
REMARK SMILES IDX 35 68 36 69 62 70 63 71 72 72 64 73 65 74 71 75 73 76 66 77
REMARK SMILES IDX 67 78 68 79 69 80 70 81 46 82 47 83 56 84 48 85 49 86 55 87
REMARK SMILES IDX 57 88 50 89 51 90 52 91 53 92 54 93
REMARK H PARENT 11 7 86 20 16 24 78 43 44 54
REMARK Flexibility Score: inf
ROOT
ATOM      1  C   UNL A   1      32.817  28.826  26.663  1.00  0.00     0.023 C 
ENDROOT
BRANCH   1   2
ATOM      2  C   UNL A   1      33.439  27.514  26.156  1.00  0.00     0.023 C 
BRANCH   2   3
ATOM      3  C   UNL A   1      32.494  26.308  26.113  1.00  0.00     0.116 C 
BRANCH   3   4
ATOM      4  N   UNL A   1      32.610  25.573  24.861  1.00  0.00    -0.350 N 
ATOM      5  C   UNL A   1      31.941  25.620  23.678  1.00  0.00     0.277 C 
ATOM      6  O   UNL A   1      32.276  24.800  22.815  1.00  0.00    -0.267 OA
ATOM      7  H   UNL A   1      33.328  24.899  24.873  1.00  0.00     0.163 HD
BRANCH   5   8
ATOM      8  C   UNL A   1      30.838  26.599  23.373  1.00  0.00     0.212 A 
ATOM      9  C   UNL A   1      28.798  30.127  21.825  1.00  0.00     0.210 A 
ATOM     10  N   UNL A   1      28.004  29.293  22.554  1.00  0.00    -0.182 NA
ATOM     11  N   UNL A   1      30.061  29.735  21.674  1.00  0.00    -0.134 NA
ATOM     12  C   UNL A   1      28.826  28.327  22.906  1.00  0.00     0.275 A 
ATOM     13  N   UNL A   1      30.088  28.576  22.381  1.00  0.00    -0.159 N 
ATOM     14  N   UNL A   1      28.616  27.202  23.646  1.00  0.00    -0.108 NA
ATOM     15  C   UNL A   1      31.137  27.685  22.617  1.00  0.00     0.249 A 
ATOM     16  N   UNL A   1      29.560  26.392  23.858  1.00  0.00    -0.136 NA
BRANCH   9  17
ATOM     17  S   UNL A   1      28.173  31.589  21.105  1.00  0.00    -0.088 SA
ATOM     18  C   UNL A   1      28.607  32.807  22.366  1.00  0.00     0.094 C 
ENDBRANCH   9  17
BRANCH  15  19
ATOM     19  O   UNL A   1      32.380  27.974  22.071  1.00  0.00    -0.491 OA
ATOM     20  H   UNL A   1      32.905  28.659  22.436  1.00  0.00     0.295 HD
ENDBRANCH  15  19
ENDBRANCH   5   8
ENDBRANCH   3   4
ENDBRANCH   2   3
ENDBRANCH   1   2
BRANCH   1  21
ATOM     21  C   UNL A   1      33.653  29.566  27.700  1.00  0.00     0.116 C 
BRANCH  21  22
ATOM     22  N   UNL A   1      34.007  30.923  27.287  1.00  0.00    -0.352 N 
ATOM     23  C   UNL A   1      35.132  31.638  27.651  1.00  0.00     0.251 C 
ATOM     24  H   UNL A   1      33.375  31.376  26.683  1.00  0.00     0.163 HD
ATOM     25  O   UNL A   1      35.158  32.863  27.557  1.00  0.00    -0.269 OA
BRANCH  23  26
ATOM     26  C   UNL A   1      36.297  30.894  28.152  1.00  0.00     0.039 A 
ATOM     27  C   UNL A   1      36.541  29.573  27.771  1.00  0.00     0.014 A 
ATOM     28  C   UNL A   1      37.189  31.582  28.973  1.00  0.00     0.014 A 
ATOM     29  C   UNL A   1      37.743  28.977  28.146  1.00  0.00     0.010 A 
ATOM     30  C   UNL A   1      38.425  31.041  29.228  1.00  0.00     0.010 A 
ATOM     31  C   UNL A   1      38.694  29.726  28.857  1.00  0.00    -0.014 A 
BRANCH  31  32
ATOM     32  C   UNL A   1      40.021  29.181  29.130  1.00  0.00     0.031 A 
ATOM     33  C   UNL A   1      40.374  29.023  30.572  1.00  0.00     0.074 A 
ATOM     34  C   UNL A   1      40.791  28.629  28.167  1.00  0.00     0.049 A 
ATOM     35  N   UNL A   1      41.301  29.628  31.240  1.00  0.00    -0.248 NA
ATOM     36  C   UNL A   1      39.517  28.162  31.404  1.00  0.00     0.031 C 
ATOM     37  C   UNL A   1      40.472  28.412  26.750  1.00  0.00     0.029 A 
ATOM     38  N   UNL A   1      42.011  28.042  28.289  1.00  0.00    -0.354 N 
ATOM     39  C   UNL A   1      41.286  29.077  32.521  1.00  0.00     0.074 A 
ATOM     40  C   UNL A   1      40.069  28.312  32.610  1.00  0.00     0.031 C 
ATOM     41  C   UNL A   1      41.360  27.548  26.212  1.00  0.00     0.029 A 
ATOM     42  C   UNL A   1      42.407  27.300  27.184  1.00  0.00     0.049 A 
ATOM     43  H   UNL A   1      42.567  28.134  29.096  1.00  0.00     0.167 HD
ATOM     44  C   UNL A   1      42.380  29.124  33.336  1.00  0.00     0.037 A 
ATOM     45  C   UNL A   1      43.515  26.526  27.077  1.00  0.00     0.037 A 
ATOM     46  C   UNL A   1      43.336  30.095  32.867  1.00  0.00     0.049 A 
ATOM     47  C   UNL A   1      44.471  27.001  28.109  1.00  0.00     0.074 A 
ATOM     48  C   UNL A   1      43.304  31.459  32.647  1.00  0.00     0.029 A 
ATOM     49  N   UNL A   1      44.434  29.638  32.178  1.00  0.00    -0.354 N 
ATOM     50  N   UNL A   1      45.022  28.187  28.094  1.00  0.00    -0.248 NA
ATOM     51  C   UNL A   1      44.451  26.342  29.405  1.00  0.00     0.031 C 
ATOM     52  C   UNL A   1      44.053  31.655  31.449  1.00  0.00     0.029 A 
ATOM     53  C   UNL A   1      44.553  30.413  31.051  1.00  0.00     0.049 A 
ATOM     54  H   UNL A   1      45.024  28.896  32.442  1.00  0.00     0.167 HD
ATOM     55  C   UNL A   1      45.034  28.593  29.422  1.00  0.00     0.074 A 
ATOM     56  C   UNL A   1      44.753  27.381  30.189  1.00  0.00     0.031 C 
ATOM     57  C   UNL A   1      44.997  29.916  29.765  1.00  0.00     0.037 A 
BRANCH  44  58
ATOM     58  C   UNL A   1      42.744  28.072  34.363  1.00  0.00     0.058 A 
ATOM     59  C   UNL A   1      42.827  28.430  35.727  1.00  0.00     0.135 A 
ATOM     60  C   UNL A   1      43.286  26.810  34.037  1.00  0.00     0.135 A 
ATOM     61  F   UNL A   1      42.345  29.608  36.157  1.00  0.00    -0.206 F 
ATOM     62  C   UNL A   1      43.472  27.633  36.675  1.00  0.00     0.059 A 
ATOM     63  C   UNL A   1      43.884  25.975  34.976  1.00  0.00     0.059 A 
ATOM     64  F   UNL A   1      43.352  26.364  32.778  1.00  0.00    -0.206 F 
ATOM     65  C   UNL A   1      44.015  26.414  36.283  1.00  0.00     0.060 A 
BRANCH  65  66
ATOM     66  S   UNL A   1      44.966  25.445  37.468  1.00  0.00     0.124 S 
ATOM     67  O   UNL A   1      44.735  24.088  36.986  1.00  0.00    -0.237 OA
ATOM     68  O   UNL A   1      46.313  25.972  37.278  1.00  0.00    -0.237 OA
ATOM     69  O   UNL A   1      44.344  25.776  38.746  1.00  0.00    -0.744 OA
ENDBRANCH  65  66
ENDBRANCH  44  58
BRANCH  45  70
ATOM     70  C   UNL A   1      43.652  25.235  26.357  1.00  0.00     0.058 A 
ATOM     71  C   UNL A   1      44.619  25.045  25.356  1.00  0.00     0.135 A 
ATOM     72  C   UNL A   1      43.002  24.072  26.822  1.00  0.00     0.135 A 
ATOM     73  F   UNL A   1      45.306  26.094  24.877  1.00  0.00    -0.206 F 
ATOM     74  C   UNL A   1      44.947  23.775  24.867  1.00  0.00     0.059 A 
ATOM     75  C   UNL A   1      43.306  22.798  26.346  1.00  0.00     0.059 A 
ATOM     76  F   UNL A   1      42.109  24.134  27.821  1.00  0.00    -0.206 F 
ATOM     77  C   UNL A   1      44.296  22.653  25.382  1.00  0.00     0.060 A 
BRANCH  77  78
ATOM     78  S   UNL A   1      44.817  21.003  24.856  1.00  0.00     0.124 S 
ATOM     79  O   UNL A   1      44.596  21.060  23.416  1.00  0.00    -0.237 OA
ATOM     80  O   UNL A   1      46.210  20.970  25.288  1.00  0.00    -0.237 OA
ATOM     81  O   UNL A   1      43.919  20.114  25.591  1.00  0.00    -0.744 OA
ENDBRANCH  77  78
ENDBRANCH  45  70
BRANCH  57  82
ATOM     82  C   UNL A   1      45.194  30.949  28.678  1.00  0.00     0.058 A 
ATOM     83  C   UNL A   1      44.171  31.403  27.826  1.00  0.00     0.135 A 
ATOM     84  C   UNL A   1      46.416  31.635  28.623  1.00  0.00     0.135 A 
ATOM     85  F   UNL A   1      42.943  30.877  27.882  1.00  0.00    -0.206 F 
ATOM     86  C   UNL A   1      44.363  32.466  26.940  1.00  0.00     0.059 A 
ATOM     87  C   UNL A   1      46.621  32.718  27.769  1.00  0.00     0.059 A 
ATOM     88  F   UNL A   1      47.415  31.295  29.454  1.00  0.00    -0.206 F 
ATOM     89  C   UNL A   1      45.591  33.123  26.924  1.00  0.00     0.060 A 
BRANCH  89  90
ATOM     90  S   UNL A   1      45.804  34.556  25.844  1.00  0.00     0.124 S 
ATOM     91  O   UNL A   1      44.687  34.412  24.918  1.00  0.00    -0.237 OA
ATOM     92  O   UNL A   1      45.713  35.674  26.779  1.00  0.00    -0.237 OA
ATOM     93  O   UNL A   1      47.128  34.350  25.260  1.00  0.00    -0.744 OA
ENDBRANCH  89  90
ENDBRANCH  57  82
ENDBRANCH  31  32
ENDBRANCH  23  26
ENDBRANCH  21  22
ENDBRANCH   1  21
TORSDOF 16
ENDMDL
