MODEL 1
REMARK VINA RESULT:     -12.7      0.000      0.000
REMARK SMILES Cc1nc2n(n1)[C@@H](c1ccc([N+](=O)[O-])o1)CC(C(=O)NCCCCNC(=O)c1ccc(-c3c4nc(c(-c5c(F)cc(S(=O)(=O)[O-])cc5F)c5ccc([nH]5)c(-c5c(F)cc(S(=O)(=O)[O-])cc5F)c5nc(c(-c6c(F)cc(S(=O)(=O)[O-])cc6F)c6ccc3[nH]6)C=C5)C=C4)cc1)=N2
REMARK SMILES IDX 23 1 22 2 21 3 20 4 18 5 19 6 17 8 1 9 2 10 3 11 6 12 4 13
REMARK SMILES IDX 5 14 94 15 7 16 16 17 8 18 9 19 15 20 10 21 11 22 12 23
REMARK SMILES IDX 13 24 14 25 24 26 25 27 26 28 27 30 28 31 29 32 93 33 30 34
REMARK SMILES IDX 92 35 31 36 32 37 33 38 86 39 34 40 91 41 85 42 87 43 35 44
REMARK SMILES IDX 90 45 84 46 83 47 36 49 70 50 49 51 69 52 50 53 53 54 68 55
REMARK SMILES IDX 88 56 51 57 52 58 67 60 89 61 54 62 37 63 38 64 47 65 39 66
REMARK SMILES IDX 40 67 46 68 48 69 41 70 42 71 43 72 44 73 45 74 71 75 72 76
REMARK SMILES IDX 81 77 73 78 74 79 80 80 82 81 75 82 76 83 77 84 78 85 79 86
REMARK SMILES IDX 55 87 56 88 65 89 57 90 58 91 64 92 66 93 59 94 60 95 61 96
REMARK SMILES IDX 62 97 63 98
REMARK H PARENT 20 7 25 29 87 48 53 59
REMARK Flexibility Score: inf
ROOT
ATOM      1  C   UNL A   1      45.823  23.472  37.158  1.00  0.00     0.023 C 
ENDROOT
BRANCH   1   2
ATOM      2  C   UNL A   1      46.499  23.024  38.475  1.00  0.00     0.023 C 
BRANCH   2   3
ATOM      3  C   UNL A   1      47.519  21.888  38.326  1.00  0.00     0.116 C 
BRANCH   3   4
ATOM      4  N   UNL A   1      46.960  20.753  37.603  1.00  0.00    -0.351 N 
ATOM      5  C   UNL A   1      46.356  19.558  37.913  1.00  0.00     0.265 C 
ATOM      6  O   UNL A   1      46.024  18.850  36.963  1.00  0.00    -0.268 OA
ATOM      7  H   UNL A   1      47.036  20.874  36.629  1.00  0.00     0.163 HD
BRANCH   5   8
ATOM      8  C   UNL A   1      46.055  19.029  39.332  1.00  0.00     0.112 C 
ATOM      9  C   UNL A   1      44.572  19.757  44.913  1.00  0.00     0.092 C 
ATOM     10  C   UNL A   1      44.946  19.356  43.541  1.00  0.00     0.149 A 
ATOM     11  N   UNL A   1      45.129  20.266  42.533  1.00  0.00    -0.195 NA
ATOM     12  N   UNL A   1      45.107  18.077  43.178  1.00  0.00    -0.154 NA
ATOM     13  C   UNL A   1      45.419  19.534  41.478  1.00  0.00     0.249 A 
ATOM     14  N   UNL A   1      45.383  18.225  41.867  1.00  0.00    -0.219 N 
ATOM     15  N   UNL A   1      45.680  19.917  40.209  1.00  0.00    -0.211 NA
ATOM     16  C   UNL A   1      45.620  17.115  40.974  1.00  0.00     0.184 C 
ATOM     17  C   UNL A   1      46.251  17.572  39.652  1.00  0.00     0.098 C 
BRANCH  16  18
ATOM     18  C   UNL A   1      44.368  16.316  40.738  1.00  0.00     0.136 A 
ATOM     19  C   UNL A   1      43.626  15.938  39.630  1.00  0.00     0.056 A 
ATOM     20  O   UNL A   1      43.755  15.850  41.873  1.00  0.00    -0.404 OA
ATOM     21  C   UNL A   1      42.520  15.185  40.106  1.00  0.00     0.134 A 
ATOM     22  C   UNL A   1      42.660  15.156  41.471  1.00  0.00     0.433 A 
BRANCH  22  23
ATOM     23  N   UNL A   1      41.892  14.541  42.506  1.00  0.00     0.102 N 
ATOM     24  O   UNL A   1      42.043  13.320  42.649  1.00  0.00    -0.256 OA
ATOM     25  O   UNL A   1      41.153  15.268  43.181  1.00  0.00    -0.256 OA
ENDBRANCH  22  23
ENDBRANCH  16  18
ENDBRANCH   5   8
ENDBRANCH   3   4
ENDBRANCH   2   3
ENDBRANCH   1   2
BRANCH   1  26
ATOM     26  C   UNL A   1      44.697  24.522  37.287  1.00  0.00     0.116 C 
BRANCH  26  27
ATOM     27  N   UNL A   1      43.433  24.007  36.785  1.00  0.00    -0.352 N 
ATOM     28  C   UNL A   1      42.695  24.277  35.663  1.00  0.00     0.251 C 
ATOM     29  H   UNL A   1      43.026  23.329  37.370  1.00  0.00     0.163 HD
ATOM     30  O   UNL A   1      41.539  23.848  35.640  1.00  0.00    -0.269 OA
BRANCH  28  31
ATOM     31  C   UNL A   1      43.187  25.047  34.492  1.00  0.00     0.039 A 
ATOM     32  C   UNL A   1      44.061  24.390  33.608  1.00  0.00     0.014 A 
ATOM     33  C   UNL A   1      42.960  26.411  34.320  1.00  0.00     0.014 A 
ATOM     34  C   UNL A   1      44.661  25.066  32.535  1.00  0.00     0.010 A 
ATOM     35  C   UNL A   1      43.572  27.089  33.250  1.00  0.00     0.010 A 
ATOM     36  C   UNL A   1      44.405  26.421  32.327  1.00  0.00    -0.014 A 
BRANCH  36  37
ATOM     37  C   UNL A   1      44.852  27.057  31.053  1.00  0.00     0.031 A 
ATOM     38  C   UNL A   1      44.964  26.106  29.915  1.00  0.00     0.074 A 
ATOM     39  C   UNL A   1      44.739  28.367  30.728  1.00  0.00     0.049 A 
ATOM     40  N   UNL A   1      43.897  25.739  29.280  1.00  0.00    -0.248 NA
ATOM     41  C   UNL A   1      46.147  25.328  29.562  1.00  0.00     0.031 C 
ATOM     42  C   UNL A   1      43.839  29.312  31.395  1.00  0.00     0.029 A 
ATOM     43  N   UNL A   1      45.227  29.081  29.643  1.00  0.00    -0.354 N 
ATOM     44  C   UNL A   1      44.216  24.655  28.493  1.00  0.00     0.074 A 
ATOM     45  C   UNL A   1      45.635  24.446  28.683  1.00  0.00     0.031 C 
ATOM     46  C   UNL A   1      43.735  30.426  30.638  1.00  0.00     0.029 A 
ATOM     47  C   UNL A   1      44.664  30.352  29.506  1.00  0.00     0.049 A 
ATOM     48  H   UNL A   1      45.906  28.724  29.027  1.00  0.00     0.167 HD
ATOM     49  C   UNL A   1      43.260  24.056  27.732  1.00  0.00     0.037 A 
ATOM     50  C   UNL A   1      44.445  31.020  28.338  1.00  0.00     0.037 A 
ATOM     51  C   UNL A   1      41.956  24.687  27.759  1.00  0.00     0.049 A 
ATOM     52  C   UNL A   1      43.485  30.132  27.600  1.00  0.00     0.074 A 
ATOM     53  C   UNL A   1      40.628  24.375  27.946  1.00  0.00     0.029 A 
ATOM     54  N   UNL A   1      41.992  26.042  27.586  1.00  0.00    -0.354 N 
ATOM     55  N   UNL A   1      42.205  30.043  27.834  1.00  0.00    -0.248 NA
ATOM     56  C   UNL A   1      44.007  29.126  26.661  1.00  0.00     0.031 C 
ATOM     57  C   UNL A   1      39.890  25.614  27.929  1.00  0.00     0.029 A 
ATOM     58  C   UNL A   1      40.778  26.654  27.688  1.00  0.00     0.049 A 
ATOM     59  H   UNL A   1      42.824  26.535  27.402  1.00  0.00     0.167 HD
ATOM     60  C   UNL A   1      41.822  28.832  27.275  1.00  0.00     0.074 A 
ATOM     61  C   UNL A   1      42.912  28.415  26.416  1.00  0.00     0.031 C 
ATOM     62  C   UNL A   1      40.768  28.099  27.739  1.00  0.00     0.037 A 
BRANCH  49  63
ATOM     63  C   UNL A   1      43.554  23.039  26.702  1.00  0.00     0.058 A 
ATOM     64  C   UNL A   1      43.114  21.724  26.933  1.00  0.00     0.135 A 
ATOM     65  C   UNL A   1      44.378  23.272  25.598  1.00  0.00     0.135 A 
ATOM     66  F   UNL A   1      42.301  21.460  27.970  1.00  0.00    -0.206 F 
ATOM     67  C   UNL A   1      43.516  20.666  26.131  1.00  0.00     0.059 A 
ATOM     68  C   UNL A   1      44.791  22.225  24.772  1.00  0.00     0.059 A 
ATOM     69  F   UNL A   1      44.823  24.511  25.335  1.00  0.00    -0.206 F 
ATOM     70  C   UNL A   1      44.372  20.923  25.063  1.00  0.00     0.060 A 
BRANCH  70  71
ATOM     71  S   UNL A   1      44.948  19.518  24.083  1.00  0.00     0.124 S 
ATOM     72  O   UNL A   1      44.199  18.414  24.673  1.00  0.00    -0.237 OA
ATOM     73  O   UNL A   1      44.551  19.908  22.735  1.00  0.00    -0.237 OA
ATOM     74  O   UNL A   1      46.387  19.502  24.329  1.00  0.00    -0.744 OA
ENDBRANCH  70  71
ENDBRANCH  49  63
BRANCH  50  75
ATOM     75  C   UNL A   1      45.576  31.716  27.639  1.00  0.00     0.058 A 
ATOM     76  C   UNL A   1      45.397  33.010  27.112  1.00  0.00     0.135 A 
ATOM     77  C   UNL A   1      46.837  31.135  27.399  1.00  0.00     0.135 A 
ATOM     78  F   UNL A   1      44.188  33.592  27.137  1.00  0.00    -0.206 F 
ATOM     79  C   UNL A   1      46.445  33.738  26.542  1.00  0.00     0.059 A 
ATOM     80  C   UNL A   1      47.910  31.853  26.871  1.00  0.00     0.059 A 
ATOM     81  F   UNL A   1      47.072  29.845  27.677  1.00  0.00    -0.206 F 
ATOM     82  C   UNL A   1      47.712  33.169  26.475  1.00  0.00     0.060 A 
BRANCH  82  83
ATOM     83  S   UNL A   1      49.108  34.184  25.946  1.00  0.00     0.124 S 
ATOM     84  O   UNL A   1      49.543  34.781  27.208  1.00  0.00    -0.237 OA
ATOM     85  O   UNL A   1      50.009  33.182  25.378  1.00  0.00    -0.237 OA
ATOM     86  O   UNL A   1      48.517  35.100  24.984  1.00  0.00    -0.744 OA
ENDBRANCH  82  83
ENDBRANCH  50  75
BRANCH  62  87
ATOM     87  C   UNL A   1      39.748  28.876  28.491  1.00  0.00     0.058 A 
ATOM     88  C   UNL A   1      39.764  28.848  29.896  1.00  0.00     0.135 A 
ATOM     89  C   UNL A   1      38.745  29.626  27.863  1.00  0.00     0.135 A 
ATOM     90  F   UNL A   1      40.724  28.170  30.550  1.00  0.00    -0.206 F 
ATOM     91  C   UNL A   1      38.817  29.522  30.652  1.00  0.00     0.059 A 
ATOM     92  C   UNL A   1      37.796  30.329  28.603  1.00  0.00     0.059 A 
ATOM     93  F   UNL A   1      38.670  29.687  26.523  1.00  0.00    -0.206 F 
ATOM     94  C   UNL A   1      37.836  30.263  29.997  1.00  0.00     0.060 A 
BRANCH  94  95
ATOM     95  S   UNL A   1      36.662  31.193  31.000  1.00  0.00     0.124 S 
ATOM     96  O   UNL A   1      37.462  32.335  31.429  1.00  0.00    -0.237 OA
ATOM     97  O   UNL A   1      35.599  31.489  30.042  1.00  0.00    -0.237 OA
ATOM     98  O   UNL A   1      36.294  30.253  32.056  1.00  0.00    -0.744 OA
ENDBRANCH  94  95
ENDBRANCH  62  87
ENDBRANCH  36  37
ENDBRANCH  28  31
ENDBRANCH  26  27
ENDBRANCH   1  26
TORSDOF 16
ENDMDL
MODEL 2
REMARK VINA RESULT:     -12.6      6.261     13.576
REMARK SMILES Cc1nc2n(n1)[C@@H](c1ccc([N+](=O)[O-])o1)CC(C(=O)NCCCCNC(=O)c1ccc(-c3c4nc(c(-c5c(F)cc(S(=O)(=O)[O-])cc5F)c5ccc([nH]5)c(-c5c(F)cc(S(=O)(=O)[O-])cc5F)c5nc(c(-c6c(F)cc(S(=O)(=O)[O-])cc6F)c6ccc3[nH]6)C=C5)C=C4)cc1)=N2
REMARK SMILES IDX 23 1 22 2 21 3 20 4 18 5 19 6 17 8 1 9 2 10 3 11 6 12 4 13
REMARK SMILES IDX 5 14 94 15 7 16 16 17 8 18 9 19 15 20 10 21 11 22 12 23
REMARK SMILES IDX 13 24 14 25 24 26 25 27 26 28 27 30 28 31 29 32 93 33 30 34
REMARK SMILES IDX 92 35 31 36 32 37 33 38 86 39 34 40 91 41 85 42 87 43 35 44
REMARK SMILES IDX 90 45 84 46 83 47 36 49 70 50 49 51 69 52 50 53 53 54 68 55
REMARK SMILES IDX 88 56 51 57 52 58 67 60 89 61 54 62 37 63 38 64 47 65 39 66
REMARK SMILES IDX 40 67 46 68 48 69 41 70 42 71 43 72 44 73 45 74 71 75 72 76
REMARK SMILES IDX 81 77 73 78 74 79 80 80 82 81 75 82 76 83 77 84 78 85 79 86
REMARK SMILES IDX 55 87 56 88 65 89 57 90 58 91 64 92 66 93 59 94 60 95 61 96
REMARK SMILES IDX 62 97 63 98
REMARK H PARENT 20 7 25 29 87 48 53 59
REMARK Flexibility Score: inf
ROOT
ATOM      1  C   UNL A   1      36.673  21.775  25.495  1.00  0.00     0.023 C 
ENDROOT
BRANCH   1   2
ATOM      2  C   UNL A   1      35.624  22.777  26.032  1.00  0.00     0.023 C 
BRANCH   2   3
ATOM      3  C   UNL A   1      34.234  22.664  25.394  1.00  0.00     0.116 C 
BRANCH   3   4
ATOM      4  N   UNL A   1      33.173  22.857  26.374  1.00  0.00    -0.351 N 
ATOM      5  C   UNL A   1      32.179  23.774  26.616  1.00  0.00     0.265 C 
ATOM      6  O   UNL A   1      31.469  23.564  27.600  1.00  0.00    -0.268 OA
ATOM      7  H   UNL A   1      33.168  22.136  27.044  1.00  0.00     0.163 HD
BRANCH   5   8
ATOM      8  C   UNL A   1      31.872  25.031  25.774  1.00  0.00     0.112 C 
ATOM      9  C   UNL A   1      28.303  28.445  22.694  1.00  0.00     0.092 C 
ATOM     10  C   UNL A   1      29.360  27.735  23.442  1.00  0.00     0.149 A 
ATOM     11  N   UNL A   1      29.141  26.535  24.067  1.00  0.00    -0.195 NA
ATOM     12  N   UNL A   1      30.599  28.224  23.588  1.00  0.00    -0.154 NA
ATOM     13  C   UNL A   1      30.292  26.246  24.637  1.00  0.00     0.249 A 
ATOM     14  N   UNL A   1      31.152  27.270  24.363  1.00  0.00    -0.219 N 
ATOM     15  N   UNL A   1      30.635  25.180  25.394  1.00  0.00    -0.211 NA
ATOM     16  C   UNL A   1      32.512  27.329  24.846  1.00  0.00     0.184 C 
ATOM     17  C   UNL A   1      32.981  25.974  25.392  1.00  0.00     0.098 C 
BRANCH  16  18
ATOM     18  C   UNL A   1      32.693  28.423  25.862  1.00  0.00     0.136 A 
ATOM     19  C   UNL A   1      31.856  29.168  26.678  1.00  0.00     0.056 A 
ATOM     20  O   UNL A   1      33.987  28.843  26.038  1.00  0.00    -0.404 OA
ATOM     21  C   UNL A   1      32.678  30.069  27.406  1.00  0.00     0.134 A 
ATOM     22  C   UNL A   1      33.959  29.816  26.983  1.00  0.00     0.433 A 
BRANCH  22  23
ATOM     23  N   UNL A   1      35.222  30.368  27.354  1.00  0.00     0.102 N 
ATOM     24  O   UNL A   1      35.239  31.580  27.606  1.00  0.00    -0.256 OA
ATOM     25  O   UNL A   1      36.190  29.599  27.408  1.00  0.00    -0.256 OA
ENDBRANCH  22  23
ENDBRANCH  16  18
ENDBRANCH   5   8
ENDBRANCH   3   4
ENDBRANCH   2   3
ENDBRANCH   1   2
BRANCH   1  26
ATOM     26  C   UNL A   1      38.137  22.267  25.462  1.00  0.00     0.116 C 
BRANCH  26  27
ATOM     27  N   UNL A   1      38.951  21.572  26.447  1.00  0.00    -0.352 N 
ATOM     28  C   UNL A   1      40.112  21.901  27.097  1.00  0.00     0.251 C 
ATOM     29  H   UNL A   1      38.597  20.689  26.696  1.00  0.00     0.163 HD
ATOM     30  O   UNL A   1      40.689  20.992  27.700  1.00  0.00    -0.269 OA
BRANCH  28  31
ATOM     31  C   UNL A   1      40.715  23.258  27.117  1.00  0.00     0.039 A 
ATOM     32  C   UNL A   1      40.073  24.239  27.893  1.00  0.00     0.014 A 
ATOM     33  C   UNL A   1      41.771  23.641  26.292  1.00  0.00     0.014 A 
ATOM     34  C   UNL A   1      40.506  25.573  27.890  1.00  0.00     0.010 A 
ATOM     35  C   UNL A   1      42.196  24.982  26.282  1.00  0.00     0.010 A 
ATOM     36  C   UNL A   1      41.591  25.958  27.102  1.00  0.00    -0.014 A 
BRANCH  36  37
ATOM     37  C   UNL A   1      42.185  27.313  27.297  1.00  0.00     0.031 A 
ATOM     38  C   UNL A   1      41.196  28.352  27.689  1.00  0.00     0.074 A 
ATOM     39  C   UNL A   1      43.482  27.588  27.576  1.00  0.00     0.049 A 
ATOM     40  N   UNL A   1      40.796  28.422  28.919  1.00  0.00    -0.248 NA
ATOM     41  C   UNL A   1      40.417  29.181  26.776  1.00  0.00     0.031 C 
ATOM     42  C   UNL A   1      44.442  26.610  28.099  1.00  0.00     0.029 A 
ATOM     43  N   UNL A   1      44.161  28.794  27.651  1.00  0.00    -0.354 N 
ATOM     44  C   UNL A   1      39.688  29.238  28.964  1.00  0.00     0.074 A 
ATOM     45  C   UNL A   1      39.500  29.708  27.610  1.00  0.00     0.031 C 
ATOM     46  C   UNL A   1      45.526  27.268  28.562  1.00  0.00     0.029 A 
ATOM     47  C   UNL A   1      45.421  28.696  28.246  1.00  0.00     0.049 A 
ATOM     48  H   UNL A   1      43.789  29.641  27.316  1.00  0.00     0.167 HD
ATOM     49  C   UNL A   1      39.054  29.466  30.147  1.00  0.00     0.037 A 
ATOM     50  C   UNL A   1      46.046  29.655  28.987  1.00  0.00     0.037 A 
ATOM     51  C   UNL A   1      39.673  28.867  31.312  1.00  0.00     0.049 A 
ATOM     52  C   UNL A   1      45.122  29.852  30.155  1.00  0.00     0.074 A 
ATOM     53  C   UNL A   1      39.355  28.089  32.403  1.00  0.00     0.029 A 
ATOM     54  N   UNL A   1      41.021  29.075  31.392  1.00  0.00    -0.354 N 
ATOM     55  N   UNL A   1      45.031  29.060  31.187  1.00  0.00    -0.248 NA
ATOM     56  C   UNL A   1      44.089  30.898  30.091  1.00  0.00     0.031 C 
ATOM     57  C   UNL A   1      40.586  27.803  33.098  1.00  0.00     0.029 A 
ATOM     58  C   UNL A   1      41.625  28.449  32.442  1.00  0.00     0.049 A 
ATOM     59  H   UNL A   1      41.515  29.630  30.746  1.00  0.00     0.167 HD
ATOM     60  C   UNL A   1      43.797  29.351  31.752  1.00  0.00     0.074 A 
ATOM     61  C   UNL A   1      43.360  30.599  31.160  1.00  0.00     0.031 C 
ATOM     62  C   UNL A   1      43.071  28.439  32.463  1.00  0.00     0.037 A 
BRANCH  49  63
ATOM     63  C   UNL A   1      38.003  30.489  30.327  1.00  0.00     0.058 A 
ATOM     64  C   UNL A   1      38.384  31.841  30.257  1.00  0.00     0.135 A 
ATOM     65  C   UNL A   1      36.696  30.193  30.722  1.00  0.00     0.135 A 
ATOM     66  F   UNL A   1      39.624  32.170  29.861  1.00  0.00    -0.206 F 
ATOM     67  C   UNL A   1      37.518  32.864  30.615  1.00  0.00     0.059 A 
ATOM     68  C   UNL A   1      35.804  31.206  31.079  1.00  0.00     0.059 A 
ATOM     69  F   UNL A   1      36.285  28.917  30.802  1.00  0.00    -0.206 F 
ATOM     70  C   UNL A   1      36.234  32.536  31.045  1.00  0.00     0.060 A 
BRANCH  70  71
ATOM     71  S   UNL A   1      35.153  33.879  31.583  1.00  0.00     0.124 S 
ATOM     72  O   UNL A   1      36.001  34.582  32.540  1.00  0.00    -0.237 OA
ATOM     73  O   UNL A   1      34.893  34.578  30.329  1.00  0.00    -0.237 OA
ATOM     74  O   UNL A   1      34.006  33.181  32.156  1.00  0.00    -0.744 OA
ENDBRANCH  70  71
ENDBRANCH  49  63
BRANCH  50  75
ATOM     75  C   UNL A   1      46.726  30.810  28.313  1.00  0.00     0.058 A 
ATOM     76  C   UNL A   1      48.012  31.215  28.724  1.00  0.00     0.135 A 
ATOM     77  C   UNL A   1      46.139  31.597  27.303  1.00  0.00     0.135 A 
ATOM     78  F   UNL A   1      48.596  30.643  29.789  1.00  0.00    -0.206 F 
ATOM     79  C   UNL A   1      48.727  32.218  28.065  1.00  0.00     0.059 A 
ATOM     80  C   UNL A   1      46.846  32.574  26.601  1.00  0.00     0.059 A 
ATOM     81  F   UNL A   1      44.854  31.438  26.957  1.00  0.00    -0.206 F 
ATOM     82  C   UNL A   1      48.154  32.855  26.969  1.00  0.00     0.060 A 
BRANCH  82  83
ATOM     83  S   UNL A   1      49.157  33.987  25.984  1.00  0.00     0.124 S 
ATOM     84  O   UNL A   1      49.645  34.920  26.998  1.00  0.00    -0.237 OA
ATOM     85  O   UNL A   1      50.161  33.085  25.420  1.00  0.00    -0.237 OA
ATOM     86  O   UNL A   1      48.211  34.534  25.026  1.00  0.00    -0.744 OA
ENDBRANCH  82  83
ENDBRANCH  50  75
BRANCH  62  87
ATOM     87  C   UNL A   1      43.864  27.328  33.050  1.00  0.00     0.058 A 
ATOM     88  C   UNL A   1      44.052  26.151  32.304  1.00  0.00     0.135 A 
ATOM     89  C   UNL A   1      44.423  27.384  34.334  1.00  0.00     0.135 A 
ATOM     90  F   UNL A   1      43.565  26.056  31.055  1.00  0.00    -0.206 F 
ATOM     91  C   UNL A   1      44.751  25.066  32.812  1.00  0.00     0.059 A 
ATOM     92  C   UNL A   1      45.148  26.315  34.856  1.00  0.00     0.059 A 
ATOM     93  F   UNL A   1      44.273  28.477  35.100  1.00  0.00    -0.206 F 
ATOM     94  C   UNL A   1      45.299  25.157  34.089  1.00  0.00     0.060 A 
BRANCH  94  95
ATOM     95  S   UNL A   1      46.268  23.765  34.700  1.00  0.00     0.124 S 
ATOM     96  O   UNL A   1      46.096  23.882  36.144  1.00  0.00    -0.237 OA
ATOM     97  O   UNL A   1      45.604  22.624  34.073  1.00  0.00    -0.237 OA
ATOM     98  O   UNL A   1      47.614  24.042  34.204  1.00  0.00    -0.744 OA
ENDBRANCH  94  95
ENDBRANCH  62  87
ENDBRANCH  36  37
ENDBRANCH  28  31
ENDBRANCH  26  27
ENDBRANCH   1  26
TORSDOF 16
ENDMDL
MODEL 3
REMARK VINA RESULT:     -12.4      2.414      3.786
REMARK SMILES Cc1nc2n(n1)[C@@H](c1ccc([N+](=O)[O-])o1)CC(C(=O)NCCCCNC(=O)c1ccc(-c3c4nc(c(-c5c(F)cc(S(=O)(=O)[O-])cc5F)c5ccc([nH]5)c(-c5c(F)cc(S(=O)(=O)[O-])cc5F)c5nc(c(-c6c(F)cc(S(=O)(=O)[O-])cc6F)c6ccc3[nH]6)C=C5)C=C4)cc1)=N2
REMARK SMILES IDX 23 1 22 2 21 3 20 4 18 5 19 6 17 8 1 9 2 10 3 11 6 12 4 13
REMARK SMILES IDX 5 14 94 15 7 16 16 17 8 18 9 19 15 20 10 21 11 22 12 23
REMARK SMILES IDX 13 24 14 25 24 26 25 27 26 28 27 30 28 31 29 32 93 33 30 34
REMARK SMILES IDX 92 35 31 36 32 37 33 38 86 39 34 40 91 41 85 42 87 43 35 44
REMARK SMILES IDX 90 45 84 46 83 47 36 49 70 50 49 51 69 52 50 53 53 54 68 55
REMARK SMILES IDX 88 56 51 57 52 58 67 60 89 61 54 62 37 63 38 64 47 65 39 66
REMARK SMILES IDX 40 67 46 68 48 69 41 70 42 71 43 72 44 73 45 74 71 75 72 76
REMARK SMILES IDX 81 77 73 78 74 79 80 80 82 81 75 82 76 83 77 84 78 85 79 86
REMARK SMILES IDX 55 87 56 88 65 89 57 90 58 91 64 92 66 93 59 94 60 95 61 96
REMARK SMILES IDX 62 97 63 98
REMARK H PARENT 20 7 25 29 87 48 53 59
REMARK Flexibility Score: inf
ROOT
ATOM      1  C   UNL A   1      45.291  24.849  37.792  1.00  0.00     0.023 C 
ENDROOT
BRANCH   1   2
ATOM      2  C   UNL A   1      46.321  25.352  36.753  1.00  0.00     0.023 C 
BRANCH   2   3
ATOM      3  C   UNL A   1      47.042  24.249  35.969  1.00  0.00     0.116 C 
BRANCH   3   4
ATOM      4  N   UNL A   1      46.119  23.217  35.517  1.00  0.00    -0.351 N 
ATOM      5  C   UNL A   1      45.826  21.914  35.842  1.00  0.00     0.265 C 
ATOM      6  O   UNL A   1      44.940  21.371  35.181  1.00  0.00    -0.268 OA
ATOM      7  H   UNL A   1      45.551  23.539  34.780  1.00  0.00     0.163 HD
BRANCH   5   8
ATOM      8  C   UNL A   1      46.499  21.077  36.951  1.00  0.00     0.112 C 
ATOM      9  C   UNL A   1      46.597  16.693  40.778  1.00  0.00     0.092 C 
ATOM     10  C   UNL A   1      46.779  17.845  39.872  1.00  0.00     0.149 A 
ATOM     11  N   UNL A   1      45.807  18.254  38.997  1.00  0.00    -0.195 NA
ATOM     12  N   UNL A   1      47.913  18.556  39.821  1.00  0.00    -0.154 NA
ATOM     13  C   UNL A   1      46.346  19.271  38.357  1.00  0.00     0.249 A 
ATOM     14  N   UNL A   1      47.613  19.432  38.841  1.00  0.00    -0.219 N 
ATOM     15  N   UNL A   1      45.832  20.041  37.374  1.00  0.00    -0.211 NA
ATOM     16  C   UNL A   1      48.536  20.434  38.362  1.00  0.00     0.184 C 
ATOM     17  C   UNL A   1      47.827  21.501  37.517  1.00  0.00     0.098 C 
BRANCH  16  18
ATOM     18  C   UNL A   1      49.687  19.818  37.616  1.00  0.00     0.136 A 
ATOM     19  C   UNL A   1      50.682  18.899  37.910  1.00  0.00     0.056 A 
ATOM     20  O   UNL A   1      49.853  20.269  36.332  1.00  0.00    -0.404 OA
ATOM     21  C   UNL A   1      51.480  18.762  36.743  1.00  0.00     0.134 A 
ATOM     22  C   UNL A   1      50.920  19.608  35.818  1.00  0.00     0.433 A 
BRANCH  22  23
ATOM     23  N   UNL A   1      51.245  19.898  34.458  1.00  0.00     0.102 N 
ATOM     24  O   UNL A   1      52.178  19.249  33.967  1.00  0.00    -0.256 OA
ATOM     25  O   UNL A   1      50.568  20.756  33.878  1.00  0.00    -0.256 OA
ENDBRANCH  22  23
ENDBRANCH  16  18
ENDBRANCH   5   8
ENDBRANCH   3   4
ENDBRANCH   2   3
ENDBRANCH   1   2
BRANCH   1  26
ATOM     26  C   UNL A   1      43.861  25.421  37.673  1.00  0.00     0.116 C 
BRANCH  26  27
ATOM     27  N   UNL A   1      42.963  24.474  37.032  1.00  0.00    -0.352 N 
ATOM     28  C   UNL A   1      42.488  24.358  35.752  1.00  0.00     0.251 C 
ATOM     29  H   UNL A   1      42.630  23.776  37.640  1.00  0.00     0.163 HD
ATOM     30  O   UNL A   1      41.544  23.583  35.576  1.00  0.00    -0.269 OA
BRANCH  28  31
ATOM     31  C   UNL A   1      43.022  25.099  34.581  1.00  0.00     0.039 A 
ATOM     32  C   UNL A   1      43.812  24.380  33.667  1.00  0.00     0.014 A 
ATOM     33  C   UNL A   1      42.918  26.481  34.434  1.00  0.00     0.014 A 
ATOM     34  C   UNL A   1      44.447  25.016  32.590  1.00  0.00     0.010 A 
ATOM     35  C   UNL A   1      43.566  27.118  33.360  1.00  0.00     0.010 A 
ATOM     36  C   UNL A   1      44.312  26.392  32.407  1.00  0.00    -0.014 A 
BRANCH  36  37
ATOM     37  C   UNL A   1      44.787  27.006  31.133  1.00  0.00     0.031 A 
ATOM     38  C   UNL A   1      44.908  26.038  30.010  1.00  0.00     0.074 A 
ATOM     39  C   UNL A   1      44.694  28.312  30.788  1.00  0.00     0.049 A 
ATOM     40  N   UNL A   1      43.848  25.673  29.362  1.00  0.00    -0.248 NA
ATOM     41  C   UNL A   1      46.088  25.243  29.688  1.00  0.00     0.031 C 
ATOM     42  C   UNL A   1      43.792  29.276  31.427  1.00  0.00     0.029 A 
ATOM     43  N   UNL A   1      45.207  29.006  29.702  1.00  0.00    -0.354 N 
ATOM     44  C   UNL A   1      44.169  24.575  28.596  1.00  0.00     0.074 A 
ATOM     45  C   UNL A   1      45.582  24.354  28.812  1.00  0.00     0.031 C 
ATOM     46  C   UNL A   1      43.713  30.379  30.653  1.00  0.00     0.029 A 
ATOM     47  C   UNL A   1      44.659  30.280  29.538  1.00  0.00     0.049 A 
ATOM     48  H   UNL A   1      45.892  28.634  29.103  1.00  0.00     0.167 HD
ATOM     49  C   UNL A   1      43.220  23.975  27.827  1.00  0.00     0.037 A 
ATOM     50  C   UNL A   1      44.466  30.935  28.357  1.00  0.00     0.037 A 
ATOM     51  C   UNL A   1      41.922  24.620  27.824  1.00  0.00     0.049 A 
ATOM     52  C   UNL A   1      43.510  30.046  27.615  1.00  0.00     0.074 A 
ATOM     53  C   UNL A   1      40.588  24.323  27.993  1.00  0.00     0.029 A 
ATOM     54  N   UNL A   1      41.975  25.971  27.632  1.00  0.00    -0.354 N 
ATOM     55  N   UNL A   1      42.225  29.973  27.829  1.00  0.00    -0.248 NA
ATOM     56  C   UNL A   1      44.037  29.022  26.699  1.00  0.00     0.031 C 
ATOM     57  C   UNL A   1      39.863  25.570  27.946  1.00  0.00     0.029 A 
ATOM     58  C   UNL A   1      40.766  26.597  27.706  1.00  0.00     0.049 A 
ATOM     59  H   UNL A   1      42.815  26.453  27.456  1.00  0.00     0.167 HD
ATOM     60  C   UNL A   1      41.839  28.758  27.281  1.00  0.00     0.074 A 
ATOM     61  C   UNL A   1      42.939  28.319  26.446  1.00  0.00     0.031 C 
ATOM     62  C   UNL A   1      40.771  28.043  27.736  1.00  0.00     0.037 A 
BRANCH  49  63
ATOM     63  C   UNL A   1      43.520  22.940  26.816  1.00  0.00     0.058 A 
ATOM     64  C   UNL A   1      43.040  21.639  27.045  1.00  0.00     0.135 A 
ATOM     65  C   UNL A   1      44.384  23.143  25.737  1.00  0.00     0.135 A 
ATOM     66  F   UNL A   1      42.189  21.406  28.058  1.00  0.00    -0.206 F 
ATOM     67  C   UNL A   1      43.441  20.564  26.266  1.00  0.00     0.059 A 
ATOM     68  C   UNL A   1      44.796  22.077  24.934  1.00  0.00     0.059 A 
ATOM     69  F   UNL A   1      44.868  24.368  25.476  1.00  0.00    -0.206 F 
ATOM     70  C   UNL A   1      44.336  20.789  25.223  1.00  0.00     0.060 A 
BRANCH  70  71
ATOM     71  S   UNL A   1      44.907  19.361  24.276  1.00  0.00     0.124 S 
ATOM     72  O   UNL A   1      44.198  18.265  24.927  1.00  0.00    -0.237 OA
ATOM     73  O   UNL A   1      44.460  19.695  22.928  1.00  0.00    -0.237 OA
ATOM     74  O   UNL A   1      46.353  19.378  24.476  1.00  0.00    -0.744 OA
ENDBRANCH  70  71
ENDBRANCH  49  63
BRANCH  50  75
ATOM     75  C   UNL A   1      45.617  31.608  27.668  1.00  0.00     0.058 A 
ATOM     76  C   UNL A   1      45.451  32.884  27.092  1.00  0.00     0.135 A 
ATOM     77  C   UNL A   1      46.885  31.023  27.484  1.00  0.00     0.135 A 
ATOM     78  F   UNL A   1      44.240  33.462  27.061  1.00  0.00    -0.206 F 
ATOM     79  C   UNL A   1      46.513  33.594  26.528  1.00  0.00     0.059 A 
ATOM     80  C   UNL A   1      47.972  31.726  26.964  1.00  0.00     0.059 A 
ATOM     81  F   UNL A   1      47.114  29.744  27.814  1.00  0.00    -0.206 F 
ATOM     82  C   UNL A   1      47.783  33.026  26.517  1.00  0.00     0.060 A 
BRANCH  82  83
ATOM     83  S   UNL A   1      49.192  34.027  25.994  1.00  0.00     0.124 S 
ATOM     84  O   UNL A   1      49.586  34.671  27.246  1.00  0.00    -0.237 OA
ATOM     85  O   UNL A   1      50.112  33.008  25.491  1.00  0.00    -0.237 OA
ATOM     86  O   UNL A   1      48.629  34.905  24.982  1.00  0.00    -0.744 OA
ENDBRANCH  82  83
ENDBRANCH  50  75
BRANCH  62  87
ATOM     87  C   UNL A   1      39.746  28.840  28.461  1.00  0.00     0.058 A 
ATOM     88  C   UNL A   1      38.814  29.591  27.723  1.00  0.00     0.135 A 
ATOM     89  C   UNL A   1      39.673  28.899  29.859  1.00  0.00     0.135 A 
ATOM     90  F   UNL A   1      38.819  29.546  26.380  1.00  0.00    -0.206 F 
ATOM     91  C   UNL A   1      37.859  30.383  28.342  1.00  0.00     0.059 A 
ATOM     92  C   UNL A   1      38.707  29.670  30.502  1.00  0.00     0.059 A 
ATOM     93  F   UNL A   1      40.539  28.210  30.621  1.00  0.00    -0.206 F 
ATOM     94  C   UNL A   1      37.809  30.414  29.734  1.00  0.00     0.060 A 
BRANCH  94  95
ATOM     95  S   UNL A   1      36.510  31.389  30.517  1.00  0.00     0.124 S 
ATOM     96  O   UNL A   1      36.166  30.568  31.672  1.00  0.00    -0.237 OA
ATOM     97  O   UNL A   1      37.198  32.643  30.814  1.00  0.00    -0.237 OA
ATOM     98  O   UNL A   1      35.482  31.481  29.484  1.00  0.00    -0.744 OA
ENDBRANCH  94  95
ENDBRANCH  62  87
ENDBRANCH  36  37
ENDBRANCH  28  31
ENDBRANCH  26  27
ENDBRANCH   1  26
TORSDOF 16
ENDMDL
