MODEL 1
REMARK VINA RESULT:     -13.1      0.000      0.000
REMARK SMILES C[C@H]1OCC[C@@H]1C(=O)Nc1sc2c(c1C(=O)NCCCCNC(=O)c1ccc(-c3c4nc(c(-c5c(F)cc(S(=O)(=O)[O-])cc5F)c5ccc([nH]5)c(-c5c(F)cc(S(=O)(=O)[O-])cc5F)c5nc(c(-c6c(F)cc(S(=O)(=O)[O-])cc6F)c6ccc3[nH]6)C=C5)C=C4)cc1)CCC2
REMARK SMILES IDX 20 1 19 2 18 3 17 4 15 5 16 6 14 8 10 9 11 10 12 11 13 12
REMARK SMILES IDX 93 13 91 14 92 15 9 16 7 17 8 18 6 20 1 21 2 22 3 23 4 24
REMARK SMILES IDX 5 25 21 26 22 27 23 28 24 30 25 31 26 32 90 33 27 34 89 35
REMARK SMILES IDX 28 36 29 37 30 38 83 39 31 40 88 41 82 42 84 43 32 44 87 45
REMARK SMILES IDX 81 46 80 47 33 49 67 50 46 51 66 52 47 53 50 54 65 55 85 56
REMARK SMILES IDX 48 57 49 58 64 60 86 61 51 62 34 63 35 64 44 65 36 66 37 67
REMARK SMILES IDX 43 68 45 69 38 70 39 71 40 72 41 73 42 74 68 75 69 76 78 77
REMARK SMILES IDX 70 78 71 79 77 80 79 81 72 82 73 83 74 84 75 85 76 86 52 87
REMARK SMILES IDX 53 88 62 89 54 90 55 91 61 92 63 93 56 94 57 95 58 96 59 97
REMARK SMILES IDX 60 98
REMARK H PARENT 17 7 9 19 22 29 84 48 50 59
REMARK Flexibility Score: inf
ROOT
ATOM      1  C   UNL A   1      39.269  22.380  26.339  1.00  0.00     0.023 C 
ENDROOT
BRANCH   1   2
ATOM      2  C   UNL A   1      38.377  23.630  26.276  1.00  0.00     0.023 C 
BRANCH   2   3
ATOM      3  C   UNL A   1      36.956  23.426  25.747  1.00  0.00     0.116 C 
BRANCH   3   4
ATOM      4  N   UNL A   1      35.977  22.999  26.712  1.00  0.00    -0.352 N 
ATOM      5  C   UNL A   1      34.715  22.479  26.615  1.00  0.00     0.254 C 
ATOM      6  O   UNL A   1      34.362  21.843  27.612  1.00  0.00    -0.269 OA
ATOM      7  H   UNL A   1      36.281  23.105  27.642  1.00  0.00     0.163 HD
BRANCH   5   8
ATOM      8  C   UNL A   1      33.793  22.655  25.484  1.00  0.00     0.078 A 
ATOM      9  C   UNL A   1      32.900  21.623  25.151  1.00  0.00     0.108 A 
ATOM     10  S   UNL A   1      32.292  21.717  23.549  1.00  0.00    -0.122 S 
ATOM     11  C   UNL A   1      32.924  23.245  23.398  1.00  0.00     0.011 A 
ATOM     12  C   UNL A   1      33.666  23.673  24.473  1.00  0.00    -0.019 A 
ATOM     13  C   UNL A   1      32.883  24.175  22.245  1.00  0.00     0.047 C 
ATOM     14  C   UNL A   1      34.218  25.020  24.151  1.00  0.00     0.038 C 
ATOM     15  C   UNL A   1      33.390  25.472  22.912  1.00  0.00     0.010 C 
BRANCH   9  16
ATOM     16  N   UNL A   1      32.523  20.439  25.739  1.00  0.00    -0.317 N 
ATOM     17  C   UNL A   1      32.701  19.153  25.341  1.00  0.00     0.230 C 
ATOM     18  O   UNL A   1      32.348  18.278  26.147  1.00  0.00    -0.274 OA
ATOM     19  H   UNL A   1      32.044  20.540  26.593  1.00  0.00     0.170 HD
BRANCH  17  20
ATOM     20  C   UNL A   1      33.412  18.686  24.075  1.00  0.00     0.110 C 
ATOM     21  C   UNL A   1      32.525  18.452  21.722  1.00  0.00     0.039 C 
ATOM     22  C   UNL A   1      32.546  17.863  23.133  1.00  0.00     0.127 C 
ATOM     23  O   UNL A   1      33.135  16.556  23.069  1.00  0.00    -0.378 OA
ATOM     24  C   UNL A   1      34.521  16.685  23.385  1.00  0.00     0.161 C 
ATOM     25  C   UNL A   1      34.690  17.909  24.250  1.00  0.00     0.044 C 
ENDBRANCH  17  20
ENDBRANCH   9  16
ENDBRANCH   5   8
ENDBRANCH   3   4
ENDBRANCH   2   3
ENDBRANCH   1   2
BRANCH   1  26
ATOM     26  C   UNL A   1      40.599  22.556  27.072  1.00  0.00     0.116 C 
BRANCH  26  27
ATOM     27  N   UNL A   1      41.771  22.530  26.183  1.00  0.00    -0.352 N 
ATOM     28  C   UNL A   1      42.442  23.598  25.592  1.00  0.00     0.251 C 
ATOM     29  H   UNL A   1      42.131  21.636  25.979  1.00  0.00     0.163 HD
ATOM     30  O   UNL A   1      43.164  23.441  24.626  1.00  0.00    -0.269 OA
BRANCH  28  31
ATOM     31  C   UNL A   1      42.282  24.925  26.211  1.00  0.00     0.039 A 
ATOM     32  C   UNL A   1      41.326  25.866  25.819  1.00  0.00     0.014 A 
ATOM     33  C   UNL A   1      43.108  25.159  27.296  1.00  0.00     0.014 A 
ATOM     34  C   UNL A   1      41.161  27.010  26.602  1.00  0.00     0.010 A 
ATOM     35  C   UNL A   1      42.757  26.114  28.197  1.00  0.00     0.010 A 
ATOM     36  C   UNL A   1      41.879  27.113  27.799  1.00  0.00    -0.014 A 
BRANCH  36  37
ATOM     37  C   UNL A   1      41.784  28.243  28.709  1.00  0.00     0.031 A 
ATOM     38  C   UNL A   1      42.848  29.278  28.585  1.00  0.00     0.074 A 
ATOM     39  C   UNL A   1      40.614  28.465  29.353  1.00  0.00     0.049 A 
ATOM     40  N   UNL A   1      43.702  29.648  29.480  1.00  0.00    -0.248 NA
ATOM     41  C   UNL A   1      43.076  29.895  27.267  1.00  0.00     0.031 C 
ATOM     42  C   UNL A   1      39.359  27.696  29.276  1.00  0.00     0.029 A 
ATOM     43  N   UNL A   1      40.247  29.539  30.092  1.00  0.00    -0.354 N 
ATOM     44  C   UNL A   1      44.443  30.685  28.914  1.00  0.00     0.074 A 
ATOM     45  C   UNL A   1      44.145  30.660  27.505  1.00  0.00     0.031 C 
ATOM     46  C   UNL A   1      38.331  28.455  29.713  1.00  0.00     0.029 A 
ATOM     47  C   UNL A   1      38.873  29.676  30.270  1.00  0.00     0.049 A 
ATOM     48  H   UNL A   1      40.899  30.172  30.472  1.00  0.00     0.167 HD
ATOM     49  C   UNL A   1      45.092  31.609  29.680  1.00  0.00     0.037 A 
ATOM     50  C   UNL A   1      38.248  30.762  30.786  1.00  0.00     0.037 A 
ATOM     51  C   UNL A   1      45.113  31.202  31.063  1.00  0.00     0.049 A 
ATOM     52  C   UNL A   1      39.284  31.502  31.566  1.00  0.00     0.074 A 
ATOM     53  C   UNL A   1      45.651  30.125  31.740  1.00  0.00     0.029 A 
ATOM     54  N   UNL A   1      44.154  31.730  31.899  1.00  0.00    -0.354 N 
ATOM     55  N   UNL A   1      39.883  31.002  32.620  1.00  0.00    -0.248 NA
ATOM     56  C   UNL A   1      40.023  32.552  30.878  1.00  0.00     0.031 C 
ATOM     57  C   UNL A   1      44.654  29.759  32.691  1.00  0.00     0.029 A 
ATOM     58  C   UNL A   1      43.610  30.683  32.604  1.00  0.00     0.049 A 
ATOM     59  H   UNL A   1      43.905  32.679  31.978  1.00  0.00     0.167 HD
ATOM     60  C   UNL A   1      41.217  31.372  32.495  1.00  0.00     0.074 A 
ATOM     61  C   UNL A   1      41.228  32.380  31.433  1.00  0.00     0.031 C 
ATOM     62  C   UNL A   1      42.227  30.622  33.035  1.00  0.00     0.037 A 
BRANCH  49  63
ATOM     63  C   UNL A   1      45.446  33.017  29.267  1.00  0.00     0.058 A 
ATOM     64  C   UNL A   1      44.414  33.922  28.933  1.00  0.00     0.135 A 
ATOM     65  C   UNL A   1      46.751  33.441  28.937  1.00  0.00     0.135 A 
ATOM     66  F   UNL A   1      43.132  33.628  29.204  1.00  0.00    -0.206 F 
ATOM     67  C   UNL A   1      44.654  35.116  28.253  1.00  0.00     0.059 A 
ATOM     68  C   UNL A   1      47.019  34.654  28.309  1.00  0.00     0.059 A 
ATOM     69  F   UNL A   1      47.821  32.657  29.118  1.00  0.00    -0.206 F 
ATOM     70  C   UNL A   1      45.960  35.464  27.929  1.00  0.00     0.060 A 
BRANCH  70  71
ATOM     71  S   UNL A   1      46.262  36.943  26.944  1.00  0.00     0.124 S 
ATOM     72  O   UNL A   1      46.775  36.367  25.706  1.00  0.00    -0.237 OA
ATOM     73  O   UNL A   1      44.931  37.536  26.872  1.00  0.00    -0.237 OA
ATOM     74  O   UNL A   1      47.232  37.686  27.743  1.00  0.00    -0.744 OA
ENDBRANCH  70  71
ENDBRANCH  49  63
BRANCH  50  75
ATOM     75  C   UNL A   1      36.981  31.367  30.286  1.00  0.00     0.058 A 
ATOM     76  C   UNL A   1      36.003  31.858  31.167  1.00  0.00     0.135 A 
ATOM     77  C   UNL A   1      36.811  31.707  28.925  1.00  0.00     0.135 A 
ATOM     78  F   UNL A   1      36.095  31.601  32.482  1.00  0.00    -0.206 F 
ATOM     79  C   UNL A   1      34.948  32.673  30.735  1.00  0.00     0.059 A 
ATOM     80  C   UNL A   1      35.764  32.507  28.469  1.00  0.00     0.059 A 
ATOM     81  F   UNL A   1      37.714  31.345  28.001  1.00  0.00    -0.206 F 
ATOM     82  C   UNL A   1      34.849  33.009  29.385  1.00  0.00     0.060 A 
BRANCH  82  83
ATOM     83  S   UNL A   1      33.599  34.204  28.850  1.00  0.00     0.124 S 
ATOM     84  O   UNL A   1      32.979  34.578  30.117  1.00  0.00    -0.237 OA
ATOM     85  O   UNL A   1      34.412  35.232  28.210  1.00  0.00    -0.237 OA
ATOM     86  O   UNL A   1      32.754  33.429  27.945  1.00  0.00    -0.744 OA
ENDBRANCH  82  83
ENDBRANCH  50  75
BRANCH  62  87
ATOM     87  C   UNL A   1      41.876  29.482  33.966  1.00  0.00     0.058 A 
ATOM     88  C   UNL A   1      41.679  28.152  33.550  1.00  0.00     0.135 A 
ATOM     89  C   UNL A   1      41.960  29.702  35.349  1.00  0.00     0.135 A 
ATOM     90  F   UNL A   1      41.693  27.828  32.254  1.00  0.00    -0.206 F 
ATOM     91  C   UNL A   1      41.544  27.099  34.458  1.00  0.00     0.059 A 
ATOM     92  C   UNL A   1      41.859  28.664  36.274  1.00  0.00     0.059 A 
ATOM     93  F   UNL A   1      42.216  30.935  35.816  1.00  0.00    -0.206 F 
ATOM     94  C   UNL A   1      41.642  27.365  35.821  1.00  0.00     0.060 A 
BRANCH  94  95
ATOM     95  S   UNL A   1      41.560  25.990  36.991  1.00  0.00     0.124 S 
ATOM     96  O   UNL A   1      42.651  26.304  37.907  1.00  0.00    -0.237 OA
ATOM     97  O   UNL A   1      40.214  26.119  37.539  1.00  0.00    -0.237 OA
ATOM     98  O   UNL A   1      41.772  24.814  36.149  1.00  0.00    -0.744 OA
ENDBRANCH  94  95
ENDBRANCH  62  87
ENDBRANCH  36  37
ENDBRANCH  28  31
ENDBRANCH  26  27
ENDBRANCH   1  26
TORSDOF 16
ENDMDL
MODEL 2
REMARK VINA RESULT:     -13.0      1.290      1.710
REMARK SMILES C[C@H]1OCC[C@@H]1C(=O)Nc1sc2c(c1C(=O)NCCCCNC(=O)c1ccc(-c3c4nc(c(-c5c(F)cc(S(=O)(=O)[O-])cc5F)c5ccc([nH]5)c(-c5c(F)cc(S(=O)(=O)[O-])cc5F)c5nc(c(-c6c(F)cc(S(=O)(=O)[O-])cc6F)c6ccc3[nH]6)C=C5)C=C4)cc1)CCC2
REMARK SMILES IDX 20 1 19 2 18 3 17 4 15 5 16 6 14 8 10 9 11 10 12 11 13 12
REMARK SMILES IDX 93 13 91 14 92 15 9 16 7 17 8 18 6 20 1 21 2 22 3 23 4 24
REMARK SMILES IDX 5 25 21 26 22 27 23 28 24 30 25 31 26 32 90 33 27 34 89 35
REMARK SMILES IDX 28 36 29 37 30 38 83 39 31 40 88 41 82 42 84 43 32 44 87 45
REMARK SMILES IDX 81 46 80 47 33 49 67 50 46 51 66 52 47 53 50 54 65 55 85 56
REMARK SMILES IDX 48 57 49 58 64 60 86 61 51 62 34 63 35 64 44 65 36 66 37 67
REMARK SMILES IDX 43 68 45 69 38 70 39 71 40 72 41 73 42 74 68 75 69 76 78 77
REMARK SMILES IDX 70 78 71 79 77 80 79 81 72 82 73 83 74 84 75 85 76 86 52 87
REMARK SMILES IDX 53 88 62 89 54 90 55 91 61 92 63 93 56 94 57 95 58 96 59 97
REMARK SMILES IDX 60 98
REMARK H PARENT 17 7 9 19 22 29 84 48 50 59
REMARK Flexibility Score: inf
ROOT
ATOM      1  C   UNL A   1      38.538  22.602  25.956  1.00  0.00     0.023 C 
ENDROOT
BRANCH   1   2
ATOM      2  C   UNL A   1      37.700  23.887  26.051  1.00  0.00     0.023 C 
BRANCH   2   3
ATOM      3  C   UNL A   1      36.207  23.751  25.749  1.00  0.00     0.116 C 
BRANCH   3   4
ATOM      4  N   UNL A   1      35.866  23.373  24.403  1.00  0.00    -0.352 N 
ATOM      5  C   UNL A   1      34.782  23.605  23.600  1.00  0.00     0.254 C 
ATOM      6  O   UNL A   1      35.026  23.501  22.395  1.00  0.00    -0.269 OA
ATOM      7  H   UNL A   1      36.561  22.831  23.966  1.00  0.00     0.163 HD
BRANCH   5   8
ATOM      8  C   UNL A   1      33.419  23.911  24.055  1.00  0.00     0.078 A 
ATOM      9  C   UNL A   1      32.325  23.265  23.456  1.00  0.00     0.108 A 
ATOM     10  S   UNL A   1      30.829  24.075  23.677  1.00  0.00    -0.122 S 
ATOM     11  C   UNL A   1      31.534  25.073  24.802  1.00  0.00     0.011 A 
ATOM     12  C   UNL A   1      32.887  24.895  24.965  1.00  0.00    -0.019 A 
ATOM     13  C   UNL A   1      30.942  26.182  25.585  1.00  0.00     0.047 C 
ATOM     14  C   UNL A   1      33.376  25.907  25.944  1.00  0.00     0.038 C 
ATOM     15  C   UNL A   1      32.071  26.439  26.607  1.00  0.00     0.010 C 
BRANCH   9  16
ATOM     16  N   UNL A   1      32.181  22.222  22.572  1.00  0.00    -0.317 N 
ATOM     17  C   UNL A   1      32.247  20.879  22.763  1.00  0.00     0.230 C 
ATOM     18  O   UNL A   1      31.956  20.173  21.785  1.00  0.00    -0.274 OA
ATOM     19  H   UNL A   1      31.997  22.494  21.644  1.00  0.00     0.170 HD
BRANCH  17  20
ATOM     20  C   UNL A   1      32.505  20.163  24.085  1.00  0.00     0.110 C 
ATOM     21  C   UNL A   1      33.846  20.913  26.089  1.00  0.00     0.039 C 
ATOM     22  C   UNL A   1      33.898  20.379  24.658  1.00  0.00     0.127 C 
ATOM     23  O   UNL A   1      34.539  19.095  24.677  1.00  0.00    -0.378 OA
ATOM     24  C   UNL A   1      33.519  18.098  24.733  1.00  0.00     0.161 C 
ATOM     25  C   UNL A   1      32.267  18.676  24.120  1.00  0.00     0.044 C 
ENDBRANCH  17  20
ENDBRANCH   9  16
ENDBRANCH   5   8
ENDBRANCH   3   4
ENDBRANCH   2   3
ENDBRANCH   1   2
BRANCH   1  26
ATOM     26  C   UNL A   1      39.727  22.519  26.911  1.00  0.00     0.116 C 
BRANCH  26  27
ATOM     27  N   UNL A   1      41.009  22.254  26.238  1.00  0.00    -0.352 N 
ATOM     28  C   UNL A   1      41.956  23.164  25.774  1.00  0.00     0.251 C 
ATOM     29  H   UNL A   1      41.227  21.304  26.097  1.00  0.00     0.163 HD
ATOM     30  O   UNL A   1      42.790  22.850  24.947  1.00  0.00    -0.269 OA
BRANCH  28  31
ATOM     31  C   UNL A   1      41.941  24.515  26.360  1.00  0.00     0.039 A 
ATOM     32  C   UNL A   1      41.183  25.580  25.863  1.00  0.00     0.014 A 
ATOM     33  C   UNL A   1      42.681  24.650  27.521  1.00  0.00     0.014 A 
ATOM     34  C   UNL A   1      41.118  26.756  26.614  1.00  0.00     0.010 A 
ATOM     35  C   UNL A   1      42.394  25.670  28.372  1.00  0.00     0.010 A 
ATOM     36  C   UNL A   1      41.722  26.780  27.876  1.00  0.00    -0.014 A 
BRANCH  36  37
ATOM     37  C   UNL A   1      41.711  27.934  28.761  1.00  0.00     0.031 A 
ATOM     38  C   UNL A   1      42.821  28.911  28.579  1.00  0.00     0.074 A 
ATOM     39  C   UNL A   1      40.575  28.229  29.433  1.00  0.00     0.049 A 
ATOM     40  N   UNL A   1      43.720  29.258  29.438  1.00  0.00    -0.248 NA
ATOM     41  C   UNL A   1      43.039  29.484  27.239  1.00  0.00     0.031 C 
ATOM     42  C   UNL A   1      39.281  27.523  29.413  1.00  0.00     0.029 A 
ATOM     43  N   UNL A   1      40.285  29.338  30.156  1.00  0.00    -0.354 N 
ATOM     44  C   UNL A   1      44.494  30.244  28.824  1.00  0.00     0.074 A 
ATOM     45  C   UNL A   1      44.150  30.200  27.426  1.00  0.00     0.031 C 
ATOM     46  C   UNL A   1      38.306  28.343  29.861  1.00  0.00     0.029 A 
ATOM     47  C   UNL A   1      38.926  29.548  30.371  1.00  0.00     0.049 A 
ATOM     48  H   UNL A   1      40.979  29.946  30.501  1.00  0.00     0.167 HD
ATOM     49  C   UNL A   1      45.211  31.151  29.547  1.00  0.00     0.037 A 
ATOM     50  C   UNL A   1      38.371  30.676  30.879  1.00  0.00     0.037 A 
ATOM     51  C   UNL A   1      45.255  30.776  30.939  1.00  0.00     0.049 A 
ATOM     52  C   UNL A   1      39.467  31.381  31.608  1.00  0.00     0.074 A 
ATOM     53  C   UNL A   1      45.760  29.690  31.626  1.00  0.00     0.029 A 
ATOM     54  N   UNL A   1      44.350  31.371  31.790  1.00  0.00    -0.354 N 
ATOM     55  N   UNL A   1      40.072  30.877  32.656  1.00  0.00    -0.248 NA
ATOM     56  C   UNL A   1      40.235  32.376  30.873  1.00  0.00     0.031 C 
ATOM     57  C   UNL A   1      44.776  29.397  32.616  1.00  0.00     0.029 A 
ATOM     58  C   UNL A   1      43.777  30.371  32.536  1.00  0.00     0.049 A 
ATOM     59  H   UNL A   1      44.151  32.334  31.852  1.00  0.00     0.167 HD
ATOM     60  C   UNL A   1      41.419  31.176  32.482  1.00  0.00     0.074 A 
ATOM     61  C   UNL A   1      41.446  32.157  31.395  1.00  0.00     0.031 C 
ATOM     62  C   UNL A   1      42.406  30.389  33.010  1.00  0.00     0.037 A 
BRANCH  49  63
ATOM     63  C   UNL A   1      45.621  32.530  29.088  1.00  0.00     0.058 A 
ATOM     64  C   UNL A   1      44.626  33.467  28.733  1.00  0.00     0.135 A 
ATOM     65  C   UNL A   1      46.941  32.887  28.737  1.00  0.00     0.135 A 
ATOM     66  F   UNL A   1      43.334  33.236  29.021  1.00  0.00    -0.206 F 
ATOM     67  C   UNL A   1      44.911  34.629  28.015  1.00  0.00     0.059 A 
ATOM     68  C   UNL A   1      47.255  34.068  28.071  1.00  0.00     0.059 A 
ATOM     69  F   UNL A   1      47.978  32.064  28.936  1.00  0.00    -0.206 F 
ATOM     70  C   UNL A   1      46.229  34.911  27.672  1.00  0.00     0.060 A 
BRANCH  70  71
ATOM     71  S   UNL A   1      46.586  36.344  26.641  1.00  0.00     0.124 S 
ATOM     72  O   UNL A   1      47.667  36.977  27.388  1.00  0.00    -0.237 OA
ATOM     73  O   UNL A   1      46.961  35.722  25.375  1.00  0.00    -0.237 OA
ATOM     74  O   UNL A   1      45.320  37.070  26.625  1.00  0.00    -0.744 OA
ENDBRANCH  70  71
ENDBRANCH  49  63
BRANCH  50  75
ATOM     75  C   UNL A   1      37.121  31.332  30.402  1.00  0.00     0.058 A 
ATOM     76  C   UNL A   1      36.172  31.846  31.301  1.00  0.00     0.135 A 
ATOM     77  C   UNL A   1      36.947  31.696  29.047  1.00  0.00     0.135 A 
ATOM     78  F   UNL A   1      36.269  31.568  32.611  1.00  0.00    -0.206 F 
ATOM     79  C   UNL A   1      35.141  32.703  30.892  1.00  0.00     0.059 A 
ATOM     80  C   UNL A   1      35.924  32.538  28.615  1.00  0.00     0.059 A 
ATOM     81  F   UNL A   1      37.826  31.314  28.108  1.00  0.00    -0.206 F 
ATOM     82  C   UNL A   1      35.038  33.060  29.548  1.00  0.00     0.060 A 
BRANCH  82  83
ATOM     83  S   UNL A   1      33.825  34.306  29.043  1.00  0.00     0.124 S 
ATOM     84  O   UNL A   1      34.679  35.346  28.480  1.00  0.00    -0.237 OA
ATOM     85  O   UNL A   1      33.007  33.566  28.087  1.00  0.00    -0.237 OA
ATOM     86  O   UNL A   1      33.156  34.654  30.293  1.00  0.00    -0.744 OA
ENDBRANCH  82  83
ENDBRANCH  50  75
BRANCH  62  87
ATOM     87  C   UNL A   1      42.029  29.290  33.979  1.00  0.00     0.058 A 
ATOM     88  C   UNL A   1      41.796  27.953  33.609  1.00  0.00     0.135 A 
ATOM     89  C   UNL A   1      42.123  29.554  35.354  1.00  0.00     0.135 A 
ATOM     90  F   UNL A   1      41.798  27.585  32.324  1.00  0.00    -0.206 F 
ATOM     91  C   UNL A   1      41.637  26.934  34.552  1.00  0.00     0.059 A 
ATOM     92  C   UNL A   1      41.997  28.550  36.314  1.00  0.00     0.059 A 
ATOM     93  F   UNL A   1      42.411  30.795  35.779  1.00  0.00    -0.206 F 
ATOM     94  C   UNL A   1      41.745  27.243  35.905  1.00  0.00     0.060 A 
BRANCH  94  95
ATOM     95  S   UNL A   1      41.631  25.911  37.120  1.00  0.00     0.124 S 
ATOM     96  O   UNL A   1      42.708  26.248  38.044  1.00  0.00    -0.237 OA
ATOM     97  O   UNL A   1      40.277  26.069  37.640  1.00  0.00    -0.237 OA
ATOM     98  O   UNL A   1      41.847  24.705  36.323  1.00  0.00    -0.744 OA
ENDBRANCH  94  95
ENDBRANCH  62  87
ENDBRANCH  36  37
ENDBRANCH  28  31
ENDBRANCH  26  27
ENDBRANCH   1  26
TORSDOF 16
ENDMDL
MODEL 3
REMARK VINA RESULT:     -12.8      1.732      3.414
REMARK SMILES C[C@H]1OCC[C@@H]1C(=O)Nc1sc2c(c1C(=O)NCCCCNC(=O)c1ccc(-c3c4nc(c(-c5c(F)cc(S(=O)(=O)[O-])cc5F)c5ccc([nH]5)c(-c5c(F)cc(S(=O)(=O)[O-])cc5F)c5nc(c(-c6c(F)cc(S(=O)(=O)[O-])cc6F)c6ccc3[nH]6)C=C5)C=C4)cc1)CCC2
REMARK SMILES IDX 20 1 19 2 18 3 17 4 15 5 16 6 14 8 10 9 11 10 12 11 13 12
REMARK SMILES IDX 93 13 91 14 92 15 9 16 7 17 8 18 6 20 1 21 2 22 3 23 4 24
REMARK SMILES IDX 5 25 21 26 22 27 23 28 24 30 25 31 26 32 90 33 27 34 89 35
REMARK SMILES IDX 28 36 29 37 30 38 83 39 31 40 88 41 82 42 84 43 32 44 87 45
REMARK SMILES IDX 81 46 80 47 33 49 67 50 46 51 66 52 47 53 50 54 65 55 85 56
REMARK SMILES IDX 48 57 49 58 64 60 86 61 51 62 34 63 35 64 44 65 36 66 37 67
REMARK SMILES IDX 43 68 45 69 38 70 39 71 40 72 41 73 42 74 68 75 69 76 78 77
REMARK SMILES IDX 70 78 71 79 77 80 79 81 72 82 73 83 74 84 75 85 76 86 52 87
REMARK SMILES IDX 53 88 62 89 54 90 55 91 61 92 63 93 56 94 57 95 58 96 59 97
REMARK SMILES IDX 60 98
REMARK H PARENT 17 7 9 19 22 29 84 48 50 59
REMARK Flexibility Score: inf
ROOT
ATOM      1  C   UNL A   1      39.055  22.358  26.402  1.00  0.00     0.023 C 
ENDROOT
BRANCH   1   2
ATOM      2  C   UNL A   1      38.226  23.635  26.615  1.00  0.00     0.023 C 
BRANCH   2   3
ATOM      3  C   UNL A   1      36.976  23.788  25.748  1.00  0.00     0.116 C 
BRANCH   3   4
ATOM      4  N   UNL A   1      37.089  23.331  24.388  1.00  0.00    -0.352 N 
ATOM      5  C   UNL A   1      36.183  23.084  23.392  1.00  0.00     0.254 C 
ATOM      6  O   UNL A   1      36.668  23.126  22.258  1.00  0.00    -0.269 OA
ATOM      7  H   UNL A   1      38.019  23.158  24.115  1.00  0.00     0.163 HD
BRANCH   5   8
ATOM      8  C   UNL A   1      34.763  22.754  23.580  1.00  0.00     0.078 A 
ATOM      9  C   UNL A   1      33.778  23.629  23.095  1.00  0.00     0.108 A 
ATOM     10  S   UNL A   1      32.240  23.422  23.828  1.00  0.00    -0.122 S 
ATOM     11  C   UNL A   1      32.762  22.010  24.527  1.00  0.00     0.011 A 
ATOM     12  C   UNL A   1      34.088  21.716  24.316  1.00  0.00    -0.019 A 
ATOM     13  C   UNL A   1      32.038  21.071  25.415  1.00  0.00     0.047 C 
ATOM     14  C   UNL A   1      34.413  20.468  25.064  1.00  0.00     0.038 C 
ATOM     15  C   UNL A   1      33.017  19.877  25.421  1.00  0.00     0.010 C 
BRANCH   9  16
ATOM     16  N   UNL A   1      33.782  24.747  22.295  1.00  0.00    -0.317 N 
ATOM     17  C   UNL A   1      33.450  26.035  22.567  1.00  0.00     0.230 C 
ATOM     18  O   UNL A   1      33.667  26.858  21.662  1.00  0.00    -0.274 OA
ATOM     19  H   UNL A   1      34.077  24.587  21.369  1.00  0.00     0.170 HD
BRANCH  17  20
ATOM     20  C   UNL A   1      32.972  26.585  23.906  1.00  0.00     0.110 C 
ATOM     21  C   UNL A   1      30.976  28.041  24.431  1.00  0.00     0.039 C 
ATOM     22  C   UNL A   1      32.384  27.987  23.839  1.00  0.00     0.127 C 
ATOM     23  O   UNL A   1      33.239  28.829  24.626  1.00  0.00    -0.378 OA
ATOM     24  C   UNL A   1      33.896  28.007  25.591  1.00  0.00     0.161 C 
ATOM     25  C   UNL A   1      33.967  26.605  25.036  1.00  0.00     0.044 C 
ENDBRANCH  17  20
ENDBRANCH   9  16
ENDBRANCH   5   8
ENDBRANCH   3   4
ENDBRANCH   2   3
ENDBRANCH   1   2
BRANCH   1  26
ATOM     26  C   UNL A   1      40.364  22.283  27.186  1.00  0.00     0.116 C 
BRANCH  26  27
ATOM     27  N   UNL A   1      41.557  22.155  26.335  1.00  0.00    -0.352 N 
ATOM     28  C   UNL A   1      42.303  23.158  25.721  1.00  0.00     0.251 C 
ATOM     29  H   UNL A   1      41.871  21.235  26.178  1.00  0.00     0.163 HD
ATOM     30  O   UNL A   1      43.042  22.921  24.784  1.00  0.00    -0.269 OA
BRANCH  28  31
ATOM     31  C   UNL A   1      42.202  24.517  26.281  1.00  0.00     0.039 A 
ATOM     32  C   UNL A   1      41.316  25.494  25.818  1.00  0.00     0.014 A 
ATOM     33  C   UNL A   1      43.005  24.749  27.383  1.00  0.00     0.014 A 
ATOM     34  C   UNL A   1      41.193  26.678  26.549  1.00  0.00     0.010 A 
ATOM     35  C   UNL A   1      42.682  25.760  28.233  1.00  0.00     0.010 A 
ATOM     36  C   UNL A   1      41.876  26.790  27.765  1.00  0.00    -0.014 A 
BRANCH  36  37
ATOM     37  C   UNL A   1      41.819  27.960  28.626  1.00  0.00     0.031 A 
ATOM     38  C   UNL A   1      42.894  28.972  28.431  1.00  0.00     0.074 A 
ATOM     39  C   UNL A   1      40.667  28.228  29.285  1.00  0.00     0.049 A 
ATOM     40  N   UNL A   1      43.774  29.369  29.289  1.00  0.00    -0.248 NA
ATOM     41  C   UNL A   1      43.101  29.526  27.082  1.00  0.00     0.031 C 
ATOM     42  C   UNL A   1      39.400  27.476  29.271  1.00  0.00     0.029 A 
ATOM     43  N   UNL A   1      40.333  29.340  29.983  1.00  0.00    -0.354 N 
ATOM     44  C   UNL A   1      44.516  30.368  28.660  1.00  0.00     0.074 A 
ATOM     45  C   UNL A   1      44.185  30.285  27.261  1.00  0.00     0.031 C 
ATOM     46  C   UNL A   1      38.394  28.268  29.696  1.00  0.00     0.029 A 
ATOM     47  C   UNL A   1      38.966  29.505  30.186  1.00  0.00     0.049 A 
ATOM     48  H   UNL A   1      41.002  29.979  30.320  1.00  0.00     0.167 HD
ATOM     49  C   UNL A   1      45.196  31.315  29.369  1.00  0.00     0.037 A 
ATOM     50  C   UNL A   1      38.368  30.622  30.667  1.00  0.00     0.037 A 
ATOM     51  C   UNL A   1      45.243  30.970  30.768  1.00  0.00     0.049 A 
ATOM     52  C   UNL A   1      39.433  31.380  31.389  1.00  0.00     0.074 A 
ATOM     53  C   UNL A   1      45.782  29.917  31.481  1.00  0.00     0.029 A 
ATOM     54  N   UNL A   1      44.312  31.549  31.601  1.00  0.00    -0.354 N 
ATOM     55  N   UNL A   1      40.048  30.919  32.451  1.00  0.00    -0.248 NA
ATOM     56  C   UNL A   1      40.170  32.387  30.638  1.00  0.00     0.031 C 
ATOM     57  C   UNL A   1      44.802  29.609  32.470  1.00  0.00     0.029 A 
ATOM     58  C   UNL A   1      43.770  30.544  32.364  1.00  0.00     0.049 A 
ATOM     59  H   UNL A   1      44.078  32.505  31.643  1.00  0.00     0.167 HD
ATOM     60  C   UNL A   1      41.384  31.263  32.279  1.00  0.00     0.074 A 
ATOM     61  C   UNL A   1      41.385  32.222  31.173  1.00  0.00     0.031 C 
ATOM     62  C   UNL A   1      42.396  30.523  32.829  1.00  0.00     0.037 A 
BRANCH  49  63
ATOM     63  C   UNL A   1      45.559  32.698  28.885  1.00  0.00     0.058 A 
ATOM     64  C   UNL A   1      46.913  33.102  28.889  1.00  0.00     0.135 A 
ATOM     65  C   UNL A   1      44.622  33.730  28.660  1.00  0.00     0.135 A 
ATOM     66  F   UNL A   1      47.893  32.205  29.088  1.00  0.00    -0.206 F 
ATOM     67  C   UNL A   1      47.299  34.436  28.760  1.00  0.00     0.059 A 
ATOM     68  C   UNL A   1      44.988  35.060  28.473  1.00  0.00     0.059 A 
ATOM     69  F   UNL A   1      43.301  33.515  28.709  1.00  0.00    -0.206 F 
ATOM     70  C   UNL A   1      46.326  35.411  28.571  1.00  0.00     0.060 A 
BRANCH  70  71
ATOM     71  S   UNL A   1      46.810  37.146  28.528  1.00  0.00     0.124 S 
ATOM     72  O   UNL A   1      46.451  37.513  27.163  1.00  0.00    -0.237 OA
ATOM     73  O   UNL A   1      45.981  37.718  29.584  1.00  0.00    -0.237 OA
ATOM     74  O   UNL A   1      48.240  37.103  28.815  1.00  0.00    -0.744 OA
ENDBRANCH  70  71
ENDBRANCH  49  63
BRANCH  50  75
ATOM     75  C   UNL A   1      37.099  31.224  30.169  1.00  0.00     0.058 A 
ATOM     76  C   UNL A   1      36.165  31.800  31.046  1.00  0.00     0.135 A 
ATOM     77  C   UNL A   1      36.888  31.472  28.794  1.00  0.00     0.135 A 
ATOM     78  F   UNL A   1      36.298  31.633  32.371  1.00  0.00    -0.206 F 
ATOM     79  C   UNL A   1      35.114  32.610  30.594  1.00  0.00     0.059 A 
ATOM     80  C   UNL A   1      35.844  32.265  28.319  1.00  0.00     0.059 A 
ATOM     81  F   UNL A   1      37.748  31.023  27.867  1.00  0.00    -0.206 F 
ATOM     82  C   UNL A   1      34.974  32.853  29.227  1.00  0.00     0.060 A 
BRANCH  82  83
ATOM     83  S   UNL A   1      33.734  34.040  28.652  1.00  0.00     0.124 S 
ATOM     84  O   UNL A   1      33.115  34.459  29.905  1.00  0.00    -0.237 OA
ATOM     85  O   UNL A   1      34.556  35.041  27.982  1.00  0.00    -0.237 OA
ATOM     86  O   UNL A   1      32.885  33.243  27.771  1.00  0.00    -0.744 OA
ENDBRANCH  82  83
ENDBRANCH  50  75
BRANCH  62  87
ATOM     87  C   UNL A   1      42.051  29.430  33.818  1.00  0.00     0.058 A 
ATOM     88  C   UNL A   1      41.893  28.074  33.477  1.00  0.00     0.135 A 
ATOM     89  C   UNL A   1      42.100  29.733  35.187  1.00  0.00     0.135 A 
ATOM     90  F   UNL A   1      41.943  27.676  32.203  1.00  0.00    -0.206 F 
ATOM     91  C   UNL A   1      41.763  27.073  34.442  1.00  0.00     0.059 A 
ATOM     92  C   UNL A   1      42.002  28.748  36.169  1.00  0.00     0.059 A 
ATOM     93  F   UNL A   1      42.317  30.997  35.586  1.00  0.00    -0.206 F 
ATOM     94  C   UNL A   1      41.825  27.420  35.789  1.00  0.00     0.060 A 
BRANCH  94  95
ATOM     95  S   UNL A   1      41.749  26.114  37.035  1.00  0.00     0.124 S 
ATOM     96  O   UNL A   1      42.005  24.918  36.240  1.00  0.00    -0.237 OA
ATOM     97  O   UNL A   1      42.808  26.497  37.963  1.00  0.00    -0.237 OA
ATOM     98  O   UNL A   1      40.393  26.231  37.568  1.00  0.00    -0.744 OA
ENDBRANCH  94  95
ENDBRANCH  62  87
ENDBRANCH  36  37
ENDBRANCH  28  31
ENDBRANCH  26  27
ENDBRANCH   1  26
TORSDOF 16
ENDMDL
