MODEL 1
REMARK VINA RESULT:     -11.1      0.000      0.000
REMARK SMILES C[N@@H+]1CC[N@@H+](C)[C@H](C[NH2+]Cc2ccc(C(=O)NCCCCNC(=O)c3ccc(-c4c5nc(c(-c6c(F)cc(S(=O)(=O)[O-])cc6F)c6ccc([nH]6)c(-c6c(F)cc(S(=O)(=O)[O-])cc6F)c6nc(c(-c7c(F)cc(S(=O)(=O)[O-])cc7F)c7ccc4[nH]7)C=C6)C=C5)cc3)cn2)C1
REMARK SMILES IDX 19 1 18 2 17 3 15 4 16 5 14 7 11 8 12 9 92 10 13 11 91 12
REMARK SMILES IDX 10 13 9 14 8 17 7 18 1 19 2 20 3 21 93 22 4 24 5 25 6 26
REMARK SMILES IDX 20 28 21 29 22 30 23 31 24 33 25 34 26 35 90 36 27 37 89 38
REMARK SMILES IDX 28 39 29 40 30 41 83 42 31 43 88 44 82 45 84 46 32 47 87 48
REMARK SMILES IDX 81 49 80 50 33 52 67 53 46 54 66 55 47 56 50 57 65 58 85 59
REMARK SMILES IDX 48 60 49 61 64 63 86 64 51 65 34 66 35 67 44 68 36 69 37 70
REMARK SMILES IDX 43 71 45 72 38 73 39 74 40 75 41 76 42 77 68 78 69 79 78 80
REMARK SMILES IDX 70 81 71 82 77 83 79 84 72 85 73 86 74 87 75 88 76 89 52 90
REMARK SMILES IDX 53 91 62 92 54 93 55 94 61 95 63 96 56 97 57 98 58 99 59 100
REMARK SMILES IDX 60 101
REMARK H PARENT 17 6 9 15 9 16 2 23 5 27 22 32 84 51 50 62
REMARK Flexibility Score: inf
ROOT
ATOM      1  C   UNL A   1      33.220  29.340  24.846  1.00  0.00     0.023 C 
ENDROOT
BRANCH   1   2
ATOM      2  C   UNL A   1      33.294  29.110  23.334  1.00  0.00     0.116 C 
BRANCH   2   3
ATOM      3  N   UNL A   1      32.009  29.359  22.718  1.00  0.00    -0.352 N 
ATOM      4  C   UNL A   1      30.927  28.549  22.482  1.00  0.00     0.252 C 
ATOM      5  O   UNL A   1      29.965  29.054  21.900  1.00  0.00    -0.269 OA
ATOM      6  H   UNL A   1      31.886  30.287  22.411  1.00  0.00     0.163 HD
BRANCH   4   7
ATOM      7  C   UNL A   1      30.829  27.136  22.934  1.00  0.00     0.058 A 
ATOM      8  C   UNL A   1      30.734  24.677  24.189  1.00  0.00     0.094 A 
ATOM      9  C   UNL A   1      31.366  24.784  22.959  1.00  0.00     0.030 A 
ATOM     10  N   UNL A   1      30.053  25.708  24.748  1.00  0.00    -0.255 NA
ATOM     11  C   UNL A   1      31.389  26.020  22.321  1.00  0.00     0.017 A 
ATOM     12  C   UNL A   1      30.131  26.907  24.118  1.00  0.00     0.125 A 
BRANCH   8  13
ATOM     13  C   UNL A   1      30.931  23.425  25.012  1.00  0.00     0.318 C 
BRANCH  13  14
ATOM     14  N   UNL A   1      32.332  23.000  24.988  1.00  0.00    -0.336 N 
ATOM     15  H   UNL A   1      32.439  22.242  24.314  1.00  0.00     0.346 HD
ATOM     16  H   UNL A   1      32.906  23.801  24.724  1.00  0.00     0.346 HD
BRANCH  14  17
ATOM     17  C   UNL A   1      32.773  22.529  26.314  1.00  0.00     0.332 C 
BRANCH  17  18
ATOM     18  C   UNL A   1      34.222  21.948  26.266  1.00  0.00     0.295 C 
ATOM     19  C   UNL A   1      37.561  23.790  26.184  1.00  0.00     0.333 C 
ATOM     20  N   UNL A   1      36.630  22.667  26.163  1.00  0.00    -0.328 N 
ATOM     21  C   UNL A   1      36.777  21.876  24.931  1.00  0.00     0.324 C 
ATOM     22  C   UNL A   1      35.231  23.136  26.237  1.00  0.00     0.334 C 
ATOM     23  H   UNL A   1      36.850  22.090  26.974  1.00  0.00     0.348 HD
ATOM     24  C   UNL A   1      35.834  20.655  24.949  1.00  0.00     0.324 C 
ATOM     25  N   UNL A   1      34.404  20.990  25.121  1.00  0.00    -0.321 N 
ATOM     26  C   UNL A   1      33.641  19.752  25.315  1.00  0.00     0.333 C 
ATOM     27  H   UNL A   1      34.053  21.458  24.285  1.00  0.00     0.348 HD
ENDBRANCH  17  18
ENDBRANCH  14  17
ENDBRANCH  13  14
ENDBRANCH   8  13
ENDBRANCH   4   7
ENDBRANCH   2   3
ENDBRANCH   1   2
BRANCH   1  28
ATOM     28  C   UNL A   1      33.604  28.122  25.687  1.00  0.00     0.023 C 
BRANCH  28  29
ATOM     29  C   UNL A   1      33.592  28.356  27.192  1.00  0.00     0.116 C 
BRANCH  29  30
ATOM     30  N   UNL A   1      33.488  29.761  27.556  1.00  0.00    -0.352 N 
ATOM     31  C   UNL A   1      34.452  30.571  28.105  1.00  0.00     0.251 C 
ATOM     32  H   UNL A   1      32.615  30.184  27.388  1.00  0.00     0.163 HD
ATOM     33  O   UNL A   1      34.177  31.713  28.448  1.00  0.00    -0.269 OA
BRANCH  31  34
ATOM     34  C   UNL A   1      35.807  30.024  28.318  1.00  0.00     0.039 A 
ATOM     35  C   UNL A   1      36.720  30.078  27.264  1.00  0.00     0.014 A 
ATOM     36  C   UNL A   1      36.186  29.516  29.563  1.00  0.00     0.014 A 
ATOM     37  C   UNL A   1      38.041  29.684  27.482  1.00  0.00     0.010 A 
ATOM     38  C   UNL A   1      37.518  29.189  29.796  1.00  0.00     0.010 A 
ATOM     39  C   UNL A   1      38.458  29.276  28.760  1.00  0.00    -0.014 A 
BRANCH  39  40
ATOM     40  C   UNL A   1      39.884  28.966  29.027  1.00  0.00     0.031 A 
ATOM     41  C   UNL A   1      40.788  30.002  29.633  1.00  0.00     0.074 A 
ATOM     42  C   UNL A   1      40.370  27.761  28.670  1.00  0.00     0.049 A 
ATOM     43  N   UNL A   1      42.059  29.912  29.930  1.00  0.00    -0.248 NA
ATOM     44  C   UNL A   1      40.195  31.317  29.920  1.00  0.00     0.031 C 
ATOM     45  C   UNL A   1      39.605  26.702  28.008  1.00  0.00     0.029 A 
ATOM     46  N   UNL A   1      41.625  27.225  28.808  1.00  0.00    -0.354 N 
ATOM     47  C   UNL A   1      42.419  31.158  30.431  1.00  0.00     0.074 A 
ATOM     48  C   UNL A   1      41.246  32.002  30.347  1.00  0.00     0.031 C 
ATOM     49  C   UNL A   1      40.398  25.633  27.826  1.00  0.00     0.029 A 
ATOM     50  C   UNL A   1      41.731  25.940  28.331  1.00  0.00     0.049 A 
ATOM     51  H   UNL A   1      42.378  27.714  29.213  1.00  0.00     0.167 HD
ATOM     52  C   UNL A   1      43.611  31.552  30.938  1.00  0.00     0.037 A 
ATOM     53  C   UNL A   1      42.784  25.102  28.310  1.00  0.00     0.037 A 
ATOM     54  C   UNL A   1      44.766  30.699  31.038  1.00  0.00     0.049 A 
ATOM     55  C   UNL A   1      44.090  25.554  28.903  1.00  0.00     0.074 A 
ATOM     56  C   UNL A   1      46.002  30.982  31.595  1.00  0.00     0.029 A 
ATOM     57  N   UNL A   1      44.831  29.395  30.566  1.00  0.00    -0.354 N 
ATOM     58  N   UNL A   1      44.392  26.710  29.444  1.00  0.00    -0.248 NA
ATOM     59  C   UNL A   1      45.193  24.586  28.892  1.00  0.00     0.031 C 
ATOM     60  C   UNL A   1      46.825  29.862  31.428  1.00  0.00     0.029 A 
ATOM     61  C   UNL A   1      46.089  28.866  30.803  1.00  0.00     0.049 A 
ATOM     62  H   UNL A   1      44.091  28.917  30.128  1.00  0.00     0.167 HD
ATOM     63  C   UNL A   1      45.716  26.604  29.854  1.00  0.00     0.074 A 
ATOM     64  C   UNL A   1      46.148  25.262  29.518  1.00  0.00     0.031 C 
ATOM     65  C   UNL A   1      46.504  27.531  30.453  1.00  0.00     0.037 A 
BRANCH  52  66
ATOM     66  C   UNL A   1      43.719  32.968  31.434  1.00  0.00     0.058 A 
ATOM     67  C   UNL A   1      43.530  33.288  32.789  1.00  0.00     0.135 A 
ATOM     68  C   UNL A   1      44.041  34.013  30.555  1.00  0.00     0.135 A 
ATOM     69  F   UNL A   1      43.204  32.329  33.671  1.00  0.00    -0.206 F 
ATOM     70  C   UNL A   1      43.626  34.597  33.249  1.00  0.00     0.059 A 
ATOM     71  C   UNL A   1      44.168  35.327  30.997  1.00  0.00     0.059 A 
ATOM     72  F   UNL A   1      44.230  33.765  29.250  1.00  0.00    -0.206 F 
ATOM     73  C   UNL A   1      43.944  35.611  32.344  1.00  0.00     0.060 A 
BRANCH  73  74
ATOM     74  S   UNL A   1      44.068  37.304  32.956  1.00  0.00     0.124 S 
ATOM     75  O   UNL A   1      44.094  38.063  31.710  1.00  0.00    -0.237 OA
ATOM     76  O   UNL A   1      42.853  37.439  33.755  1.00  0.00    -0.237 OA
ATOM     77  O   UNL A   1      45.314  37.300  33.716  1.00  0.00    -0.744 OA
ENDBRANCH  73  74
ENDBRANCH  52  66
BRANCH  53  78
ATOM     78  C   UNL A   1      42.636  23.737  27.739  1.00  0.00     0.058 A 
ATOM     79  C   UNL A   1      42.425  22.627  28.570  1.00  0.00     0.135 A 
ATOM     80  C   UNL A   1      42.681  23.518  26.353  1.00  0.00     0.135 A 
ATOM     81  F   UNL A   1      42.376  22.787  29.901  1.00  0.00    -0.206 F 
ATOM     82  C   UNL A   1      42.280  21.345  28.052  1.00  0.00     0.059 A 
ATOM     83  C   UNL A   1      42.517  22.248  25.809  1.00  0.00     0.059 A 
ATOM     84  F   UNL A   1      42.861  24.550  25.515  1.00  0.00    -0.206 F 
ATOM     85  C   UNL A   1      42.326  21.166  26.668  1.00  0.00     0.060 A 
BRANCH  85  86
ATOM     86  S   UNL A   1      42.086  19.505  26.000  1.00  0.00     0.124 S 
ATOM     87  O   UNL A   1      42.579  18.675  27.093  1.00  0.00    -0.237 OA
ATOM     88  O   UNL A   1      40.644  19.471  25.772  1.00  0.00    -0.237 OA
ATOM     89  O   UNL A   1      42.903  19.511  24.790  1.00  0.00    -0.744 OA
ENDBRANCH  85  86
ENDBRANCH  53  78
BRANCH  65  90
ATOM     90  C   UNL A   1      47.908  27.115  30.792  1.00  0.00     0.058 A 
ATOM     91  C   UNL A   1      48.973  27.334  29.903  1.00  0.00     0.135 A 
ATOM     92  C   UNL A   1      48.195  26.506  32.024  1.00  0.00     0.135 A 
ATOM     93  F   UNL A   1      48.751  27.908  28.710  1.00  0.00    -0.206 F 
ATOM     94  C   UNL A   1      50.268  26.928  30.209  1.00  0.00     0.059 A 
ATOM     95  C   UNL A   1      49.486  26.117  32.362  1.00  0.00     0.059 A 
ATOM     96  F   UNL A   1      47.213  26.285  32.913  1.00  0.00    -0.206 F 
ATOM     97  C   UNL A   1      50.513  26.316  31.440  1.00  0.00     0.060 A 
BRANCH  97  98
ATOM     98  S   UNL A   1      52.197  25.794  31.829  1.00  0.00     0.124 S 
ATOM     99  O   UNL A   1      52.512  26.647  32.970  1.00  0.00    -0.237 OA
ATOM    100  O   UNL A   1      52.026  24.375  32.127  1.00  0.00    -0.237 OA
ATOM    101  O   UNL A   1      52.934  26.086  30.603  1.00  0.00    -0.744 OA
ENDBRANCH  97  98
ENDBRANCH  65  90
ENDBRANCH  39  40
ENDBRANCH  31  34
ENDBRANCH  29  30
ENDBRANCH  28  29
ENDBRANCH   1  28
TORSDOF 18
ENDMDL
MODEL 2
REMARK VINA RESULT:     -10.9      0.865      1.913
REMARK SMILES C[N@@H+]1CC[N@@H+](C)[C@H](C[NH2+]Cc2ccc(C(=O)NCCCCNC(=O)c3ccc(-c4c5nc(c(-c6c(F)cc(S(=O)(=O)[O-])cc6F)c6ccc([nH]6)c(-c6c(F)cc(S(=O)(=O)[O-])cc6F)c6nc(c(-c7c(F)cc(S(=O)(=O)[O-])cc7F)c7ccc4[nH]7)C=C6)C=C5)cc3)cn2)C1
REMARK SMILES IDX 19 1 18 2 17 3 15 4 16 5 14 7 11 8 12 9 92 10 13 11 91 12
REMARK SMILES IDX 10 13 9 14 8 17 7 18 1 19 2 20 3 21 93 22 4 24 5 25 6 26
REMARK SMILES IDX 20 28 21 29 22 30 23 31 24 33 25 34 26 35 90 36 27 37 89 38
REMARK SMILES IDX 28 39 29 40 30 41 83 42 31 43 88 44 82 45 84 46 32 47 87 48
REMARK SMILES IDX 81 49 80 50 33 52 67 53 46 54 66 55 47 56 50 57 65 58 85 59
REMARK SMILES IDX 48 60 49 61 64 63 86 64 51 65 34 66 35 67 44 68 36 69 37 70
REMARK SMILES IDX 43 71 45 72 38 73 39 74 40 75 41 76 42 77 68 78 69 79 78 80
REMARK SMILES IDX 70 81 71 82 77 83 79 84 72 85 73 86 74 87 75 88 76 89 52 90
REMARK SMILES IDX 53 91 62 92 54 93 55 94 61 95 63 96 56 97 57 98 58 99 59 100
REMARK SMILES IDX 60 101
REMARK H PARENT 17 6 9 15 9 16 2 23 5 27 22 32 84 51 50 62
REMARK Flexibility Score: inf
ROOT
ATOM      1  C   UNL A   1      32.830  29.542  25.021  1.00  0.00     0.023 C 
ENDROOT
BRANCH   1   2
ATOM      2  C   UNL A   1      31.299  29.516  25.023  1.00  0.00     0.116 C 
BRANCH   2   3
ATOM      3  N   UNL A   1      30.787  29.680  23.679  1.00  0.00    -0.352 N 
ATOM      4  C   UNL A   1      30.858  28.886  22.563  1.00  0.00     0.252 C 
ATOM      5  O   UNL A   1      30.336  29.318  21.533  1.00  0.00    -0.269 OA
ATOM      6  H   UNL A   1      30.292  30.520  23.540  1.00  0.00     0.163 HD
BRANCH   4   7
ATOM      7  C   UNL A   1      31.468  27.530  22.541  1.00  0.00     0.058 A 
ATOM      8  C   UNL A   1      32.756  25.128  22.090  1.00  0.00     0.094 A 
ATOM      9  C   UNL A   1      31.494  25.120  22.669  1.00  0.00     0.030 A 
ATOM     10  N   UNL A   1      33.436  26.275  21.846  1.00  0.00    -0.255 NA
ATOM     11  C   UNL A   1      30.862  26.334  22.915  1.00  0.00     0.017 A 
ATOM     12  C   UNL A   1      32.772  27.439  22.061  1.00  0.00     0.125 A 
BRANCH   8  13
ATOM     13  C   UNL A   1      33.336  23.832  21.573  1.00  0.00     0.318 C 
BRANCH  13  14
ATOM     14  N   UNL A   1      33.123  22.745  22.532  1.00  0.00    -0.336 N 
ATOM     15  H   UNL A   1      32.216  22.871  22.981  1.00  0.00     0.346 HD
ATOM     16  H   UNL A   1      33.156  21.860  22.026  1.00  0.00     0.346 HD
BRANCH  14  17
ATOM     17  C   UNL A   1      34.173  22.729  23.566  1.00  0.00     0.332 C 
BRANCH  17  18
ATOM     18  C   UNL A   1      33.660  22.091  24.896  1.00  0.00     0.295 C 
ATOM     19  C   UNL A   1      30.538  22.920  26.925  1.00  0.00     0.333 C 
ATOM     20  N   UNL A   1      31.800  22.274  26.579  1.00  0.00    -0.328 N 
ATOM     21  C   UNL A   1      32.813  22.490  27.623  1.00  0.00     0.324 C 
ATOM     22  C   UNL A   1      32.336  22.804  25.309  1.00  0.00     0.334 C 
ATOM     23  H   UNL A   1      31.602  21.278  26.488  1.00  0.00     0.348 HD
ATOM     24  C   UNL A   1      34.121  21.750  27.278  1.00  0.00     0.324 C 
ATOM     25  N   UNL A   1      34.709  22.122  25.974  1.00  0.00    -0.321 N 
ATOM     26  C   UNL A   1      35.828  21.221  25.676  1.00  0.00     0.333 C 
ATOM     27  H   UNL A   1      35.065  23.077  26.012  1.00  0.00     0.348 HD
ENDBRANCH  17  18
ENDBRANCH  14  17
ENDBRANCH  13  14
ENDBRANCH   8  13
ENDBRANCH   4   7
ENDBRANCH   2   3
ENDBRANCH   1   2
BRANCH   1  28
ATOM     28  C   UNL A   1      33.479  28.329  25.689  1.00  0.00     0.023 C 
BRANCH  28  29
ATOM     29  C   UNL A   1      33.715  28.476  27.187  1.00  0.00     0.116 C 
BRANCH  29  30
ATOM     30  N   UNL A   1      33.592  29.847  27.658  1.00  0.00    -0.352 N 
ATOM     31  C   UNL A   1      34.540  30.620  28.284  1.00  0.00     0.251 C 
ATOM     32  H   UNL A   1      32.717  30.275  27.510  1.00  0.00     0.163 HD
ATOM     33  O   UNL A   1      34.249  31.729  28.711  1.00  0.00    -0.269 OA
BRANCH  31  34
ATOM     34  C   UNL A   1      35.897  30.070  28.475  1.00  0.00     0.039 A 
ATOM     35  C   UNL A   1      36.791  30.115  27.404  1.00  0.00     0.014 A 
ATOM     36  C   UNL A   1      36.297  29.566  29.715  1.00  0.00     0.014 A 
ATOM     37  C   UNL A   1      38.114  29.718  27.600  1.00  0.00     0.010 A 
ATOM     38  C   UNL A   1      37.632  29.236  29.926  1.00  0.00     0.010 A 
ATOM     39  C   UNL A   1      38.553  29.314  28.871  1.00  0.00    -0.014 A 
BRANCH  39  40
ATOM     40  C   UNL A   1      39.983  29.001  29.114  1.00  0.00     0.031 A 
ATOM     41  C   UNL A   1      40.899  30.034  29.707  1.00  0.00     0.074 A 
ATOM     42  C   UNL A   1      40.460  27.796  28.746  1.00  0.00     0.049 A 
ATOM     43  N   UNL A   1      42.174  29.941  29.982  1.00  0.00    -0.248 NA
ATOM     44  C   UNL A   1      40.314  31.350  30.006  1.00  0.00     0.031 C 
ATOM     45  C   UNL A   1      39.681  26.740  28.096  1.00  0.00     0.029 A 
ATOM     46  N   UNL A   1      41.716  27.256  28.863  1.00  0.00    -0.354 N 
ATOM     47  C   UNL A   1      42.546  31.185  30.479  1.00  0.00     0.074 A 
ATOM     48  C   UNL A   1      41.373  32.031  30.416  1.00  0.00     0.031 C 
ATOM     49  C   UNL A   1      40.469  25.670  27.899  1.00  0.00     0.029 A 
ATOM     50  C   UNL A   1      41.812  25.972  28.382  1.00  0.00     0.049 A 
ATOM     51  H   UNL A   1      42.477  27.743  29.255  1.00  0.00     0.167 HD
ATOM     52  C   UNL A   1      43.747  31.576  30.967  1.00  0.00     0.037 A 
ATOM     53  C   UNL A   1      42.862  25.132  28.341  1.00  0.00     0.037 A 
ATOM     54  C   UNL A   1      44.902  30.720  31.045  1.00  0.00     0.049 A 
ATOM     55  C   UNL A   1      44.178  25.581  28.913  1.00  0.00     0.074 A 
ATOM     56  C   UNL A   1      46.147  30.999  31.582  1.00  0.00     0.029 A 
ATOM     57  N   UNL A   1      44.956  29.416  30.571  1.00  0.00    -0.354 N 
ATOM     58  N   UNL A   1      44.492  26.735  29.451  1.00  0.00    -0.248 NA
ATOM     59  C   UNL A   1      45.280  24.610  28.882  1.00  0.00     0.031 C 
ATOM     60  C   UNL A   1      46.965  29.877  31.399  1.00  0.00     0.029 A 
ATOM     61  C   UNL A   1      46.217  28.885  30.785  1.00  0.00     0.049 A 
ATOM     62  H   UNL A   1      44.208  28.941  30.144  1.00  0.00     0.167 HD
ATOM     63  C   UNL A   1      45.822  26.625  29.838  1.00  0.00     0.074 A 
ATOM     64  C   UNL A   1      46.246  25.283  29.492  1.00  0.00     0.031 C 
ATOM     65  C   UNL A   1      46.623  27.549  30.425  1.00  0.00     0.037 A 
BRANCH  52  66
ATOM     66  C   UNL A   1      43.867  32.990  31.464  1.00  0.00     0.058 A 
ATOM     67  C   UNL A   1      43.630  33.318  32.809  1.00  0.00     0.135 A 
ATOM     68  C   UNL A   1      44.246  34.025  30.595  1.00  0.00     0.135 A 
ATOM     69  F   UNL A   1      43.248  32.370  33.679  1.00  0.00    -0.206 F 
ATOM     70  C   UNL A   1      43.737  34.626  33.269  1.00  0.00     0.059 A 
ATOM     71  C   UNL A   1      44.385  35.338  31.039  1.00  0.00     0.059 A 
ATOM     72  F   UNL A   1      44.482  33.769  29.299  1.00  0.00    -0.206 F 
ATOM     73  C   UNL A   1      44.113  35.631  32.375  1.00  0.00     0.060 A 
BRANCH  73  74
ATOM     74  S   UNL A   1      44.250  37.323  32.989  1.00  0.00     0.124 S 
ATOM     75  O   UNL A   1      43.037  37.440  33.792  1.00  0.00    -0.237 OA
ATOM     76  O   UNL A   1      45.504  37.286  33.736  1.00  0.00    -0.237 OA
ATOM     77  O   UNL A   1      44.276  38.125  31.769  1.00  0.00    -0.744 OA
ENDBRANCH  73  74
ENDBRANCH  52  66
BRANCH  53  78
ATOM     78  C   UNL A   1      42.701  23.769  27.770  1.00  0.00     0.058 A 
ATOM     79  C   UNL A   1      42.766  23.556  26.385  1.00  0.00     0.135 A 
ATOM     80  C   UNL A   1      42.499  22.652  28.595  1.00  0.00     0.135 A 
ATOM     81  F   UNL A   1      42.954  24.594  25.556  1.00  0.00    -0.206 F 
ATOM     82  C   UNL A   1      42.620  22.287  25.835  1.00  0.00     0.059 A 
ATOM     83  C   UNL A   1      42.374  21.369  28.071  1.00  0.00     0.059 A 
ATOM     84  F   UNL A   1      42.450  22.801  29.928  1.00  0.00    -0.206 F 
ATOM     85  C   UNL A   1      42.426  21.198  26.688  1.00  0.00     0.060 A 
BRANCH  85  86
ATOM     86  S   UNL A   1      42.291  19.547  25.969  1.00  0.00     0.124 S 
ATOM     87  O   UNL A   1      43.142  19.669  24.791  1.00  0.00    -0.237 OA
ATOM     88  O   UNL A   1      42.803  18.701  27.043  1.00  0.00    -0.237 OA
ATOM     89  O   UNL A   1      40.860  19.414  25.706  1.00  0.00    -0.744 OA
ENDBRANCH  85  86
ENDBRANCH  53  78
BRANCH  65  90
ATOM     90  C   UNL A   1      48.031  27.130  30.740  1.00  0.00     0.058 A 
ATOM     91  C   UNL A   1      49.079  27.334  29.828  1.00  0.00     0.135 A 
ATOM     92  C   UNL A   1      48.340  26.531  31.972  1.00  0.00     0.135 A 
ATOM     93  F   UNL A   1      48.836  27.898  28.634  1.00  0.00    -0.206 F 
ATOM     94  C   UNL A   1      50.378  26.925  30.111  1.00  0.00     0.059 A 
ATOM     95  C   UNL A   1      49.636  26.140  32.287  1.00  0.00     0.059 A 
ATOM     96  F   UNL A   1      47.376  26.324  32.883  1.00  0.00    -0.206 F 
ATOM     97  C   UNL A   1      50.645  26.324  31.343  1.00  0.00     0.060 A 
BRANCH  97  98
ATOM     98  S   UNL A   1      52.335  25.798  31.703  1.00  0.00     0.124 S 
ATOM     99  O   UNL A   1      52.984  25.993  30.411  1.00  0.00    -0.237 OA
ATOM    100  O   UNL A   1      52.734  26.724  32.760  1.00  0.00    -0.237 OA
ATOM    101  O   UNL A   1      52.174  24.409  32.123  1.00  0.00    -0.744 OA
ENDBRANCH  97  98
ENDBRANCH  65  90
ENDBRANCH  39  40
ENDBRANCH  31  34
ENDBRANCH  29  30
ENDBRANCH  28  29
ENDBRANCH   1  28
TORSDOF 18
ENDMDL
MODEL 3
REMARK VINA RESULT:     -10.7      0.945      8.240
REMARK SMILES C[N@@H+]1CC[N@@H+](C)[C@H](C[NH2+]Cc2ccc(C(=O)NCCCCNC(=O)c3ccc(-c4c5nc(c(-c6c(F)cc(S(=O)(=O)[O-])cc6F)c6ccc([nH]6)c(-c6c(F)cc(S(=O)(=O)[O-])cc6F)c6nc(c(-c7c(F)cc(S(=O)(=O)[O-])cc7F)c7ccc4[nH]7)C=C6)C=C5)cc3)cn2)C1
REMARK SMILES IDX 19 1 18 2 17 3 15 4 16 5 14 7 11 8 12 9 92 10 13 11 91 12
REMARK SMILES IDX 10 13 9 14 8 17 7 18 1 19 2 20 3 21 93 22 4 24 5 25 6 26
REMARK SMILES IDX 20 28 21 29 22 30 23 31 24 33 25 34 26 35 90 36 27 37 89 38
REMARK SMILES IDX 28 39 29 40 30 41 83 42 31 43 88 44 82 45 84 46 32 47 87 48
REMARK SMILES IDX 81 49 80 50 33 52 67 53 46 54 66 55 47 56 50 57 65 58 85 59
REMARK SMILES IDX 48 60 49 61 64 63 86 64 51 65 34 66 35 67 44 68 36 69 37 70
REMARK SMILES IDX 43 71 45 72 38 73 39 74 40 75 41 76 42 77 68 78 69 79 78 80
REMARK SMILES IDX 70 81 71 82 77 83 79 84 72 85 73 86 74 87 75 88 76 89 52 90
REMARK SMILES IDX 53 91 62 92 54 93 55 94 61 95 63 96 56 97 57 98 58 99 59 100
REMARK SMILES IDX 60 101
REMARK H PARENT 17 6 9 15 9 16 2 23 5 27 22 32 84 51 50 62
REMARK Flexibility Score: inf
ROOT
ATOM      1  C   UNL A   1      32.628  29.126  24.889  1.00  0.00     0.023 C 
ENDROOT
BRANCH   1   2
ATOM      2  C   UNL A   1      31.248  29.781  24.988  1.00  0.00     0.116 C 
BRANCH   2   3
ATOM      3  N   UNL A   1      30.692  29.999  23.670  1.00  0.00    -0.352 N 
ATOM      4  C   UNL A   1      30.388  29.140  22.645  1.00  0.00     0.252 C 
ATOM      5  O   UNL A   1      29.942  29.639  21.610  1.00  0.00    -0.269 OA
ATOM      6  H   UNL A   1      30.493  30.943  23.472  1.00  0.00     0.163 HD
BRANCH   4   7
ATOM      7  C   UNL A   1      30.506  27.661  22.733  1.00  0.00     0.058 A 
ATOM      8  C   UNL A   1      30.641  24.969  23.339  1.00  0.00     0.094 A 
ATOM      9  C   UNL A   1      31.571  25.512  22.465  1.00  0.00     0.030 A 
ATOM     10  N   UNL A   1      29.591  25.681  23.817  1.00  0.00    -0.255 NA
ATOM     11  C   UNL A   1      31.483  26.863  22.145  1.00  0.00     0.017 A 
ATOM     12  C   UNL A   1      29.560  27.004  23.517  1.00  0.00     0.125 A 
BRANCH   8  13
ATOM     13  C   UNL A   1      30.879  23.587  23.902  1.00  0.00     0.318 C 
BRANCH  13  14
ATOM     14  N   UNL A   1      30.562  23.545  25.332  1.00  0.00    -0.336 N 
ATOM     15  H   UNL A   1      30.184  24.448  25.616  1.00  0.00     0.346 HD
ATOM     16  H   UNL A   1      29.880  22.802  25.488  1.00  0.00     0.346 HD
BRANCH  14  17
ATOM     17  C   UNL A   1      31.760  23.251  26.139  1.00  0.00     0.332 C 
BRANCH  17  18
ATOM     18  C   UNL A   1      32.904  22.641  25.268  1.00  0.00     0.295 C 
ATOM     19  C   UNL A   1      33.797  18.981  24.675  1.00  0.00     0.333 C 
ATOM     20  N   UNL A   1      33.907  20.434  24.599  1.00  0.00    -0.328 N 
ATOM     21  C   UNL A   1      35.198  20.899  25.129  1.00  0.00     0.324 C 
ATOM     22  C   UNL A   1      32.835  21.087  25.376  1.00  0.00     0.334 C 
ATOM     23  H   UNL A   1      33.827  20.681  23.613  1.00  0.00     0.348 HD
ATOM     24  C   UNL A   1      35.329  22.429  24.985  1.00  0.00     0.324 C 
ATOM     25  N   UNL A   1      34.250  23.199  25.640  1.00  0.00    -0.321 N 
ATOM     26  C   UNL A   1      34.379  24.614  25.271  1.00  0.00     0.333 C 
ATOM     27  H   UNL A   1      34.333  23.122  26.653  1.00  0.00     0.348 HD
ENDBRANCH  17  18
ENDBRANCH  14  17
ENDBRANCH  13  14
ENDBRANCH   8  13
ENDBRANCH   4   7
ENDBRANCH   2   3
ENDBRANCH   1   2
BRANCH   1  28
ATOM     28  C   UNL A   1      32.926  28.118  25.998  1.00  0.00     0.023 C 
BRANCH  28  29
ATOM     29  C   UNL A   1      34.069  28.510  26.927  1.00  0.00     0.116 C 
BRANCH  29  30
ATOM     30  N   UNL A   1      33.876  29.804  27.563  1.00  0.00    -0.352 N 
ATOM     31  C   UNL A   1      34.774  30.529  28.308  1.00  0.00     0.251 C 
ATOM     32  H   UNL A   1      32.987  30.212  27.444  1.00  0.00     0.163 HD
ATOM     33  O   UNL A   1      34.425  31.563  28.862  1.00  0.00    -0.269 OA
BRANCH  31  34
ATOM     34  C   UNL A   1      36.148  30.014  28.468  1.00  0.00     0.039 A 
ATOM     35  C   UNL A   1      37.027  30.113  27.388  1.00  0.00     0.014 A 
ATOM     36  C   UNL A   1      36.579  29.489  29.690  1.00  0.00     0.014 A 
ATOM     37  C   UNL A   1      38.363  29.750  27.557  1.00  0.00     0.010 A 
ATOM     38  C   UNL A   1      37.925  29.192  29.875  1.00  0.00     0.010 A 
ATOM     39  C   UNL A   1      38.830  29.325  28.812  1.00  0.00    -0.014 A 
BRANCH  39  40
ATOM     40  C   UNL A   1      40.271  29.047  29.029  1.00  0.00     0.031 A 
ATOM     41  C   UNL A   1      40.850  27.707  28.674  1.00  0.00     0.074 A 
ATOM     42  C   UNL A   1      41.041  29.995  29.599  1.00  0.00     0.049 A 
ATOM     43  N   UNL A   1      42.082  27.284  28.800  1.00  0.00    -0.248 NA
ATOM     44  C   UNL A   1      39.923  26.704  28.130  1.00  0.00     0.031 C 
ATOM     45  C   UNL A   1      40.573  31.306  30.052  1.00  0.00     0.029 A 
ATOM     46  N   UNL A   1      42.380  30.000  29.898  1.00  0.00    -0.354 N 
ATOM     47  C   UNL A   1      42.076  25.966  28.359  1.00  0.00     0.074 A 
ATOM     48  C   UNL A   1      40.708  25.643  28.014  1.00  0.00     0.031 C 
ATOM     49  C   UNL A   1      41.614  32.000  30.544  1.00  0.00     0.029 A 
ATOM     50  C   UNL A   1      42.814  31.174  30.467  1.00  0.00     0.049 A 
ATOM     51  H   UNL A   1      42.974  29.234  29.722  1.00  0.00     0.167 HD
ATOM     52  C   UNL A   1      43.120  25.113  28.230  1.00  0.00     0.037 A 
ATOM     53  C   UNL A   1      44.042  31.545  30.874  1.00  0.00     0.037 A 
ATOM     54  C   UNL A   1      44.481  25.450  28.556  1.00  0.00     0.049 A 
ATOM     55  C   UNL A   1      45.189  30.589  30.695  1.00  0.00     0.074 A 
ATOM     56  C   UNL A   1      45.621  24.681  28.400  1.00  0.00     0.029 A 
ATOM     57  N   UNL A   1      44.888  26.659  29.107  1.00  0.00    -0.354 N 
ATOM     58  N   UNL A   1      45.180  29.373  30.203  1.00  0.00    -0.248 NA
ATOM     59  C   UNL A   1      46.515  31.060  31.116  1.00  0.00     0.031 C 
ATOM     60  C   UNL A   1      46.712  25.409  28.891  1.00  0.00     0.029 A 
ATOM     61  C   UNL A   1      46.257  26.649  29.314  1.00  0.00     0.049 A 
ATOM     62  H   UNL A   1      44.290  27.411  29.319  1.00  0.00     0.167 HD
ATOM     63  C   UNL A   1      46.499  28.938  30.240  1.00  0.00     0.074 A 
ATOM     64  C   UNL A   1      47.282  30.031  30.782  1.00  0.00     0.031 C 
ATOM     65  C   UNL A   1      47.018  27.743  29.863  1.00  0.00     0.037 A 
BRANCH  52  66
ATOM     66  C   UNL A   1      42.829  23.735  27.703  1.00  0.00     0.058 A 
ATOM     67  C   UNL A   1      42.584  22.654  28.567  1.00  0.00     0.135 A 
ATOM     68  C   UNL A   1      42.767  23.494  26.322  1.00  0.00     0.135 A 
ATOM     69  F   UNL A   1      42.647  22.825  29.897  1.00  0.00    -0.206 F 
ATOM     70  C   UNL A   1      42.318  21.379  28.081  1.00  0.00     0.059 A 
ATOM     71  C   UNL A   1      42.477  22.231  25.812  1.00  0.00     0.059 A 
ATOM     72  F   UNL A   1      42.995  24.490  25.451  1.00  0.00    -0.206 F 
ATOM     73  C   UNL A   1      42.269  21.176  26.700  1.00  0.00     0.060 A 
BRANCH  73  74
ATOM     74  S   UNL A   1      41.920  19.516  26.085  1.00  0.00     0.124 S 
ATOM     75  O   UNL A   1      42.309  18.695  27.227  1.00  0.00    -0.237 OA
ATOM     76  O   UNL A   1      40.489  19.578  25.808  1.00  0.00    -0.237 OA
ATOM     77  O   UNL A   1      42.778  19.403  24.909  1.00  0.00    -0.744 OA
ENDBRANCH  73  74
ENDBRANCH  52  66
BRANCH  53  78
ATOM     78  C   UNL A   1      44.255  32.896  31.455  1.00  0.00     0.058 A 
ATOM     79  C   UNL A   1      44.192  33.102  32.841  1.00  0.00     0.135 A 
ATOM     80  C   UNL A   1      44.545  34.002  30.642  1.00  0.00     0.135 A 
ATOM     81  F   UNL A   1      43.914  32.074  33.659  1.00  0.00    -0.206 F 
ATOM     82  C   UNL A   1      44.392  34.358  33.402  1.00  0.00     0.059 A 
ATOM     83  C   UNL A   1      44.772  35.265  31.181  1.00  0.00     0.059 A 
ATOM     84  F   UNL A   1      44.636  33.853  29.312  1.00  0.00    -0.206 F 
ATOM     85  C   UNL A   1      44.683  35.435  32.562  1.00  0.00     0.060 A 
BRANCH  85  86
ATOM     86  S   UNL A   1      44.993  37.053  33.302  1.00  0.00     0.124 S 
ATOM     87  O   UNL A   1      46.358  37.319  32.865  1.00  0.00    -0.237 OA
ATOM     88  O   UNL A   1      43.954  37.876  32.689  1.00  0.00    -0.237 OA
ATOM     89  O   UNL A   1      44.821  36.805  34.731  1.00  0.00    -0.744 OA
ENDBRANCH  85  86
ENDBRANCH  53  78
BRANCH  65  90
ATOM     90  C   UNL A   1      48.503  27.567  30.012  1.00  0.00     0.058 A 
ATOM     91  C   UNL A   1      49.394  27.955  28.998  1.00  0.00     0.135 A 
ATOM     92  C   UNL A   1      49.043  27.018  31.186  1.00  0.00     0.135 A 
ATOM     93  F   UNL A   1      48.928  28.479  27.853  1.00  0.00    -0.206 F 
ATOM     94  C   UNL A   1      50.766  27.770  29.128  1.00  0.00     0.059 A 
ATOM     95  C   UNL A   1      50.414  26.851  31.349  1.00  0.00     0.059 A 
ATOM     96  F   UNL A   1      48.235  26.642  32.191  1.00  0.00    -0.206 F 
ATOM     97  C   UNL A   1      51.266  27.212  30.306  1.00  0.00     0.060 A 
BRANCH  97  98
ATOM     98  S   UNL A   1      53.049  26.979  30.467  1.00  0.00     0.124 S 
ATOM     99  O   UNL A   1      53.128  26.126  31.648  1.00  0.00    -0.237 OA
ATOM    100  O   UNL A   1      53.398  26.341  29.200  1.00  0.00    -0.237 OA
ATOM    101  O   UNL A   1      53.555  28.338  30.636  1.00  0.00    -0.744 OA
ENDBRANCH  97  98
ENDBRANCH  65  90
ENDBRANCH  39  40
ENDBRANCH  31  34
ENDBRANCH  29  30
ENDBRANCH  28  29
ENDBRANCH   1  28
TORSDOF 18
ENDMDL
