MODEL 1
REMARK VINA RESULT:     -10.2      0.000      0.000
REMARK SMILES CSC[C@H](C(=O)NCCCCNC(=O)c1ccc(-c2c3nc(c(-c4c(F)cc(S(=O)(=O)[O-])cc4F)c4ccc([nH]4)c(-c4c(F)cc(S(=O)(=O)[O-])cc4F)c4nc(c(-c5c(F)cc(S(=O)(=O)[O-])cc5F)c5ccc2[nH]5)C=C4)C=C3)cc1)c1ccccc1
REMARK SMILES IDX 10 1 9 2 8 3 7 4 5 5 6 6 4 8 3 9 2 10 1 11 81 12 82 13 86 14
REMARK SMILES IDX 83 15 85 16 84 17 11 18 12 19 13 20 14 22 15 23 16 24 80 25
REMARK SMILES IDX 17 26 79 27 18 28 19 29 20 30 73 31 21 32 78 33 72 34 74 35
REMARK SMILES IDX 22 36 77 37 71 38 70 39 23 41 57 42 36 43 56 44 37 45 40 46
REMARK SMILES IDX 55 47 75 48 38 49 39 50 54 52 76 53 41 54 24 55 25 56 34 57
REMARK SMILES IDX 26 58 27 59 33 60 35 61 28 62 29 63 30 64 31 65 32 66 58 67
REMARK SMILES IDX 59 68 68 69 60 70 61 71 67 72 69 73 62 74 63 75 64 76 65 77
REMARK SMILES IDX 66 78 42 79 43 80 52 81 44 82 45 83 51 84 53 85 46 86 47 87
REMARK SMILES IDX 48 88 49 89 50 90
REMARK H PARENT 7 7 12 21 74 40 40 51
REMARK Flexibility Score: inf
ROOT
ATOM      1  C   UNL A   1      40.690  22.156  27.803  1.00  0.00     0.023 C 
ENDROOT
BRANCH   1   2
ATOM      2  C   UNL A   1      40.566  20.840  27.036  1.00  0.00     0.023 C 
BRANCH   2   3
ATOM      3  C   UNL A   1      41.879  20.286  26.473  1.00  0.00     0.116 C 
BRANCH   3   4
ATOM      4  N   UNL A   1      42.350  21.131  25.398  1.00  0.00    -0.356 N 
ATOM      5  C   UNL A   1      43.366  22.024  25.331  1.00  0.00     0.228 C 
ATOM      6  O   UNL A   1      43.229  22.902  24.464  1.00  0.00    -0.274 OA
ATOM      7  H   UNL A   1      41.839  21.040  24.561  1.00  0.00     0.163 HD
BRANCH   5   8
ATOM      8  C   UNL A   1      44.686  21.973  26.135  1.00  0.00     0.118 C 
BRANCH   8   9
ATOM      9  C   UNL A   1      46.024  21.740  25.412  1.00  0.00     0.087 C 
BRANCH   9  10
ATOM     10  S   UNL A   1      46.434  20.179  24.551  1.00  0.00    -0.164 SA
ATOM     11  C   UNL A   1      45.300  19.008  25.330  1.00  0.00     0.085 C 
ENDBRANCH   9  10
ENDBRANCH   8   9
BRANCH   8  12
ATOM     12  C   UNL A   1      44.747  23.106  27.195  1.00  0.00    -0.035 A 
ATOM     13  C   UNL A   1      45.721  24.122  27.171  1.00  0.00     0.004 A 
ATOM     14  C   UNL A   1      43.878  23.083  28.304  1.00  0.00     0.004 A 
ATOM     15  C   UNL A   1      45.814  25.070  28.197  1.00  0.00     0.000 A 
ATOM     16  C   UNL A   1      43.962  24.037  29.323  1.00  0.00     0.000 A 
ATOM     17  C   UNL A   1      44.934  25.029  29.272  1.00  0.00     0.000 A 
ENDBRANCH   8  12
ENDBRANCH   5   8
ENDBRANCH   3   4
ENDBRANCH   2   3
ENDBRANCH   1   2
BRANCH   1  18
ATOM     18  C   UNL A   1      39.891  23.317  27.231  1.00  0.00     0.116 C 
BRANCH  18  19
ATOM     19  N   UNL A   1      40.557  23.995  26.122  1.00  0.00    -0.352 N 
ATOM     20  C   UNL A   1      41.210  25.203  26.129  1.00  0.00     0.251 C 
ATOM     21  H   UNL A   1      40.536  23.524  25.258  1.00  0.00     0.163 HD
ATOM     22  O   UNL A   1      41.660  25.677  25.090  1.00  0.00    -0.269 OA
BRANCH  20  23
ATOM     23  C   UNL A   1      41.314  25.945  27.399  1.00  0.00     0.039 A 
ATOM     24  C   UNL A   1      42.366  26.849  27.566  1.00  0.00     0.014 A 
ATOM     25  C   UNL A   1      40.314  25.823  28.369  1.00  0.00     0.014 A 
ATOM     26  C   UNL A   1      42.359  27.710  28.664  1.00  0.00     0.010 A 
ATOM     27  C   UNL A   1      40.277  26.724  29.426  1.00  0.00     0.010 A 
ATOM     28  C   UNL A   1      41.285  27.691  29.568  1.00  0.00    -0.014 A 
BRANCH  28  29
ATOM     29  C   UNL A   1      41.154  28.711  30.636  1.00  0.00     0.031 A 
ATOM     30  C   UNL A   1      42.025  28.638  31.857  1.00  0.00     0.074 A 
ATOM     31  C   UNL A   1      40.175  29.633  30.551  1.00  0.00     0.049 A 
ATOM     32  N   UNL A   1      41.971  29.353  32.950  1.00  0.00    -0.248 NA
ATOM     33  C   UNL A   1      43.074  27.607  31.860  1.00  0.00     0.031 C 
ATOM     34  C   UNL A   1      39.227  29.763  29.440  1.00  0.00     0.029 A 
ATOM     35  N   UNL A   1      39.797  30.622  31.424  1.00  0.00    -0.354 N 
ATOM     36  C   UNL A   1      42.959  28.844  33.781  1.00  0.00     0.074 A 
ATOM     37  C   UNL A   1      43.574  27.737  33.080  1.00  0.00     0.031 C 
ATOM     38  C   UNL A   1      38.386  30.779  29.694  1.00  0.00     0.029 A 
ATOM     39  C   UNL A   1      38.708  31.348  30.998  1.00  0.00     0.049 A 
ATOM     40  H   UNL A   1      40.260  30.796  32.274  1.00  0.00     0.167 HD
ATOM     41  C   UNL A   1      43.331  29.273  35.011  1.00  0.00     0.037 A 
ATOM     42  C   UNL A   1      38.037  32.348  31.599  1.00  0.00     0.037 A 
ATOM     43  C   UNL A   1      42.741  30.398  35.685  1.00  0.00     0.049 A 
ATOM     44  C   UNL A   1      38.478  32.816  32.957  1.00  0.00     0.074 A 
ATOM     45  C   UNL A   1      43.108  30.968  36.891  1.00  0.00     0.029 A 
ATOM     46  N   UNL A   1      41.659  31.125  35.211  1.00  0.00    -0.354 N 
ATOM     47  N   UNL A   1      39.460  32.367  33.702  1.00  0.00    -0.248 NA
ATOM     48  C   UNL A   1      37.718  33.920  33.561  1.00  0.00     0.031 C 
ATOM     49  C   UNL A   1      42.228  32.022  37.161  1.00  0.00     0.029 A 
ATOM     50  C   UNL A   1      41.330  32.124  36.110  1.00  0.00     0.049 A 
ATOM     51  H   UNL A   1      41.193  30.955  34.360  1.00  0.00     0.167 HD
ATOM     52  C   UNL A   1      39.443  33.137  34.857  1.00  0.00     0.074 A 
ATOM     53  C   UNL A   1      38.362  34.092  34.708  1.00  0.00     0.031 C 
ATOM     54  C   UNL A   1      40.246  33.060  35.946  1.00  0.00     0.037 A 
BRANCH  41  55
ATOM     55  C   UNL A   1      44.435  28.524  35.698  1.00  0.00     0.058 A 
ATOM     56  C   UNL A   1      45.785  28.850  35.486  1.00  0.00     0.135 A 
ATOM     57  C   UNL A   1      44.144  27.481  36.592  1.00  0.00     0.135 A 
ATOM     58  F   UNL A   1      46.116  29.828  34.628  1.00  0.00    -0.206 F 
ATOM     59  C   UNL A   1      46.808  28.150  36.114  1.00  0.00     0.059 A 
ATOM     60  C   UNL A   1      45.152  26.781  37.247  1.00  0.00     0.059 A 
ATOM     61  F   UNL A   1      42.870  27.128  36.826  1.00  0.00    -0.206 F 
ATOM     62  C   UNL A   1      46.481  27.112  36.989  1.00  0.00     0.060 A 
BRANCH  62  63
ATOM     63  S   UNL A   1      47.820  26.206  37.793  1.00  0.00     0.124 S 
ATOM     64  O   UNL A   1      47.962  25.055  36.908  1.00  0.00    -0.237 OA
ATOM     65  O   UNL A   1      48.917  27.169  37.761  1.00  0.00    -0.237 OA
ATOM     66  O   UNL A   1      47.283  25.918  39.120  1.00  0.00    -0.744 OA
ENDBRANCH  62  63
ENDBRANCH  41  55
BRANCH  42  67
ATOM     67  C   UNL A   1      36.881  32.980  30.914  1.00  0.00     0.058 A 
ATOM     68  C   UNL A   1      35.567  32.659  31.281  1.00  0.00     0.135 A 
ATOM     69  C   UNL A   1      37.065  33.933  29.900  1.00  0.00     0.135 A 
ATOM     70  F   UNL A   1      35.344  31.748  32.241  1.00  0.00    -0.206 F 
ATOM     71  C   UNL A   1      34.472  33.252  30.662  1.00  0.00     0.059 A 
ATOM     72  C   UNL A   1      35.986  34.554  29.279  1.00  0.00     0.059 A 
ATOM     73  F   UNL A   1      38.305  34.286  29.526  1.00  0.00    -0.206 F 
ATOM     74  C   UNL A   1      34.692  34.200  29.662  1.00  0.00     0.060 A 
BRANCH  74  75
ATOM     75  S   UNL A   1      33.268  35.013  28.904  1.00  0.00     0.124 S 
ATOM     76  O   UNL A   1      32.423  35.265  30.066  1.00  0.00    -0.237 OA
ATOM     77  O   UNL A   1      33.874  36.190  28.288  1.00  0.00    -0.237 OA
ATOM     78  O   UNL A   1      32.773  34.010  27.966  1.00  0.00    -0.744 OA
ENDBRANCH  74  75
ENDBRANCH  42  67
BRANCH  54  79
ATOM     79  C   UNL A   1      39.988  34.030  37.060  1.00  0.00     0.058 A 
ATOM     80  C   UNL A   1      40.435  35.358  36.985  1.00  0.00     0.135 A 
ATOM     81  C   UNL A   1      39.240  33.648  38.184  1.00  0.00     0.135 A 
ATOM     82  F   UNL A   1      41.162  35.767  35.935  1.00  0.00    -0.206 F 
ATOM     83  C   UNL A   1      40.156  36.274  37.993  1.00  0.00     0.059 A 
ATOM     84  C   UNL A   1      38.932  34.552  39.195  1.00  0.00     0.059 A 
ATOM     85  F   UNL A   1      38.785  32.390  38.297  1.00  0.00    -0.206 F 
ATOM     86  C   UNL A   1      39.401  35.862  39.093  1.00  0.00     0.060 A 
BRANCH  86  87
ATOM     87  S   UNL A   1      39.001  37.071  40.374  1.00  0.00     0.124 S 
ATOM     88  O   UNL A   1      38.043  36.331  41.187  1.00  0.00    -0.237 OA
ATOM     89  O   UNL A   1      40.300  37.318  40.992  1.00  0.00    -0.237 OA
ATOM     90  O   UNL A   1      38.451  38.193  39.618  1.00  0.00    -0.744 OA
ENDBRANCH  86  87
ENDBRANCH  54  79
ENDBRANCH  28  29
ENDBRANCH  20  23
ENDBRANCH  18  19
ENDBRANCH   1  18
TORSDOF 17
ENDMDL
MODEL 2
REMARK VINA RESULT:     -10.1      5.393     11.331
REMARK SMILES CSC[C@H](C(=O)NCCCCNC(=O)c1ccc(-c2c3nc(c(-c4c(F)cc(S(=O)(=O)[O-])cc4F)c4ccc([nH]4)c(-c4c(F)cc(S(=O)(=O)[O-])cc4F)c4nc(c(-c5c(F)cc(S(=O)(=O)[O-])cc5F)c5ccc2[nH]5)C=C4)C=C3)cc1)c1ccccc1
REMARK SMILES IDX 10 1 9 2 8 3 7 4 5 5 6 6 4 8 3 9 2 10 1 11 81 12 82 13 86 14
REMARK SMILES IDX 83 15 85 16 84 17 11 18 12 19 13 20 14 22 15 23 16 24 80 25
REMARK SMILES IDX 17 26 79 27 18 28 19 29 20 30 73 31 21 32 78 33 72 34 74 35
REMARK SMILES IDX 22 36 77 37 71 38 70 39 23 41 57 42 36 43 56 44 37 45 40 46
REMARK SMILES IDX 55 47 75 48 38 49 39 50 54 52 76 53 41 54 24 55 25 56 34 57
REMARK SMILES IDX 26 58 27 59 33 60 35 61 28 62 29 63 30 64 31 65 32 66 58 67
REMARK SMILES IDX 59 68 68 69 60 70 61 71 67 72 69 73 62 74 63 75 64 76 65 77
REMARK SMILES IDX 66 78 42 79 43 80 52 81 44 82 45 83 51 84 53 85 46 86 47 87
REMARK SMILES IDX 48 88 49 89 50 90
REMARK H PARENT 7 7 12 21 74 40 40 51
REMARK Flexibility Score: inf
ROOT
ATOM      1  C   UNL A   1      32.266  28.165  26.870  1.00  0.00     0.023 C 
ENDROOT
BRANCH   1   2
ATOM      2  C   UNL A   1      32.027  27.363  25.591  1.00  0.00     0.023 C 
BRANCH   2   3
ATOM      3  C   UNL A   1      32.511  25.909  25.631  1.00  0.00     0.116 C 
BRANCH   3   4
ATOM      4  N   UNL A   1      32.952  25.500  24.315  1.00  0.00    -0.356 N 
ATOM      5  C   UNL A   1      33.770  24.501  23.909  1.00  0.00     0.228 C 
ATOM      6  O   UNL A   1      34.313  24.689  22.809  1.00  0.00    -0.274 OA
ATOM      7  H   UNL A   1      32.592  26.049  23.581  1.00  0.00     0.163 HD
BRANCH   5   8
ATOM      8  C   UNL A   1      33.983  23.144  24.620  1.00  0.00     0.118 C 
BRANCH   8   9
ATOM      9  C   UNL A   1      33.383  21.857  24.027  1.00  0.00     0.087 C 
BRANCH   9  10
ATOM     10  S   UNL A   1      32.282  20.743  24.972  1.00  0.00    -0.164 SA
ATOM     11  C   UNL A   1      32.533  19.162  24.134  1.00  0.00     0.085 C 
ENDBRANCH   9  10
ENDBRANCH   8   9
BRANCH   8  12
ATOM     12  C   UNL A   1      35.453  22.977  25.093  1.00  0.00    -0.035 A 
ATOM     13  C   UNL A   1      36.147  23.980  25.796  1.00  0.00     0.004 A 
ATOM     14  C   UNL A   1      36.187  21.833  24.723  1.00  0.00     0.004 A 
ATOM     15  C   UNL A   1      37.502  23.842  26.118  1.00  0.00     0.000 A 
ATOM     16  C   UNL A   1      37.538  21.689  25.057  1.00  0.00     0.000 A 
ATOM     17  C   UNL A   1      38.197  22.696  25.751  1.00  0.00     0.000 A 
ENDBRANCH   8  12
ENDBRANCH   5   8
ENDBRANCH   3   4
ENDBRANCH   2   3
ENDBRANCH   1   2
BRANCH   1  18
ATOM     18  C   UNL A   1      33.654  28.774  27.002  1.00  0.00     0.116 C 
BRANCH  18  19
ATOM     19  N   UNL A   1      33.653  30.104  27.604  1.00  0.00    -0.352 N 
ATOM     20  C   UNL A   1      34.666  30.735  28.282  1.00  0.00     0.251 C 
ATOM     21  H   UNL A   1      32.817  30.616  27.510  1.00  0.00     0.163 HD
ATOM     22  O   UNL A   1      34.486  31.834  28.797  1.00  0.00    -0.269 OA
BRANCH  20  23
ATOM     23  C   UNL A   1      35.961  30.042  28.427  1.00  0.00     0.039 A 
ATOM     24  C   UNL A   1      36.860  30.065  27.357  1.00  0.00     0.014 A 
ATOM     25  C   UNL A   1      36.319  29.469  29.651  1.00  0.00     0.014 A 
ATOM     26  C   UNL A   1      38.162  29.604  27.550  1.00  0.00     0.010 A 
ATOM     27  C   UNL A   1      37.634  29.071  29.857  1.00  0.00     0.010 A 
ATOM     28  C   UNL A   1      38.572  29.158  28.817  1.00  0.00    -0.014 A 
BRANCH  28  29
ATOM     29  C   UNL A   1      39.991  28.836  29.102  1.00  0.00     0.031 A 
ATOM     30  C   UNL A   1      40.908  29.892  29.647  1.00  0.00     0.074 A 
ATOM     31  C   UNL A   1      40.471  27.623  28.764  1.00  0.00     0.049 A 
ATOM     32  N   UNL A   1      42.200  29.841  29.835  1.00  0.00    -0.248 NA
ATOM     33  C   UNL A   1      40.296  31.183  29.997  1.00  0.00     0.031 C 
ATOM     34  C   UNL A   1      39.688  26.535  28.170  1.00  0.00     0.029 A 
ATOM     35  N   UNL A   1      41.740  27.106  28.849  1.00  0.00    -0.354 N 
ATOM     36  C   UNL A   1      42.562  31.098  30.302  1.00  0.00     0.074 A 
ATOM     37  C   UNL A   1      41.357  31.900  30.334  1.00  0.00     0.031 C 
ATOM     38  C   UNL A   1      40.490  25.479  27.955  1.00  0.00     0.029 A 
ATOM     39  C   UNL A   1      41.848  25.825  28.360  1.00  0.00     0.049 A 
ATOM     40  H   UNL A   1      42.501  27.605  29.224  1.00  0.00     0.167 HD
ATOM     41  C   UNL A   1      43.784  31.537  30.685  1.00  0.00     0.037 A 
ATOM     42  C   UNL A   1      42.924  25.025  28.237  1.00  0.00     0.037 A 
ATOM     43  C   UNL A   1      44.970  30.722  30.686  1.00  0.00     0.049 A 
ATOM     44  C   UNL A   1      44.268  25.529  28.682  1.00  0.00     0.074 A 
ATOM     45  C   UNL A   1      46.236  31.045  31.140  1.00  0.00     0.029 A 
ATOM     46  N   UNL A   1      45.035  29.421  30.208  1.00  0.00    -0.354 N 
ATOM     47  N   UNL A   1      44.581  26.700  29.185  1.00  0.00    -0.248 NA
ATOM     48  C   UNL A   1      45.406  24.611  28.538  1.00  0.00     0.031 C 
ATOM     49  C   UNL A   1      47.075  29.949  30.911  1.00  0.00     0.029 A 
ATOM     50  C   UNL A   1      46.324  28.934  30.337  1.00  0.00     0.049 A 
ATOM     51  H   UNL A   1      44.276  28.918  29.833  1.00  0.00     0.167 HD
ATOM     52  C   UNL A   1      45.948  26.657  29.425  1.00  0.00     0.074 A 
ATOM     53  C   UNL A   1      46.401  25.339  29.027  1.00  0.00     0.031 C 
ATOM     54  C   UNL A   1      46.757  27.621  29.927  1.00  0.00     0.037 A 
BRANCH  41  55
ATOM     55  C   UNL A   1      43.894  32.962  31.142  1.00  0.00     0.058 A 
ATOM     56  C   UNL A   1      43.673  33.320  32.481  1.00  0.00     0.135 A 
ATOM     57  C   UNL A   1      44.241  33.978  30.238  1.00  0.00     0.135 A 
ATOM     58  F   UNL A   1      43.323  32.387  33.381  1.00  0.00    -0.206 F 
ATOM     59  C   UNL A   1      43.764  34.641  32.904  1.00  0.00     0.059 A 
ATOM     60  C   UNL A   1      44.358  35.304  30.644  1.00  0.00     0.059 A 
ATOM     61  F   UNL A   1      44.459  33.689  28.946  1.00  0.00    -0.206 F 
ATOM     62  C   UNL A   1      44.102  35.628  31.975  1.00  0.00     0.060 A 
BRANCH  62  63
ATOM     63  S   UNL A   1      44.210  37.341  32.535  1.00  0.00     0.124 S 
ATOM     64  O   UNL A   1      45.602  37.418  32.963  1.00  0.00    -0.237 OA
ATOM     65  O   UNL A   1      43.876  38.089  31.327  1.00  0.00    -0.237 OA
ATOM     66  O   UNL A   1      43.218  37.410  33.604  1.00  0.00    -0.744 OA
ENDBRANCH  62  63
ENDBRANCH  41  55
BRANCH  42  67
ATOM     67  C   UNL A   1      42.771  23.659  27.674  1.00  0.00     0.058 A 
ATOM     68  C   UNL A   1      42.908  23.432  26.298  1.00  0.00     0.135 A 
ATOM     69  C   UNL A   1      42.513  22.554  28.500  1.00  0.00     0.135 A 
ATOM     70  F   UNL A   1      43.149  24.460  25.470  1.00  0.00    -0.206 F 
ATOM     71  C   UNL A   1      42.784  22.158  25.755  1.00  0.00     0.059 A 
ATOM     72  C   UNL A   1      42.403  21.267  27.983  1.00  0.00     0.059 A 
ATOM     73  F   UNL A   1      42.392  22.721  29.826  1.00  0.00    -0.206 F 
ATOM     74  C   UNL A   1      42.533  21.081  26.606  1.00  0.00     0.060 A 
BRANCH  74  75
ATOM     75  S   UNL A   1      42.434  19.420  25.903  1.00  0.00     0.124 S 
ATOM     76  O   UNL A   1      43.002  18.614  26.978  1.00  0.00    -0.237 OA
ATOM     77  O   UNL A   1      41.000  19.263  25.677  1.00  0.00    -0.237 OA
ATOM     78  O   UNL A   1      43.243  19.522  24.693  1.00  0.00    -0.744 OA
ENDBRANCH  74  75
ENDBRANCH  42  67
BRANCH  54  79
ATOM     79  C   UNL A   1      48.212  27.290  30.074  1.00  0.00     0.058 A 
ATOM     80  C   UNL A   1      49.115  27.503  29.022  1.00  0.00     0.135 A 
ATOM     81  C   UNL A   1      48.717  26.809  31.292  1.00  0.00     0.135 A 
ATOM     82  F   UNL A   1      48.678  27.951  27.836  1.00  0.00    -0.206 F 
ATOM     83  C   UNL A   1      50.474  27.242  29.171  1.00  0.00     0.059 A 
ATOM     84  C   UNL A   1      50.074  26.560  31.469  1.00  0.00     0.059 A 
ATOM     85  F   UNL A   1      47.892  26.595  32.329  1.00  0.00    -0.206 F 
ATOM     86  C   UNL A   1      50.943  26.774  30.399  1.00  0.00     0.060 A 
BRANCH  86  87
ATOM     87  S   UNL A   1      52.715  26.485  30.598  1.00  0.00     0.124 S 
ATOM     88  O   UNL A   1      53.148  26.355  29.210  1.00  0.00    -0.237 OA
ATOM     89  O   UNL A   1      53.156  27.693  31.288  1.00  0.00    -0.237 OA
ATOM     90  O   UNL A   1      52.770  25.262  31.392  1.00  0.00    -0.744 OA
ENDBRANCH  86  87
ENDBRANCH  54  79
ENDBRANCH  28  29
ENDBRANCH  20  23
ENDBRANCH  18  19
ENDBRANCH   1  18
TORSDOF 17
ENDMDL
MODEL 3
REMARK VINA RESULT:      -9.9      6.985     13.581
REMARK SMILES CSC[C@H](C(=O)NCCCCNC(=O)c1ccc(-c2c3nc(c(-c4c(F)cc(S(=O)(=O)[O-])cc4F)c4ccc([nH]4)c(-c4c(F)cc(S(=O)(=O)[O-])cc4F)c4nc(c(-c5c(F)cc(S(=O)(=O)[O-])cc5F)c5ccc2[nH]5)C=C4)C=C3)cc1)c1ccccc1
REMARK SMILES IDX 10 1 9 2 8 3 7 4 5 5 6 6 4 8 3 9 2 10 1 11 81 12 82 13 86 14
REMARK SMILES IDX 83 15 85 16 84 17 11 18 12 19 13 20 14 22 15 23 16 24 80 25
REMARK SMILES IDX 17 26 79 27 18 28 19 29 20 30 73 31 21 32 78 33 72 34 74 35
REMARK SMILES IDX 22 36 77 37 71 38 70 39 23 41 57 42 36 43 56 44 37 45 40 46
REMARK SMILES IDX 55 47 75 48 38 49 39 50 54 52 76 53 41 54 24 55 25 56 34 57
REMARK SMILES IDX 26 58 27 59 33 60 35 61 28 62 29 63 30 64 31 65 32 66 58 67
REMARK SMILES IDX 59 68 68 69 60 70 61 71 67 72 69 73 62 74 63 75 64 76 65 77
REMARK SMILES IDX 66 78 42 79 43 80 52 81 44 82 45 83 51 84 53 85 46 86 47 87
REMARK SMILES IDX 48 88 49 89 50 90
REMARK H PARENT 7 7 12 21 74 40 40 51
REMARK Flexibility Score: inf
ROOT
ATOM      1  C   UNL A   1      34.524  28.921  26.925  1.00  0.00     0.023 C 
ENDROOT
BRANCH   1   2
ATOM      2  C   UNL A   1      33.493  30.011  26.635  1.00  0.00     0.023 C 
BRANCH   2   3
ATOM      3  C   UNL A   1      32.409  29.631  25.620  1.00  0.00     0.116 C 
BRANCH   3   4
ATOM      4  N   UNL A   1      32.963  29.627  24.284  1.00  0.00    -0.356 N 
ATOM      5  C   UNL A   1      32.866  28.735  23.270  1.00  0.00     0.228 C 
ATOM      6  O   UNL A   1      33.799  28.774  22.452  1.00  0.00    -0.274 OA
ATOM      7  H   UNL A   1      33.512  30.417  24.074  1.00  0.00     0.163 HD
BRANCH   5   8
ATOM      8  C   UNL A   1      31.675  27.789  22.993  1.00  0.00     0.118 C 
BRANCH   8   9
ATOM      9  C   UNL A   1      31.480  26.520  23.843  1.00  0.00     0.087 C 
BRANCH   9  10
ATOM     10  S   UNL A   1      32.274  24.922  23.444  1.00  0.00    -0.164 SA
ATOM     11  C   UNL A   1      30.961  23.741  23.824  1.00  0.00     0.085 C 
ENDBRANCH   9  10
ENDBRANCH   8   9
BRANCH   8  12
ATOM     12  C   UNL A   1      30.361  28.585  22.765  1.00  0.00    -0.035 A 
ATOM     13  C   UNL A   1      29.107  28.134  23.219  1.00  0.00     0.004 A 
ATOM     14  C   UNL A   1      30.372  29.753  21.977  1.00  0.00     0.004 A 
ATOM     15  C   UNL A   1      27.927  28.822  22.908  1.00  0.00     0.000 A 
ATOM     16  C   UNL A   1      29.195  30.447  21.677  1.00  0.00     0.000 A 
ATOM     17  C   UNL A   1      27.971  29.978  22.139  1.00  0.00     0.000 A 
ENDBRANCH   8  12
ENDBRANCH   5   8
ENDBRANCH   3   4
ENDBRANCH   2   3
ENDBRANCH   1   2
BRANCH   1  18
ATOM     18  C   UNL A   1      35.750  29.379  27.701  1.00  0.00     0.116 C 
BRANCH  18  19
ATOM     19  N   UNL A   1      35.464  29.742  29.086  1.00  0.00    -0.352 N 
ATOM     20  C   UNL A   1      36.350  30.009  30.099  1.00  0.00     0.251 C 
ATOM     21  H   UNL A   1      34.510  29.802  29.324  1.00  0.00     0.163 HD
ATOM     22  O   UNL A   1      35.952  30.229  31.239  1.00  0.00    -0.269 OA
BRANCH  20  23
ATOM     23  C   UNL A   1      37.795  29.974  29.804  1.00  0.00     0.039 A 
ATOM     24  C   UNL A   1      38.690  29.741  30.851  1.00  0.00     0.014 A 
ATOM     25  C   UNL A   1      38.246  30.063  28.484  1.00  0.00     0.014 A 
ATOM     26  C   UNL A   1      40.032  29.493  30.560  1.00  0.00     0.010 A 
ATOM     27  C   UNL A   1      39.568  29.753  28.193  1.00  0.00     0.010 A 
ATOM     28  C   UNL A   1      40.466  29.440  29.226  1.00  0.00    -0.014 A 
BRANCH  28  29
ATOM     29  C   UNL A   1      41.838  29.000  28.875  1.00  0.00     0.031 A 
ATOM     30  C   UNL A   1      42.956  29.999  28.813  1.00  0.00     0.074 A 
ATOM     31  C   UNL A   1      42.045  27.720  28.506  1.00  0.00     0.049 A 
ATOM     32  N   UNL A   1      44.185  29.834  28.401  1.00  0.00    -0.248 NA
ATOM     33  C   UNL A   1      42.642  31.371  29.243  1.00  0.00     0.031 C 
ATOM     34  C   UNL A   1      41.021  26.672  28.468  1.00  0.00     0.029 A 
ATOM     35  N   UNL A   1      43.181  27.086  28.070  1.00  0.00    -0.354 N 
ATOM     36  C   UNL A   1      44.786  31.082  28.497  1.00  0.00     0.074 A 
ATOM     37  C   UNL A   1      43.775  32.002  28.973  1.00  0.00     0.031 C 
ATOM     38  C   UNL A   1      41.577  25.526  28.043  1.00  0.00     0.029 A 
ATOM     39  C   UNL A   1      42.985  25.765  27.744  1.00  0.00     0.049 A 
ATOM     40  H   UNL A   1      44.054  27.535  27.996  1.00  0.00     0.167 HD
ATOM     41  C   UNL A   1      46.068  31.425  28.228  1.00  0.00     0.037 A 
ATOM     42  C   UNL A   1      43.840  24.852  27.245  1.00  0.00     0.037 A 
ATOM     43  C   UNL A   1      47.076  30.496  27.792  1.00  0.00     0.049 A 
ATOM     44  C   UNL A   1      45.261  25.252  26.969  1.00  0.00     0.074 A 
ATOM     45  C   UNL A   1      48.424  30.726  27.581  1.00  0.00     0.029 A 
ATOM     46  N   UNL A   1      46.846  29.160  27.498  1.00  0.00    -0.354 N 
ATOM     47  N   UNL A   1      45.831  26.423  27.130  1.00  0.00    -0.248 NA
ATOM     48  C   UNL A   1      46.156  24.214  26.438  1.00  0.00     0.031 C 
ATOM     49  C   UNL A   1      49.005  29.535  27.132  1.00  0.00     0.029 A 
ATOM     50  C   UNL A   1      48.023  28.557  27.088  1.00  0.00     0.049 A 
ATOM     51  H   UNL A   1      45.975  28.707  27.571  1.00  0.00     0.167 HD
ATOM     52  C   UNL A   1      47.151  26.261  26.729  1.00  0.00     0.074 A 
ATOM     53  C   UNL A   1      47.301  24.875  26.332  1.00  0.00     0.031 C 
ATOM     54  C   UNL A   1      48.149  27.177  26.689  1.00  0.00     0.037 A 
BRANCH  41  55
ATOM     55  C   UNL A   1      46.450  32.865  28.410  1.00  0.00     0.058 A 
ATOM     56  C   UNL A   1      46.322  33.794  27.365  1.00  0.00     0.135 A 
ATOM     57  C   UNL A   1      46.932  33.326  29.645  1.00  0.00     0.135 A 
ATOM     58  F   UNL A   1      45.882  33.398  26.160  1.00  0.00    -0.206 F 
ATOM     59  C   UNL A   1      46.686  35.125  27.529  1.00  0.00     0.059 A 
ATOM     60  C   UNL A   1      47.282  34.659  29.837  1.00  0.00     0.059 A 
ATOM     61  F   UNL A   1      47.077  32.478  30.675  1.00  0.00    -0.206 F 
ATOM     62  C   UNL A   1      47.170  35.547  28.768  1.00  0.00     0.060 A 
BRANCH  62  63
ATOM     63  S   UNL A   1      47.646  37.278  28.966  1.00  0.00     0.124 S 
ATOM     64  O   UNL A   1      47.442  37.790  27.615  1.00  0.00    -0.237 OA
ATOM     65  O   UNL A   1      46.700  37.752  29.972  1.00  0.00    -0.237 OA
ATOM     66  O   UNL A   1      49.035  37.198  29.406  1.00  0.00    -0.744 OA
ENDBRANCH  62  63
ENDBRANCH  41  55
BRANCH  42  67
ATOM     67  C   UNL A   1      43.374  23.466  26.983  1.00  0.00     0.058 A 
ATOM     68  C   UNL A   1      43.095  23.039  25.678  1.00  0.00     0.135 A 
ATOM     69  C   UNL A   1      43.225  22.537  28.025  1.00  0.00     0.135 A 
ATOM     70  F   UNL A   1      43.219  23.896  24.652  1.00  0.00    -0.206 F 
ATOM     71  C   UNL A   1      42.674  21.741  25.411  1.00  0.00     0.059 A 
ATOM     72  C   UNL A   1      42.822  21.228  27.781  1.00  0.00     0.059 A 
ATOM     73  F   UNL A   1      43.497  22.895  29.289  1.00  0.00    -0.206 F 
ATOM     74  C   UNL A   1      42.541  20.842  26.470  1.00  0.00     0.060 A 
BRANCH  74  75
ATOM     75  S   UNL A   1      42.053  19.140  26.111  1.00  0.00     0.124 S 
ATOM     76  O   UNL A   1      42.447  18.458  27.339  1.00  0.00    -0.237 OA
ATOM     77  O   UNL A   1      40.616  19.270  25.887  1.00  0.00    -0.237 OA
ATOM     78  O   UNL A   1      42.837  18.812  24.924  1.00  0.00    -0.744 OA
ENDBRANCH  74  75
ENDBRANCH  42  67
BRANCH  54  79
ATOM     79  C   UNL A   1      49.488  26.713  26.200  1.00  0.00     0.058 A 
ATOM     80  C   UNL A   1      49.863  26.862  24.857  1.00  0.00     0.135 A 
ATOM     81  C   UNL A   1      50.426  26.167  27.091  1.00  0.00     0.135 A 
ATOM     82  F   UNL A   1      48.998  27.369  23.966  1.00  0.00    -0.206 F 
ATOM     83  C   UNL A   1      51.123  26.477  24.410  1.00  0.00     0.059 A 
ATOM     84  C   UNL A   1      51.698  25.793  26.670  1.00  0.00     0.059 A 
ATOM     85  F   UNL A   1      50.114  26.010  28.388  1.00  0.00    -0.206 F 
ATOM     86  C   UNL A   1      52.034  25.946  25.325  1.00  0.00     0.060 A 
BRANCH  86  87
ATOM     87  S   UNL A   1      53.684  25.495  24.746  1.00  0.00     0.124 S 
ATOM     88  O   UNL A   1      53.714  26.123  23.429  1.00  0.00    -0.237 OA
ATOM     89  O   UNL A   1      54.549  26.099  25.755  1.00  0.00    -0.237 OA
ATOM     90  O   UNL A   1      53.654  24.036  24.747  1.00  0.00    -0.744 OA
ENDBRANCH  86  87
ENDBRANCH  54  79
ENDBRANCH  28  29
ENDBRANCH  20  23
ENDBRANCH  18  19
ENDBRANCH   1  18
TORSDOF 17
ENDMDL
