MODEL 1
REMARK VINA RESULT:     -12.3      0.000      0.000
REMARK SMILES O=C(NCCCCNC(=O)[C@@H]1CC[C@@H](CNC(=O)c2cc(Cl)ccc2Cl)O1)c1ccc(-c2c3nc(c(-c4c(F)cc(S(=O)(=O)[O-])cc4F)c4ccc([nH]4)c(-c4c(F)cc(S(=O)(=O)[O-])cc4F)c4nc(c(-c5c(F)cc(S(=O)(=O)[O-])cc5F)c5ccc2[nH]5)C=C4)C=C3)cc1
REMARK SMILES IDX 5 1 4 2 3 3 1 4 2 5 28 7 29 8 93 9 30 10 92 11 31 12 32 13
REMARK SMILES IDX 33 14 86 15 34 16 91 17 85 18 87 19 35 20 90 21 84 22 83 23
REMARK SMILES IDX 36 25 70 26 49 27 69 28 50 29 53 30 68 31 88 32 51 33 52 34
REMARK SMILES IDX 67 36 89 37 54 38 37 39 38 40 47 41 39 42 40 43 46 44 48 45
REMARK SMILES IDX 41 46 42 47 43 48 44 49 45 50 71 51 72 52 81 53 73 54 74 55
REMARK SMILES IDX 80 56 82 57 75 58 76 59 77 60 78 61 79 62 55 63 56 64 65 65
REMARK SMILES IDX 57 66 58 67 64 68 66 69 59 70 60 71 61 72 62 73 63 74 6 75
REMARK SMILES IDX 7 76 8 77 9 78 10 80 11 81 12 82 27 83 13 84 14 85 15 86
REMARK SMILES IDX 16 87 17 88 18 90 19 91 20 92 25 93 21 94 24 95 26 96 22 97
REMARK SMILES IDX 23 98
REMARK H PARENT 3 6 87 24 53 35 8 79 16 89
REMARK Flexibility Score: inf
ROOT
ATOM      1  C   UNL A   1      37.301  23.531  25.568  1.00  0.00     0.023 C 
ENDROOT
BRANCH   1   2
ATOM      2  C   UNL A   1      38.291  24.271  26.465  1.00  0.00     0.116 C 
BRANCH   2   3
ATOM      3  N   UNL A   1      39.679  23.983  26.142  1.00  0.00    -0.352 N 
ATOM      4  O   UNL A   1      41.906  24.315  26.074  1.00  0.00    -0.269 OA
ATOM      5  C   UNL A   1      40.819  24.629  26.552  1.00  0.00     0.251 C 
ATOM      6  H   UNL A   1      39.822  23.214  25.543  1.00  0.00     0.163 HD
BRANCH   5   7
ATOM      7  C   UNL A   1      40.728  25.721  27.543  1.00  0.00     0.039 A 
ATOM      8  C   UNL A   1      41.624  26.796  27.509  1.00  0.00     0.014 A 
ATOM      9  C   UNL A   1      39.734  25.662  28.521  1.00  0.00     0.014 A 
ATOM     10  C   UNL A   1      41.603  27.744  28.528  1.00  0.00     0.010 A 
ATOM     11  C   UNL A   1      39.675  26.650  29.506  1.00  0.00     0.010 A 
ATOM     12  C   UNL A   1      40.627  27.681  29.535  1.00  0.00    -0.014 A 
BRANCH  12  13
ATOM     13  C   UNL A   1      40.581  28.712  30.600  1.00  0.00     0.031 A 
ATOM     14  C   UNL A   1      41.497  28.627  31.788  1.00  0.00     0.074 A 
ATOM     15  C   UNL A   1      39.685  29.712  30.505  1.00  0.00     0.049 A 
ATOM     16  N   UNL A   1      41.535  29.381  32.856  1.00  0.00    -0.248 NA
ATOM     17  C   UNL A   1      42.495  27.547  31.779  1.00  0.00     0.031 C 
ATOM     18  C   UNL A   1      38.745  29.897  29.398  1.00  0.00     0.029 A 
ATOM     19  N   UNL A   1      39.406  30.751  31.357  1.00  0.00    -0.354 N 
ATOM     20  C   UNL A   1      42.539  28.853  33.660  1.00  0.00     0.074 A 
ATOM     21  C   UNL A   1      43.074  27.703  32.961  1.00  0.00     0.031 C 
ATOM     22  C   UNL A   1      37.997  30.984  29.635  1.00  0.00     0.029 A 
ATOM     23  C   UNL A   1      38.362  31.538  30.934  1.00  0.00     0.049 A 
ATOM     24  H   UNL A   1      39.906  30.915  32.189  1.00  0.00     0.167 HD
ATOM     25  C   UNL A   1      42.973  29.291  34.867  1.00  0.00     0.037 A 
ATOM     26  C   UNL A   1      37.743  32.570  31.539  1.00  0.00     0.037 A 
ATOM     27  C   UNL A   1      42.436  30.441  35.547  1.00  0.00     0.049 A 
ATOM     28  C   UNL A   1      38.222  33.025  32.886  1.00  0.00     0.074 A 
ATOM     29  C   UNL A   1      42.828  30.986  36.758  1.00  0.00     0.029 A 
ATOM     30  N   UNL A   1      41.386  31.220  35.081  1.00  0.00    -0.354 N 
ATOM     31  N   UNL A   1      39.190  32.533  33.621  1.00  0.00    -0.248 NA
ATOM     32  C   UNL A   1      37.530  34.171  33.487  1.00  0.00     0.031 C 
ATOM     33  C   UNL A   1      41.987  32.067  37.044  1.00  0.00     0.029 A 
ATOM     34  C   UNL A   1      41.103  32.228  35.988  1.00  0.00     0.049 A 
ATOM     35  H   UNL A   1      40.911  31.077  34.231  1.00  0.00     0.167 HD
ATOM     36  C   UNL A   1      39.240  33.323  34.763  1.00  0.00     0.074 A 
ATOM     37  C   UNL A   1      38.205  34.328  34.619  1.00  0.00     0.031 C 
ATOM     38  C   UNL A   1      40.075  33.229  35.826  1.00  0.00     0.037 A 
BRANCH  25  39
ATOM     39  C   UNL A   1      44.058  28.497  35.542  1.00  0.00     0.058 A 
ATOM     40  C   UNL A   1      45.419  28.740  35.295  1.00  0.00     0.135 A 
ATOM     41  C   UNL A   1      43.732  27.479  36.454  1.00  0.00     0.135 A 
ATOM     42  F   UNL A   1      45.788  29.693  34.425  1.00  0.00    -0.206 F 
ATOM     43  C   UNL A   1      46.415  27.972  35.890  1.00  0.00     0.059 A 
ATOM     44  C   UNL A   1      44.712  26.716  37.081  1.00  0.00     0.059 A 
ATOM     45  F   UNL A   1      42.448  27.208  36.732  1.00  0.00    -0.206 F 
ATOM     46  C   UNL A   1      46.051  26.954  36.774  1.00  0.00     0.060 A 
BRANCH  46  47
ATOM     47  S   UNL A   1      47.350  25.936  37.505  1.00  0.00     0.124 S 
ATOM     48  O   UNL A   1      47.493  26.552  38.820  1.00  0.00    -0.237 OA
ATOM     49  O   UNL A   1      46.754  24.604  37.492  1.00  0.00    -0.237 OA
ATOM     50  O   UNL A   1      48.479  26.123  36.598  1.00  0.00    -0.744 OA
ENDBRANCH  46  47
ENDBRANCH  25  39
BRANCH  26  51
ATOM     51  C   UNL A   1      36.600  33.224  30.853  1.00  0.00     0.058 A 
ATOM     52  C   UNL A   1      35.284  33.021  31.289  1.00  0.00     0.135 A 
ATOM     53  C   UNL A   1      36.812  34.136  29.806  1.00  0.00     0.135 A 
ATOM     54  F   UNL A   1      35.034  32.156  32.284  1.00  0.00    -0.206 F 
ATOM     55  C   UNL A   1      34.217  33.707  30.720  1.00  0.00     0.059 A 
ATOM     56  C   UNL A   1      35.765  34.850  29.237  1.00  0.00     0.059 A 
ATOM     57  F   UNL A   1      38.058  34.377  29.367  1.00  0.00    -0.206 F 
ATOM     58  C   UNL A   1      34.469  34.630  29.702  1.00  0.00     0.060 A 
BRANCH  58  59
ATOM     59  S   UNL A   1      33.090  35.592  29.044  1.00  0.00     0.124 S 
ATOM     60  O   UNL A   1      32.395  34.596  28.237  1.00  0.00    -0.237 OA
ATOM     61  O   UNL A   1      32.406  36.019  30.261  1.00  0.00    -0.237 OA
ATOM     62  O   UNL A   1      33.750  36.660  28.300  1.00  0.00    -0.744 OA
ENDBRANCH  58  59
ENDBRANCH  26  51
BRANCH  38  63
ATOM     63  C   UNL A   1      39.941  34.260  36.910  1.00  0.00     0.058 A 
ATOM     64  C   UNL A   1      40.580  35.506  36.828  1.00  0.00     0.135 A 
ATOM     65  C   UNL A   1      39.091  34.026  38.004  1.00  0.00     0.135 A 
ATOM     66  F   UNL A   1      41.410  35.773  35.808  1.00  0.00    -0.206 F 
ATOM     67  C   UNL A   1      40.381  36.487  37.795  1.00  0.00     0.059 A 
ATOM     68  C   UNL A   1      38.861  35.000  38.969  1.00  0.00     0.059 A 
ATOM     69  F   UNL A   1      38.454  32.851  38.125  1.00  0.00    -0.206 F 
ATOM     70  C   UNL A   1      39.513  36.228  38.857  1.00  0.00     0.060 A 
BRANCH  70  71
ATOM     71  S   UNL A   1      39.206  37.534  40.065  1.00  0.00     0.124 S 
ATOM     72  O   UNL A   1      40.503  38.202  40.112  1.00  0.00    -0.237 OA
ATOM     73  O   UNL A   1      38.125  38.290  39.441  1.00  0.00    -0.237 OA
ATOM     74  O   UNL A   1      38.834  36.800  41.272  1.00  0.00    -0.744 OA
ENDBRANCH  70  71
ENDBRANCH  38  63
ENDBRANCH  12  13
ENDBRANCH   5   7
ENDBRANCH   2   3
ENDBRANCH   1   2
BRANCH   1  75
ATOM     75  C   UNL A   1      37.400  22.005  25.594  1.00  0.00     0.023 C 
BRANCH  75  76
ATOM     76  C   UNL A   1      36.267  21.278  24.877  1.00  0.00     0.116 C 
BRANCH  76  77
ATOM     77  N   UNL A   1      35.230  20.835  25.790  1.00  0.00    -0.354 N 
ATOM     78  C   UNL A   1      34.109  21.444  26.264  1.00  0.00     0.249 C 
ATOM     79  H   UNL A   1      35.362  19.921  26.130  1.00  0.00     0.163 HD
ATOM     80  O   UNL A   1      33.410  20.788  27.047  1.00  0.00    -0.272 OA
BRANCH  78  81
ATOM     81  C   UNL A   1      33.667  22.870  25.847  1.00  0.00     0.207 C 
ATOM     82  C   UNL A   1      32.593  23.371  26.826  1.00  0.00     0.045 C 
ATOM     83  O   UNL A   1      33.141  23.096  24.538  1.00  0.00    -0.363 OA
ATOM     84  C   UNL A   1      31.573  24.054  25.936  1.00  0.00     0.037 C 
ATOM     85  C   UNL A   1      31.715  23.235  24.674  1.00  0.00     0.138 C 
BRANCH  85  86
ATOM     86  C   UNL A   1      31.095  23.753  23.373  1.00  0.00     0.148 C 
BRANCH  86  87
ATOM     87  N   UNL A   1      32.028  24.199  22.352  1.00  0.00    -0.349 N 
ATOM     88  C   UNL A   1      32.451  25.454  22.005  1.00  0.00     0.252 C 
ATOM     89  H   UNL A   1      32.424  23.474  21.817  1.00  0.00     0.163 HD
ATOM     90  O   UNL A   1      33.274  25.585  21.103  1.00  0.00    -0.269 OA
BRANCH  88  91
ATOM     91  C   UNL A   1      31.962  26.646  22.720  1.00  0.00     0.059 A 
ATOM     92  C   UNL A   1      30.783  27.264  22.283  1.00  0.00     0.036 A 
ATOM     93  C   UNL A   1      32.585  27.081  23.898  1.00  0.00     0.053 A 
ATOM     94  C   UNL A   1      30.264  28.343  22.993  1.00  0.00     0.041 A 
ATOM     95  C   UNL A   1      32.041  28.151  24.615  1.00  0.00     0.023 A 
ATOM     96  Cl  UNL A   1      34.035  26.368  24.510  1.00  0.00    -0.083 Cl
ATOM     97  Cl  UNL A   1      28.838  29.126  22.435  1.00  0.00    -0.084 Cl
ATOM     98  C   UNL A   1      30.884  28.788  24.160  1.00  0.00     0.022 A 
ENDBRANCH  88  91
ENDBRANCH  86  87
ENDBRANCH  85  86
ENDBRANCH  78  81
ENDBRANCH  76  77
ENDBRANCH  75  76
ENDBRANCH   1  75
TORSDOF 17
ENDMDL
MODEL 2
REMARK VINA RESULT:     -11.9      4.306      7.014
REMARK SMILES O=C(NCCCCNC(=O)[C@@H]1CC[C@@H](CNC(=O)c2cc(Cl)ccc2Cl)O1)c1ccc(-c2c3nc(c(-c4c(F)cc(S(=O)(=O)[O-])cc4F)c4ccc([nH]4)c(-c4c(F)cc(S(=O)(=O)[O-])cc4F)c4nc(c(-c5c(F)cc(S(=O)(=O)[O-])cc5F)c5ccc2[nH]5)C=C4)C=C3)cc1
REMARK SMILES IDX 5 1 4 2 3 3 1 4 2 5 28 7 29 8 93 9 30 10 92 11 31 12 32 13
REMARK SMILES IDX 33 14 86 15 34 16 91 17 85 18 87 19 35 20 90 21 84 22 83 23
REMARK SMILES IDX 36 25 70 26 49 27 69 28 50 29 53 30 68 31 88 32 51 33 52 34
REMARK SMILES IDX 67 36 89 37 54 38 37 39 38 40 47 41 39 42 40 43 46 44 48 45
REMARK SMILES IDX 41 46 42 47 43 48 44 49 45 50 71 51 72 52 81 53 73 54 74 55
REMARK SMILES IDX 80 56 82 57 75 58 76 59 77 60 78 61 79 62 55 63 56 64 65 65
REMARK SMILES IDX 57 66 58 67 64 68 66 69 59 70 60 71 61 72 62 73 63 74 6 75
REMARK SMILES IDX 7 76 8 77 9 78 10 80 11 81 12 82 27 83 13 84 14 85 15 86
REMARK SMILES IDX 16 87 17 88 18 90 19 91 20 92 25 93 21 94 24 95 26 96 22 97
REMARK SMILES IDX 23 98
REMARK H PARENT 3 6 87 24 53 35 8 79 16 89
REMARK Flexibility Score: inf
ROOT
ATOM      1  C   UNL A   1      40.840  20.165  26.210  1.00  0.00     0.023 C 
ENDROOT
BRANCH   1   2
ATOM      2  C   UNL A   1      40.388  21.579  26.567  1.00  0.00     0.116 C 
BRANCH   2   3
ATOM      3  N   UNL A   1      39.236  22.020  25.796  1.00  0.00    -0.352 N 
ATOM      4  O   UNL A   1      37.529  23.363  25.201  1.00  0.00    -0.269 OA
ATOM      5  C   UNL A   1      38.563  23.216  25.848  1.00  0.00     0.251 C 
ATOM      6  H   UNL A   1      38.890  21.368  25.144  1.00  0.00     0.163 HD
BRANCH   5   7
ATOM      7  C   UNL A   1      39.068  24.307  26.706  1.00  0.00     0.039 A 
ATOM      8  C   UNL A   1      38.645  24.429  28.034  1.00  0.00     0.014 A 
ATOM      9  C   UNL A   1      39.975  25.222  26.167  1.00  0.00     0.014 A 
ATOM     10  C   UNL A   1      39.032  25.538  28.782  1.00  0.00     0.010 A 
ATOM     11  C   UNL A   1      40.411  26.299  26.941  1.00  0.00     0.010 A 
ATOM     12  C   UNL A   1      39.919  26.482  28.244  1.00  0.00    -0.014 A 
BRANCH  12  13
ATOM     13  C   UNL A   1      40.361  27.643  29.054  1.00  0.00     0.031 A 
ATOM     14  C   UNL A   1      41.666  27.604  29.798  1.00  0.00     0.074 A 
ATOM     15  C   UNL A   1      39.564  28.724  29.139  1.00  0.00     0.049 A 
ATOM     16  N   UNL A   1      42.170  28.483  30.626  1.00  0.00    -0.248 NA
ATOM     17  C   UNL A   1      42.511  26.419  29.593  1.00  0.00     0.031 C 
ATOM     18  C   UNL A   1      38.275  28.874  28.461  1.00  0.00     0.029 A 
ATOM     19  N   UNL A   1      39.708  29.893  29.843  1.00  0.00    -0.354 N 
ATOM     20  C   UNL A   1      43.376  27.948  31.063  1.00  0.00     0.074 A 
ATOM     21  C   UNL A   1      43.519  26.658  30.420  1.00  0.00     0.031 C 
ATOM     22  C   UNL A   1      37.749  30.067  28.776  1.00  0.00     0.029 A 
ATOM     23  C   UNL A   1      38.632  30.739  29.724  1.00  0.00     0.049 A 
ATOM     24  H   UNL A   1      40.506  30.104  30.380  1.00  0.00     0.167 HD
ATOM     25  C   UNL A   1      44.278  28.485  31.919  1.00  0.00     0.037 A 
ATOM     26  C   UNL A   1      38.367  31.910  30.334  1.00  0.00     0.037 A 
ATOM     27  C   UNL A   1      44.126  29.772  32.547  1.00  0.00     0.049 A 
ATOM     28  C   UNL A   1      39.367  32.477  31.298  1.00  0.00     0.074 A 
ATOM     29  C   UNL A   1      44.997  30.421  33.405  1.00  0.00     0.029 A 
ATOM     30  N   UNL A   1      43.026  30.605  32.392  1.00  0.00    -0.354 N 
ATOM     31  N   UNL A   1      40.515  31.972  31.680  1.00  0.00    -0.248 NA
ATOM     32  C   UNL A   1      39.041  33.770  31.913  1.00  0.00     0.031 C 
ATOM     33  C   UNL A   1      44.405  31.625  33.802  1.00  0.00     0.029 A 
ATOM     34  C   UNL A   1      43.187  31.752  33.152  1.00  0.00     0.049 A 
ATOM     35  H   UNL A   1      42.245  30.410  31.825  1.00  0.00     0.167 HD
ATOM     36  C   UNL A   1      41.062  32.895  32.563  1.00  0.00     0.074 A 
ATOM     37  C   UNL A   1      40.118  33.991  32.657  1.00  0.00     0.031 C 
ATOM     38  C   UNL A   1      42.242  32.840  33.227  1.00  0.00     0.037 A 
BRANCH  25  39
ATOM     39  C   UNL A   1      45.492  27.661  32.254  1.00  0.00     0.058 A 
ATOM     40  C   UNL A   1      45.534  26.828  33.384  1.00  0.00     0.135 A 
ATOM     41  C   UNL A   1      46.629  27.703  31.431  1.00  0.00     0.135 A 
ATOM     42  F   UNL A   1      44.480  26.757  34.212  1.00  0.00    -0.206 F 
ATOM     43  C   UNL A   1      46.676  26.102  33.710  1.00  0.00     0.059 A 
ATOM     44  C   UNL A   1      47.773  26.966  31.724  1.00  0.00     0.059 A 
ATOM     45  F   UNL A   1      46.641  28.477  30.335  1.00  0.00    -0.206 F 
ATOM     46  C   UNL A   1      47.795  26.187  32.880  1.00  0.00     0.060 A 
BRANCH  46  47
ATOM     47  S   UNL A   1      49.285  25.277  33.338  1.00  0.00     0.124 S 
ATOM     48  O   UNL A   1      48.717  24.032  33.847  1.00  0.00    -0.237 OA
ATOM     49  O   UNL A   1      49.997  25.175  32.069  1.00  0.00    -0.237 OA
ATOM     50  O   UNL A   1      49.913  26.136  34.339  1.00  0.00    -0.744 OA
ENDBRANCH  46  47
ENDBRANCH  25  39
BRANCH  26  51
ATOM     51  C   UNL A   1      37.088  32.602  30.035  1.00  0.00     0.058 A 
ATOM     52  C   UNL A   1      35.937  32.350  30.793  1.00  0.00     0.135 A 
ATOM     53  C   UNL A   1      37.019  33.596  29.045  1.00  0.00     0.135 A 
ATOM     54  F   UNL A   1      35.956  31.408  31.748  1.00  0.00    -0.206 F 
ATOM     55  C   UNL A   1      34.763  33.067  30.589  1.00  0.00     0.059 A 
ATOM     56  C   UNL A   1      35.864  34.341  28.838  1.00  0.00     0.059 A 
ATOM     57  F   UNL A   1      38.102  33.885  28.306  1.00  0.00    -0.206 F 
ATOM     58  C   UNL A   1      34.740  34.070  29.617  1.00  0.00     0.060 A 
BRANCH  58  59
ATOM     59  S   UNL A   1      33.244  35.064  29.433  1.00  0.00     0.124 S 
ATOM     60  O   UNL A   1      32.698  35.026  30.785  1.00  0.00    -0.237 OA
ATOM     61  O   UNL A   1      33.782  36.349  28.997  1.00  0.00    -0.237 OA
ATOM     62  O   UNL A   1      32.480  34.339  28.423  1.00  0.00    -0.744 OA
ENDBRANCH  58  59
ENDBRANCH  26  51
BRANCH  38  63
ATOM     63  C   UNL A   1      42.612  34.015  34.088  1.00  0.00     0.058 A 
ATOM     64  C   UNL A   1      42.354  34.030  35.467  1.00  0.00     0.135 A 
ATOM     65  C   UNL A   1      43.311  35.101  33.536  1.00  0.00     0.135 A 
ATOM     66  F   UNL A   1      41.679  33.021  36.040  1.00  0.00    -0.206 F 
ATOM     67  C   UNL A   1      42.777  35.084  36.271  1.00  0.00     0.059 A 
ATOM     68  C   UNL A   1      43.763  36.153  34.325  1.00  0.00     0.059 A 
ATOM     69  F   UNL A   1      43.586  35.130  32.223  1.00  0.00    -0.206 F 
ATOM     70  C   UNL A   1      43.487  36.138  35.692  1.00  0.00     0.060 A 
BRANCH  70  71
ATOM     71  S   UNL A   1      44.095  37.463  36.757  1.00  0.00     0.124 S 
ATOM     72  O   UNL A   1      43.055  37.518  37.780  1.00  0.00    -0.237 OA
ATOM     73  O   UNL A   1      45.388  36.946  37.194  1.00  0.00    -0.237 OA
ATOM     74  O   UNL A   1      44.157  38.616  35.862  1.00  0.00    -0.744 OA
ENDBRANCH  70  71
ENDBRANCH  38  63
ENDBRANCH  12  13
ENDBRANCH   5   7
ENDBRANCH   2   3
ENDBRANCH   1   2
BRANCH   1  75
ATOM     75  C   UNL A   1      42.106  19.678  26.919  1.00  0.00     0.023 C 
BRANCH  75  76
ATOM     76  C   UNL A   1      43.306  19.454  26.005  1.00  0.00     0.116 C 
BRANCH  76  77
ATOM     77  N   UNL A   1      43.414  20.472  24.977  1.00  0.00    -0.354 N 
ATOM     78  C   UNL A   1      44.010  21.695  24.961  1.00  0.00     0.249 C 
ATOM     79  H   UNL A   1      42.974  20.233  24.130  1.00  0.00     0.163 HD
ATOM     80  O   UNL A   1      43.927  22.341  23.909  1.00  0.00    -0.272 OA
BRANCH  78  81
ATOM     81  C   UNL A   1      44.799  22.279  26.163  1.00  0.00     0.207 C 
ATOM     82  C   UNL A   1      43.824  23.022  27.091  1.00  0.00     0.045 C 
ATOM     83  O   UNL A   1      45.883  23.180  25.930  1.00  0.00    -0.363 OA
ATOM     84  C   UNL A   1      44.575  24.279  27.482  1.00  0.00     0.037 C 
ATOM     85  C   UNL A   1      45.408  24.502  26.242  1.00  0.00     0.138 C 
BRANCH  85  86
ATOM     86  C   UNL A   1      46.571  25.498  26.292  1.00  0.00     0.148 C 
BRANCH  86  87
ATOM     87  N   UNL A   1      46.697  26.391  25.152  1.00  0.00    -0.349 N 
ATOM     88  C   UNL A   1      46.189  27.642  24.929  1.00  0.00     0.252 C 
ATOM     89  H   UNL A   1      47.241  26.035  24.413  1.00  0.00     0.163 HD
ATOM     90  O   UNL A   1      46.449  28.221  23.878  1.00  0.00    -0.269 OA
BRANCH  88  91
ATOM     91  C   UNL A   1      45.365  28.321  25.945  1.00  0.00     0.059 A 
ATOM     92  C   UNL A   1      45.966  29.264  26.788  1.00  0.00     0.036 A 
ATOM     93  C   UNL A   1      43.976  28.130  25.985  1.00  0.00     0.053 A 
ATOM     94  C   UNL A   1      45.187  29.972  27.700  1.00  0.00     0.041 A 
ATOM     95  C   UNL A   1      43.202  28.864  26.890  1.00  0.00     0.023 A 
ATOM     96  Cl  UNL A   1      43.156  26.994  24.975  1.00  0.00    -0.083 Cl
ATOM     97  Cl  UNL A   1      45.931  31.102  28.761  1.00  0.00    -0.084 Cl
ATOM     98  C   UNL A   1      43.808  29.780  27.753  1.00  0.00     0.022 A 
ENDBRANCH  88  91
ENDBRANCH  86  87
ENDBRANCH  85  86
ENDBRANCH  78  81
ENDBRANCH  76  77
ENDBRANCH  75  76
ENDBRANCH   1  75
TORSDOF 17
ENDMDL
MODEL 3
REMARK VINA RESULT:     -11.8      6.591     12.008
REMARK SMILES O=C(NCCCCNC(=O)[C@@H]1CC[C@@H](CNC(=O)c2cc(Cl)ccc2Cl)O1)c1ccc(-c2c3nc(c(-c4c(F)cc(S(=O)(=O)[O-])cc4F)c4ccc([nH]4)c(-c4c(F)cc(S(=O)(=O)[O-])cc4F)c4nc(c(-c5c(F)cc(S(=O)(=O)[O-])cc5F)c5ccc2[nH]5)C=C4)C=C3)cc1
REMARK SMILES IDX 5 1 4 2 3 3 1 4 2 5 28 7 29 8 93 9 30 10 92 11 31 12 32 13
REMARK SMILES IDX 33 14 86 15 34 16 91 17 85 18 87 19 35 20 90 21 84 22 83 23
REMARK SMILES IDX 36 25 70 26 49 27 69 28 50 29 53 30 68 31 88 32 51 33 52 34
REMARK SMILES IDX 67 36 89 37 54 38 37 39 38 40 47 41 39 42 40 43 46 44 48 45
REMARK SMILES IDX 41 46 42 47 43 48 44 49 45 50 71 51 72 52 81 53 73 54 74 55
REMARK SMILES IDX 80 56 82 57 75 58 76 59 77 60 78 61 79 62 55 63 56 64 65 65
REMARK SMILES IDX 57 66 58 67 64 68 66 69 59 70 60 71 61 72 62 73 63 74 6 75
REMARK SMILES IDX 7 76 8 77 9 78 10 80 11 81 12 82 27 83 13 84 14 85 15 86
REMARK SMILES IDX 16 87 17 88 18 90 19 91 20 92 25 93 21 94 24 95 26 96 22 97
REMARK SMILES IDX 23 98
REMARK H PARENT 3 6 87 24 53 35 8 79 16 89
REMARK Flexibility Score: inf
ROOT
ATOM      1  C   UNL A   1      33.950  29.553  26.494  1.00  0.00     0.023 C 
ENDROOT
BRANCH   1   2
ATOM      2  C   UNL A   1      35.118  29.322  27.449  1.00  0.00     0.116 C 
BRANCH   2   3
ATOM      3  N   UNL A   1      35.078  30.187  28.618  1.00  0.00    -0.352 N 
ATOM      4  O   UNL A   1      35.823  31.148  30.514  1.00  0.00    -0.269 OA
ATOM      5  C   UNL A   1      36.078  30.488  29.510  1.00  0.00     0.251 C 
ATOM      6  H   UNL A   1      34.211  30.618  28.795  1.00  0.00     0.163 HD
BRANCH   5   7
ATOM      7  C   UNL A   1      37.449  29.990  29.274  1.00  0.00     0.039 A 
ATOM      8  C   UNL A   1      38.237  29.531  30.334  1.00  0.00     0.014 A 
ATOM      9  C   UNL A   1      37.949  29.989  27.970  1.00  0.00     0.014 A 
ATOM     10  C   UNL A   1      39.568  29.189  30.107  1.00  0.00     0.010 A 
ATOM     11  C   UNL A   1      39.265  29.585  27.736  1.00  0.00     0.010 A 
ATOM     12  C   UNL A   1      40.094  29.212  28.807  1.00  0.00    -0.014 A 
BRANCH  12  13
ATOM     13  C   UNL A   1      41.500  28.812  28.559  1.00  0.00     0.031 A 
ATOM     14  C   UNL A   1      42.603  29.832  28.596  1.00  0.00     0.074 A 
ATOM     15  C   UNL A   1      41.775  27.526  28.271  1.00  0.00     0.049 A 
ATOM     16  N   UNL A   1      43.872  29.685  28.315  1.00  0.00    -0.248 NA
ATOM     17  C   UNL A   1      42.229  31.198  28.991  1.00  0.00     0.031 C 
ATOM     18  C   UNL A   1      40.786  26.449  28.207  1.00  0.00     0.029 A 
ATOM     19  N   UNL A   1      42.961  26.910  27.962  1.00  0.00    -0.354 N 
ATOM     20  C   UNL A   1      44.445  30.942  28.471  1.00  0.00     0.074 A 
ATOM     21  C   UNL A   1      43.379  31.844  28.856  1.00  0.00     0.031 C 
ATOM     22  C   UNL A   1      41.405  25.304  27.885  1.00  0.00     0.029 A 
ATOM     23  C   UNL A   1      42.821  25.576  27.661  1.00  0.00     0.049 A 
ATOM     24  H   UNL A   1      43.827  27.378  27.957  1.00  0.00     0.167 HD
ATOM     25  C   UNL A   1      45.741  31.306  28.310  1.00  0.00     0.037 A 
ATOM     26  C   UNL A   1      43.724  24.678  27.221  1.00  0.00     0.037 A 
ATOM     27  C   UNL A   1      46.792  30.397  27.934  1.00  0.00     0.049 A 
ATOM     28  C   UNL A   1      45.148  25.106  27.025  1.00  0.00     0.074 A 
ATOM     29  C   UNL A   1      48.142  30.660  27.775  1.00  0.00     0.029 A 
ATOM     30  N   UNL A   1      46.612  29.050  27.649  1.00  0.00    -0.354 N 
ATOM     31  N   UNL A   1      45.680  26.292  27.203  1.00  0.00    -0.248 NA
ATOM     32  C   UNL A   1      46.095  24.081  26.571  1.00  0.00     0.031 C 
ATOM     33  C   UNL A   1      48.770  29.483  27.353  1.00  0.00     0.029 A 
ATOM     34  C   UNL A   1      47.821  28.474  27.297  1.00  0.00     0.049 A 
ATOM     35  H   UNL A   1      45.751  28.575  27.690  1.00  0.00     0.167 HD
ATOM     36  C   UNL A   1      47.030  26.152  26.905  1.00  0.00     0.074 A 
ATOM     37  C   UNL A   1      47.233  24.764  26.537  1.00  0.00     0.031 C 
ATOM     38  C   UNL A   1      48.010  27.087  26.943  1.00  0.00     0.037 A 
BRANCH  25  39
ATOM     39  C   UNL A   1      46.081  32.759  28.505  1.00  0.00     0.058 A 
ATOM     40  C   UNL A   1      46.066  33.673  27.439  1.00  0.00     0.135 A 
ATOM     41  C   UNL A   1      46.425  33.245  29.777  1.00  0.00     0.135 A 
ATOM     42  F   UNL A   1      45.756  33.263  26.200  1.00  0.00    -0.206 F 
ATOM     43  C   UNL A   1      46.425  35.006  27.619  1.00  0.00     0.059 A 
ATOM     44  C   UNL A   1      46.762  34.578  29.986  1.00  0.00     0.059 A 
ATOM     45  F   UNL A   1      46.450  32.415  30.832  1.00  0.00    -0.206 F 
ATOM     46  C   UNL A   1      46.783  35.447  28.895  1.00  0.00     0.060 A 
BRANCH  46  47
ATOM     47  S   UNL A   1      47.290  37.166  29.107  1.00  0.00     0.124 S 
ATOM     48  O   UNL A   1      48.730  37.020  29.298  1.00  0.00    -0.237 OA
ATOM     49  O   UNL A   1      46.878  37.775  27.847  1.00  0.00    -0.237 OA
ATOM     50  O   UNL A   1      46.541  37.599  30.283  1.00  0.00    -0.744 OA
ENDBRANCH  46  47
ENDBRANCH  25  39
BRANCH  26  51
ATOM     51  C   UNL A   1      43.277  23.290  26.939  1.00  0.00     0.058 A 
ATOM     52  C   UNL A   1      43.191  22.813  25.625  1.00  0.00     0.135 A 
ATOM     53  C   UNL A   1      43.017  22.389  27.985  1.00  0.00     0.135 A 
ATOM     54  F   UNL A   1      43.428  23.639  24.595  1.00  0.00    -0.206 F 
ATOM     55  C   UNL A   1      42.874  21.486  25.355  1.00  0.00     0.059 A 
ATOM     56  C   UNL A   1      42.721  21.054  27.740  1.00  0.00     0.059 A 
ATOM     57  F   UNL A   1      43.106  22.797  29.261  1.00  0.00    -0.206 F 
ATOM     58  C   UNL A   1      42.652  20.610  26.420  1.00  0.00     0.060 A 
BRANCH  58  59
ATOM     59  S   UNL A   1      42.346  18.868  26.060  1.00  0.00     0.124 S 
ATOM     60  O   UNL A   1      43.311  18.614  24.996  1.00  0.00    -0.237 OA
ATOM     61  O   UNL A   1      42.630  18.235  27.344  1.00  0.00    -0.237 OA
ATOM     62  O   UNL A   1      40.943  18.849  25.659  1.00  0.00    -0.744 OA
ENDBRANCH  58  59
ENDBRANCH  26  51
BRANCH  38  63
ATOM     63  C   UNL A   1      49.408  26.643  26.618  1.00  0.00     0.058 A 
ATOM     64  C   UNL A   1      50.222  26.010  27.569  1.00  0.00     0.135 A 
ATOM     65  C   UNL A   1      49.904  26.778  25.311  1.00  0.00     0.135 A 
ATOM     66  F   UNL A   1      49.797  25.867  28.834  1.00  0.00    -0.206 F 
ATOM     67  C   UNL A   1      51.483  25.525  27.235  1.00  0.00     0.059 A 
ATOM     68  C   UNL A   1      51.152  26.281  24.950  1.00  0.00     0.059 A 
ATOM     69  F   UNL A   1      49.161  27.373  24.365  1.00  0.00    -0.206 F 
ATOM     70  C   UNL A   1      51.936  25.658  25.921  1.00  0.00     0.060 A 
BRANCH  70  71
ATOM     71  S   UNL A   1      53.543  24.960  25.482  1.00  0.00     0.124 S 
ATOM     72  O   UNL A   1      53.900  25.759  24.314  1.00  0.00    -0.237 OA
ATOM     73  O   UNL A   1      54.331  25.207  26.685  1.00  0.00    -0.237 OA
ATOM     74  O   UNL A   1      53.241  23.557  25.214  1.00  0.00    -0.744 OA
ENDBRANCH  70  71
ENDBRANCH  38  63
ENDBRANCH  12  13
ENDBRANCH   5   7
ENDBRANCH   2   3
ENDBRANCH   1   2
BRANCH   1  75
ATOM     75  C   UNL A   1      33.647  28.404  25.530  1.00  0.00     0.023 C 
BRANCH  75  76
ATOM     76  C   UNL A   1      33.288  28.835  24.112  1.00  0.00     0.116 C 
BRANCH  76  77
ATOM     77  N   UNL A   1      31.984  29.466  24.040  1.00  0.00    -0.354 N 
ATOM     78  C   UNL A   1      30.799  29.058  23.510  1.00  0.00     0.249 C 
ATOM     79  H   UNL A   1      31.949  30.359  24.452  1.00  0.00     0.163 HD
ATOM     80  O   UNL A   1      29.846  29.840  23.610  1.00  0.00    -0.272 OA
BRANCH  78  81
ATOM     81  C   UNL A   1      30.592  27.675  22.839  1.00  0.00     0.207 C 
ATOM     82  C   UNL A   1      29.718  26.799  23.751  1.00  0.00     0.045 C 
ATOM     83  O   UNL A   1      31.725  26.876  22.495  1.00  0.00    -0.363 OA
ATOM     84  C   UNL A   1      30.373  25.433  23.685  1.00  0.00     0.037 C 
ATOM     85  C   UNL A   1      31.816  25.827  23.476  1.00  0.00     0.138 C 
BRANCH  85  86
ATOM     86  C   UNL A   1      32.826  24.763  23.039  1.00  0.00     0.148 C 
BRANCH  86  87
ATOM     87  N   UNL A   1      32.268  23.513  22.549  1.00  0.00    -0.349 N 
ATOM     88  C   UNL A   1      32.375  22.233  23.022  1.00  0.00     0.252 C 
ATOM     89  H   UNL A   1      31.720  23.603  21.737  1.00  0.00     0.163 HD
ATOM     90  O   UNL A   1      31.789  21.324  22.441  1.00  0.00    -0.269 OA
BRANCH  88  91
ATOM     91  C   UNL A   1      33.151  21.934  24.239  1.00  0.00     0.059 A 
ATOM     92  C   UNL A   1      34.514  21.636  24.119  1.00  0.00     0.036 A 
ATOM     93  C   UNL A   1      32.573  22.074  25.509  1.00  0.00     0.053 A 
ATOM     94  C   UNL A   1      35.280  21.429  25.264  1.00  0.00     0.041 A 
ATOM     95  C   UNL A   1      33.359  21.886  26.652  1.00  0.00     0.023 A 
ATOM     96  Cl  UNL A   1      30.903  22.447  25.744  1.00  0.00    -0.083 Cl
ATOM     97  Cl  UNL A   1      36.945  21.027  25.115  1.00  0.00    -0.084 Cl
ATOM     98  C   UNL A   1      34.711  21.556  26.530  1.00  0.00     0.022 A 
ENDBRANCH  88  91
ENDBRANCH  86  87
ENDBRANCH  85  86
ENDBRANCH  78  81
ENDBRANCH  76  77
ENDBRANCH  75  76
ENDBRANCH   1  75
TORSDOF 17
ENDMDL
