MODEL 1
REMARK VINA RESULT:     -12.1      0.000      0.000
REMARK SMILES COc1cccc(-c2cc(OCC(=O)NCCCCNC(=O)c3ccc(-c4c5nc(c(-c6c(F)cc(S(=O)(=O)[O-])cc6F)c6ccc([nH]6)c(-c6c(F)cc(S(=O)(=O)[O-])cc6F)c6nc(c(-c7c(F)cc(S(=O)(=O)[O-])cc7F)c7ccc4[nH]7)C=C6)C=C5)cc3)nc(Nc3ccccc3Br)n2)c1
REMARK SMILES IDX 17 1 16 2 15 3 13 4 14 5 12 7 11 8 10 9 8 10 9 11 99 12
REMARK SMILES IDX 90 13 89 14 7 15 3 16 4 17 100 18 5 19 6 20 2 21 1 22 91 23
REMARK SMILES IDX 92 25 93 26 97 27 94 28 96 29 98 30 95 31 18 32 19 33 20 34
REMARK SMILES IDX 21 35 22 37 23 38 24 39 88 40 25 41 87 42 26 43 27 44 28 45
REMARK SMILES IDX 81 46 29 47 86 48 80 49 82 50 30 51 85 52 79 53 78 54 31 56
REMARK SMILES IDX 65 57 44 58 64 59 45 60 48 61 63 62 83 63 46 64 47 65 62 67
REMARK SMILES IDX 84 68 49 69 32 70 33 71 42 72 34 73 35 74 41 75 43 76 36 77
REMARK SMILES IDX 37 78 38 79 39 80 40 81 66 82 67 83 76 84 68 85 69 86 75 87
REMARK SMILES IDX 77 88 70 89 71 90 72 91 73 92 74 93 50 94 51 95 60 96 52 97
REMARK SMILES IDX 53 98 59 99 61 100 54 101 55 102 56 103 57 104 58 105
REMARK H PARENT 15 6 91 24 20 36 82 55 48 66
REMARK Flexibility Score: inf
ROOT
ATOM      1  C   UNL A   1      36.658  23.291  25.684  1.00  0.00     0.023 C 
ENDROOT
BRANCH   1   2
ATOM      2  C   UNL A   1      36.226  23.039  24.243  1.00  0.00     0.116 C 
BRANCH   2   3
ATOM      3  N   UNL A   1      35.257  21.967  24.137  1.00  0.00    -0.353 N 
ATOM      4  C   UNL A   1      33.898  22.052  24.184  1.00  0.00     0.258 C 
ATOM      5  O   UNL A   1      33.231  21.021  24.064  1.00  0.00    -0.271 OA
ATOM      6  H   UNL A   1      35.627  21.063  24.016  1.00  0.00     0.163 HD
BRANCH   4   7
ATOM      7  C   UNL A   1      33.224  23.418  24.371  1.00  0.00     0.331 C 
BRANCH   7   8
ATOM      8  O   UNL A   1      33.608  24.452  23.482  1.00  0.00    -0.467 OA
BRANCH   8   9
ATOM      9  C   UNL A   1      33.183  25.723  23.755  1.00  0.00     0.219 A 
ATOM     10  C   UNL A   1      33.133  27.775  24.863  1.00  0.00     0.080 A 
ATOM     11  C   UNL A   1      33.639  26.499  24.790  1.00  0.00     0.097 A 
ATOM     12  N   UNL A   1      32.204  28.229  24.009  1.00  0.00    -0.212 NA
ATOM     13  C   UNL A   1      31.814  27.412  23.022  1.00  0.00     0.231 A 
ATOM     14  N   UNL A   1      32.262  26.157  22.879  1.00  0.00    -0.177 NA
BRANCH  10  15
ATOM     15  C   UNL A   1      33.607  28.725  25.872  1.00  0.00     0.004 A 
ATOM     16  C   UNL A   1      33.283  30.778  27.144  1.00  0.00     0.119 A 
ATOM     17  C   UNL A   1      34.559  30.636  27.689  1.00  0.00     0.046 A 
ATOM     18  C   UNL A   1      32.818  29.836  26.227  1.00  0.00     0.056 A 
ATOM     19  C   UNL A   1      35.343  29.528  27.370  1.00  0.00     0.005 A 
ATOM     20  C   UNL A   1      34.862  28.570  26.476  1.00  0.00     0.010 A 
BRANCH  16  21
ATOM     21  O   UNL A   1      32.595  31.899  27.518  1.00  0.00    -0.497 OA
ATOM     22  C   UNL A   1      31.487  32.226  26.683  1.00  0.00     0.278 C 
ENDBRANCH  16  21
ENDBRANCH  10  15
BRANCH  13  23
ATOM     23  N   UNL A   1      30.857  27.844  22.109  1.00  0.00    -0.323 N 
ATOM     24  H   UNL A   1      30.944  27.493  21.193  1.00  0.00     0.170 HD
BRANCH  23  25
ATOM     25  C   UNL A   1      29.784  28.716  22.334  1.00  0.00     0.055 A 
ATOM     26  C   UNL A   1      29.874  30.019  21.816  1.00  0.00     0.027 A 
ATOM     27  C   UNL A   1      28.584  28.339  22.967  1.00  0.00     0.041 A 
ATOM     28  C   UNL A   1      28.794  30.903  21.889  1.00  0.00     0.002 A 
ATOM     29  C   UNL A   1      27.504  29.227  23.044  1.00  0.00     0.018 A 
ATOM     30  Br  UNL A   1      28.385  26.671  23.866  1.00  0.00    -0.049 Br
ATOM     31  C   UNL A   1      27.607  30.503  22.494  1.00  0.00     0.001 A 
ENDBRANCH  23  25
ENDBRANCH  13  23
ENDBRANCH   8   9
ENDBRANCH   7   8
ENDBRANCH   4   7
ENDBRANCH   2   3
ENDBRANCH   1   2
BRANCH   1  32
ATOM     32  C   UNL A   1      38.072  22.816  26.036  1.00  0.00     0.023 C 
BRANCH  32  33
ATOM     33  C   UNL A   1      38.947  23.820  26.784  1.00  0.00     0.116 C 
BRANCH  33  34
ATOM     34  N   UNL A   1      39.989  24.401  25.955  1.00  0.00    -0.352 N 
ATOM     35  C   UNL A   1      40.737  25.535  26.149  1.00  0.00     0.251 C 
ATOM     36  H   UNL A   1      40.189  23.906  25.128  1.00  0.00     0.163 HD
ATOM     37  O   UNL A   1      41.498  25.907  25.253  1.00  0.00    -0.269 OA
BRANCH  35  38
ATOM     38  C   UNL A   1      40.621  26.328  27.393  1.00  0.00     0.039 A 
ATOM     39  C   UNL A   1      41.475  27.422  27.565  1.00  0.00     0.014 A 
ATOM     40  C   UNL A   1      39.705  26.001  28.398  1.00  0.00     0.014 A 
ATOM     41  C   UNL A   1      41.373  28.213  28.712  1.00  0.00     0.010 A 
ATOM     42  C   UNL A   1      39.553  26.837  29.506  1.00  0.00     0.010 A 
ATOM     43  C   UNL A   1      40.389  27.948  29.679  1.00  0.00    -0.014 A 
BRANCH  43  44
ATOM     44  C   UNL A   1      40.228  28.848  30.853  1.00  0.00     0.031 A 
ATOM     45  C   UNL A   1      41.113  28.712  32.062  1.00  0.00     0.074 A 
ATOM     46  C   UNL A   1      39.263  29.789  30.834  1.00  0.00     0.049 A 
ATOM     47  N   UNL A   1      41.160  29.456  33.140  1.00  0.00    -0.248 NA
ATOM     48  C   UNL A   1      42.050  27.580  32.076  1.00  0.00     0.031 C 
ATOM     49  C   UNL A   1      38.299  29.984  29.749  1.00  0.00     0.029 A 
ATOM     50  N   UNL A   1      38.941  30.765  31.743  1.00  0.00    -0.354 N 
ATOM     51  C   UNL A   1      42.130  28.885  33.955  1.00  0.00     0.074 A 
ATOM     52  C   UNL A   1      42.595  27.693  33.279  1.00  0.00     0.031 C 
ATOM     53  C   UNL A   1      37.534  31.051  30.027  1.00  0.00     0.029 A 
ATOM     54  C   UNL A   1      37.930  31.597  31.321  1.00  0.00     0.049 A 
ATOM     55  H   UNL A   1      39.391  30.861  32.613  1.00  0.00     0.167 HD
ATOM     56  C   UNL A   1      42.610  29.326  35.145  1.00  0.00     0.037 A 
ATOM     57  C   UNL A   1      37.398  32.690  31.900  1.00  0.00     0.037 A 
ATOM     58  C   UNL A   1      42.142  30.512  35.816  1.00  0.00     0.049 A 
ATOM     59  C   UNL A   1      37.945  33.165  33.217  1.00  0.00     0.074 A 
ATOM     60  C   UNL A   1      42.589  31.069  37.002  1.00  0.00     0.029 A 
ATOM     61  N   UNL A   1      41.108  31.323  35.364  1.00  0.00    -0.354 N 
ATOM     62  N   UNL A   1      38.912  32.655  33.942  1.00  0.00    -0.248 NA
ATOM     63  C   UNL A   1      37.336  34.374  33.786  1.00  0.00     0.031 C 
ATOM     64  C   UNL A   1      41.797  32.187  37.290  1.00  0.00     0.029 A 
ATOM     65  C   UNL A   1      40.890  32.362  36.256  1.00  0.00     0.049 A 
ATOM     66  H   UNL A   1      40.604  31.181  34.531  1.00  0.00     0.167 HD
ATOM     67  C   UNL A   1      39.048  33.497  35.040  1.00  0.00     0.074 A 
ATOM     68  C   UNL A   1      38.072  34.556  34.874  1.00  0.00     0.031 C 
ATOM     69  C   UNL A   1      39.907  33.404  36.088  1.00  0.00     0.037 A 
BRANCH  56  70
ATOM     70  C   UNL A   1      43.698  28.506  35.792  1.00  0.00     0.058 A 
ATOM     71  C   UNL A   1      45.059  28.771  35.559  1.00  0.00     0.135 A 
ATOM     72  C   UNL A   1      43.381  27.434  36.640  1.00  0.00     0.135 A 
ATOM     73  F   UNL A   1      45.424  29.778  34.749  1.00  0.00    -0.206 F 
ATOM     74  C   UNL A   1      46.062  27.968  36.095  1.00  0.00     0.059 A 
ATOM     75  C   UNL A   1      44.369  26.636  37.214  1.00  0.00     0.059 A 
ATOM     76  F   UNL A   1      42.099  27.137  36.907  1.00  0.00    -0.206 F 
ATOM     77  C   UNL A   1      45.705  26.895  36.912  1.00  0.00     0.060 A 
BRANCH  77  78
ATOM     78  S   UNL A   1      47.012  25.830  37.559  1.00  0.00     0.124 S 
ATOM     79  O   UNL A   1      46.904  24.671  36.676  1.00  0.00    -0.237 OA
ATOM     80  O   UNL A   1      48.204  26.652  37.380  1.00  0.00    -0.237 OA
ATOM     81  O   UNL A   1      46.612  25.603  38.943  1.00  0.00    -0.744 OA
ENDBRANCH  77  78
ENDBRANCH  56  70
BRANCH  57  82
ATOM     82  C   UNL A   1      36.332  33.450  31.192  1.00  0.00     0.058 A 
ATOM     83  C   UNL A   1      35.022  33.477  31.692  1.00  0.00     0.135 A 
ATOM     84  C   UNL A   1      36.610  34.199  30.040  1.00  0.00     0.135 A 
ATOM     85  F   UNL A   1      34.707  32.771  32.789  1.00  0.00    -0.206 F 
ATOM     86  C   UNL A   1      34.021  34.219  31.074  1.00  0.00     0.059 A 
ATOM     87  C   UNL A   1      35.632  34.968  29.416  1.00  0.00     0.059 A 
ATOM     88  F   UNL A   1      37.852  34.218  29.532  1.00  0.00    -0.206 F 
ATOM     89  C   UNL A   1      34.339  34.968  29.940  1.00  0.00     0.060 A 
BRANCH  89  90
ATOM     90  S   UNL A   1      33.051  35.992  29.194  1.00  0.00     0.124 S 
ATOM     91  O   UNL A   1      32.377  35.032  28.328  1.00  0.00    -0.237 OA
ATOM     92  O   UNL A   1      32.299  36.437  30.363  1.00  0.00    -0.237 OA
ATOM     93  O   UNL A   1      33.807  37.037  28.510  1.00  0.00    -0.744 OA
ENDBRANCH  89  90
ENDBRANCH  57  82
BRANCH  69  94
ATOM     94  C   UNL A   1      39.845  34.500  37.120  1.00  0.00     0.058 A 
ATOM     95  C   UNL A   1      40.651  35.647  37.034  1.00  0.00     0.135 A 
ATOM     96  C   UNL A   1      38.969  34.398  38.212  1.00  0.00     0.135 A 
ATOM     97  F   UNL A   1      41.509  35.795  36.012  1.00  0.00    -0.206 F 
ATOM     98  C   UNL A   1      40.626  36.629  38.021  1.00  0.00     0.059 A 
ATOM     99  C   UNL A   1      38.904  35.382  39.194  1.00  0.00     0.059 A 
ATOM    100  F   UNL A   1      38.165  33.330  38.337  1.00  0.00    -0.206 F 
ATOM    101  C   UNL A   1      39.754  36.483  39.101  1.00  0.00     0.060 A 
BRANCH 101 102
ATOM    102  S   UNL A   1      39.742  37.754  40.383  1.00  0.00     0.124 S 
ATOM    103  O   UNL A   1      39.902  36.952  41.592  1.00  0.00    -0.237 OA
ATOM    104  O   UNL A   1      40.887  38.583  40.016  1.00  0.00    -0.237 OA
ATOM    105  O   UNL A   1      38.438  38.389  40.218  1.00  0.00    -0.744 OA
ENDBRANCH 101 102
ENDBRANCH  69  94
ENDBRANCH  43  44
ENDBRANCH  35  38
ENDBRANCH  33  34
ENDBRANCH  32  33
ENDBRANCH   1  32
TORSDOF 20
ENDMDL
MODEL 2
REMARK VINA RESULT:     -11.8      1.193      3.345
REMARK SMILES COc1cccc(-c2cc(OCC(=O)NCCCCNC(=O)c3ccc(-c4c5nc(c(-c6c(F)cc(S(=O)(=O)[O-])cc6F)c6ccc([nH]6)c(-c6c(F)cc(S(=O)(=O)[O-])cc6F)c6nc(c(-c7c(F)cc(S(=O)(=O)[O-])cc7F)c7ccc4[nH]7)C=C6)C=C5)cc3)nc(Nc3ccccc3Br)n2)c1
REMARK SMILES IDX 17 1 16 2 15 3 13 4 14 5 12 7 11 8 10 9 8 10 9 11 99 12
REMARK SMILES IDX 90 13 89 14 7 15 3 16 4 17 100 18 5 19 6 20 2 21 1 22 91 23
REMARK SMILES IDX 92 25 93 26 97 27 94 28 96 29 98 30 95 31 18 32 19 33 20 34
REMARK SMILES IDX 21 35 22 37 23 38 24 39 88 40 25 41 87 42 26 43 27 44 28 45
REMARK SMILES IDX 81 46 29 47 86 48 80 49 82 50 30 51 85 52 79 53 78 54 31 56
REMARK SMILES IDX 65 57 44 58 64 59 45 60 48 61 63 62 83 63 46 64 47 65 62 67
REMARK SMILES IDX 84 68 49 69 32 70 33 71 42 72 34 73 35 74 41 75 43 76 36 77
REMARK SMILES IDX 37 78 38 79 39 80 40 81 66 82 67 83 76 84 68 85 69 86 75 87
REMARK SMILES IDX 77 88 70 89 71 90 72 91 73 92 74 93 50 94 51 95 60 96 52 97
REMARK SMILES IDX 53 98 59 99 61 100 54 101 55 102 56 103 57 104 58 105
REMARK H PARENT 15 6 91 24 20 36 82 55 48 66
REMARK Flexibility Score: inf
ROOT
ATOM      1  C   UNL A   1      37.221  22.399  25.744  1.00  0.00     0.023 C 
ENDROOT
BRANCH   1   2
ATOM      2  C   UNL A   1      36.792  23.342  24.625  1.00  0.00     0.116 C 
BRANCH   2   3
ATOM      3  N   UNL A   1      35.706  22.799  23.833  1.00  0.00    -0.353 N 
ATOM      4  C   UNL A   1      34.607  23.447  23.354  1.00  0.00     0.258 C 
ATOM      5  O   UNL A   1      33.788  22.816  22.683  1.00  0.00    -0.271 OA
ATOM      6  H   UNL A   1      35.771  21.842  23.613  1.00  0.00     0.163 HD
BRANCH   4   7
ATOM      7  C   UNL A   1      34.415  24.941  23.644  1.00  0.00     0.331 C 
BRANCH   7   8
ATOM      8  O   UNL A   1      33.545  25.658  22.784  1.00  0.00    -0.467 OA
BRANCH   8   9
ATOM      9  C   UNL A   1      32.771  26.642  23.332  1.00  0.00     0.219 A 
ATOM     10  C   UNL A   1      31.031  28.193  23.435  1.00  0.00     0.080 A 
ATOM     11  C   UNL A   1      31.731  27.270  22.695  1.00  0.00     0.097 A 
ATOM     12  N   UNL A   1      31.372  28.512  24.693  1.00  0.00    -0.212 NA
ATOM     13  C   UNL A   1      32.396  27.850  25.246  1.00  0.00     0.231 A 
ATOM     14  N   UNL A   1      33.125  26.934  24.594  1.00  0.00    -0.177 NA
BRANCH  10  15
ATOM     15  C   UNL A   1      29.849  28.864  22.893  1.00  0.00     0.004 A 
ATOM     16  C   UNL A   1      28.865  30.727  21.666  1.00  0.00     0.119 A 
ATOM     17  C   UNL A   1      27.592  30.250  21.973  1.00  0.00     0.046 A 
ATOM     18  C   UNL A   1      29.987  30.046  22.139  1.00  0.00     0.056 A 
ATOM     19  C   UNL A   1      27.436  29.067  22.694  1.00  0.00     0.005 A 
ATOM     20  C   UNL A   1      28.560  28.371  23.140  1.00  0.00     0.010 A 
BRANCH  16  21
ATOM     21  O   UNL A   1      28.911  31.894  20.955  1.00  0.00    -0.497 OA
ATOM     22  C   UNL A   1      27.717  32.206  20.241  1.00  0.00     0.278 C 
ENDBRANCH  16  21
ENDBRANCH  10  15
BRANCH  13  23
ATOM     23  N   UNL A   1      32.780  28.144  26.551  1.00  0.00    -0.323 N 
ATOM     24  H   UNL A   1      32.406  27.563  27.253  1.00  0.00     0.170 HD
BRANCH  23  25
ATOM     25  C   UNL A   1      33.634  29.165  26.988  1.00  0.00     0.055 A 
ATOM     26  C   UNL A   1      34.959  28.824  27.308  1.00  0.00     0.027 A 
ATOM     27  C   UNL A   1      33.272  30.525  27.039  1.00  0.00     0.041 A 
ATOM     28  C   UNL A   1      35.901  29.805  27.629  1.00  0.00     0.002 A 
ATOM     29  C   UNL A   1      34.216  31.507  27.364  1.00  0.00     0.018 A 
ATOM     30  Br  UNL A   1      31.475  31.112  26.801  1.00  0.00    -0.049 Br
ATOM     31  C   UNL A   1      35.532  31.147  27.647  1.00  0.00     0.001 A 
ENDBRANCH  23  25
ENDBRANCH  13  23
ENDBRANCH   8   9
ENDBRANCH   7   8
ENDBRANCH   4   7
ENDBRANCH   2   3
ENDBRANCH   1   2
BRANCH   1  32
ATOM     32  C   UNL A   1      38.648  22.605  26.263  1.00  0.00     0.023 C 
BRANCH  32  33
ATOM     33  C   UNL A   1      39.028  24.040  26.624  1.00  0.00     0.116 C 
BRANCH  33  34
ATOM     34  N   UNL A   1      40.169  24.536  25.876  1.00  0.00    -0.352 N 
ATOM     35  C   UNL A   1      41.007  25.589  26.145  1.00  0.00     0.251 C 
ATOM     36  H   UNL A   1      40.374  24.042  25.049  1.00  0.00     0.163 HD
ATOM     37  O   UNL A   1      41.854  25.906  25.306  1.00  0.00    -0.269 OA
BRANCH  35  38
ATOM     38  C   UNL A   1      40.888  26.363  27.401  1.00  0.00     0.039 A 
ATOM     39  C   UNL A   1      41.636  27.538  27.529  1.00  0.00     0.014 A 
ATOM     40  C   UNL A   1      40.074  25.942  28.457  1.00  0.00     0.014 A 
ATOM     41  C   UNL A   1      41.526  28.312  28.687  1.00  0.00     0.010 A 
ATOM     42  C   UNL A   1      39.907  26.756  29.579  1.00  0.00     0.010 A 
ATOM     43  C   UNL A   1      40.635  27.946  29.710  1.00  0.00    -0.014 A 
BRANCH  43  44
ATOM     44  C   UNL A   1      40.457  28.821  30.900  1.00  0.00     0.031 A 
ATOM     45  C   UNL A   1      41.342  28.680  32.108  1.00  0.00     0.074 A 
ATOM     46  C   UNL A   1      39.475  29.745  30.896  1.00  0.00     0.049 A 
ATOM     47  N   UNL A   1      41.374  29.405  33.199  1.00  0.00    -0.248 NA
ATOM     48  C   UNL A   1      42.300  27.564  32.103  1.00  0.00     0.031 C 
ATOM     49  C   UNL A   1      38.509  29.942  29.813  1.00  0.00     0.029 A 
ATOM     50  N   UNL A   1      39.134  30.699  31.821  1.00  0.00    -0.354 N 
ATOM     51  C   UNL A   1      42.353  28.837  34.005  1.00  0.00     0.074 A 
ATOM     52  C   UNL A   1      42.840  27.666  33.309  1.00  0.00     0.031 C 
ATOM     53  C   UNL A   1      37.725  30.991  30.108  1.00  0.00     0.029 A 
ATOM     54  C   UNL A   1      38.110  31.520  31.413  1.00  0.00     0.049 A 
ATOM     55  H   UNL A   1      39.582  30.788  32.694  1.00  0.00     0.167 HD
ATOM     56  C   UNL A   1      42.824  29.266  35.203  1.00  0.00     0.037 A 
ATOM     57  C   UNL A   1      37.557  32.593  32.010  1.00  0.00     0.037 A 
ATOM     58  C   UNL A   1      42.334  30.431  35.895  1.00  0.00     0.049 A 
ATOM     59  C   UNL A   1      38.094  33.055  33.336  1.00  0.00     0.074 A 
ATOM     60  C   UNL A   1      42.769  30.975  37.091  1.00  0.00     0.029 A 
ATOM     61  N   UNL A   1      41.287  31.232  35.455  1.00  0.00    -0.354 N 
ATOM     62  N   UNL A   1      39.068  32.549  34.054  1.00  0.00    -0.248 NA
ATOM     63  C   UNL A   1      37.463  34.242  33.925  1.00  0.00     0.031 C 
ATOM     64  C   UNL A   1      41.957  32.073  37.397  1.00  0.00     0.029 A 
ATOM     65  C   UNL A   1      41.049  32.250  36.365  1.00  0.00     0.049 A 
ATOM     66  H   UNL A   1      40.786  31.095  34.619  1.00  0.00     0.167 HD
ATOM     67  C   UNL A   1      39.189  33.374  35.167  1.00  0.00     0.074 A 
ATOM     68  C   UNL A   1      38.194  34.418  35.017  1.00  0.00     0.031 C 
ATOM     69  C   UNL A   1      40.048  33.278  36.214  1.00  0.00     0.037 A 
BRANCH  56  70
ATOM     70  C   UNL A   1      43.926  28.454  35.837  1.00  0.00     0.058 A 
ATOM     71  C   UNL A   1      45.280  28.691  35.543  1.00  0.00     0.135 A 
ATOM     72  C   UNL A   1      43.627  27.417  36.736  1.00  0.00     0.135 A 
ATOM     73  F   UNL A   1      45.626  29.663  34.684  1.00  0.00    -0.206 F 
ATOM     74  C   UNL A   1      46.292  27.893  36.069  1.00  0.00     0.059 A 
ATOM     75  C   UNL A   1      44.627  26.627  37.299  1.00  0.00     0.059 A 
ATOM     76  F   UNL A   1      42.354  27.149  37.062  1.00  0.00    -0.206 F 
ATOM     77  C   UNL A   1      45.954  26.855  36.938  1.00  0.00     0.060 A 
BRANCH  77  78
ATOM     78  S   UNL A   1      47.270  25.796  37.573  1.00  0.00     0.124 S 
ATOM     79  O   UNL A   1      47.296  26.179  38.982  1.00  0.00    -0.237 OA
ATOM     80  O   UNL A   1      46.761  24.458  37.292  1.00  0.00    -0.237 OA
ATOM     81  O   UNL A   1      48.436  26.197  36.793  1.00  0.00    -0.744 OA
ENDBRANCH  77  78
ENDBRANCH  56  70
BRANCH  57  82
ATOM     82  C   UNL A   1      36.479  33.346  31.314  1.00  0.00     0.058 A 
ATOM     83  C   UNL A   1      36.757  34.082  30.153  1.00  0.00     0.135 A 
ATOM     84  C   UNL A   1      35.150  33.306  31.762  1.00  0.00     0.135 A 
ATOM     85  F   UNL A   1      38.013  34.155  29.689  1.00  0.00    -0.206 F 
ATOM     86  C   UNL A   1      35.756  34.755  29.460  1.00  0.00     0.059 A 
ATOM     87  C   UNL A   1      34.128  33.951  31.073  1.00  0.00     0.059 A 
ATOM     88  F   UNL A   1      34.831  32.602  32.860  1.00  0.00    -0.206 F 
ATOM     89  C   UNL A   1      34.442  34.676  29.924  1.00  0.00     0.060 A 
BRANCH  89  90
ATOM     90  S   UNL A   1      33.140  35.485  28.969  1.00  0.00     0.124 S 
ATOM     91  O   UNL A   1      33.906  36.445  28.181  1.00  0.00    -0.237 OA
ATOM     92  O   UNL A   1      32.563  34.367  28.229  1.00  0.00    -0.237 OA
ATOM     93  O   UNL A   1      32.277  36.058  29.997  1.00  0.00    -0.744 OA
ENDBRANCH  89  90
ENDBRANCH  57  82
BRANCH  69  94
ATOM     94  C   UNL A   1      39.965  34.354  37.265  1.00  0.00     0.058 A 
ATOM     95  C   UNL A   1      39.183  34.204  38.422  1.00  0.00     0.135 A 
ATOM     96  C   UNL A   1      40.677  35.554  37.109  1.00  0.00     0.135 A 
ATOM     97  F   UNL A   1      38.479  33.077  38.620  1.00  0.00    -0.206 F 
ATOM     98  C   UNL A   1      39.070  35.225  39.361  1.00  0.00     0.059 A 
ATOM     99  C   UNL A   1      40.604  36.576  38.051  1.00  0.00     0.059 A 
ATOM    100  F   UNL A   1      41.452  35.747  36.030  1.00  0.00    -0.206 F 
ATOM    101  C   UNL A   1      39.779  36.410  39.162  1.00  0.00     0.060 A 
BRANCH 101 102
ATOM    102  S   UNL A   1      39.612  37.735  40.378  1.00  0.00     0.124 S 
ATOM    103  O   UNL A   1      38.693  38.642  39.698  1.00  0.00    -0.237 OA
ATOM    104  O   UNL A   1      39.068  37.033  41.536  1.00  0.00    -0.237 OA
ATOM    105  O   UNL A   1      40.978  38.225  40.535  1.00  0.00    -0.744 OA
ENDBRANCH 101 102
ENDBRANCH  69  94
ENDBRANCH  43  44
ENDBRANCH  35  38
ENDBRANCH  33  34
ENDBRANCH  32  33
ENDBRANCH   1  32
TORSDOF 20
ENDMDL
MODEL 3
REMARK VINA RESULT:     -11.6      2.029      4.537
REMARK SMILES COc1cccc(-c2cc(OCC(=O)NCCCCNC(=O)c3ccc(-c4c5nc(c(-c6c(F)cc(S(=O)(=O)[O-])cc6F)c6ccc([nH]6)c(-c6c(F)cc(S(=O)(=O)[O-])cc6F)c6nc(c(-c7c(F)cc(S(=O)(=O)[O-])cc7F)c7ccc4[nH]7)C=C6)C=C5)cc3)nc(Nc3ccccc3Br)n2)c1
REMARK SMILES IDX 17 1 16 2 15 3 13 4 14 5 12 7 11 8 10 9 8 10 9 11 99 12
REMARK SMILES IDX 90 13 89 14 7 15 3 16 4 17 100 18 5 19 6 20 2 21 1 22 91 23
REMARK SMILES IDX 92 25 93 26 97 27 94 28 96 29 98 30 95 31 18 32 19 33 20 34
REMARK SMILES IDX 21 35 22 37 23 38 24 39 88 40 25 41 87 42 26 43 27 44 28 45
REMARK SMILES IDX 81 46 29 47 86 48 80 49 82 50 30 51 85 52 79 53 78 54 31 56
REMARK SMILES IDX 65 57 44 58 64 59 45 60 48 61 63 62 83 63 46 64 47 65 62 67
REMARK SMILES IDX 84 68 49 69 32 70 33 71 42 72 34 73 35 74 41 75 43 76 36 77
REMARK SMILES IDX 37 78 38 79 39 80 40 81 66 82 67 83 76 84 68 85 69 86 75 87
REMARK SMILES IDX 77 88 70 89 71 90 72 91 73 92 74 93 50 94 51 95 60 96 52 97
REMARK SMILES IDX 53 98 59 99 61 100 54 101 55 102 56 103 57 104 58 105
REMARK H PARENT 15 6 91 24 20 36 82 55 48 66
REMARK Flexibility Score: inf
ROOT
ATOM      1  C   UNL A   1      40.630  21.960  26.540  1.00  0.00     0.023 C 
ENDROOT
BRANCH   1   2
ATOM      2  C   UNL A   1      39.184  22.426  26.681  1.00  0.00     0.116 C 
BRANCH   2   3
ATOM      3  N   UNL A   1      38.621  22.863  25.419  1.00  0.00    -0.353 N 
ATOM      4  C   UNL A   1      37.374  23.356  25.179  1.00  0.00     0.258 C 
ATOM      5  O   UNL A   1      37.075  23.689  24.030  1.00  0.00    -0.271 OA
ATOM      6  H   UNL A   1      39.214  22.795  24.637  1.00  0.00     0.163 HD
BRANCH   4   7
ATOM      7  C   UNL A   1      36.374  23.500  26.334  1.00  0.00     0.331 C 
BRANCH   7   8
ATOM      8  O   UNL A   1      35.034  23.808  25.991  1.00  0.00    -0.467 OA
BRANCH   8   9
ATOM      9  C   UNL A   1      34.309  22.860  25.324  1.00  0.00     0.219 A 
ATOM     10  C   UNL A   1      33.661  20.712  24.684  1.00  0.00     0.080 A 
ATOM     11  C   UNL A   1      34.539  21.510  25.379  1.00  0.00     0.097 A 
ATOM     12  N   UNL A   1      32.665  21.219  23.943  1.00  0.00    -0.212 NA
ATOM     13  C   UNL A   1      32.501  22.548  23.944  1.00  0.00     0.231 A 
ATOM     14  N   UNL A   1      33.310  23.392  24.598  1.00  0.00    -0.177 NA
BRANCH  10  15
ATOM     15  C   UNL A   1      33.754  19.252  24.738  1.00  0.00     0.004 A 
ATOM     16  C   UNL A   1      32.808  17.107  25.405  1.00  0.00     0.119 A 
ATOM     17  C   UNL A   1      33.975  16.469  24.989  1.00  0.00     0.046 A 
ATOM     18  C   UNL A   1      32.706  18.494  25.296  1.00  0.00     0.056 A 
ATOM     19  C   UNL A   1      35.011  17.199  24.410  1.00  0.00     0.005 A 
ATOM     20  C   UNL A   1      34.894  18.584  24.272  1.00  0.00     0.010 A 
BRANCH  16  21
ATOM     21  O   UNL A   1      31.852  16.303  25.961  1.00  0.00    -0.497 OA
ATOM     22  C   UNL A   1      32.109  14.905  25.848  1.00  0.00     0.278 C 
ENDBRANCH  16  21
ENDBRANCH  10  15
BRANCH  13  23
ATOM     23  N   UNL A   1      31.476  23.115  23.195  1.00  0.00    -0.323 N 
ATOM     24  H   UNL A   1      31.002  22.508  22.581  1.00  0.00     0.170 HD
BRANCH  23  25
ATOM     25  C   UNL A   1      31.035  24.445  23.206  1.00  0.00     0.055 A 
ATOM     26  C   UNL A   1      30.055  24.806  24.146  1.00  0.00     0.027 A 
ATOM     27  C   UNL A   1      31.579  25.461  22.397  1.00  0.00     0.041 A 
ATOM     28  C   UNL A   1      29.659  26.137  24.303  1.00  0.00     0.002 A 
ATOM     29  C   UNL A   1      31.178  26.793  22.552  1.00  0.00     0.018 A 
ATOM     30  Br  UNL A   1      32.783  25.091  20.967  1.00  0.00    -0.049 Br
ATOM     31  C   UNL A   1      30.227  27.131  23.513  1.00  0.00     0.001 A 
ENDBRANCH  23  25
ENDBRANCH  13  23
ENDBRANCH   8   9
ENDBRANCH   7   8
ENDBRANCH   4   7
ENDBRANCH   2   3
ENDBRANCH   1   2
BRANCH   1  32
ATOM     32  C   UNL A   1      41.569  22.387  27.673  1.00  0.00     0.023 C 
BRANCH  32  33
ATOM     33  C   UNL A   1      42.692  23.345  27.285  1.00  0.00     0.116 C 
BRANCH  33  34
ATOM     34  N   UNL A   1      42.365  24.178  26.141  1.00  0.00    -0.352 N 
ATOM     35  C   UNL A   1      41.844  25.446  26.097  1.00  0.00     0.251 C 
ATOM     36  H   UNL A   1      42.544  23.770  25.263  1.00  0.00     0.163 HD
ATOM     37  O   UNL A   1      41.537  25.927  25.003  1.00  0.00    -0.269 OA
BRANCH  35  38
ATOM     38  C   UNL A   1      41.618  26.227  27.333  1.00  0.00     0.039 A 
ATOM     39  C   UNL A   1      42.521  27.246  27.650  1.00  0.00     0.014 A 
ATOM     40  C   UNL A   1      40.547  25.960  28.193  1.00  0.00     0.014 A 
ATOM     41  C   UNL A   1      42.322  28.025  28.792  1.00  0.00     0.010 A 
ATOM     42  C   UNL A   1      40.307  26.788  29.291  1.00  0.00     0.010 A 
ATOM     43  C   UNL A   1      41.194  27.826  29.606  1.00  0.00    -0.014 A 
BRANCH  43  44
ATOM     44  C   UNL A   1      40.941  28.718  30.771  1.00  0.00     0.031 A 
ATOM     45  C   UNL A   1      41.804  28.652  32.001  1.00  0.00     0.074 A 
ATOM     46  C   UNL A   1      39.911  29.586  30.723  1.00  0.00     0.049 A 
ATOM     47  N   UNL A   1      41.772  29.404  33.074  1.00  0.00    -0.248 NA
ATOM     48  C   UNL A   1      42.821  27.591  32.044  1.00  0.00     0.031 C 
ATOM     49  C   UNL A   1      38.961  29.705  29.614  1.00  0.00     0.029 A 
ATOM     50  N   UNL A   1      39.498  30.541  31.617  1.00  0.00    -0.354 N 
ATOM     51  C   UNL A   1      42.761  28.909  33.916  1.00  0.00     0.074 A 
ATOM     52  C   UNL A   1      43.327  27.750  33.259  1.00  0.00     0.031 C 
ATOM     53  C   UNL A   1      38.115  30.716  29.867  1.00  0.00     0.029 A 
ATOM     54  C   UNL A   1      38.440  31.295  31.167  1.00  0.00     0.049 A 
ATOM     55  H   UNL A   1      39.919  30.674  32.497  1.00  0.00     0.167 HD
ATOM     56  C   UNL A   1      43.180  29.389  35.113  1.00  0.00     0.037 A 
ATOM     57  C   UNL A   1      37.816  32.350  31.725  1.00  0.00     0.037 A 
ATOM     58  C   UNL A   1      42.611  30.542  35.766  1.00  0.00     0.049 A 
ATOM     59  C   UNL A   1      38.297  32.870  33.051  1.00  0.00     0.074 A 
ATOM     60  C   UNL A   1      42.989  31.136  36.958  1.00  0.00     0.029 A 
ATOM     61  N   UNL A   1      41.533  31.273  35.284  1.00  0.00    -0.354 N 
ATOM     62  N   UNL A   1      39.280  32.435  33.802  1.00  0.00    -0.248 NA
ATOM     63  C   UNL A   1      37.589  34.035  33.598  1.00  0.00     0.031 C 
ATOM     64  C   UNL A   1      42.111  32.195  37.219  1.00  0.00     0.029 A 
ATOM     65  C   UNL A   1      41.219  32.298  36.164  1.00  0.00     0.049 A 
ATOM     66  H   UNL A   1      41.060  31.091  34.440  1.00  0.00     0.167 HD
ATOM     67  C   UNL A   1      39.329  33.291  34.897  1.00  0.00     0.074 A 
ATOM     68  C   UNL A   1      38.284  34.275  34.701  1.00  0.00     0.031 C 
ATOM     69  C   UNL A   1      40.168  33.265  35.965  1.00  0.00     0.037 A 
BRANCH  56  70
ATOM     70  C   UNL A   1      44.309  28.654  35.791  1.00  0.00     0.058 A 
ATOM     71  C   UNL A   1      44.068  27.621  36.713  1.00  0.00     0.135 A 
ATOM     72  C   UNL A   1      45.646  28.996  35.531  1.00  0.00     0.135 A 
ATOM     73  F   UNL A   1      42.810  27.257  37.009  1.00  0.00    -0.206 F 
ATOM     74  C   UNL A   1      45.107  26.994  37.396  1.00  0.00     0.059 A 
ATOM     75  C   UNL A   1      46.703  28.359  36.179  1.00  0.00     0.059 A 
ATOM     76  F   UNL A   1      45.940  29.968  34.655  1.00  0.00    -0.206 F 
ATOM     77  C   UNL A   1      46.422  27.379  37.129  1.00  0.00     0.060 A 
BRANCH  77  78
ATOM     78  S   UNL A   1      47.756  26.595  38.058  1.00  0.00     0.124 S 
ATOM     79  O   UNL A   1      47.905  25.332  37.339  1.00  0.00    -0.237 OA
ATOM     80  O   UNL A   1      48.851  27.545  37.898  1.00  0.00    -0.237 OA
ATOM     81  O   UNL A   1      47.214  26.487  39.408  1.00  0.00    -0.744 OA
ENDBRANCH  77  78
ENDBRANCH  56  70
BRANCH  57  82
ATOM     82  C   UNL A   1      36.716  33.027  30.988  1.00  0.00     0.058 A 
ATOM     83  C   UNL A   1      35.376  32.794  31.332  1.00  0.00     0.135 A 
ATOM     84  C   UNL A   1      36.979  33.950  29.966  1.00  0.00     0.135 A 
ATOM     85  F   UNL A   1      35.075  31.915  32.299  1.00  0.00    -0.206 F 
ATOM     86  C   UNL A   1      34.333  33.452  30.688  1.00  0.00     0.059 A 
ATOM     87  C   UNL A   1      35.954  34.639  29.323  1.00  0.00     0.059 A 
ATOM     88  F   UNL A   1      38.245  34.219  29.610  1.00  0.00    -0.206 F 
ATOM     89  C   UNL A   1      34.634  34.379  29.689  1.00  0.00     0.060 A 
BRANCH  89  90
ATOM     90  S   UNL A   1      33.276  35.287  28.918  1.00  0.00     0.124 S 
ATOM     91  O   UNL A   1      32.668  34.255  28.086  1.00  0.00    -0.237 OA
ATOM     92  O   UNL A   1      32.498  35.715  30.076  1.00  0.00    -0.237 OA
ATOM     93  O   UNL A   1      33.956  36.359  28.198  1.00  0.00    -0.744 OA
ENDBRANCH  89  90
ENDBRANCH  57  82
BRANCH  69  94
ATOM     94  C   UNL A   1      40.002  34.359  36.988  1.00  0.00     0.058 A 
ATOM     95  C   UNL A   1      40.706  35.572  36.900  1.00  0.00     0.135 A 
ATOM     96  C   UNL A   1      39.128  34.189  38.074  1.00  0.00     0.135 A 
ATOM     97  F   UNL A   1      41.557  35.786  35.883  1.00  0.00    -0.206 F 
ATOM     98  C   UNL A   1      40.587  36.554  37.878  1.00  0.00     0.059 A 
ATOM     99  C   UNL A   1      38.970  35.172  39.047  1.00  0.00     0.059 A 
ATOM    100  F   UNL A   1      38.419  33.057  38.201  1.00  0.00    -0.206 F 
ATOM    101  C   UNL A   1      39.723  36.341  38.952  1.00  0.00     0.060 A 
BRANCH 101 102
ATOM    102  S   UNL A   1      39.589  37.615  40.225  1.00  0.00     0.124 S 
ATOM    103  O   UNL A   1      38.209  38.055  40.056  1.00  0.00    -0.237 OA
ATOM    104  O   UNL A   1      39.872  36.870  41.448  1.00  0.00    -0.237 OA
ATOM    105  O   UNL A   1      40.611  38.586  39.840  1.00  0.00    -0.744 OA
ENDBRANCH 101 102
ENDBRANCH  69  94
ENDBRANCH  43  44
ENDBRANCH  35  38
ENDBRANCH  33  34
ENDBRANCH  32  33
ENDBRANCH   1  32
TORSDOF 20
ENDMDL
