MODEL 1
REMARK VINA RESULT:     -11.2      0.000      0.000
REMARK SMILES O=C(CC1(CC(=O)NNc2ccc([N+](=O)[O-])cc2)CCCC1)NCCCCNC(=O)c1ccc(-c2c3nc(c(-c4c(F)cc(S(=O)(=O)[O-])cc4F)c4ccc([nH]4)c(-c4c(F)cc(S(=O)(=O)[O-])cc4F)c4nc(c(-c5c(F)cc(S(=O)(=O)[O-])cc5F)c5ccc2[nH]5)C=C4)C=C3)cc1
REMARK SMILES IDX 24 1 23 2 1 3 2 4 3 6 4 7 19 8 22 9 20 10 21 11 5 12 6 13
REMARK SMILES IDX 7 14 8 15 9 17 10 19 11 20 18 21 12 22 17 23 13 24 14 25
REMARK SMILES IDX 15 26 16 27 25 28 26 29 27 30 28 31 29 32 30 34 31 35 32 36
REMARK SMILES IDX 96 37 33 38 95 39 34 40 35 41 36 42 89 43 37 44 94 45 88 46
REMARK SMILES IDX 90 47 38 48 93 49 87 50 86 51 39 53 73 54 52 55 72 56 53 57
REMARK SMILES IDX 56 58 71 59 91 60 54 61 55 62 70 64 92 65 57 66 40 67 41 68
REMARK SMILES IDX 50 69 42 70 43 71 49 72 51 73 44 74 45 75 46 76 47 77 48 78
REMARK SMILES IDX 74 79 75 80 84 81 76 82 77 83 83 84 85 85 78 86 79 87 80 88
REMARK SMILES IDX 81 89 82 90 58 91 59 92 68 93 60 94 61 95 67 96 69 97 62 98
REMARK SMILES IDX 63 99 64 100 65 101 66 102
REMARK H PARENT 23 5 8 16 9 18 28 33 90 52 56 63
REMARK Flexibility Score: inf
ROOT
ATOM      1  C   UNL A   1      33.886  22.590  27.220  1.00  0.00     0.116 C 
ENDROOT
BRANCH   1   2
ATOM      2  N   UNL A   1      32.940  22.885  26.168  1.00  0.00    -0.356 N 
ATOM      3  O   UNL A   1      31.286  23.737  27.504  1.00  0.00    -0.275 OA
ATOM      4  C   UNL A   1      31.708  23.451  26.391  1.00  0.00     0.220 C 
ATOM      5  H   UNL A   1      33.191  22.669  25.241  1.00  0.00     0.163 HD
BRANCH   4   6
ATOM      6  C   UNL A   1      30.897  23.651  25.121  1.00  0.00     0.107 C 
BRANCH   6   7
ATOM      7  C   UNL A   1      31.158  24.969  24.355  1.00  0.00    -0.012 C 
ATOM      8  C   UNL A   1      29.997  25.988  24.459  1.00  0.00     0.008 C 
ATOM      9  C   UNL A   1      32.240  25.777  25.097  1.00  0.00     0.008 C 
ATOM     10  C   UNL A   1      30.623  27.358  24.206  1.00  0.00     0.001 C 
ATOM     11  C   UNL A   1      32.085  27.218  24.615  1.00  0.00     0.001 C 
BRANCH   7  12
ATOM     12  C   UNL A   1      31.487  24.711  22.856  1.00  0.00     0.109 C 
BRANCH  12  13
ATOM     13  C   UNL A   1      32.886  24.190  22.542  1.00  0.00     0.238 C 
ATOM     14  O   UNL A   1      33.854  24.946  22.458  1.00  0.00    -0.273 OA
ATOM     15  N   UNL A   1      33.087  22.842  22.381  1.00  0.00    -0.270 N 
ATOM     16  H   UNL A   1      33.999  22.526  22.183  1.00  0.00     0.191 HD
BRANCH  15  17
ATOM     17  N   UNL A   1      32.074  21.908  22.482  1.00  0.00    -0.299 N 
ATOM     18  H   UNL A   1      31.142  22.125  22.256  1.00  0.00     0.188 HD
BRANCH  17  19
ATOM     19  C   UNL A   1      32.454  20.632  22.927  1.00  0.00     0.055 A 
ATOM     20  C   UNL A   1      32.108  19.510  22.160  1.00  0.00     0.034 A 
ATOM     21  C   UNL A   1      33.000  20.436  24.201  1.00  0.00     0.034 A 
ATOM     22  C   UNL A   1      32.328  18.215  22.632  1.00  0.00     0.088 A 
ATOM     23  C   UNL A   1      33.215  19.144  24.693  1.00  0.00     0.088 A 
ATOM     24  C   UNL A   1      32.871  18.037  23.906  1.00  0.00     0.269 A 
BRANCH  24  25
ATOM     25  N   UNL A   1      33.048  16.681  24.437  1.00  0.00     0.062 N 
ATOM     26  O   UNL A   1      32.357  16.345  25.409  1.00  0.00    -0.258 OA
ATOM     27  O   UNL A   1      33.882  15.950  23.884  1.00  0.00    -0.258 OA
ENDBRANCH  24  25
ENDBRANCH  17  19
ENDBRANCH  15  17
ENDBRANCH  12  13
ENDBRANCH   7  12
ENDBRANCH   6   7
ENDBRANCH   4   6
ENDBRANCH   1   2
BRANCH   1  28
ATOM     28  C   UNL A   1      35.320  22.823  26.752  1.00  0.00     0.023 C 
BRANCH  28  29
ATOM     29  C   UNL A   1      35.456  23.433  25.351  1.00  0.00     0.023 C 
BRANCH  29  30
ATOM     30  C   UNL A   1      36.874  23.812  24.937  1.00  0.00     0.116 C 
BRANCH  30  31
ATOM     31  N   UNL A   1      37.842  22.785  25.281  1.00  0.00    -0.352 N 
ATOM     32  C   UNL A   1      39.014  22.888  25.992  1.00  0.00     0.251 C 
ATOM     33  H   UNL A   1      37.628  21.881  24.956  1.00  0.00     0.163 HD
ATOM     34  O   UNL A   1      39.795  21.941  26.014  1.00  0.00    -0.269 OA
BRANCH  32  35
ATOM     35  C   UNL A   1      39.349  24.141  26.708  1.00  0.00     0.039 A 
ATOM     36  C   UNL A   1      38.852  24.332  28.000  1.00  0.00     0.014 A 
ATOM     37  C   UNL A   1      40.132  25.133  26.109  1.00  0.00     0.014 A 
ATOM     38  C   UNL A   1      39.194  25.484  28.715  1.00  0.00     0.010 A 
ATOM     39  C   UNL A   1      40.531  26.244  26.849  1.00  0.00     0.010 A 
ATOM     40  C   UNL A   1      40.067  26.434  28.160  1.00  0.00    -0.014 A 
BRANCH  40  41
ATOM     41  C   UNL A   1      40.515  27.619  28.941  1.00  0.00     0.031 A 
ATOM     42  C   UNL A   1      41.849  27.612  29.640  1.00  0.00     0.074 A 
ATOM     43  C   UNL A   1      39.693  28.679  29.074  1.00  0.00     0.049 A 
ATOM     44  N   UNL A   1      42.379  28.524  30.416  1.00  0.00    -0.248 NA
ATOM     45  C   UNL A   1      42.686  26.416  29.465  1.00  0.00     0.031 C 
ATOM     46  C   UNL A   1      38.358  28.792  28.481  1.00  0.00     0.029 A 
ATOM     47  N   UNL A   1      39.851  29.861  29.756  1.00  0.00    -0.354 N 
ATOM     48  C   UNL A   1      43.601  28.006  30.830  1.00  0.00     0.074 A 
ATOM     49  C   UNL A   1      43.710  26.680  30.262  1.00  0.00     0.031 C 
ATOM     50  C   UNL A   1      37.832  29.985  28.803  1.00  0.00     0.029 A 
ATOM     51  C   UNL A   1      38.769  30.704  29.661  1.00  0.00     0.049 A 
ATOM     52  H   UNL A   1      40.664  30.083  30.264  1.00  0.00     0.167 HD
ATOM     53  C   UNL A   1      44.553  28.591  31.598  1.00  0.00     0.037 A 
ATOM     54  C   UNL A   1      38.550  31.916  30.209  1.00  0.00     0.037 A 
ATOM     55  C   UNL A   1      44.448  29.921  32.142  1.00  0.00     0.049 A 
ATOM     56  C   UNL A   1      39.617  32.538  31.069  1.00  0.00     0.074 A 
ATOM     57  C   UNL A   1      45.386  30.624  32.878  1.00  0.00     0.029 A 
ATOM     58  N   UNL A   1      43.340  30.746  32.017  1.00  0.00    -0.354 N 
ATOM     59  N   UNL A   1      40.794  32.061  31.396  1.00  0.00    -0.248 NA
ATOM     60  C   UNL A   1      39.329  33.866  31.630  1.00  0.00     0.031 C 
ATOM     61  C   UNL A   1      44.825  31.850  33.247  1.00  0.00     0.029 A 
ATOM     62  C   UNL A   1      43.560  31.939  32.688  1.00  0.00     0.049 A 
ATOM     63  H   UNL A   1      42.519  30.518  31.524  1.00  0.00     0.167 HD
ATOM     64  C   UNL A   1      41.399  33.042  32.175  1.00  0.00     0.074 A 
ATOM     65  C   UNL A   1      40.461  34.143  32.260  1.00  0.00     0.031 C 
ATOM     66  C   UNL A   1      42.621  33.032  32.763  1.00  0.00     0.037 A 
BRANCH  53  67
ATOM     67  C   UNL A   1      45.795  27.794  31.902  1.00  0.00     0.058 A 
ATOM     68  C   UNL A   1      45.850  26.884  32.970  1.00  0.00     0.135 A 
ATOM     69  C   UNL A   1      46.934  27.914  31.089  1.00  0.00     0.135 A 
ATOM     70  F   UNL A   1      44.795  26.737  33.788  1.00  0.00    -0.206 F 
ATOM     71  C   UNL A   1      46.997  26.145  33.241  1.00  0.00     0.059 A 
ATOM     72  C   UNL A   1      48.082  27.162  31.322  1.00  0.00     0.059 A 
ATOM     73  F   UNL A   1      46.940  28.768  30.053  1.00  0.00    -0.206 F 
ATOM     74  C   UNL A   1      48.110  26.292  32.410  1.00  0.00     0.060 A 
BRANCH  74  75
ATOM     75  S   UNL A   1      49.591  25.327  32.776  1.00  0.00     0.124 S 
ATOM     76  O   UNL A   1      49.982  24.879  31.442  1.00  0.00    -0.237 OA
ATOM     77  O   UNL A   1      50.464  26.319  33.392  1.00  0.00    -0.237 OA
ATOM     78  O   UNL A   1      49.104  24.282  33.670  1.00  0.00    -0.744 OA
ENDBRANCH  74  75
ENDBRANCH  53  67
BRANCH  54  79
ATOM     79  C   UNL A   1      37.271  32.632  29.943  1.00  0.00     0.058 A 
ATOM     80  C   UNL A   1      36.093  32.276  30.616  1.00  0.00     0.135 A 
ATOM     81  C   UNL A   1      37.203  33.687  29.021  1.00  0.00     0.135 A 
ATOM     82  F   UNL A   1      36.104  31.268  31.501  1.00  0.00    -0.206 F 
ATOM     83  C   UNL A   1      34.889  32.930  30.374  1.00  0.00     0.059 A 
ATOM     84  C   UNL A   1      36.017  34.375  28.783  1.00  0.00     0.059 A 
ATOM     85  F   UNL A   1      38.306  34.078  28.362  1.00  0.00    -0.206 F 
ATOM     86  C   UNL A   1      34.863  33.982  29.458  1.00  0.00     0.060 A 
BRANCH  86  87
ATOM     87  S   UNL A   1      33.305  34.857  29.189  1.00  0.00     0.124 S 
ATOM     88  O   UNL A   1      32.752  34.892  30.537  1.00  0.00    -0.237 OA
ATOM     89  O   UNL A   1      33.762  36.133  28.650  1.00  0.00    -0.237 OA
ATOM     90  O   UNL A   1      32.600  34.000  28.240  1.00  0.00    -0.744 OA
ENDBRANCH  86  87
ENDBRANCH  54  79
BRANCH  66  91
ATOM     91  C   UNL A   1      43.039  34.263  33.522  1.00  0.00     0.058 A 
ATOM     92  C   UNL A   1      42.795  34.406  34.896  1.00  0.00     0.135 A 
ATOM     93  C   UNL A   1      43.739  35.293  32.871  1.00  0.00     0.135 A 
ATOM     94  F   UNL A   1      42.123  33.455  35.566  1.00  0.00    -0.206 F 
ATOM     95  C   UNL A   1      43.210  35.535  35.596  1.00  0.00     0.059 A 
ATOM     96  C   UNL A   1      44.192  36.416  33.557  1.00  0.00     0.059 A 
ATOM     97  F   UNL A   1      44.009  35.204  31.559  1.00  0.00    -0.206 F 
ATOM     98  C   UNL A   1      43.911  36.534  34.917  1.00  0.00     0.060 A 
BRANCH  98  99
ATOM     99  S   UNL A   1      44.476  37.976  35.844  1.00  0.00     0.124 S 
ATOM    100  O   UNL A   1      45.926  37.814  35.783  1.00  0.00    -0.237 OA
ATOM    101  O   UNL A   1      43.928  39.082  35.065  1.00  0.00    -0.237 OA
ATOM    102  O   UNL A   1      43.879  37.789  37.163  1.00  0.00    -0.744 OA
ENDBRANCH  98  99
ENDBRANCH  66  91
ENDBRANCH  40  41
ENDBRANCH  32  35
ENDBRANCH  30  31
ENDBRANCH  29  30
ENDBRANCH  28  29
ENDBRANCH   1  28
TORSDOF 20
ENDMDL
MODEL 2
REMARK VINA RESULT:     -11.1      4.405      9.771
REMARK SMILES O=C(CC1(CC(=O)NNc2ccc([N+](=O)[O-])cc2)CCCC1)NCCCCNC(=O)c1ccc(-c2c3nc(c(-c4c(F)cc(S(=O)(=O)[O-])cc4F)c4ccc([nH]4)c(-c4c(F)cc(S(=O)(=O)[O-])cc4F)c4nc(c(-c5c(F)cc(S(=O)(=O)[O-])cc5F)c5ccc2[nH]5)C=C4)C=C3)cc1
REMARK SMILES IDX 24 1 23 2 1 3 2 4 3 6 4 7 19 8 22 9 20 10 21 11 5 12 6 13
REMARK SMILES IDX 7 14 8 15 9 17 10 19 11 20 18 21 12 22 17 23 13 24 14 25
REMARK SMILES IDX 15 26 16 27 25 28 26 29 27 30 28 31 29 32 30 34 31 35 32 36
REMARK SMILES IDX 96 37 33 38 95 39 34 40 35 41 36 42 89 43 37 44 94 45 88 46
REMARK SMILES IDX 90 47 38 48 93 49 87 50 86 51 39 53 73 54 52 55 72 56 53 57
REMARK SMILES IDX 56 58 71 59 91 60 54 61 55 62 70 64 92 65 57 66 40 67 41 68
REMARK SMILES IDX 50 69 42 70 43 71 49 72 51 73 44 74 45 75 46 76 47 77 48 78
REMARK SMILES IDX 74 79 75 80 84 81 76 82 77 83 83 84 85 85 78 86 79 87 80 88
REMARK SMILES IDX 81 89 82 90 58 91 59 92 68 93 60 94 61 95 67 96 69 97 62 98
REMARK SMILES IDX 63 99 64 100 65 101 66 102
REMARK H PARENT 23 5 8 16 9 18 28 33 90 52 56 63
REMARK Flexibility Score: inf
ROOT
ATOM      1  C   UNL A   1      31.986  29.968  26.569  1.00  0.00     0.116 C 
ENDROOT
BRANCH   1   2
ATOM      2  N   UNL A   1      31.572  28.751  25.908  1.00  0.00    -0.356 N 
ATOM      3  O   UNL A   1      31.332  27.473  27.794  1.00  0.00    -0.275 OA
ATOM      4  C   UNL A   1      31.263  27.591  26.578  1.00  0.00     0.220 C 
ATOM      5  H   UNL A   1      31.509  28.751  24.926  1.00  0.00     0.163 HD
BRANCH   4   6
ATOM      6  C   UNL A   1      30.866  26.450  25.655  1.00  0.00     0.107 C 
BRANCH   6   7
ATOM      7  C   UNL A   1      32.018  25.529  25.189  1.00  0.00    -0.012 C 
ATOM      8  C   UNL A   1      31.647  24.636  23.980  1.00  0.00     0.008 C 
ATOM      9  C   UNL A   1      33.108  26.386  24.516  1.00  0.00     0.008 C 
ATOM     10  C   UNL A   1      32.971  24.284  23.303  1.00  0.00     0.001 C 
ATOM     11  C   UNL A   1      33.923  25.420  23.658  1.00  0.00     0.001 C 
BRANCH   7  12
ATOM     12  C   UNL A   1      32.549  24.636  26.348  1.00  0.00     0.109 C 
BRANCH  12  13
ATOM     13  C   UNL A   1      31.713  23.412  26.708  1.00  0.00     0.238 C 
ATOM     14  O   UNL A   1      30.610  23.517  27.244  1.00  0.00    -0.273 OA
ATOM     15  N   UNL A   1      32.179  22.158  26.399  1.00  0.00    -0.270 N 
ATOM     16  H   UNL A   1      31.622  21.381  26.635  1.00  0.00     0.191 HD
BRANCH  15  17
ATOM     17  N   UNL A   1      33.390  21.934  25.773  1.00  0.00    -0.299 N 
ATOM     18  H   UNL A   1      34.112  22.601  25.782  1.00  0.00     0.188 HD
BRANCH  17  19
ATOM     19  C   UNL A   1      33.528  20.697  25.124  1.00  0.00     0.055 A 
ATOM     20  C   UNL A   1      32.384  20.050  24.634  1.00  0.00     0.034 A 
ATOM     21  C   UNL A   1      34.746  20.007  25.121  1.00  0.00     0.034 A 
ATOM     22  C   UNL A   1      32.449  18.755  24.119  1.00  0.00     0.088 A 
ATOM     23  C   UNL A   1      34.826  18.704  24.619  1.00  0.00     0.088 A 
ATOM     24  C   UNL A   1      33.672  18.080  24.125  1.00  0.00     0.269 A 
BRANCH  24  25
ATOM     25  N   UNL A   1      33.739  16.695  23.645  1.00  0.00     0.062 N 
ATOM     26  O   UNL A   1      33.429  15.792  24.435  1.00  0.00    -0.258 OA
ATOM     27  O   UNL A   1      34.107  16.509  22.476  1.00  0.00    -0.258 OA
ENDBRANCH  24  25
ENDBRANCH  17  19
ENDBRANCH  15  17
ENDBRANCH  12  13
ENDBRANCH   7  12
ENDBRANCH   6   7
ENDBRANCH   4   6
ENDBRANCH   1   2
BRANCH   1  28
ATOM     28  C   UNL A   1      33.366  29.808  27.202  1.00  0.00     0.023 C 
BRANCH  28  29
ATOM     29  C   UNL A   1      34.106  31.122  27.488  1.00  0.00     0.023 C 
BRANCH  29  30
ATOM     30  C   UNL A   1      35.485  30.970  28.121  1.00  0.00     0.116 C 
BRANCH  30  31
ATOM     31  N   UNL A   1      35.454  31.157  29.562  1.00  0.00    -0.352 N 
ATOM     32  C   UNL A   1      36.366  30.770  30.515  1.00  0.00     0.251 C 
ATOM     33  H   UNL A   1      34.663  31.629  29.907  1.00  0.00     0.163 HD
ATOM     34  O   UNL A   1      36.071  30.849  31.704  1.00  0.00    -0.269 OA
BRANCH  32  35
ATOM     35  C   UNL A   1      37.690  30.237  30.114  1.00  0.00     0.039 A 
ATOM     36  C   UNL A   1      38.023  30.211  28.758  1.00  0.00     0.014 A 
ATOM     37  C   UNL A   1      38.593  29.750  31.063  1.00  0.00     0.014 A 
ATOM     38  C   UNL A   1      39.284  29.758  28.359  1.00  0.00     0.010 A 
ATOM     39  C   UNL A   1      39.875  29.369  30.671  1.00  0.00     0.010 A 
ATOM     40  C   UNL A   1      40.236  29.368  29.315  1.00  0.00    -0.014 A 
BRANCH  40  41
ATOM     41  C   UNL A   1      41.614  28.972  28.914  1.00  0.00     0.031 A 
ATOM     42  C   UNL A   1      42.723  29.990  28.888  1.00  0.00     0.074 A 
ATOM     43  C   UNL A   1      41.853  27.708  28.512  1.00  0.00     0.049 A 
ATOM     44  N   UNL A   1      43.967  29.846  28.507  1.00  0.00    -0.248 NA
ATOM     45  C   UNL A   1      42.384  31.354  29.323  1.00  0.00     0.031 C 
ATOM     46  C   UNL A   1      40.855  26.637  28.452  1.00  0.00     0.029 A 
ATOM     47  N   UNL A   1      43.007  27.107  28.070  1.00  0.00    -0.354 N 
ATOM     48  C   UNL A   1      44.554  31.100  28.643  1.00  0.00     0.074 A 
ATOM     49  C   UNL A   1      43.517  32.003  29.092  1.00  0.00     0.031 C 
ATOM     50  C   UNL A   1      41.445  25.508  28.025  1.00  0.00     0.029 A 
ATOM     51  C   UNL A   1      42.850  25.782  27.737  1.00  0.00     0.049 A 
ATOM     52  H   UNL A   1      43.866  27.582  27.999  1.00  0.00     0.167 HD
ATOM     53  C   UNL A   1      45.844  31.459  28.432  1.00  0.00     0.037 A 
ATOM     54  C   UNL A   1      43.733  24.889  27.248  1.00  0.00     0.037 A 
ATOM     55  C   UNL A   1      46.877  30.550  28.007  1.00  0.00     0.049 A 
ATOM     56  C   UNL A   1      45.155  25.317  27.010  1.00  0.00     0.074 A 
ATOM     57  C   UNL A   1      48.225  30.806  27.827  1.00  0.00     0.029 A 
ATOM     58  N   UNL A   1      46.679  29.214  27.688  1.00  0.00    -0.354 N 
ATOM     59  N   UNL A   1      45.708  26.490  27.207  1.00  0.00    -0.248 NA
ATOM     60  C   UNL A   1      46.077  24.298  26.487  1.00  0.00     0.031 C 
ATOM     61  C   UNL A   1      48.833  29.642  27.345  1.00  0.00     0.029 A 
ATOM     62  C   UNL A   1      47.875  28.642  27.284  1.00  0.00     0.049 A 
ATOM     63  H   UNL A   1      45.816  28.743  27.741  1.00  0.00     0.167 HD
ATOM     64  C   UNL A   1      47.047  26.342  26.862  1.00  0.00     0.074 A 
ATOM     65  C   UNL A   1      47.223  24.964  26.454  1.00  0.00     0.031 C 
ATOM     66  C   UNL A   1      48.041  27.265  26.885  1.00  0.00     0.037 A 
BRANCH  53  67
ATOM     67  C   UNL A   1      46.214  32.903  28.654  1.00  0.00     0.058 A 
ATOM     68  C   UNL A   1      46.234  33.833  27.602  1.00  0.00     0.135 A 
ATOM     69  C   UNL A   1      46.514  33.370  29.944  1.00  0.00     0.135 A 
ATOM     70  F   UNL A   1      45.969  33.439  26.346  1.00  0.00    -0.206 F 
ATOM     71  C   UNL A   1      46.569  35.166  27.815  1.00  0.00     0.059 A 
ATOM     72  C   UNL A   1      46.820  34.707  30.185  1.00  0.00     0.059 A 
ATOM     73  F   UNL A   1      46.509  32.527  30.988  1.00  0.00    -0.206 F 
ATOM     74  C   UNL A   1      46.861  35.594  29.111  1.00  0.00     0.060 A 
BRANCH  74  75
ATOM     75  S   UNL A   1      47.295  37.327  29.370  1.00  0.00     0.124 S 
ATOM     76  O   UNL A   1      47.354  37.819  27.996  1.00  0.00    -0.237 OA
ATOM     77  O   UNL A   1      46.174  37.813  30.168  1.00  0.00    -0.237 OA
ATOM     78  O   UNL A   1      48.575  37.258  30.067  1.00  0.00    -0.744 OA
ENDBRANCH  74  75
ENDBRANCH  53  67
BRANCH  54  79
ATOM     79  C   UNL A   1      43.299  23.492  26.970  1.00  0.00     0.058 A 
ATOM     80  C   UNL A   1      43.124  22.570  28.013  1.00  0.00     0.135 A 
ATOM     81  C   UNL A   1      43.043  23.053  25.661  1.00  0.00     0.135 A 
ATOM     82  F   UNL A   1      43.363  22.939  29.281  1.00  0.00    -0.206 F 
ATOM     83  C   UNL A   1      42.725  21.260  27.770  1.00  0.00     0.059 A 
ATOM     84  C   UNL A   1      42.617  21.756  25.395  1.00  0.00     0.059 A 
ATOM     85  F   UNL A   1      43.181  23.900  24.629  1.00  0.00    -0.206 F 
ATOM     86  C   UNL A   1      42.470  20.863  26.456  1.00  0.00     0.060 A 
BRANCH  86  87
ATOM     87  S   UNL A   1      41.905  19.174  26.157  1.00  0.00     0.124 S 
ATOM     88  O   UNL A   1      42.678  18.811  24.975  1.00  0.00    -0.237 OA
ATOM     89  O   UNL A   1      42.278  18.503  27.397  1.00  0.00    -0.237 OA
ATOM     90  O   UNL A   1      40.469  19.334  25.947  1.00  0.00    -0.744 OA
ENDBRANCH  86  87
ENDBRANCH  54  79
BRANCH  66  91
ATOM     91  C   UNL A   1      49.422  26.811  26.494  1.00  0.00     0.058 A 
ATOM     92  C   UNL A   1      50.299  26.224  27.418  1.00  0.00     0.135 A 
ATOM     93  C   UNL A   1      49.853  26.919  25.161  1.00  0.00     0.135 A 
ATOM     94  F   UNL A   1      49.941  26.103  28.706  1.00  0.00    -0.206 F 
ATOM     95  C   UNL A   1      51.564  25.781  27.041  1.00  0.00     0.059 A 
ATOM     96  C   UNL A   1      51.100  26.454  24.755  1.00  0.00     0.059 A 
ATOM     97  F   UNL A   1      49.050  27.464  24.232  1.00  0.00    -0.206 F 
ATOM     98  C   UNL A   1      51.954  25.898  25.706  1.00  0.00     0.060 A 
BRANCH  98  99
ATOM     99  S   UNL A   1      53.581  25.285  25.224  1.00  0.00     0.124 S 
ATOM    100  O   UNL A   1      53.684  25.774  23.852  1.00  0.00    -0.237 OA
ATOM    101  O   UNL A   1      54.458  25.932  26.195  1.00  0.00    -0.237 OA
ATOM    102  O   UNL A   1      53.457  23.838  25.366  1.00  0.00    -0.744 OA
ENDBRANCH  98  99
ENDBRANCH  66  91
ENDBRANCH  40  41
ENDBRANCH  32  35
ENDBRANCH  30  31
ENDBRANCH  29  30
ENDBRANCH  28  29
ENDBRANCH   1  28
TORSDOF 20
ENDMDL
MODEL 3
REMARK VINA RESULT:     -10.9      3.318      9.240
REMARK SMILES O=C(CC1(CC(=O)NNc2ccc([N+](=O)[O-])cc2)CCCC1)NCCCCNC(=O)c1ccc(-c2c3nc(c(-c4c(F)cc(S(=O)(=O)[O-])cc4F)c4ccc([nH]4)c(-c4c(F)cc(S(=O)(=O)[O-])cc4F)c4nc(c(-c5c(F)cc(S(=O)(=O)[O-])cc5F)c5ccc2[nH]5)C=C4)C=C3)cc1
REMARK SMILES IDX 24 1 23 2 1 3 2 4 3 6 4 7 19 8 22 9 20 10 21 11 5 12 6 13
REMARK SMILES IDX 7 14 8 15 9 17 10 19 11 20 18 21 12 22 17 23 13 24 14 25
REMARK SMILES IDX 15 26 16 27 25 28 26 29 27 30 28 31 29 32 30 34 31 35 32 36
REMARK SMILES IDX 96 37 33 38 95 39 34 40 35 41 36 42 89 43 37 44 94 45 88 46
REMARK SMILES IDX 90 47 38 48 93 49 87 50 86 51 39 53 73 54 52 55 72 56 53 57
REMARK SMILES IDX 56 58 71 59 91 60 54 61 55 62 70 64 92 65 57 66 40 67 41 68
REMARK SMILES IDX 50 69 42 70 43 71 49 72 51 73 44 74 45 75 46 76 47 77 48 78
REMARK SMILES IDX 74 79 75 80 84 81 76 82 77 83 83 84 85 85 78 86 79 87 80 88
REMARK SMILES IDX 81 89 82 90 58 91 59 92 68 93 60 94 61 95 67 96 69 97 62 98
REMARK SMILES IDX 63 99 64 100 65 101 66 102
REMARK H PARENT 23 5 8 16 9 18 28 33 90 52 56 63
REMARK Flexibility Score: inf
ROOT
ATOM      1  C   UNL A   1      30.893  26.560  26.798  1.00  0.00     0.116 C 
ENDROOT
BRANCH   1   2
ATOM      2  N   UNL A   1      31.123  25.491  25.854  1.00  0.00    -0.356 N 
ATOM      3  O   UNL A   1      30.401  23.774  27.188  1.00  0.00    -0.275 OA
ATOM      4  C   UNL A   1      30.846  24.171  26.119  1.00  0.00     0.220 C 
ATOM      5  H   UNL A   1      31.498  25.719  24.973  1.00  0.00     0.163 HD
BRANCH   4   6
ATOM      6  C   UNL A   1      31.187  23.240  24.967  1.00  0.00     0.107 C 
BRANCH   6   7
ATOM      7  C   UNL A   1      32.491  22.423  25.123  1.00  0.00    -0.012 C 
ATOM      8  C   UNL A   1      33.041  22.403  26.570  1.00  0.00     0.008 C 
ATOM      9  C   UNL A   1      32.167  20.924  24.979  1.00  0.00     0.008 C 
ATOM     10  C   UNL A   1      33.899  21.143  26.669  1.00  0.00     0.001 C 
ATOM     11  C   UNL A   1      33.334  20.183  25.629  1.00  0.00     0.001 C 
BRANCH   7  12
ATOM     12  C   UNL A   1      33.603  22.920  24.154  1.00  0.00     0.109 C 
BRANCH  12  13
ATOM     13  C   UNL A   1      34.354  24.183  24.564  1.00  0.00     0.238 C 
ATOM     14  O   UNL A   1      35.190  24.174  25.467  1.00  0.00    -0.273 OA
ATOM     15  N   UNL A   1      34.121  25.358  23.893  1.00  0.00    -0.270 N 
ATOM     16  H   UNL A   1      34.619  26.161  24.170  1.00  0.00     0.191 HD
BRANCH  15  17
ATOM     17  N   UNL A   1      33.224  25.468  22.848  1.00  0.00    -0.299 N 
ATOM     18  H   UNL A   1      33.171  24.794  22.134  1.00  0.00     0.188 HD
BRANCH  17  19
ATOM     19  C   UNL A   1      32.392  26.598  22.867  1.00  0.00     0.055 A 
ATOM     20  C   UNL A   1      31.001  26.424  22.822  1.00  0.00     0.034 A 
ATOM     21  C   UNL A   1      32.914  27.891  22.739  1.00  0.00     0.034 A 
ATOM     22  C   UNL A   1      30.139  27.514  22.686  1.00  0.00     0.088 A 
ATOM     23  C   UNL A   1      32.064  28.992  22.589  1.00  0.00     0.088 A 
ATOM     24  C   UNL A   1      30.677  28.796  22.557  1.00  0.00     0.269 A 
BRANCH  24  25
ATOM     25  N   UNL A   1      29.782  29.941  22.349  1.00  0.00     0.062 N 
ATOM     26  O   UNL A   1      29.440  30.204  21.187  1.00  0.00    -0.258 OA
ATOM     27  O   UNL A   1      29.425  30.580  23.348  1.00  0.00    -0.258 OA
ENDBRANCH  24  25
ENDBRANCH  17  19
ENDBRANCH  15  17
ENDBRANCH  12  13
ENDBRANCH   7  12
ENDBRANCH   6   7
ENDBRANCH   4   6
ENDBRANCH   1   2
BRANCH   1  28
ATOM     28  C   UNL A   1      31.707  27.799  26.434  1.00  0.00     0.023 C 
BRANCH  28  29
ATOM     29  C   UNL A   1      33.223  27.660  26.625  1.00  0.00     0.023 C 
BRANCH  29  30
ATOM     30  C   UNL A   1      34.071  28.703  25.904  1.00  0.00     0.116 C 
BRANCH  30  31
ATOM     31  N   UNL A   1      33.796  30.053  26.366  1.00  0.00    -0.352 N 
ATOM     32  C   UNL A   1      34.404  30.779  27.363  1.00  0.00     0.251 C 
ATOM     33  H   UNL A   1      33.065  30.516  25.897  1.00  0.00     0.163 HD
ATOM     34  O   UNL A   1      33.903  31.836  27.734  1.00  0.00    -0.269 OA
BRANCH  32  35
ATOM     35  C   UNL A   1      35.643  30.281  28.004  1.00  0.00     0.039 A 
ATOM     36  C   UNL A   1      36.863  30.466  27.348  1.00  0.00     0.014 A 
ATOM     37  C   UNL A   1      35.608  29.619  29.236  1.00  0.00     0.014 A 
ATOM     38  C   UNL A   1      38.051  30.048  27.955  1.00  0.00     0.010 A 
ATOM     39  C   UNL A   1      36.798  29.270  29.871  1.00  0.00     0.010 A 
ATOM     40  C   UNL A   1      38.033  29.480  29.239  1.00  0.00    -0.014 A 
BRANCH  40  41
ATOM     41  C   UNL A   1      39.296  29.115  29.939  1.00  0.00     0.031 A 
ATOM     42  C   UNL A   1      39.735  29.872  31.164  1.00  0.00     0.074 A 
ATOM     43  C   UNL A   1      40.080  28.142  29.433  1.00  0.00     0.049 A 
ATOM     44  N   UNL A   1      40.831  29.739  31.867  1.00  0.00    -0.248 NA
ATOM     45  C   UNL A   1      38.838  30.932  31.649  1.00  0.00     0.031 C 
ATOM     46  C   UNL A   1      39.788  27.361  28.229  1.00  0.00     0.029 A 
ATOM     47  N   UNL A   1      41.287  27.646  29.862  1.00  0.00    -0.354 N 
ATOM     48  C   UNL A   1      40.762  30.705  32.866  1.00  0.00     0.074 A 
ATOM     49  C   UNL A   1      39.541  31.449  32.646  1.00  0.00     0.031 C 
ATOM     50  C   UNL A   1      40.773  26.471  28.031  1.00  0.00     0.029 A 
ATOM     51  C   UNL A   1      41.789  26.644  29.064  1.00  0.00     0.049 A 
ATOM     52  H   UNL A   1      41.750  27.977  30.665  1.00  0.00     0.167 HD
ATOM     53  C   UNL A   1      41.627  30.936  33.884  1.00  0.00     0.037 A 
ATOM     54  C   UNL A   1      42.940  25.948  29.149  1.00  0.00     0.037 A 
ATOM     55  C   UNL A   1      42.830  30.177  34.110  1.00  0.00     0.049 A 
ATOM     56  C   UNL A   1      43.890  26.233  30.281  1.00  0.00     0.074 A 
ATOM     57  C   UNL A   1      43.736  30.294  35.149  1.00  0.00     0.029 A 
ATOM     58  N   UNL A   1      43.298  29.165  33.285  1.00  0.00    -0.354 N 
ATOM     59  N   UNL A   1      43.776  27.106  31.253  1.00  0.00    -0.248 NA
ATOM     60  C   UNL A   1      45.124  25.436  30.330  1.00  0.00     0.031 C 
ATOM     61  C   UNL A   1      44.782  29.394  34.923  1.00  0.00     0.029 A 
ATOM     62  C   UNL A   1      44.496  28.671  33.776  1.00  0.00     0.049 A 
ATOM     63  H   UNL A   1      42.846  28.845  32.471  1.00  0.00     0.167 HD
ATOM     64  C   UNL A   1      44.906  26.940  32.047  1.00  0.00     0.074 A 
ATOM     65  C   UNL A   1      45.686  25.878  31.446  1.00  0.00     0.031 C 
ATOM     66  C   UNL A   1      45.263  27.608  33.172  1.00  0.00     0.037 A 
BRANCH  53  67
ATOM     67  C   UNL A   1      41.307  32.063  34.832  1.00  0.00     0.058 A 
ATOM     68  C   UNL A   1      40.455  31.884  35.934  1.00  0.00     0.135 A 
ATOM     69  C   UNL A   1      41.893  33.327  34.659  1.00  0.00     0.135 A 
ATOM     70  F   UNL A   1      39.857  30.700  36.143  1.00  0.00    -0.206 F 
ATOM     71  C   UNL A   1      40.170  32.926  36.811  1.00  0.00     0.059 A 
ATOM     72  C   UNL A   1      41.647  34.375  35.542  1.00  0.00     0.059 A 
ATOM     73  F   UNL A   1      42.716  33.555  33.624  1.00  0.00    -0.206 F 
ATOM     74  C   UNL A   1      40.771  34.169  36.606  1.00  0.00     0.060 A 
BRANCH  74  75
ATOM     75  S   UNL A   1      40.390  35.511  37.752  1.00  0.00     0.124 S 
ATOM     76  O   UNL A   1      39.380  34.887  38.603  1.00  0.00    -0.237 OA
ATOM     77  O   UNL A   1      41.682  35.759  38.382  1.00  0.00    -0.237 OA
ATOM     78  O   UNL A   1      39.904  36.575  36.881  1.00  0.00    -0.744 OA
ENDBRANCH  74  75
ENDBRANCH  53  67
BRANCH  54  79
ATOM     79  C   UNL A   1      43.248  24.897  28.140  1.00  0.00     0.058 A 
ATOM     80  C   UNL A   1      43.917  25.215  26.948  1.00  0.00     0.135 A 
ATOM     81  C   UNL A   1      42.891  23.556  28.350  1.00  0.00     0.135 A 
ATOM     82  F   UNL A   1      44.273  26.484  26.698  1.00  0.00    -0.206 F 
ATOM     83  C   UNL A   1      44.207  24.246  25.993  1.00  0.00     0.059 A 
ATOM     84  C   UNL A   1      43.194  22.565  27.422  1.00  0.00     0.059 A 
ATOM     85  F   UNL A   1      42.263  23.196  29.481  1.00  0.00    -0.206 F 
ATOM     86  C   UNL A   1      43.844  22.922  26.242  1.00  0.00     0.060 A 
BRANCH  86  87
ATOM     87  S   UNL A   1      44.270  21.664  25.018  1.00  0.00     0.124 S 
ATOM     88  O   UNL A   1      43.270  20.638  25.291  1.00  0.00    -0.237 OA
ATOM     89  O   UNL A   1      44.112  22.393  23.764  1.00  0.00    -0.237 OA
ATOM     90  O   UNL A   1      45.645  21.314  25.362  1.00  0.00    -0.744 OA
ENDBRANCH  86  87
ENDBRANCH  54  79
BRANCH  66  91
ATOM     91  C   UNL A   1      46.536  27.186  33.857  1.00  0.00     0.058 A 
ATOM     92  C   UNL A   1      47.770  27.788  33.566  1.00  0.00     0.135 A 
ATOM     93  C   UNL A   1      46.509  26.200  34.857  1.00  0.00     0.135 A 
ATOM     94  F   UNL A   1      47.853  28.731  32.613  1.00  0.00    -0.206 F 
ATOM     95  C   UNL A   1      48.936  27.412  34.224  1.00  0.00     0.059 A 
ATOM     96  C   UNL A   1      47.657  25.830  35.551  1.00  0.00     0.059 A 
ATOM     97  F   UNL A   1      45.354  25.598  35.184  1.00  0.00    -0.206 F 
ATOM     98  C   UNL A   1      48.869  26.433  35.219  1.00  0.00     0.060 A 
BRANCH  98  99
ATOM     99  S   UNL A   1      50.383  25.981  36.090  1.00  0.00     0.124 S 
ATOM    100  O   UNL A   1      50.300  24.524  36.088  1.00  0.00    -0.237 OA
ATOM    101  O   UNL A   1      51.418  26.559  35.239  1.00  0.00    -0.237 OA
ATOM    102  O   UNL A   1      50.227  26.616  37.396  1.00  0.00    -0.744 OA
ENDBRANCH  98  99
ENDBRANCH  66  91
ENDBRANCH  40  41
ENDBRANCH  32  35
ENDBRANCH  30  31
ENDBRANCH  29  30
ENDBRANCH  28  29
ENDBRANCH   1  28
TORSDOF 20
ENDMDL
