MODEL 1
REMARK VINA RESULT:     -12.5      0.000      0.000
REMARK SMILES O=C(NCCCCNC(=O)c1cccc(Nc2ccnc3ccc(F)cc23)c1)c1ccc(-c2c3nc(c(-c4c(F)cc(S(=O)(=O)[O-])cc4F)c4ccc([nH]4)c(-c4c(F)cc(S(=O)(=O)[O-])cc4F)c4nc(c(-c5c(F)cc(S(=O)(=O)[O-])cc5F)c5ccc2[nH]5)C=C4)C=C3)cc1
REMARK SMILES IDX 5 1 4 2 3 3 1 4 2 5 29 7 30 8 94 9 31 10 93 11 32 12 33 13
REMARK SMILES IDX 34 14 87 15 35 16 92 17 86 18 88 19 36 20 91 21 85 22 84 23
REMARK SMILES IDX 37 25 71 26 50 27 70 28 51 29 54 30 69 31 89 32 52 33 53 34
REMARK SMILES IDX 68 36 90 37 55 38 38 39 39 40 48 41 40 42 41 43 47 44 49 45
REMARK SMILES IDX 42 46 43 47 44 48 45 49 46 50 72 51 73 52 82 53 74 54 75 55
REMARK SMILES IDX 81 56 83 57 76 58 77 59 78 60 79 61 80 62 56 63 57 64 66 65
REMARK SMILES IDX 58 66 59 67 65 68 67 69 60 70 61 71 62 72 63 73 64 74 6 75
REMARK SMILES IDX 7 76 8 77 9 78 10 80 11 81 12 82 28 83 13 84 15 85 14 86
REMARK SMILES IDX 16 87 17 89 18 90 27 91 19 92 21 93 26 94 20 95 22 96 24 97
REMARK SMILES IDX 23 98 25 99
REMARK H PARENT 3 6 88 24 54 35 8 79 16 88
REMARK Flexibility Score: inf
ROOT
ATOM      1  C   UNL A   1      33.556  27.979  25.534  1.00  0.00     0.023 C 
ENDROOT
BRANCH   1   2
ATOM      2  C   UNL A   1      33.746  28.215  27.028  1.00  0.00     0.116 C 
BRANCH   2   3
ATOM      3  N   UNL A   1      33.563  29.603  27.419  1.00  0.00    -0.352 N 
ATOM      4  O   UNL A   1      34.068  31.580  28.367  1.00  0.00    -0.269 OA
ATOM      5  C   UNL A   1      34.454  30.467  28.009  1.00  0.00     0.251 C 
ATOM      6  H   UNL A   1      32.672  29.978  27.235  1.00  0.00     0.163 HD
BRANCH   5   7
ATOM      7  C   UNL A   1      35.858  30.059  28.239  1.00  0.00     0.039 A 
ATOM      8  C   UNL A   1      36.820  30.180  27.233  1.00  0.00     0.014 A 
ATOM      9  C   UNL A   1      36.226  29.575  29.500  1.00  0.00     0.014 A 
ATOM     10  C   UNL A   1      38.114  29.715  27.448  1.00  0.00     0.010 A 
ATOM     11  C   UNL A   1      37.546  29.176  29.738  1.00  0.00     0.010 A 
ATOM     12  C   UNL A   1      38.496  29.228  28.708  1.00  0.00    -0.014 A 
BRANCH  12  13
ATOM     13  C   UNL A   1      39.921  28.887  28.956  1.00  0.00     0.031 A 
ATOM     14  C   UNL A   1      40.490  27.552  28.565  1.00  0.00     0.074 A 
ATOM     15  C   UNL A   1      40.701  29.812  29.550  1.00  0.00     0.049 A 
ATOM     16  N   UNL A   1      41.710  27.107  28.717  1.00  0.00    -0.248 NA
ATOM     17  C   UNL A   1      39.576  26.591  27.927  1.00  0.00     0.031 C 
ATOM     18  C   UNL A   1      40.247  31.131  30.003  1.00  0.00     0.029 A 
ATOM     19  N   UNL A   1      42.034  29.795  29.874  1.00  0.00    -0.354 N 
ATOM     20  C   UNL A   1      41.712  25.811  28.214  1.00  0.00     0.074 A 
ATOM     21  C   UNL A   1      40.365  25.534  27.761  1.00  0.00     0.031 C 
ATOM     22  C   UNL A   1      41.285  31.802  30.523  1.00  0.00     0.029 A 
ATOM     23  C   UNL A   1      42.464  30.946  30.492  1.00  0.00     0.049 A 
ATOM     24  H   UNL A   1      42.626  29.032  29.682  1.00  0.00     0.167 HD
ATOM     25  C   UNL A   1      42.747  24.939  28.135  1.00  0.00     0.037 A 
ATOM     26  C   UNL A   1      43.667  31.269  31.004  1.00  0.00     0.037 A 
ATOM     27  C   UNL A   1      44.091  25.237  28.563  1.00  0.00     0.049 A 
ATOM     28  C   UNL A   1      44.788  30.275  30.912  1.00  0.00     0.074 A 
ATOM     29  C   UNL A   1      45.223  24.449  28.444  1.00  0.00     0.029 A 
ATOM     30  N   UNL A   1      44.484  26.404  29.201  1.00  0.00    -0.354 N 
ATOM     31  N   UNL A   1      44.786  29.083  30.367  1.00  0.00    -0.248 NA
ATOM     32  C   UNL A   1      46.071  30.665  31.511  1.00  0.00     0.031 C 
ATOM     33  C   UNL A   1      46.290  25.119  29.053  1.00  0.00     0.029 A 
ATOM     34  C   UNL A   1      45.832  26.342  29.515  1.00  0.00     0.049 A 
ATOM     35  H   UNL A   1      43.892  27.165  29.401  1.00  0.00     0.167 HD
ATOM     36  C   UNL A   1      46.066  28.579  30.557  1.00  0.00     0.074 A 
ATOM     37  C   UNL A   1      46.824  29.608  31.239  1.00  0.00     0.031 C 
ATOM     38  C   UNL A   1      46.567  27.370  30.205  1.00  0.00     0.037 A 
BRANCH  25  39
ATOM     39  C   UNL A   1      42.489  23.569  27.572  1.00  0.00     0.058 A 
ATOM     40  C   UNL A   1      42.534  23.319  26.193  1.00  0.00     0.135 A 
ATOM     41  C   UNL A   1      42.308  22.473  28.432  1.00  0.00     0.135 A 
ATOM     42  F   UNL A   1      42.693  24.332  25.327  1.00  0.00    -0.206 F 
ATOM     43  C   UNL A   1      42.413  22.029  25.685  1.00  0.00     0.059 A 
ATOM     44  C   UNL A   1      42.202  21.173  27.948  1.00  0.00     0.059 A 
ATOM     45  F   UNL A   1      42.255  22.660  29.761  1.00  0.00    -0.206 F 
ATOM     46  C   UNL A   1      42.254  20.960  26.571  1.00  0.00     0.060 A 
BRANCH  46  47
ATOM     47  S   UNL A   1      42.153  19.288  25.898  1.00  0.00     0.124 S 
ATOM     48  O   UNL A   1      40.721  19.162  25.643  1.00  0.00    -0.237 OA
ATOM     49  O   UNL A   1      43.001  19.375  24.713  1.00  0.00    -0.237 OA
ATOM     50  O   UNL A   1      42.673  18.454  26.977  1.00  0.00    -0.744 OA
ENDBRANCH  46  47
ENDBRANCH  25  39
BRANCH  26  51
ATOM     51  C   UNL A   1      43.855  32.575  31.687  1.00  0.00     0.058 A 
ATOM     52  C   UNL A   1      43.672  32.707  33.069  1.00  0.00     0.135 A 
ATOM     53  C   UNL A   1      44.226  33.719  30.961  1.00  0.00     0.135 A 
ATOM     54  F   UNL A   1      43.315  31.641  33.803  1.00  0.00    -0.206 F 
ATOM     55  C   UNL A   1      43.824  33.932  33.709  1.00  0.00     0.059 A 
ATOM     56  C   UNL A   1      44.411  34.948  31.582  1.00  0.00     0.059 A 
ATOM     57  F   UNL A   1      44.432  33.639  29.638  1.00  0.00    -0.206 F 
ATOM     58  C   UNL A   1      44.192  35.049  32.954  1.00  0.00     0.060 A 
BRANCH  58  59
ATOM     59  S   UNL A   1      44.415  36.633  33.791  1.00  0.00     0.124 S 
ATOM     60  O   UNL A   1      45.421  37.268  32.950  1.00  0.00    -0.237 OA
ATOM     61  O   UNL A   1      43.075  37.208  33.732  1.00  0.00    -0.237 OA
ATOM     62  O   UNL A   1      44.860  36.242  35.127  1.00  0.00    -0.744 OA
ENDBRANCH  58  59
ENDBRANCH  26  51
BRANCH  38  63
ATOM     63  C   UNL A   1      47.999  27.097  30.559  1.00  0.00     0.058 A 
ATOM     64  C   UNL A   1      48.343  26.441  31.751  1.00  0.00     0.135 A 
ATOM     65  C   UNL A   1      49.036  27.461  29.686  1.00  0.00     0.135 A 
ATOM     66  F   UNL A   1      47.388  26.082  32.624  1.00  0.00    -0.206 F 
ATOM     67  C   UNL A   1      49.668  26.175  32.077  1.00  0.00     0.059 A 
ATOM     68  C   UNL A   1      50.367  27.184  29.980  1.00  0.00     0.059 A 
ATOM     69  F   UNL A   1      48.759  28.085  28.529  1.00  0.00    -0.206 F 
ATOM     70  C   UNL A   1      50.673  26.550  31.184  1.00  0.00     0.060 A 
BRANCH  70  71
ATOM     71  S   UNL A   1      52.388  26.173  31.603  1.00  0.00     0.124 S 
ATOM     72  O   UNL A   1      53.024  26.197  30.291  1.00  0.00    -0.237 OA
ATOM     73  O   UNL A   1      52.741  27.270  32.499  1.00  0.00    -0.237 OA
ATOM     74  O   UNL A   1      52.302  24.860  32.235  1.00  0.00    -0.744 OA
ENDBRANCH  70  71
ENDBRANCH  38  63
ENDBRANCH  12  13
ENDBRANCH   5   7
ENDBRANCH   2   3
ENDBRANCH   1   2
BRANCH   1  75
ATOM     75  C   UNL A   1      33.249  29.219  24.691  1.00  0.00     0.023 C 
BRANCH  75  76
ATOM     76  C   UNL A   1      33.264  29.010  23.180  1.00  0.00     0.116 C 
BRANCH  76  77
ATOM     77  N   UNL A   1      31.994  29.319  22.552  1.00  0.00    -0.352 N 
ATOM     78  C   UNL A   1      30.877  28.555  22.348  1.00  0.00     0.251 C 
ATOM     79  H   UNL A   1      31.923  30.240  22.211  1.00  0.00     0.163 HD
ATOM     80  O   UNL A   1      29.967  28.998  21.648  1.00  0.00    -0.269 OA
BRANCH  78  81
ATOM     81  C   UNL A   1      30.725  27.210  22.942  1.00  0.00     0.041 A 
ATOM     82  C   UNL A   1      30.014  27.106  24.144  1.00  0.00     0.014 A 
ATOM     83  C   UNL A   1      31.409  26.098  22.438  1.00  0.00     0.039 A 
ATOM     84  C   UNL A   1      29.962  25.890  24.824  1.00  0.00     0.003 A 
ATOM     85  C   UNL A   1      31.355  24.872  23.113  1.00  0.00     0.039 A 
ATOM     86  C   UNL A   1      30.638  24.784  24.314  1.00  0.00     0.026 A 
BRANCH  85  87
ATOM     87  N   UNL A   1      32.169  23.792  22.705  1.00  0.00    -0.355 N 
ATOM     88  H   UNL A   1      31.943  23.308  21.879  1.00  0.00     0.167 HD
BRANCH  87  89
ATOM     89  C   UNL A   1      33.303  23.386  23.457  1.00  0.00     0.050 A 
ATOM     90  C   UNL A   1      34.284  24.331  23.760  1.00  0.00     0.047 A 
ATOM     91  C   UNL A   1      33.496  22.040  23.842  1.00  0.00     0.027 A 
ATOM     92  C   UNL A   1      35.397  23.924  24.464  1.00  0.00     0.114 A 
ATOM     93  C   UNL A   1      34.674  21.737  24.563  1.00  0.00     0.072 A 
ATOM     94  C   UNL A   1      32.566  21.013  23.573  1.00  0.00     0.051 A 
ATOM     95  N   UNL A   1      35.604  22.655  24.865  1.00  0.00    -0.256 NA
ATOM     96  C   UNL A   1      34.881  20.431  24.989  1.00  0.00     0.032 A 
ATOM     97  C   UNL A   1      32.806  19.720  24.018  1.00  0.00     0.124 A 
ATOM     98  C   UNL A   1      33.958  19.418  24.725  1.00  0.00     0.041 A 
ATOM     99  F   UNL A   1      31.913  18.754  23.769  1.00  0.00    -0.207 F 
ENDBRANCH  87  89
ENDBRANCH  85  87
ENDBRANCH  78  81
ENDBRANCH  76  77
ENDBRANCH  75  76
ENDBRANCH   1  75
TORSDOF 16
ENDMDL
MODEL 2
REMARK VINA RESULT:     -12.4      1.251      1.765
REMARK SMILES O=C(NCCCCNC(=O)c1cccc(Nc2ccnc3ccc(F)cc23)c1)c1ccc(-c2c3nc(c(-c4c(F)cc(S(=O)(=O)[O-])cc4F)c4ccc([nH]4)c(-c4c(F)cc(S(=O)(=O)[O-])cc4F)c4nc(c(-c5c(F)cc(S(=O)(=O)[O-])cc5F)c5ccc2[nH]5)C=C4)C=C3)cc1
REMARK SMILES IDX 5 1 4 2 3 3 1 4 2 5 29 7 30 8 94 9 31 10 93 11 32 12 33 13
REMARK SMILES IDX 34 14 87 15 35 16 92 17 86 18 88 19 36 20 91 21 85 22 84 23
REMARK SMILES IDX 37 25 71 26 50 27 70 28 51 29 54 30 69 31 89 32 52 33 53 34
REMARK SMILES IDX 68 36 90 37 55 38 38 39 39 40 48 41 40 42 41 43 47 44 49 45
REMARK SMILES IDX 42 46 43 47 44 48 45 49 46 50 72 51 73 52 82 53 74 54 75 55
REMARK SMILES IDX 81 56 83 57 76 58 77 59 78 60 79 61 80 62 56 63 57 64 66 65
REMARK SMILES IDX 58 66 59 67 65 68 67 69 60 70 61 71 62 72 63 73 64 74 6 75
REMARK SMILES IDX 7 76 8 77 9 78 10 80 11 81 12 82 28 83 13 84 15 85 14 86
REMARK SMILES IDX 16 87 17 89 18 90 27 91 19 92 21 93 26 94 20 95 22 96 24 97
REMARK SMILES IDX 23 98 25 99
REMARK H PARENT 3 6 88 24 54 35 8 79 16 88
REMARK Flexibility Score: inf
ROOT
ATOM      1  C   UNL A   1      33.098  27.978  25.637  1.00  0.00     0.023 C 
ENDROOT
BRANCH   1   2
ATOM      2  C   UNL A   1      33.809  28.274  26.953  1.00  0.00     0.116 C 
BRANCH   2   3
ATOM      3  N   UNL A   1      33.608  29.636  27.421  1.00  0.00    -0.352 N 
ATOM      4  O   UNL A   1      34.086  31.562  28.481  1.00  0.00    -0.269 OA
ATOM      5  C   UNL A   1      34.486  30.475  28.063  1.00  0.00     0.251 C 
ATOM      6  H   UNL A   1      32.714  30.011  27.252  1.00  0.00     0.163 HD
BRANCH   5   7
ATOM      7  C   UNL A   1      35.894  30.071  28.278  1.00  0.00     0.039 A 
ATOM      8  C   UNL A   1      36.843  30.190  27.260  1.00  0.00     0.014 A 
ATOM      9  C   UNL A   1      36.278  29.592  29.536  1.00  0.00     0.014 A 
ATOM     10  C   UNL A   1      38.141  29.728  27.461  1.00  0.00     0.010 A 
ATOM     11  C   UNL A   1      37.601  29.196  29.759  1.00  0.00     0.010 A 
ATOM     12  C   UNL A   1      38.539  29.246  28.718  1.00  0.00    -0.014 A 
BRANCH  12  13
ATOM     13  C   UNL A   1      39.967  28.909  28.951  1.00  0.00     0.031 A 
ATOM     14  C   UNL A   1      40.532  27.571  28.562  1.00  0.00     0.074 A 
ATOM     15  C   UNL A   1      40.754  29.839  29.528  1.00  0.00     0.049 A 
ATOM     16  N   UNL A   1      41.755  27.128  28.701  1.00  0.00    -0.248 NA
ATOM     17  C   UNL A   1      39.612  26.604  27.943  1.00  0.00     0.031 C 
ATOM     18  C   UNL A   1      40.304  31.161  29.977  1.00  0.00     0.029 A 
ATOM     19  N   UNL A   1      42.090  29.826  29.834  1.00  0.00    -0.354 N 
ATOM     20  C   UNL A   1      41.753  25.829  28.207  1.00  0.00     0.074 A 
ATOM     21  C   UNL A   1      40.400  25.548  27.774  1.00  0.00     0.031 C 
ATOM     22  C   UNL A   1      41.347  31.836  30.479  1.00  0.00     0.029 A 
ATOM     23  C   UNL A   1      42.527  30.982  30.438  1.00  0.00     0.049 A 
ATOM     24  H   UNL A   1      42.681  29.062  29.640  1.00  0.00     0.167 HD
ATOM     25  C   UNL A   1      42.787  24.958  28.122  1.00  0.00     0.037 A 
ATOM     26  C   UNL A   1      43.736  31.309  30.933  1.00  0.00     0.037 A 
ATOM     27  C   UNL A   1      44.137  25.261  28.530  1.00  0.00     0.049 A 
ATOM     28  C   UNL A   1      44.857  30.316  30.834  1.00  0.00     0.074 A 
ATOM     29  C   UNL A   1      45.268  24.473  28.403  1.00  0.00     0.029 A 
ATOM     30  N   UNL A   1      44.536  26.433  29.154  1.00  0.00    -0.354 N 
ATOM     31  N   UNL A   1      44.849  29.120  30.297  1.00  0.00    -0.248 NA
ATOM     32  C   UNL A   1      46.147  30.711  31.413  1.00  0.00     0.031 C 
ATOM     33  C   UNL A   1      46.342  25.149  28.993  1.00  0.00     0.029 A 
ATOM     34  C   UNL A   1      45.888  26.374  29.451  1.00  0.00     0.049 A 
ATOM     35  H   UNL A   1      43.945  27.194  29.356  1.00  0.00     0.167 HD
ATOM     36  C   UNL A   1      46.132  28.619  30.474  1.00  0.00     0.074 A 
ATOM     37  C   UNL A   1      46.898  29.654  31.140  1.00  0.00     0.031 C 
ATOM     38  C   UNL A   1      46.630  27.408  30.125  1.00  0.00     0.037 A 
BRANCH  25  39
ATOM     39  C   UNL A   1      42.523  23.584  27.572  1.00  0.00     0.058 A 
ATOM     40  C   UNL A   1      42.550  23.324  26.194  1.00  0.00     0.135 A 
ATOM     41  C   UNL A   1      42.356  22.493  28.442  1.00  0.00     0.135 A 
ATOM     42  F   UNL A   1      42.695  24.331  25.319  1.00  0.00    -0.206 F 
ATOM     43  C   UNL A   1      42.424  22.030  25.697  1.00  0.00     0.059 A 
ATOM     44  C   UNL A   1      42.245  21.190  27.969  1.00  0.00     0.059 A 
ATOM     45  F   UNL A   1      42.322  22.690  29.770  1.00  0.00    -0.206 F 
ATOM     46  C   UNL A   1      42.279  20.967  26.593  1.00  0.00     0.060 A 
BRANCH  46  47
ATOM     47  S   UNL A   1      42.171  19.290  25.933  1.00  0.00     0.124 S 
ATOM     48  O   UNL A   1      40.739  19.167  25.683  1.00  0.00    -0.237 OA
ATOM     49  O   UNL A   1      43.016  19.366  24.745  1.00  0.00    -0.237 OA
ATOM     50  O   UNL A   1      42.693  18.463  27.017  1.00  0.00    -0.744 OA
ENDBRANCH  46  47
ENDBRANCH  25  39
BRANCH  26  51
ATOM     51  C   UNL A   1      43.932  32.620  31.603  1.00  0.00     0.058 A 
ATOM     52  C   UNL A   1      43.734  32.770  32.982  1.00  0.00     0.135 A 
ATOM     53  C   UNL A   1      44.323  33.752  30.870  1.00  0.00     0.135 A 
ATOM     54  F   UNL A   1      43.357  31.716  33.723  1.00  0.00    -0.206 F 
ATOM     55  C   UNL A   1      43.893  34.000  33.610  1.00  0.00     0.059 A 
ATOM     56  C   UNL A   1      44.515  34.986  31.479  1.00  0.00     0.059 A 
ATOM     57  F   UNL A   1      44.544  33.656  29.550  1.00  0.00    -0.206 F 
ATOM     58  C   UNL A   1      44.282  35.104  32.848  1.00  0.00     0.060 A 
BRANCH  58  59
ATOM     59  S   UNL A   1      44.513  36.694  33.671  1.00  0.00     0.124 S 
ATOM     60  O   UNL A   1      43.141  37.177  33.764  1.00  0.00    -0.237 OA
ATOM     61  O   UNL A   1      45.142  36.306  34.929  1.00  0.00    -0.237 OA
ATOM     62  O   UNL A   1      45.380  37.423  32.747  1.00  0.00    -0.744 OA
ENDBRANCH  58  59
ENDBRANCH  26  51
BRANCH  38  63
ATOM     63  C   UNL A   1      48.067  27.139  30.462  1.00  0.00     0.058 A 
ATOM     64  C   UNL A   1      48.431  26.548  31.683  1.00  0.00     0.135 A 
ATOM     65  C   UNL A   1      49.088  27.442  29.547  1.00  0.00     0.135 A 
ATOM     66  F   UNL A   1      47.492  26.251  32.595  1.00  0.00    -0.206 F 
ATOM     67  C   UNL A   1      49.760  26.286  31.993  1.00  0.00     0.059 A 
ATOM     68  C   UNL A   1      50.422  27.166  29.828  1.00  0.00     0.059 A 
ATOM     69  F   UNL A   1      48.791  28.001  28.363  1.00  0.00    -0.206 F 
ATOM     70  C   UNL A   1      50.749  26.598  31.059  1.00  0.00     0.060 A 
BRANCH  70  71
ATOM     71  S   UNL A   1      52.469  26.226  31.461  1.00  0.00     0.124 S 
ATOM     72  O   UNL A   1      53.096  26.275  30.146  1.00  0.00    -0.237 OA
ATOM     73  O   UNL A   1      52.821  27.311  32.372  1.00  0.00    -0.237 OA
ATOM     74  O   UNL A   1      52.395  24.903  32.073  1.00  0.00    -0.744 OA
ENDBRANCH  70  71
ENDBRANCH  38  63
ENDBRANCH  12  13
ENDBRANCH   5   7
ENDBRANCH   2   3
ENDBRANCH   1   2
BRANCH   1  75
ATOM     75  C   UNL A   1      33.886  28.289  24.362  1.00  0.00     0.023 C 
BRANCH  75  76
ATOM     76  C   UNL A   1      33.048  28.692  23.152  1.00  0.00     0.116 C 
BRANCH  76  77
ATOM     77  N   UNL A   1      33.223  27.803  22.020  1.00  0.00    -0.352 N 
ATOM     78  C   UNL A   1      32.972  26.466  21.874  1.00  0.00     0.251 C 
ATOM     79  H   UNL A   1      33.587  28.237  21.215  1.00  0.00     0.163 HD
ATOM     80  O   UNL A   1      33.347  25.893  20.852  1.00  0.00    -0.269 OA
BRANCH  78  81
ATOM     81  C   UNL A   1      32.261  25.682  22.908  1.00  0.00     0.041 A 
ATOM     82  C   UNL A   1      30.911  25.978  23.136  1.00  0.00     0.014 A 
ATOM     83  C   UNL A   1      32.935  24.801  23.760  1.00  0.00     0.039 A 
ATOM     84  C   UNL A   1      30.231  25.376  24.192  1.00  0.00     0.003 A 
ATOM     85  C   UNL A   1      32.256  24.187  24.819  1.00  0.00     0.039 A 
ATOM     86  C   UNL A   1      30.905  24.493  25.033  1.00  0.00     0.026 A 
BRANCH  85  87
ATOM     87  N   UNL A   1      32.959  23.426  25.779  1.00  0.00    -0.355 N 
ATOM     88  H   UNL A   1      32.979  23.736  26.714  1.00  0.00     0.167 HD
BRANCH  87  89
ATOM     89  C   UNL A   1      33.639  22.229  25.432  1.00  0.00     0.050 A 
ATOM     90  C   UNL A   1      32.891  21.074  25.198  1.00  0.00     0.047 A 
ATOM     91  C   UNL A   1      35.049  22.161  25.389  1.00  0.00     0.027 A 
ATOM     92  C   UNL A   1      33.558  19.907  24.890  1.00  0.00     0.114 A 
ATOM     93  C   UNL A   1      35.626  20.913  25.061  1.00  0.00     0.072 A 
ATOM     94  C   UNL A   1      35.889  23.272  25.621  1.00  0.00     0.051 A 
ATOM     95  N   UNL A   1      34.900  19.811  24.819  1.00  0.00    -0.256 NA
ATOM     96  C   UNL A   1      37.009  20.816  24.974  1.00  0.00     0.032 A 
ATOM     97  C   UNL A   1      37.267  23.137  25.522  1.00  0.00     0.124 A 
ATOM     98  C   UNL A   1      37.838  21.916  25.200  1.00  0.00     0.041 A 
ATOM     99  F   UNL A   1      38.056  24.199  25.732  1.00  0.00    -0.207 F 
ENDBRANCH  87  89
ENDBRANCH  85  87
ENDBRANCH  78  81
ENDBRANCH  76  77
ENDBRANCH  75  76
ENDBRANCH   1  75
TORSDOF 16
ENDMDL
MODEL 3
REMARK VINA RESULT:     -12.2      0.450      8.210
REMARK SMILES O=C(NCCCCNC(=O)c1cccc(Nc2ccnc3ccc(F)cc23)c1)c1ccc(-c2c3nc(c(-c4c(F)cc(S(=O)(=O)[O-])cc4F)c4ccc([nH]4)c(-c4c(F)cc(S(=O)(=O)[O-])cc4F)c4nc(c(-c5c(F)cc(S(=O)(=O)[O-])cc5F)c5ccc2[nH]5)C=C4)C=C3)cc1
REMARK SMILES IDX 5 1 4 2 3 3 1 4 2 5 29 7 30 8 94 9 31 10 93 11 32 12 33 13
REMARK SMILES IDX 34 14 87 15 35 16 92 17 86 18 88 19 36 20 91 21 85 22 84 23
REMARK SMILES IDX 37 25 71 26 50 27 70 28 51 29 54 30 69 31 89 32 52 33 53 34
REMARK SMILES IDX 68 36 90 37 55 38 38 39 39 40 48 41 40 42 41 43 47 44 49 45
REMARK SMILES IDX 42 46 43 47 44 48 45 49 46 50 72 51 73 52 82 53 74 54 75 55
REMARK SMILES IDX 81 56 83 57 76 58 77 59 78 60 79 61 80 62 56 63 57 64 66 65
REMARK SMILES IDX 58 66 59 67 65 68 67 69 60 70 61 71 62 72 63 73 64 74 6 75
REMARK SMILES IDX 7 76 8 77 9 78 10 80 11 81 12 82 28 83 13 84 15 85 14 86
REMARK SMILES IDX 16 87 17 89 18 90 27 91 19 92 21 93 26 94 20 95 22 96 24 97
REMARK SMILES IDX 23 98 25 99
REMARK H PARENT 3 6 88 24 54 35 8 79 16 88
REMARK Flexibility Score: inf
ROOT
ATOM      1  C   UNL A   1      33.764  27.949  25.274  1.00  0.00     0.023 C 
ENDROOT
BRANCH   1   2
ATOM      2  C   UNL A   1      33.816  28.094  26.791  1.00  0.00     0.116 C 
BRANCH   2   3
ATOM      3  N   UNL A   1      33.533  29.445  27.249  1.00  0.00    -0.352 N 
ATOM      4  O   UNL A   1      33.878  31.390  28.324  1.00  0.00    -0.269 OA
ATOM      5  C   UNL A   1      34.345  30.324  27.923  1.00  0.00     0.251 C 
ATOM      6  H   UNL A   1      32.629  29.777  27.046  1.00  0.00     0.163 HD
BRANCH   5   7
ATOM      7  C   UNL A   1      35.761  29.987  28.192  1.00  0.00     0.039 A 
ATOM      8  C   UNL A   1      36.732  30.099  27.193  1.00  0.00     0.014 A 
ATOM      9  C   UNL A   1      36.129  29.582  29.480  1.00  0.00     0.014 A 
ATOM     10  C   UNL A   1      38.041  29.699  27.448  1.00  0.00     0.010 A 
ATOM     11  C   UNL A   1      37.460  29.250  29.754  1.00  0.00     0.010 A 
ATOM     12  C   UNL A   1      38.424  29.291  28.736  1.00  0.00    -0.014 A 
BRANCH  12  13
ATOM     13  C   UNL A   1      39.857  29.023  29.019  1.00  0.00     0.031 A 
ATOM     14  C   UNL A   1      40.753  30.076  29.608  1.00  0.00     0.074 A 
ATOM     15  C   UNL A   1      40.343  27.799  28.730  1.00  0.00     0.049 A 
ATOM     16  N   UNL A   1      42.023  29.994  29.911  1.00  0.00    -0.248 NA
ATOM     17  C   UNL A   1      40.154  31.390  29.892  1.00  0.00     0.031 C 
ATOM     18  C   UNL A   1      39.572  26.708  28.125  1.00  0.00     0.029 A 
ATOM     19  N   UNL A   1      41.592  27.260  28.905  1.00  0.00    -0.354 N 
ATOM     20  C   UNL A   1      42.383  31.244  30.401  1.00  0.00     0.074 A 
ATOM     21  C   UNL A   1      41.199  32.074  30.345  1.00  0.00     0.031 C 
ATOM     22  C   UNL A   1      40.356  25.628  28.001  1.00  0.00     0.029 A 
ATOM     23  C   UNL A   1      41.696  25.961  28.465  1.00  0.00     0.049 A 
ATOM     24  H   UNL A   1      42.342  27.755  29.308  1.00  0.00     0.167 HD
ATOM     25  C   UNL A   1      43.592  31.653  30.858  1.00  0.00     0.037 A 
ATOM     26  C   UNL A   1      42.759  25.136  28.412  1.00  0.00     0.037 A 
ATOM     27  C   UNL A   1      44.757  30.807  30.936  1.00  0.00     0.049 A 
ATOM     28  C   UNL A   1      44.087  25.626  28.915  1.00  0.00     0.074 A 
ATOM     29  C   UNL A   1      46.001  31.108  31.464  1.00  0.00     0.029 A 
ATOM     30  N   UNL A   1      44.830  29.506  30.463  1.00  0.00    -0.354 N 
ATOM     31  N   UNL A   1      44.387  26.788  29.441  1.00  0.00    -0.248 NA
ATOM     32  C   UNL A   1      45.220  24.698  28.809  1.00  0.00     0.031 C 
ATOM     33  C   UNL A   1      46.840  30.005  31.267  1.00  0.00     0.029 A 
ATOM     34  C   UNL A   1      46.107  29.004  30.653  1.00  0.00     0.049 A 
ATOM     35  H   UNL A   1      44.084  29.012  30.053  1.00  0.00     0.167 HD
ATOM     36  C   UNL A   1      45.744  26.732  29.730  1.00  0.00     0.074 A 
ATOM     37  C   UNL A   1      46.199  25.410  29.349  1.00  0.00     0.031 C 
ATOM     38  C   UNL A   1      46.545  27.690  30.256  1.00  0.00     0.037 A 
BRANCH  25  39
ATOM     39  C   UNL A   1      43.741  33.078  31.312  1.00  0.00     0.058 A 
ATOM     40  C   UNL A   1      43.513  33.456  32.644  1.00  0.00     0.135 A 
ATOM     41  C   UNL A   1      44.229  34.056  30.428  1.00  0.00     0.135 A 
ATOM     42  F   UNL A   1      43.036  32.564  33.527  1.00  0.00    -0.206 F 
ATOM     43  C   UNL A   1      43.767  34.750  33.086  1.00  0.00     0.059 A 
ATOM     44  C   UNL A   1      44.507  35.352  30.852  1.00  0.00     0.059 A 
ATOM     45  F   UNL A   1      44.462  33.746  29.143  1.00  0.00    -0.206 F 
ATOM     46  C   UNL A   1      44.272  35.691  32.183  1.00  0.00     0.060 A 
BRANCH  46  47
ATOM     47  S   UNL A   1      44.646  37.351  32.785  1.00  0.00     0.124 S 
ATOM     48  O   UNL A   1      43.363  37.752  33.353  1.00  0.00    -0.237 OA
ATOM     49  O   UNL A   1      45.714  37.101  33.750  1.00  0.00    -0.237 OA
ATOM     50  O   UNL A   1      45.051  38.068  31.580  1.00  0.00    -0.744 OA
ENDBRANCH  46  47
ENDBRANCH  25  39
BRANCH  26  51
ATOM     51  C   UNL A   1      42.617  23.780  27.823  1.00  0.00     0.058 A 
ATOM     52  C   UNL A   1      42.634  23.584  26.436  1.00  0.00     0.135 A 
ATOM     53  C   UNL A   1      42.461  22.652  28.644  1.00  0.00     0.135 A 
ATOM     54  F   UNL A   1      42.778  24.633  25.612  1.00  0.00    -0.206 F 
ATOM     55  C   UNL A   1      42.477  22.319  25.879  1.00  0.00     0.059 A 
ATOM     56  C   UNL A   1      42.330  21.375  28.112  1.00  0.00     0.059 A 
ATOM     57  F   UNL A   1      42.457  22.786  29.979  1.00  0.00    -0.206 F 
ATOM     58  C   UNL A   1      42.322  21.220  26.727  1.00  0.00     0.060 A 
BRANCH  58  59
ATOM     59  S   UNL A   1      42.146  19.577  26.002  1.00  0.00     0.124 S 
ATOM     60  O   UNL A   1      42.580  18.725  27.101  1.00  0.00    -0.237 OA
ATOM     61  O   UNL A   1      40.724  19.529  25.679  1.00  0.00    -0.237 OA
ATOM     62  O   UNL A   1      43.040  19.626  24.847  1.00  0.00    -0.744 OA
ENDBRANCH  58  59
ENDBRANCH  26  51
BRANCH  38  63
ATOM     63  C   UNL A   1      47.992  27.343  30.443  1.00  0.00     0.058 A 
ATOM     64  C   UNL A   1      48.951  27.666  29.470  1.00  0.00     0.135 A 
ATOM     65  C   UNL A   1      48.433  26.712  31.617  1.00  0.00     0.135 A 
ATOM     66  F   UNL A   1      48.576  28.259  28.325  1.00  0.00    -0.206 F 
ATOM     67  C   UNL A   1      50.295  27.357  29.645  1.00  0.00     0.059 A 
ATOM     68  C   UNL A   1      49.776  26.415  31.823  1.00  0.00     0.059 A 
ATOM     69  F   UNL A   1      47.556  26.388  32.581  1.00  0.00    -0.206 F 
ATOM     70  C   UNL A   1      50.698  26.731  30.826  1.00  0.00     0.060 A 
BRANCH  70  71
ATOM     71  S   UNL A   1      52.450  26.361  31.055  1.00  0.00     0.124 S 
ATOM     72  O   UNL A   1      52.908  26.244  29.675  1.00  0.00    -0.237 OA
ATOM     73  O   UNL A   1      52.926  27.532  31.784  1.00  0.00    -0.237 OA
ATOM     74  O   UNL A   1      52.436  25.117  31.819  1.00  0.00    -0.744 OA
ENDBRANCH  70  71
ENDBRANCH  38  63
ENDBRANCH  12  13
ENDBRANCH   5   7
ENDBRANCH   2   3
ENDBRANCH   1   2
BRANCH   1  75
ATOM     75  C   UNL A   1      33.277  29.174  24.497  1.00  0.00     0.023 C 
BRANCH  75  76
ATOM     76  C   UNL A   1      33.197  29.005  22.983  1.00  0.00     0.116 C 
BRANCH  76  77
ATOM     77  N   UNL A   1      31.885  29.313  22.446  1.00  0.00    -0.352 N 
ATOM     78  C   UNL A   1      30.760  28.545  22.312  1.00  0.00     0.251 C 
ATOM     79  H   UNL A   1      31.786  30.237  22.120  1.00  0.00     0.163 HD
ATOM     80  O   UNL A   1      29.803  28.990  21.682  1.00  0.00    -0.269 OA
BRANCH  78  81
ATOM     81  C   UNL A   1      30.656  27.194  22.904  1.00  0.00     0.041 A 
ATOM     82  C   UNL A   1      29.977  27.067  24.122  1.00  0.00     0.014 A 
ATOM     83  C   UNL A   1      31.354  26.102  22.377  1.00  0.00     0.039 A 
ATOM     84  C   UNL A   1      29.971  25.848  24.797  1.00  0.00     0.003 A 
ATOM     85  C   UNL A   1      31.347  24.872  23.047  1.00  0.00     0.039 A 
ATOM     86  C   UNL A   1      30.662  24.761  24.265  1.00  0.00     0.026 A 
BRANCH  85  87
ATOM     87  N   UNL A   1      32.176  23.814  22.614  1.00  0.00    -0.355 N 
ATOM     88  H   UNL A   1      31.960  23.349  21.774  1.00  0.00     0.167 HD
BRANCH  87  89
ATOM     89  C   UNL A   1      33.313  23.402  23.359  1.00  0.00     0.050 A 
ATOM     90  C   UNL A   1      34.318  24.334  23.625  1.00  0.00     0.047 A 
ATOM     91  C   UNL A   1      33.483  22.063  23.775  1.00  0.00     0.027 A 
ATOM     92  C   UNL A   1      35.432  23.921  24.323  1.00  0.00     0.114 A 
ATOM     93  C   UNL A   1      34.665  21.753  24.486  1.00  0.00     0.072 A 
ATOM     94  C   UNL A   1      32.529  21.049  23.544  1.00  0.00     0.051 A 
ATOM     95  N   UNL A   1      35.619  22.658  24.753  1.00  0.00    -0.256 NA
ATOM     96  C   UNL A   1      34.852  20.454  24.942  1.00  0.00     0.032 A 
ATOM     97  C   UNL A   1      32.749  19.762  24.018  1.00  0.00     0.124 A 
ATOM     98  C   UNL A   1      33.905  19.453  24.716  1.00  0.00     0.041 A 
ATOM     99  F   UNL A   1      31.832  18.810  23.805  1.00  0.00    -0.207 F 
ENDBRANCH  87  89
ENDBRANCH  85  87
ENDBRANCH  78  81
ENDBRANCH  76  77
ENDBRANCH  75  76
ENDBRANCH   1  75
TORSDOF 16
ENDMDL
