MODEL 1
REMARK VINA RESULT:     -12.0      0.000      0.000
REMARK SMILES CC[C@@H](C)[C@@H](NC(=O)Cn1ncc2ccccc2c1=O)C(=O)NCCCCNC(=O)c1ccc(-c2c3nc(c(-c4c(F)cc(S(=O)(=O)[O-])cc4F)c4ccc([nH]4)c(-c4c(F)cc(S(=O)(=O)[O-])cc4F)c4nc(c(-c5c(F)cc(S(=O)(=O)[O-])cc5F)c5ccc2[nH]5)C=C4)C=C3)cc1
REMARK SMILES IDX 25 1 24 2 23 3 21 4 22 5 5 7 3 8 4 9 2 10 1 11 6 12 7 13
REMARK SMILES IDX 8 15 9 16 10 17 11 18 19 19 12 20 18 21 20 22 13 23 17 24
REMARK SMILES IDX 14 25 16 26 15 27 26 28 27 29 28 30 29 31 30 33 31 34 32 35
REMARK SMILES IDX 96 36 33 37 95 38 34 39 35 40 36 41 89 42 37 43 94 44 88 45
REMARK SMILES IDX 90 46 38 47 93 48 87 49 86 50 39 52 73 53 52 54 72 55 53 56
REMARK SMILES IDX 56 57 71 58 91 59 54 60 55 61 70 63 92 64 57 65 40 66 41 67
REMARK SMILES IDX 50 68 42 69 43 70 49 71 51 72 44 73 45 74 46 75 47 76 48 77
REMARK SMILES IDX 74 78 75 79 84 80 76 81 77 82 83 83 85 84 78 85 79 86 80 87
REMARK SMILES IDX 81 88 82 89 58 90 59 91 68 92 60 93 61 94 67 95 69 96 62 97
REMARK SMILES IDX 63 98 64 99 65 100 66 101
REMARK H PARENT 23 6 6 14 28 32 90 51 56 62
REMARK Flexibility Score: inf
ROOT
ATOM      1  C   UNL A   1      36.683  23.422  24.793  1.00  0.00     0.023 C 
ENDROOT
BRANCH   1   2
ATOM      2  C   UNL A   1      35.563  24.479  25.380  1.00  0.00     0.116 C 
BRANCH   2   3
ATOM      3  N   UNL A   1      34.679  25.057  24.363  1.00  0.00    -0.354 N 
ATOM      4  C   UNL A   1      33.706  26.008  24.479  1.00  0.00     0.242 C 
ATOM      5  O   UNL A   1      33.251  26.552  23.474  1.00  0.00    -0.273 OA
ATOM      6  H   UNL A   1      34.806  24.704  23.453  1.00  0.00     0.163 HD
BRANCH   4   7
ATOM      7  C   UNL A   1      33.128  26.271  25.851  1.00  0.00     0.174 C 
BRANCH   7   8
ATOM      8  C   UNL A   1      33.131  27.851  25.987  1.00  0.00     0.018 C 
ATOM      9  C   UNL A   1      34.280  28.400  26.866  1.00  0.00     0.010 C 
BRANCH   8  10
ATOM     10  C   UNL A   1      31.813  28.602  26.203  1.00  0.00     0.002 C 
ATOM     11  C   UNL A   1      32.023  29.742  27.223  1.00  0.00     0.004 C 
ENDBRANCH   8  10
ENDBRANCH   7   8
BRANCH   7  12
ATOM     12  N   UNL A   1      31.806  25.597  25.916  1.00  0.00    -0.342 N 
ATOM     13  C   UNL A   1      31.399  24.411  26.496  1.00  0.00     0.242 C 
ATOM     14  H   UNL A   1      31.085  26.088  25.461  1.00  0.00     0.164 HD
ATOM     15  O   UNL A   1      30.236  24.434  26.926  1.00  0.00    -0.273 OA
BRANCH  13  16
ATOM     16  C   UNL A   1      32.242  23.087  26.660  1.00  0.00     0.248 C 
BRANCH  16  17
ATOM     17  N   UNL A   1      32.735  22.437  25.431  1.00  0.00    -0.220 N 
ATOM     18  N   UNL A   1      32.349  23.014  24.201  1.00  0.00    -0.177 NA
ATOM     19  C   UNL A   1      33.703  21.432  25.531  1.00  0.00     0.275 A 
ATOM     20  C   UNL A   1      32.317  22.308  23.107  1.00  0.00     0.142 A 
ATOM     21  C   UNL A   1      33.533  20.380  24.518  1.00  0.00     0.050 A 
ATOM     22  O   UNL A   1      34.451  21.215  26.473  1.00  0.00    -0.267 OA
ATOM     23  C   UNL A   1      32.590  20.879  23.091  1.00  0.00     0.007 A 
ATOM     24  C   UNL A   1      33.906  18.630  24.797  1.00  0.00     0.014 A 
ATOM     25  C   UNL A   1      31.968  19.665  21.917  1.00  0.00     0.010 A 
ATOM     26  C   UNL A   1      33.356  17.381  23.611  1.00  0.00     0.001 A 
ATOM     27  C   UNL A   1      32.368  17.910  22.179  1.00  0.00     0.001 A 
ENDBRANCH  16  17
ENDBRANCH  13  16
ENDBRANCH   7  12
ENDBRANCH   4   7
ENDBRANCH   2   3
ENDBRANCH   1   2
BRANCH   1  28
ATOM     28  C   UNL A   1      37.862  21.751  25.574  1.00  0.00     0.023 C 
BRANCH  28  29
ATOM     29  C   UNL A   1      39.424  21.530  26.117  1.00  0.00     0.116 C 
BRANCH  29  30
ATOM     30  N   UNL A   1      39.949  20.167  26.165  1.00  0.00    -0.352 N 
ATOM     31  C   UNL A   1      41.280  19.817  26.119  1.00  0.00     0.251 C 
ATOM     32  H   UNL A   1      39.295  19.436  26.237  1.00  0.00     0.163 HD
ATOM     33  O   UNL A   1      41.661  18.671  25.948  1.00  0.00    -0.269 OA
BRANCH  31  34
ATOM     34  C   UNL A   1      42.209  20.938  26.330  1.00  0.00     0.039 A 
ATOM     35  C   UNL A   1      42.447  21.281  27.666  1.00  0.00     0.014 A 
ATOM     36  C   UNL A   1      42.474  21.819  25.283  1.00  0.00     0.014 A 
ATOM     37  C   UNL A   1      42.773  22.588  27.964  1.00  0.00     0.010 A 
ATOM     38  C   UNL A   1      42.958  23.090  25.591  1.00  0.00     0.010 A 
ATOM     39  C   UNL A   1      43.079  23.494  26.932  1.00  0.00    -0.014 A 
BRANCH  39  40
ATOM     40  C   UNL A   1      43.607  24.831  27.284  1.00  0.00     0.031 A 
ATOM     41  C   UNL A   1      42.715  25.916  27.818  1.00  0.00     0.074 A 
ATOM     42  C   UNL A   1      44.926  25.043  27.103  1.00  0.00     0.049 A 
ATOM     43  N   UNL A   1      42.996  27.176  28.025  1.00  0.00    -0.248 NA
ATOM     44  C   UNL A   1      41.328  25.552  28.158  1.00  0.00     0.031 C 
ATOM     45  C   UNL A   1      45.887  24.039  26.626  1.00  0.00     0.029 A 
ATOM     46  N   UNL A   1      45.693  26.157  27.300  1.00  0.00    -0.354 N 
ATOM     47  C   UNL A   1      41.828  27.761  28.499  1.00  0.00     0.074 A 
ATOM     48  C   UNL A   1      40.820  26.722  28.528  1.00  0.00     0.031 C 
ATOM     49  C   UNL A   1      47.115  24.567  26.617  1.00  0.00     0.029 A 
ATOM     50  C   UNL A   1      47.013  25.973  26.965  1.00  0.00     0.049 A 
ATOM     51  H   UNL A   1      45.336  27.006  27.647  1.00  0.00     0.167 HD
ATOM     52  C   UNL A   1      41.630  29.046  28.879  1.00  0.00     0.037 A 
ATOM     53  C   UNL A   1      48.026  26.852  26.889  1.00  0.00     0.037 A 
ATOM     54  C   UNL A   1      42.660  30.056  28.848  1.00  0.00     0.049 A 
ATOM     55  C   UNL A   1      47.745  28.286  27.221  1.00  0.00     0.074 A 
ATOM     56  C   UNL A   1      42.563  31.392  29.199  1.00  0.00     0.029 A 
ATOM     57  N   UNL A   1      43.975  29.842  28.457  1.00  0.00    -0.354 N 
ATOM     58  N   UNL A   1      46.625  28.832  27.631  1.00  0.00    -0.248 NA
ATOM     59  C   UNL A   1      48.861  29.225  27.075  1.00  0.00     0.031 C 
ATOM     60  C   UNL A   1      43.802  31.995  28.970  1.00  0.00     0.029 A 
ATOM     61  C   UNL A   1      44.693  31.024  28.545  1.00  0.00     0.049 A 
ATOM     62  H   UNL A   1      44.343  28.979  28.161  1.00  0.00     0.167 HD
ATOM     63  C   UNL A   1      46.916  30.175  27.833  1.00  0.00     0.074 A 
ATOM     64  C   UNL A   1      48.318  30.349  27.516  1.00  0.00     0.031 C 
ATOM     65  C   UNL A   1      46.095  31.173  28.243  1.00  0.00     0.037 A 
BRANCH  52  66
ATOM     66  C   UNL A   1      40.266  29.456  29.365  1.00  0.00     0.058 A 
ATOM     67  C   UNL A   1      39.996  29.630  30.731  1.00  0.00     0.135 A 
ATOM     68  C   UNL A   1      39.257  29.806  28.451  1.00  0.00     0.135 A 
ATOM     69  F   UNL A   1      40.913  29.291  31.651  1.00  0.00    -0.206 F 
ATOM     70  C   UNL A   1      38.781  30.144  31.173  1.00  0.00     0.059 A 
ATOM     71  C   UNL A   1      38.044  30.348  28.869  1.00  0.00     0.059 A 
ATOM     72  F   UNL A   1      39.458  29.657  27.132  1.00  0.00    -0.206 F 
ATOM     73  C   UNL A   1      37.816  30.515  30.234  1.00  0.00     0.060 A 
BRANCH  73  74
ATOM     74  S   UNL A   1      36.271  31.231  30.832  1.00  0.00     0.124 S 
ATOM     75  O   UNL A   1      35.421  31.120  29.650  1.00  0.00    -0.237 OA
ATOM     76  O   UNL A   1      35.932  30.346  31.941  1.00  0.00    -0.237 OA
ATOM     77  O   UNL A   1      36.646  32.591  31.206  1.00  0.00    -0.744 OA
ENDBRANCH  73  74
ENDBRANCH  52  66
BRANCH  53  78
ATOM     78  C   UNL A   1      49.376  26.403  26.462  1.00  0.00     0.058 A 
ATOM     79  C   UNL A   1      50.245  25.791  27.376  1.00  0.00     0.135 A 
ATOM     80  C   UNL A   1      49.829  26.575  25.143  1.00  0.00     0.135 A 
ATOM     81  F   UNL A   1      49.854  25.598  28.646  1.00  0.00    -0.206 F 
ATOM     82  C   UNL A   1      51.529  25.405  27.012  1.00  0.00     0.059 A 
ATOM     83  C   UNL A   1      51.094  26.160  24.744  1.00  0.00     0.059 A 
ATOM     84  F   UNL A   1      49.028  27.130  24.220  1.00  0.00    -0.206 F 
ATOM     85  C   UNL A   1      51.945  25.598  25.693  1.00  0.00     0.060 A 
BRANCH  85  86
ATOM     86  S   UNL A   1      53.620  25.107  25.241  1.00  0.00     0.124 S 
ATOM     87  O   UNL A   1      53.717  25.622  23.881  1.00  0.00    -0.237 OA
ATOM     88  O   UNL A   1      54.420  25.802  26.246  1.00  0.00    -0.237 OA
ATOM     89  O   UNL A   1      53.591  23.653  25.365  1.00  0.00    -0.744 OA
ENDBRANCH  85  86
ENDBRANCH  53  78
BRANCH  65  90
ATOM     90  C   UNL A   1      46.713  32.530  28.433  1.00  0.00     0.058 A 
ATOM     91  C   UNL A   1      46.723  33.493  27.412  1.00  0.00     0.135 A 
ATOM     92  C   UNL A   1      47.278  32.880  29.672  1.00  0.00     0.135 A 
ATOM     93  F   UNL A   1      46.202  33.207  26.208  1.00  0.00    -0.206 F 
ATOM     94  C   UNL A   1      47.309  34.739  27.598  1.00  0.00     0.059 A 
ATOM     95  C   UNL A   1      47.833  34.135  29.892  1.00  0.00     0.059 A 
ATOM     96  F   UNL A   1      47.284  32.001  30.686  1.00  0.00    -0.206 F 
ATOM     97  C   UNL A   1      47.859  35.052  28.843  1.00  0.00     0.060 A 
BRANCH  97  98
ATOM     98  S   UNL A   1      48.602  36.679  29.069  1.00  0.00     0.124 S 
ATOM     99  O   UNL A   1      47.726  37.518  28.258  1.00  0.00    -0.237 OA
ATOM    100  O   UNL A   1      48.502  36.866  30.513  1.00  0.00    -0.237 OA
ATOM    101  O   UNL A   1      49.958  36.509  28.556  1.00  0.00    -0.744 OA
ENDBRANCH  97  98
ENDBRANCH  65  90
ENDBRANCH  39  40
ENDBRANCH  31  34
ENDBRANCH  29  30
ENDBRANCH  28  29
ENDBRANCH   1  28
TORSDOF 19
ENDMDL
MODEL 2
REMARK VINA RESULT:     -11.9      2.415      8.312
REMARK SMILES CC[C@@H](C)[C@@H](NC(=O)Cn1ncc2ccccc2c1=O)C(=O)NCCCCNC(=O)c1ccc(-c2c3nc(c(-c4c(F)cc(S(=O)(=O)[O-])cc4F)c4ccc([nH]4)c(-c4c(F)cc(S(=O)(=O)[O-])cc4F)c4nc(c(-c5c(F)cc(S(=O)(=O)[O-])cc5F)c5ccc2[nH]5)C=C4)C=C3)cc1
REMARK SMILES IDX 25 1 24 2 23 3 21 4 22 5 5 7 3 8 4 9 2 10 1 11 6 12 7 13
REMARK SMILES IDX 8 15 9 16 10 17 11 18 19 19 12 20 18 21 20 22 13 23 17 24
REMARK SMILES IDX 14 25 16 26 15 27 26 28 27 29 28 30 29 31 30 33 31 34 32 35
REMARK SMILES IDX 96 36 33 37 95 38 34 39 35 40 36 41 89 42 37 43 94 44 88 45
REMARK SMILES IDX 90 46 38 47 93 48 87 49 86 50 39 52 73 53 52 54 72 55 53 56
REMARK SMILES IDX 56 57 71 58 91 59 54 60 55 61 70 63 92 64 57 65 40 66 41 67
REMARK SMILES IDX 50 68 42 69 43 70 49 71 51 72 44 73 45 74 46 75 47 76 48 77
REMARK SMILES IDX 74 78 75 79 84 80 76 81 77 82 83 83 85 84 78 85 79 86 80 87
REMARK SMILES IDX 81 88 82 89 58 90 59 91 68 92 60 93 61 94 67 95 69 96 62 97
REMARK SMILES IDX 63 98 64 99 65 100 66 101
REMARK H PARENT 23 6 6 14 28 32 90 51 56 62
REMARK Flexibility Score: inf
ROOT
ATOM      1  C   UNL A   1      33.426  30.429  27.248  1.00  0.00     0.023 C 
ENDROOT
BRANCH   1   2
ATOM      2  C   UNL A   1      32.220  30.195  26.151  1.00  0.00     0.116 C 
BRANCH   2   3
ATOM      3  N   UNL A   1      32.662  29.637  24.869  1.00  0.00    -0.354 N 
ATOM      4  C   UNL A   1      31.935  29.213  23.794  1.00  0.00     0.242 C 
ATOM      5  O   UNL A   1      32.486  29.021  22.711  1.00  0.00    -0.273 OA
ATOM      6  H   UNL A   1      33.638  29.554  24.767  1.00  0.00     0.163 HD
BRANCH   4   7
ATOM      7  C   UNL A   1      30.478  28.872  24.011  1.00  0.00     0.174 C 
BRANCH   7   8
ATOM      8  C   UNL A   1      29.686  29.954  23.163  1.00  0.00     0.018 C 
ATOM      9  C   UNL A   1      29.318  31.226  23.962  1.00  0.00     0.010 C 
BRANCH   8  10
ATOM     10  C   UNL A   1      28.570  29.512  22.212  1.00  0.00     0.002 C 
ATOM     11  C   UNL A   1      27.291  29.197  23.019  1.00  0.00     0.004 C 
ENDBRANCH   8  10
ENDBRANCH   7   8
BRANCH   7  12
ATOM     12  N   UNL A   1      30.289  27.451  23.623  1.00  0.00    -0.342 N 
ATOM     13  C   UNL A   1      29.955  26.328  24.356  1.00  0.00     0.242 C 
ATOM     14  H   UNL A   1      30.428  27.276  22.665  1.00  0.00     0.164 HD
ATOM     15  O   UNL A   1      29.280  25.499  23.727  1.00  0.00    -0.273 OA
BRANCH  13  16
ATOM     16  C   UNL A   1      30.330  26.018  25.857  1.00  0.00     0.248 C 
BRANCH  16  17
ATOM     17  N   UNL A   1      31.692  25.521  26.130  1.00  0.00    -0.220 N 
ATOM     18  N   UNL A   1      32.753  26.441  25.978  1.00  0.00    -0.177 NA
ATOM     19  C   UNL A   1      31.855  24.259  26.712  1.00  0.00     0.275 A 
ATOM     20  C   UNL A   1      33.966  26.034  25.735  1.00  0.00     0.142 A 
ATOM     21  C   UNL A   1      33.053  23.562  26.223  1.00  0.00     0.050 A 
ATOM     22  O   UNL A   1      31.020  23.615  27.330  1.00  0.00    -0.267 OA
ATOM     23  C   UNL A   1      34.293  24.633  25.523  1.00  0.00     0.007 A 
ATOM     24  C   UNL A   1      33.164  21.769  25.993  1.00  0.00     0.014 A 
ATOM     25  C   UNL A   1      35.658  23.968  24.556  1.00  0.00     0.010 A 
ATOM     26  C   UNL A   1      34.551  21.050  25.084  1.00  0.00     0.001 A 
ATOM     27  C   UNL A   1      35.787  22.165  24.351  1.00  0.00     0.001 A 
ENDBRANCH  16  17
ENDBRANCH  13  16
ENDBRANCH   7  12
ENDBRANCH   4   7
ENDBRANCH   2   3
ENDBRANCH   1   2
BRANCH   1  28
ATOM     28  C   UNL A   1      35.309  29.448  27.782  1.00  0.00     0.023 C 
BRANCH  28  29
ATOM     29  C   UNL A   1      36.370  29.500  29.070  1.00  0.00     0.116 C 
BRANCH  29  30
ATOM     30  N   UNL A   1      35.960  30.229  30.269  1.00  0.00    -0.352 N 
ATOM     31  C   UNL A   1      36.796  30.643  31.282  1.00  0.00     0.251 C 
ATOM     32  H   UNL A   1      35.003  30.442  30.360  1.00  0.00     0.163 HD
ATOM     33  O   UNL A   1      36.387  31.055  32.355  1.00  0.00    -0.269 OA
BRANCH  31  34
ATOM     34  C   UNL A   1      38.227  30.580  30.949  1.00  0.00     0.039 A 
ATOM     35  C   UNL A   1      38.573  31.061  29.681  1.00  0.00     0.014 A 
ATOM     36  C   UNL A   1      39.066  29.734  31.672  1.00  0.00     0.014 A 
ATOM     37  C   UNL A   1      39.684  30.533  29.055  1.00  0.00     0.010 A 
ATOM     38  C   UNL A   1      40.267  29.334  31.090  1.00  0.00     0.010 A 
ATOM     39  C   UNL A   1      40.568  29.703  29.766  1.00  0.00    -0.014 A 
BRANCH  39  40
ATOM     40  C   UNL A   1      41.845  29.305  29.132  1.00  0.00     0.031 A 
ATOM     41  C   UNL A   1      42.076  27.907  28.632  1.00  0.00     0.074 A 
ATOM     42  C   UNL A   1      42.803  30.249  29.024  1.00  0.00     0.049 A 
ATOM     43  N   UNL A   1      43.185  27.369  28.197  1.00  0.00    -0.248 NA
ATOM     44  C   UNL A   1      40.923  26.989  28.620  1.00  0.00     0.031 C 
ATOM     45  C   UNL A   1      42.663  31.650  29.444  1.00  0.00     0.029 A 
ATOM     46  N   UNL A   1      44.074  30.186  28.526  1.00  0.00    -0.354 N 
ATOM     47  C   UNL A   1      42.876  26.052  27.878  1.00  0.00     0.074 A 
ATOM     48  C   UNL A   1      41.476  25.861  28.193  1.00  0.00     0.031 C 
ATOM     49  C   UNL A   1      43.780  32.320  29.142  1.00  0.00     0.029 A 
ATOM     50  C   UNL A   1      44.755  31.376  28.623  1.00  0.00     0.049 A 
ATOM     51  H   UNL A   1      44.464  29.370  28.137  1.00  0.00     0.167 HD
ATOM     52  C   UNL A   1      43.694  25.101  27.365  1.00  0.00     0.037 A 
ATOM     53  C   UNL A   1      46.042  31.670  28.376  1.00  0.00     0.037 A 
ATOM     54  C   UNL A   1      45.084  25.328  27.052  1.00  0.00     0.049 A 
ATOM     55  C   UNL A   1      46.941  30.568  27.904  1.00  0.00     0.074 A 
ATOM     56  C   UNL A   1      46.006  24.430  26.540  1.00  0.00     0.029 A 
ATOM     57  N   UNL A   1      45.751  26.535  27.209  1.00  0.00    -0.354 N 
ATOM     58  N   UNL A   1      46.644  29.317  27.644  1.00  0.00    -0.248 NA
ATOM     59  C   UNL A   1      48.350  30.914  27.696  1.00  0.00     0.031 C 
ATOM     60  C   UNL A   1      47.239  25.080  26.438  1.00  0.00     0.029 A 
ATOM     61  C   UNL A   1      47.073  26.401  26.817  1.00  0.00     0.049 A 
ATOM     62  H   UNL A   1      45.344  27.365  27.549  1.00  0.00     0.167 HD
ATOM     63  C   UNL A   1      47.824  28.737  27.200  1.00  0.00     0.074 A 
ATOM     64  C   UNL A   1      48.831  29.779  27.213  1.00  0.00     0.031 C 
ATOM     65  C   UNL A   1      48.055  27.456  26.819  1.00  0.00     0.037 A 
BRANCH  52  66
ATOM     66  C   UNL A   1      43.134  23.731  27.097  1.00  0.00     0.058 A 
ATOM     67  C   UNL A   1      42.827  23.305  25.796  1.00  0.00     0.135 A 
ATOM     68  C   UNL A   1      43.026  22.787  28.134  1.00  0.00     0.135 A 
ATOM     69  F   UNL A   1      42.889  24.168  24.769  1.00  0.00    -0.206 F 
ATOM     70  C   UNL A   1      42.443  21.994  25.530  1.00  0.00     0.059 A 
ATOM     71  C   UNL A   1      42.671  21.464  27.888  1.00  0.00     0.059 A 
ATOM     72  F   UNL A   1      43.303  23.140  29.400  1.00  0.00    -0.206 F 
ATOM     73  C   UNL A   1      42.382  21.076  26.581  1.00  0.00     0.060 A 
BRANCH  73  74
ATOM     74  S   UNL A   1      41.937  19.368  26.200  1.00  0.00     0.124 S 
ATOM     75  O   UNL A   1      42.745  19.114  25.012  1.00  0.00    -0.237 OA
ATOM     76  O   UNL A   1      42.351  18.667  27.410  1.00  0.00    -0.237 OA
ATOM     77  O   UNL A   1      40.496  19.433  25.974  1.00  0.00    -0.744 OA
ENDBRANCH  73  74
ENDBRANCH  52  66
BRANCH  53  78
ATOM     78  C   UNL A   1      46.550  33.049  28.594  1.00  0.00     0.058 A 
ATOM     79  C   UNL A   1      47.063  33.431  29.842  1.00  0.00     0.135 A 
ATOM     80  C   UNL A   1      46.533  34.012  27.571  1.00  0.00     0.135 A 
ATOM     81  F   UNL A   1      47.107  32.543  30.847  1.00  0.00    -0.206 F 
ATOM     82  C   UNL A   1      47.500  34.727  30.082  1.00  0.00     0.059 A 
ATOM     83  C   UNL A   1      47.003  35.304  27.775  1.00  0.00     0.059 A 
ATOM     84  F   UNL A   1      46.079  33.692  26.348  1.00  0.00    -0.206 F 
ATOM     85  C   UNL A   1      47.462  35.657  29.042  1.00  0.00     0.060 A 
BRANCH  85  86
ATOM     86  S   UNL A   1      48.017  37.341  29.375  1.00  0.00     0.124 S 
ATOM     87  O   UNL A   1      47.686  38.010  28.123  1.00  0.00    -0.237 OA
ATOM     88  O   UNL A   1      47.201  37.705  30.530  1.00  0.00    -0.237 OA
ATOM     89  O   UNL A   1      49.442  37.179  29.647  1.00  0.00    -0.744 OA
ENDBRANCH  85  86
ENDBRANCH  53  78
BRANCH  65  90
ATOM     90  C   UNL A   1      49.436  27.131  26.322  1.00  0.00     0.058 A 
ATOM     91  C   UNL A   1      50.446  26.669  27.179  1.00  0.00     0.135 A 
ATOM     92  C   UNL A   1      49.741  27.256  24.955  1.00  0.00     0.135 A 
ATOM     93  F   UNL A   1      50.208  26.538  28.495  1.00  0.00    -0.206 F 
ATOM     94  C   UNL A   1      51.722  26.383  26.708  1.00  0.00     0.059 A 
ATOM     95  C   UNL A   1      50.998  26.936  24.456  1.00  0.00     0.059 A 
ATOM     96  F   UNL A   1      48.808  27.681  24.089  1.00  0.00    -0.206 F 
ATOM     97  C   UNL A   1      51.987  26.517  25.344  1.00  0.00     0.060 A 
BRANCH  97  98
ATOM     98  S   UNL A   1      53.644  26.128  24.750  1.00  0.00     0.124 S 
ATOM     99  O   UNL A   1      53.539  24.694  24.503  1.00  0.00    -0.237 OA
ATOM    100  O   UNL A   1      53.751  26.970  23.562  1.00  0.00    -0.237 OA
ATOM    101  O   UNL A   1      54.506  26.511  25.864  1.00  0.00    -0.744 OA
ENDBRANCH  97  98
ENDBRANCH  65  90
ENDBRANCH  39  40
ENDBRANCH  31  34
ENDBRANCH  29  30
ENDBRANCH  28  29
ENDBRANCH   1  28
TORSDOF 19
ENDMDL
MODEL 3
REMARK VINA RESULT:     -11.7      5.788      8.969
REMARK SMILES CC[C@@H](C)[C@@H](NC(=O)Cn1ncc2ccccc2c1=O)C(=O)NCCCCNC(=O)c1ccc(-c2c3nc(c(-c4c(F)cc(S(=O)(=O)[O-])cc4F)c4ccc([nH]4)c(-c4c(F)cc(S(=O)(=O)[O-])cc4F)c4nc(c(-c5c(F)cc(S(=O)(=O)[O-])cc5F)c5ccc2[nH]5)C=C4)C=C3)cc1
REMARK SMILES IDX 25 1 24 2 23 3 21 4 22 5 5 7 3 8 4 9 2 10 1 11 6 12 7 13
REMARK SMILES IDX 8 15 9 16 10 17 11 18 19 19 12 20 18 21 20 22 13 23 17 24
REMARK SMILES IDX 14 25 16 26 15 27 26 28 27 29 28 30 29 31 30 33 31 34 32 35
REMARK SMILES IDX 96 36 33 37 95 38 34 39 35 40 36 41 89 42 37 43 94 44 88 45
REMARK SMILES IDX 90 46 38 47 93 48 87 49 86 50 39 52 73 53 52 54 72 55 53 56
REMARK SMILES IDX 56 57 71 58 91 59 54 60 55 61 70 63 92 64 57 65 40 66 41 67
REMARK SMILES IDX 50 68 42 69 43 70 49 71 51 72 44 73 45 74 46 75 47 76 48 77
REMARK SMILES IDX 74 78 75 79 84 80 76 81 77 82 83 83 85 84 78 85 79 86 80 87
REMARK SMILES IDX 81 88 82 89 58 90 59 91 68 92 60 93 61 94 67 95 69 96 62 97
REMARK SMILES IDX 63 98 64 99 65 100 66 101
REMARK H PARENT 23 6 6 14 28 32 90 51 56 62
REMARK Flexibility Score: inf
ROOT
ATOM      1  C   UNL A   1      38.200  22.483  25.814  1.00  0.00     0.023 C 
ENDROOT
BRANCH   1   2
ATOM      2  C   UNL A   1      36.829  21.792  25.216  1.00  0.00     0.116 C 
BRANCH   2   3
ATOM      3  N   UNL A   1      35.688  21.806  26.137  1.00  0.00    -0.354 N 
ATOM      4  C   UNL A   1      34.484  21.168  26.058  1.00  0.00     0.242 C 
ATOM      5  O   UNL A   1      33.758  21.091  27.049  1.00  0.00    -0.273 OA
ATOM      6  H   UNL A   1      35.809  22.363  26.939  1.00  0.00     0.163 HD
BRANCH   4   7
ATOM      7  C   UNL A   1      34.025  20.679  24.703  1.00  0.00     0.174 C 
BRANCH   7   8
ATOM      8  C   UNL A   1      33.838  19.115  24.886  1.00  0.00     0.018 C 
ATOM      9  C   UNL A   1      35.093  18.288  24.516  1.00  0.00     0.010 C 
BRANCH   8  10
ATOM     10  C   UNL A   1      32.537  18.442  24.439  1.00  0.00     0.002 C 
ATOM     11  C   UNL A   1      32.560  18.226  22.910  1.00  0.00     0.004 C 
ENDBRANCH   8  10
ENDBRANCH   7   8
BRANCH   7  12
ATOM     12  N   UNL A   1      32.815  21.457  24.333  1.00  0.00    -0.342 N 
ATOM     13  C   UNL A   1      32.564  22.345  23.305  1.00  0.00     0.242 C 
ATOM     14  H   UNL A   1      32.049  21.313  24.933  1.00  0.00     0.164 HD
ATOM     15  O   UNL A   1      31.394  22.322  22.894  1.00  0.00    -0.273 OA
BRANCH  13  16
ATOM     16  C   UNL A   1      33.586  23.339  22.628  1.00  0.00     0.248 C 
BRANCH  16  17
ATOM     17  N   UNL A   1      33.903  24.586  23.350  1.00  0.00    -0.220 N 
ATOM     18  N   UNL A   1      34.564  24.458  24.591  1.00  0.00    -0.177 NA
ATOM     19  C   UNL A   1      33.729  25.814  22.702  1.00  0.00     0.275 A 
ATOM     20  C   UNL A   1      34.478  25.389  25.498  1.00  0.00     0.142 A 
ATOM     21  C   UNL A   1      33.287  26.877  23.615  1.00  0.00     0.050 A 
ATOM     22  O   UNL A   1      33.649  26.011  21.498  1.00  0.00    -0.267 OA
ATOM     23  C   UNL A   1      33.641  26.567  25.333  1.00  0.00     0.007 A 
ATOM     24  C   UNL A   1      32.166  28.220  23.145  1.00  0.00     0.014 A 
ATOM     25  C   UNL A   1      32.880  27.552  26.633  1.00  0.00     0.010 A 
ATOM     26  C   UNL A   1      31.427  29.277  24.412  1.00  0.00     0.001 A 
ATOM     27  C   UNL A   1      31.778  28.920  26.160  1.00  0.00     0.001 A 
ENDBRANCH  16  17
ENDBRANCH  13  16
ENDBRANCH   7  12
ENDBRANCH   4   7
ENDBRANCH   2   3
ENDBRANCH   1   2
BRANCH   1  28
ATOM     28  C   UNL A   1      38.752  24.386  26.746  1.00  0.00     0.023 C 
BRANCH  28  29
ATOM     29  C   UNL A   1      40.006  25.477  26.601  1.00  0.00     0.116 C 
BRANCH  29  30
ATOM     30  N   UNL A   1      41.248  25.018  25.984  1.00  0.00    -0.352 N 
ATOM     31  C   UNL A   1      42.514  25.457  26.303  1.00  0.00     0.251 C 
ATOM     32  H   UNL A   1      41.175  24.336  25.278  1.00  0.00     0.163 HD
ATOM     33  O   UNL A   1      43.496  25.208  25.624  1.00  0.00    -0.269 OA
BRANCH  31  34
ATOM     34  C   UNL A   1      42.590  26.224  27.556  1.00  0.00     0.039 A 
ATOM     35  C   UNL A   1      41.958  25.640  28.660  1.00  0.00     0.014 A 
ATOM     36  C   UNL A   1      42.897  27.583  27.514  1.00  0.00     0.014 A 
ATOM     37  C   UNL A   1      41.458  26.466  29.647  1.00  0.00     0.010 A 
ATOM     38  C   UNL A   1      42.528  28.381  28.595  1.00  0.00     0.010 A 
ATOM     39  C   UNL A   1      41.777  27.835  29.652  1.00  0.00    -0.014 A 
BRANCH  39  40
ATOM     40  C   UNL A   1      41.388  28.658  30.819  1.00  0.00     0.031 A 
ATOM     41  C   UNL A   1      40.251  29.637  30.750  1.00  0.00     0.074 A 
ATOM     42  C   UNL A   1      42.100  28.499  31.953  1.00  0.00     0.049 A 
ATOM     43  N   UNL A   1      39.890  30.533  31.632  1.00  0.00    -0.248 NA
ATOM     44  C   UNL A   1      39.410  29.621  29.539  1.00  0.00     0.031 C 
ATOM     45  C   UNL A   1      43.201  27.543  32.135  1.00  0.00     0.029 A 
ATOM     46  N   UNL A   1      42.009  29.122  33.167  1.00  0.00    -0.354 N 
ATOM     47  C   UNL A   1      38.800  31.198  31.083  1.00  0.00     0.074 A 
ATOM     48  C   UNL A   1      38.569  30.620  29.777  1.00  0.00     0.031 C 
ATOM     49  C   UNL A   1      43.646  27.610  33.394  1.00  0.00     0.029 A 
ATOM     50  C   UNL A   1      42.950  28.692  34.070  1.00  0.00     0.049 A 
ATOM     51  H   UNL A   1      41.336  29.811  33.373  1.00  0.00     0.167 HD
ATOM     52  C   UNL A   1      38.064  32.194  31.633  1.00  0.00     0.037 A 
ATOM     53  C   UNL A   1      43.264  29.153  35.293  1.00  0.00     0.037 A 
ATOM     54  C   UNL A   1      38.315  32.741  32.945  1.00  0.00     0.049 A 
ATOM     55  C   UNL A   1      42.493  30.321  35.827  1.00  0.00     0.074 A 
ATOM     56  C   UNL A   1      37.638  33.761  33.593  1.00  0.00     0.029 A 
ATOM     57  N   UNL A   1      39.309  32.311  33.812  1.00  0.00    -0.354 N 
ATOM     58  N   UNL A   1      41.490  30.965  35.281  1.00  0.00    -0.248 NA
ATOM     59  C   UNL A   1      42.899  30.829  37.141  1.00  0.00     0.031 C 
ATOM     60  C   UNL A   1      38.255  33.981  34.827  1.00  0.00     0.029 A 
ATOM     61  C   UNL A   1      39.271  33.053  34.981  1.00  0.00     0.049 A 
ATOM     62  H   UNL A   1      39.947  31.585  33.624  1.00  0.00     0.167 HD
ATOM     63  C   UNL A   1      41.117  31.930  36.206  1.00  0.00     0.074 A 
ATOM     64  C   UNL A   1      41.992  31.771  37.350  1.00  0.00     0.031 C 
ATOM     65  C   UNL A   1      40.139  32.866  36.117  1.00  0.00     0.037 A 
BRANCH  52  66
ATOM     66  C   UNL A   1      36.917  32.768  30.846  1.00  0.00     0.058 A 
ATOM     67  C   UNL A   1      37.120  33.738  29.854  1.00  0.00     0.135 A 
ATOM     68  C   UNL A   1      35.618  32.248  30.993  1.00  0.00     0.135 A 
ATOM     69  F   UNL A   1      38.333  34.288  29.683  1.00  0.00    -0.206 F 
ATOM     70  C   UNL A   1      36.083  34.167  29.031  1.00  0.00     0.059 A 
ATOM     71  C   UNL A   1      34.572  32.641  30.164  1.00  0.00     0.059 A 
ATOM     72  F   UNL A   1      35.364  31.320  31.930  1.00  0.00    -0.206 F 
ATOM     73  C   UNL A   1      34.815  33.601  29.183  1.00  0.00     0.060 A 
BRANCH  73  74
ATOM     74  S   UNL A   1      33.501  34.133  28.065  1.00  0.00     0.124 S 
ATOM     75  O   UNL A   1      32.985  32.852  27.592  1.00  0.00    -0.237 OA
ATOM     76  O   UNL A   1      32.622  34.880  28.958  1.00  0.00    -0.237 OA
ATOM     77  O   UNL A   1      34.205  34.931  27.065  1.00  0.00    -0.744 OA
ENDBRANCH  73  74
ENDBRANCH  52  66
BRANCH  53  78
ATOM     78  C   UNL A   1      44.364  28.525  36.069  1.00  0.00     0.058 A 
ATOM     79  C   UNL A   1      44.095  27.492  36.978  1.00  0.00     0.135 A 
ATOM     80  C   UNL A   1      45.699  28.940  35.926  1.00  0.00     0.135 A 
ATOM     81  F   UNL A   1      42.837  27.056  37.143  1.00  0.00    -0.206 F 
ATOM     82  C   UNL A   1      45.101  26.922  37.749  1.00  0.00     0.059 A 
ATOM     83  C   UNL A   1      46.728  28.357  36.656  1.00  0.00     0.059 A 
ATOM     84  F   UNL A   1      46.017  29.906  35.050  1.00  0.00    -0.206 F 
ATOM     85  C   UNL A   1      46.414  27.365  37.582  1.00  0.00     0.060 A 
BRANCH  85  86
ATOM     86  S   UNL A   1      47.705  26.627  38.604  1.00  0.00     0.124 S 
ATOM     87  O   UNL A   1      48.080  25.467  37.805  1.00  0.00    -0.237 OA
ATOM     88  O   UNL A   1      48.689  27.703  38.670  1.00  0.00    -0.237 OA
ATOM     89  O   UNL A   1      47.017  26.334  39.857  1.00  0.00    -0.744 OA
ENDBRANCH  85  86
ENDBRANCH  53  78
BRANCH  65  90
ATOM     90  C   UNL A   1      39.925  33.745  37.317  1.00  0.00     0.058 A 
ATOM     91  C   UNL A   1      40.588  34.972  37.469  1.00  0.00     0.135 A 
ATOM     92  C   UNL A   1      39.014  33.363  38.317  1.00  0.00     0.135 A 
ATOM     93  F   UNL A   1      41.473  35.381  36.545  1.00  0.00    -0.206 F 
ATOM     94  C   UNL A   1      40.390  35.769  38.590  1.00  0.00     0.059 A 
ATOM     95  C   UNL A   1      38.769  34.165  39.426  1.00  0.00     0.059 A 
ATOM     96  F   UNL A   1      38.343  32.204  38.216  1.00  0.00    -0.206 F 
ATOM     97  C   UNL A   1      39.475  35.358  39.561  1.00  0.00     0.060 A 
BRANCH  97  98
ATOM     98  S   UNL A   1      39.220  36.413  41.001  1.00  0.00     0.124 S 
ATOM     99  O   UNL A   1      40.569  36.489  41.552  1.00  0.00    -0.237 OA
ATOM    100  O   UNL A   1      38.711  37.640  40.398  1.00  0.00    -0.237 OA
ATOM    101  O   UNL A   1      38.256  35.667  41.805  1.00  0.00    -0.744 OA
ENDBRANCH  97  98
ENDBRANCH  65  90
ENDBRANCH  39  40
ENDBRANCH  31  34
ENDBRANCH  29  30
ENDBRANCH  28  29
ENDBRANCH   1  28
TORSDOF 19
ENDMDL
