MODEL 1
REMARK VINA RESULT:     -12.9      0.000      0.000
REMARK SMILES Cc1cccc(O[C@H](C)C(=O)N2CCC[C@@H](C(=O)NCCCCNC(=O)c3ccc(-c4c5nc(c(-c6c(F)cc(S(=O)(=O)[O-])cc6F)c6ccc([nH]6)c(-c6c(F)cc(S(=O)(=O)[O-])cc6F)c6nc(c(-c7c(F)cc(S(=O)(=O)[O-])cc7F)c7ccc4[nH]7)C=C6)C=C5)cc3)C2)c1
REMARK SMILES IDX 21 1 20 2 19 3 17 4 18 5 16 7 12 8 13 9 93 10 14 11 15 12
REMARK SMILES IDX 10 13 11 14 8 15 9 16 7 17 6 18 1 19 2 20 3 21 94 22 4 23
REMARK SMILES IDX 5 24 22 25 23 26 24 27 25 28 26 30 27 31 28 32 92 33 29 34
REMARK SMILES IDX 91 35 30 36 31 37 32 38 85 39 33 40 90 41 84 42 86 43 34 44
REMARK SMILES IDX 89 45 83 46 82 47 35 49 69 50 48 51 68 52 49 53 52 54 67 55
REMARK SMILES IDX 87 56 50 57 51 58 66 60 88 61 53 62 36 63 37 64 46 65 38 66
REMARK SMILES IDX 39 67 45 68 47 69 40 70 41 71 42 72 43 73 44 74 70 75 71 76
REMARK SMILES IDX 80 77 72 78 73 79 79 80 81 81 74 82 75 83 76 84 77 85 78 86
REMARK SMILES IDX 54 87 55 88 64 89 56 90 57 91 63 92 65 93 58 94 59 95 60 96
REMARK SMILES IDX 61 97 62 98
REMARK H PARENT 19 6 24 29 86 48 52 59
REMARK Flexibility Score: inf
ROOT
ATOM      1  C   UNL A   1      38.500  34.049  31.018  1.00  0.00     0.023 C 
ENDROOT
BRANCH   1   2
ATOM      2  C   UNL A   1      38.144  34.578  32.410  1.00  0.00     0.116 C 
BRANCH   2   3
ATOM      3  N   UNL A   1      37.154  33.742  33.072  1.00  0.00    -0.356 N 
ATOM      4  C   UNL A   1      35.817  33.871  33.241  1.00  0.00     0.224 C 
ATOM      5  O   UNL A   1      35.263  33.045  33.975  1.00  0.00    -0.275 OA
ATOM      6  H   UNL A   1      37.530  32.926  33.475  1.00  0.00     0.163 HD
BRANCH   4   7
ATOM      7  C   UNL A   1      34.976  34.920  32.533  1.00  0.00     0.098 C 
ATOM      8  N   UNL A   1      33.278  35.502  30.859  1.00  0.00    -0.339 N 
ATOM      9  C   UNL A   1      32.747  36.579  31.701  1.00  0.00     0.119 C 
ATOM     10  C   UNL A   1      33.880  34.399  31.602  1.00  0.00     0.133 C 
ATOM     11  C   UNL A   1      33.766  37.101  32.712  1.00  0.00     0.022 C 
ATOM     12  C   UNL A   1      34.416  35.965  33.502  1.00  0.00     0.017 C 
BRANCH   8  13
ATOM     13  C   UNL A   1      33.062  35.566  29.493  1.00  0.00     0.263 C 
ATOM     14  O   UNL A   1      32.334  36.456  29.026  1.00  0.00    -0.271 OA
BRANCH  13  15
ATOM     15  C   UNL A   1      33.643  34.510  28.509  1.00  0.00     0.259 C 
ATOM     16  C   UNL A   1      35.106  34.640  28.107  1.00  0.00     0.064 C 
BRANCH  15  17
ATOM     17  O   UNL A   1      33.043  33.225  28.639  1.00  0.00    -0.481 OA
BRANCH  17  18
ATOM     18  C   UNL A   1      32.619  32.418  27.635  1.00  0.00     0.120 A 
ATOM     19  C   UNL A   1      33.578  28.853  26.620  1.00  0.00     0.044 C 
ATOM     20  C   UNL A   1      32.863  30.172  26.688  1.00  0.00    -0.047 A 
ATOM     21  C   UNL A   1      31.773  30.414  25.855  1.00  0.00     0.003 A 
ATOM     22  C   UNL A   1      33.285  31.184  27.563  1.00  0.00     0.049 A 
ATOM     23  C   UNL A   1      31.085  31.623  25.945  1.00  0.00     0.004 A 
ATOM     24  C   UNL A   1      31.505  32.622  26.833  1.00  0.00     0.046 A 
ENDBRANCH  17  18
ENDBRANCH  15  17
ENDBRANCH  13  15
ENDBRANCH   8  13
ENDBRANCH   4   7
ENDBRANCH   2   3
ENDBRANCH   1   2
BRANCH   1  25
ATOM     25  C   UNL A   1      39.420  32.833  31.024  1.00  0.00     0.023 C 
BRANCH  25  26
ATOM     26  C   UNL A   1      39.068  31.828  29.940  1.00  0.00     0.116 C 
BRANCH  26  27
ATOM     27  N   UNL A   1      37.755  32.078  29.348  1.00  0.00    -0.352 N 
ATOM     28  C   UNL A   1      37.061  31.276  28.455  1.00  0.00     0.251 C 
ATOM     29  H   UNL A   1      37.311  32.915  29.617  1.00  0.00     0.163 HD
ATOM     30  O   UNL A   1      36.023  31.626  27.919  1.00  0.00    -0.269 OA
BRANCH  28  31
ATOM     31  C   UNL A   1      37.621  29.930  28.230  1.00  0.00     0.039 A 
ATOM     32  C   UNL A   1      37.628  29.070  29.334  1.00  0.00     0.014 A 
ATOM     33  C   UNL A   1      38.493  29.758  27.159  1.00  0.00     0.014 A 
ATOM     34  C   UNL A   1      38.681  28.178  29.483  1.00  0.00     0.010 A 
ATOM     35  C   UNL A   1      39.582  28.928  27.351  1.00  0.00     0.010 A 
ATOM     36  C   UNL A   1      39.714  28.204  28.549  1.00  0.00    -0.014 A 
BRANCH  36  37
ATOM     37  C   UNL A   1      41.031  27.629  28.806  1.00  0.00     0.031 A 
ATOM     38  C   UNL A   1      41.272  26.198  28.522  1.00  0.00     0.074 A 
ATOM     39  C   UNL A   1      42.047  28.420  29.225  1.00  0.00     0.049 A 
ATOM     40  N   UNL A   1      42.324  25.550  28.895  1.00  0.00    -0.248 NA
ATOM     41  C   UNL A   1      40.282  25.344  27.866  1.00  0.00     0.031 C 
ATOM     42  C   UNL A   1      43.476  28.127  29.172  1.00  0.00     0.029 A 
ATOM     43  N   UNL A   1      41.965  29.580  29.998  1.00  0.00    -0.354 N 
ATOM     44  C   UNL A   1      42.290  24.318  28.290  1.00  0.00     0.074 A 
ATOM     45  C   UNL A   1      40.948  24.190  27.786  1.00  0.00     0.031 C 
ATOM     46  C   UNL A   1      44.120  28.914  30.046  1.00  0.00     0.029 A 
ATOM     47  C   UNL A   1      43.113  29.628  30.811  1.00  0.00     0.049 A 
ATOM     48  H   UNL A   1      41.238  30.243  29.978  1.00  0.00     0.167 HD
ATOM     49  C   UNL A   1      43.453  23.621  28.163  1.00  0.00     0.037 A 
ATOM     50  C   UNL A   1      43.016  29.589  32.174  1.00  0.00     0.037 A 
ATOM     51  C   UNL A   1      44.455  24.130  29.103  1.00  0.00     0.049 A 
ATOM     52  C   UNL A   1      43.654  28.372  32.809  1.00  0.00     0.074 A 
ATOM     53  C   UNL A   1      45.595  24.902  28.969  1.00  0.00     0.029 A 
ATOM     54  N   UNL A   1      44.177  24.077  30.470  1.00  0.00    -0.354 N 
ATOM     55  N   UNL A   1      44.045  27.318  32.145  1.00  0.00    -0.248 NA
ATOM     56  C   UNL A   1      43.876  28.235  34.247  1.00  0.00     0.031 C 
ATOM     57  C   UNL A   1      45.917  25.426  30.253  1.00  0.00     0.029 A 
ATOM     58  C   UNL A   1      45.009  24.927  31.174  1.00  0.00     0.049 A 
ATOM     59  H   UNL A   1      43.484  23.510  30.878  1.00  0.00     0.167 HD
ATOM     60  C   UNL A   1      44.481  26.358  33.021  1.00  0.00     0.074 A 
ATOM     61  C   UNL A   1      44.400  26.999  34.321  1.00  0.00     0.031 C 
ATOM     62  C   UNL A   1      44.842  25.105  32.612  1.00  0.00     0.037 A 
BRANCH  49  63
ATOM     63  C   UNL A   1      43.750  22.634  27.040  1.00  0.00     0.058 A 
ATOM     64  C   UNL A   1      43.067  21.398  26.977  1.00  0.00     0.135 A 
ATOM     65  C   UNL A   1      44.793  22.762  26.092  1.00  0.00     0.135 A 
ATOM     66  F   UNL A   1      42.061  21.120  27.820  1.00  0.00    -0.206 F 
ATOM     67  C   UNL A   1      43.411  20.375  26.080  1.00  0.00     0.059 A 
ATOM     68  C   UNL A   1      45.123  21.776  25.161  1.00  0.00     0.059 A 
ATOM     69  F   UNL A   1      45.607  23.820  26.049  1.00  0.00    -0.206 F 
ATOM     70  C   UNL A   1      44.448  20.571  25.178  1.00  0.00     0.060 A 
BRANCH  70  71
ATOM     71  S   UNL A   1      44.939  19.246  24.059  1.00  0.00     0.124 S 
ATOM     72  O   UNL A   1      44.203  18.108  24.602  1.00  0.00    -0.237 OA
ATOM     73  O   UNL A   1      44.485  19.744  22.766  1.00  0.00    -0.237 OA
ATOM     74  O   UNL A   1      46.390  19.182  24.224  1.00  0.00    -0.744 OA
ENDBRANCH  70  71
ENDBRANCH  49  63
BRANCH  50  75
ATOM     75  C   UNL A   1      41.830  30.320  32.698  1.00  0.00     0.058 A 
ATOM     76  C   UNL A   1      40.677  29.564  32.982  1.00  0.00     0.135 A 
ATOM     77  C   UNL A   1      41.951  31.576  33.309  1.00  0.00     0.135 A 
ATOM     78  F   UNL A   1      40.507  28.359  32.413  1.00  0.00    -0.206 F 
ATOM     79  C   UNL A   1      39.768  29.956  33.957  1.00  0.00     0.059 A 
ATOM     80  C   UNL A   1      41.046  31.993  34.288  1.00  0.00     0.059 A 
ATOM     81  F   UNL A   1      43.029  32.340  33.075  1.00  0.00    -0.206 F 
ATOM     82  C   UNL A   1      40.002  31.140  34.651  1.00  0.00     0.060 A 
BRANCH  82  83
ATOM     83  S   UNL A   1      39.048  31.418  36.164  1.00  0.00     0.124 S 
ATOM     84  O   UNL A   1      40.068  31.917  37.079  1.00  0.00    -0.237 OA
ATOM     85  O   UNL A   1      38.069  32.405  35.712  1.00  0.00    -0.237 OA
ATOM     86  O   UNL A   1      38.513  30.097  36.469  1.00  0.00    -0.744 OA
ENDBRANCH  82  83
ENDBRANCH  50  75
BRANCH  62  87
ATOM     87  C   UNL A   1      45.129  23.948  33.542  1.00  0.00     0.058 A 
ATOM     88  C   UNL A   1      44.188  22.958  33.879  1.00  0.00     0.135 A 
ATOM     89  C   UNL A   1      46.439  23.736  34.029  1.00  0.00     0.135 A 
ATOM     90  F   UNL A   1      42.944  22.981  33.380  1.00  0.00    -0.206 F 
ATOM     91  C   UNL A   1      44.499  21.880  34.711  1.00  0.00     0.059 A 
ATOM     92  C   UNL A   1      46.785  22.638  34.815  1.00  0.00     0.059 A 
ATOM     93  F   UNL A   1      47.433  24.592  33.747  1.00  0.00    -0.206 F 
ATOM     94  C   UNL A   1      45.800  21.731  35.179  1.00  0.00     0.060 A 
BRANCH  94  95
ATOM     95  S   UNL A   1      46.227  20.322  36.221  1.00  0.00     0.124 S 
ATOM     96  O   UNL A   1      47.685  20.344  36.154  1.00  0.00    -0.237 OA
ATOM     97  O   UNL A   1      45.652  20.684  37.513  1.00  0.00    -0.237 OA
ATOM     98  O   UNL A   1      45.579  19.203  35.547  1.00  0.00    -0.744 OA
ENDBRANCH  94  95
ENDBRANCH  62  87
ENDBRANCH  36  37
ENDBRANCH  28  31
ENDBRANCH  26  27
ENDBRANCH  25  26
ENDBRANCH   1  25
TORSDOF 18
ENDMDL
MODEL 2
REMARK VINA RESULT:     -12.5      5.184     12.361
REMARK SMILES Cc1cccc(O[C@H](C)C(=O)N2CCC[C@@H](C(=O)NCCCCNC(=O)c3ccc(-c4c5nc(c(-c6c(F)cc(S(=O)(=O)[O-])cc6F)c6ccc([nH]6)c(-c6c(F)cc(S(=O)(=O)[O-])cc6F)c6nc(c(-c7c(F)cc(S(=O)(=O)[O-])cc7F)c7ccc4[nH]7)C=C6)C=C5)cc3)C2)c1
REMARK SMILES IDX 21 1 20 2 19 3 17 4 18 5 16 7 12 8 13 9 93 10 14 11 15 12
REMARK SMILES IDX 10 13 11 14 8 15 9 16 7 17 6 18 1 19 2 20 3 21 94 22 4 23
REMARK SMILES IDX 5 24 22 25 23 26 24 27 25 28 26 30 27 31 28 32 92 33 29 34
REMARK SMILES IDX 91 35 30 36 31 37 32 38 85 39 33 40 90 41 84 42 86 43 34 44
REMARK SMILES IDX 89 45 83 46 82 47 35 49 69 50 48 51 68 52 49 53 52 54 67 55
REMARK SMILES IDX 87 56 50 57 51 58 66 60 88 61 53 62 36 63 37 64 46 65 38 66
REMARK SMILES IDX 39 67 45 68 47 69 40 70 41 71 42 72 43 73 44 74 70 75 71 76
REMARK SMILES IDX 80 77 72 78 73 79 79 80 81 81 74 82 75 83 76 84 77 85 78 86
REMARK SMILES IDX 54 87 55 88 64 89 56 90 57 91 63 92 65 93 58 94 59 95 60 96
REMARK SMILES IDX 61 97 62 98
REMARK H PARENT 19 6 24 29 86 48 52 59
REMARK Flexibility Score: inf
ROOT
ATOM      1  C   UNL A   1      37.761  20.811  25.450  1.00  0.00     0.023 C 
ENDROOT
BRANCH   1   2
ATOM      2  C   UNL A   1      36.239  20.729  25.302  1.00  0.00     0.116 C 
BRANCH   2   3
ATOM      3  N   UNL A   1      35.550  21.442  26.366  1.00  0.00    -0.356 N 
ATOM      4  C   UNL A   1      34.682  22.481  26.355  1.00  0.00     0.224 C 
ATOM      5  O   UNL A   1      34.364  22.957  27.451  1.00  0.00    -0.275 OA
ATOM      6  H   UNL A   1      35.754  21.104  27.268  1.00  0.00     0.163 HD
BRANCH   4   7
ATOM      7  C   UNL A   1      34.044  23.033  25.091  1.00  0.00     0.098 C 
ATOM      8  N   UNL A   1      32.609  24.690  23.988  1.00  0.00    -0.339 N 
ATOM      9  C   UNL A   1      33.453  24.694  22.788  1.00  0.00     0.119 C 
ATOM     10  C   UNL A   1      33.321  24.374  25.223  1.00  0.00     0.133 C 
ATOM     11  C   UNL A   1      34.266  23.410  22.630  1.00  0.00     0.022 C 
ATOM     12  C   UNL A   1      35.019  23.052  23.911  1.00  0.00     0.017 C 
BRANCH   8  13
ATOM     13  C   UNL A   1      31.289  25.091  23.867  1.00  0.00     0.263 C 
ATOM     14  O   UNL A   1      30.526  24.474  23.107  1.00  0.00    -0.271 OA
BRANCH  13  15
ATOM     15  C   UNL A   1      30.730  26.344  24.599  1.00  0.00     0.259 C 
ATOM     16  C   UNL A   1      30.151  26.154  25.995  1.00  0.00     0.064 C 
BRANCH  15  17
ATOM     17  O   UNL A   1      31.411  27.548  24.259  1.00  0.00    -0.481 OA
BRANCH  17  18
ATOM     18  C   UNL A   1      32.140  28.334  25.089  1.00  0.00     0.120 A 
ATOM     19  C   UNL A   1      31.456  31.764  26.649  1.00  0.00     0.044 C 
ATOM     20  C   UNL A   1      32.095  30.439  26.342  1.00  0.00    -0.047 A 
ATOM     21  C   UNL A   1      33.260  30.060  27.005  1.00  0.00     0.003 A 
ATOM     22  C   UNL A   1      31.552  29.575  25.379  1.00  0.00     0.049 A 
ATOM     23  C   UNL A   1      33.831  28.814  26.749  1.00  0.00     0.004 A 
ATOM     24  C   UNL A   1      33.272  27.953  25.796  1.00  0.00     0.046 A 
ENDBRANCH  17  18
ENDBRANCH  15  17
ENDBRANCH  13  15
ENDBRANCH   8  13
ENDBRANCH   4   7
ENDBRANCH   2   3
ENDBRANCH   1   2
BRANCH   1  25
ATOM     25  C   UNL A   1      38.339  22.203  25.217  1.00  0.00     0.023 C 
BRANCH  25  26
ATOM     26  C   UNL A   1      38.378  23.040  26.484  1.00  0.00     0.116 C 
BRANCH  26  27
ATOM     27  N   UNL A   1      39.689  23.025  27.128  1.00  0.00    -0.352 N 
ATOM     28  C   UNL A   1      40.404  24.105  27.623  1.00  0.00     0.251 C 
ATOM     29  H   UNL A   1      40.116  22.142  27.221  1.00  0.00     0.163 HD
ATOM     30  O   UNL A   1      41.548  24.010  28.034  1.00  0.00    -0.269 OA
BRANCH  28  31
ATOM     31  C   UNL A   1      39.673  25.385  27.686  1.00  0.00     0.039 A 
ATOM     32  C   UNL A   1      40.127  26.400  26.839  1.00  0.00     0.014 A 
ATOM     33  C   UNL A   1      38.942  25.660  28.839  1.00  0.00     0.014 A 
ATOM     34  C   UNL A   1      40.065  27.716  27.276  1.00  0.00     0.010 A 
ATOM     35  C   UNL A   1      38.957  26.961  29.307  1.00  0.00     0.010 A 
ATOM     36  C   UNL A   1      39.591  27.970  28.561  1.00  0.00    -0.014 A 
BRANCH  36  37
ATOM     37  C   UNL A   1      39.851  29.219  29.270  1.00  0.00     0.031 A 
ATOM     38  C   UNL A   1      38.887  30.336  29.162  1.00  0.00     0.074 A 
ATOM     39  C   UNL A   1      40.927  29.326  30.086  1.00  0.00     0.049 A 
ATOM     40  N   UNL A   1      39.115  31.536  29.579  1.00  0.00    -0.248 NA
ATOM     41  C   UNL A   1      37.602  30.207  28.476  1.00  0.00     0.031 C 
ATOM     42  C   UNL A   1      41.145  30.315  31.138  1.00  0.00     0.029 A 
ATOM     43  N   UNL A   1      42.158  28.676  29.968  1.00  0.00    -0.354 N 
ATOM     44  C   UNL A   1      37.936  32.236  29.492  1.00  0.00     0.074 A 
ATOM     45  C   UNL A   1      37.079  31.418  28.677  1.00  0.00     0.031 C 
ATOM     46  C   UNL A   1      42.455  30.381  31.416  1.00  0.00     0.029 A 
ATOM     47  C   UNL A   1      43.148  29.558  30.441  1.00  0.00     0.049 A 
ATOM     48  H   UNL A   1      42.305  27.768  29.619  1.00  0.00     0.167 HD
ATOM     49  C   UNL A   1      37.787  33.358  30.250  1.00  0.00     0.037 A 
ATOM     50  C   UNL A   1      44.138  30.015  29.616  1.00  0.00     0.037 A 
ATOM     51  C   UNL A   1      39.096  33.855  30.684  1.00  0.00     0.049 A 
ATOM     52  C   UNL A   1      44.116  31.512  29.390  1.00  0.00     0.074 A 
ATOM     53  C   UNL A   1      39.775  33.849  31.889  1.00  0.00     0.029 A 
ATOM     54  N   UNL A   1      40.027  34.226  29.713  1.00  0.00    -0.354 N 
ATOM     55  N   UNL A   1      43.122  32.290  29.723  1.00  0.00    -0.248 NA
ATOM     56  C   UNL A   1      45.202  32.246  28.743  1.00  0.00     0.031 C 
ATOM     57  C   UNL A   1      41.152  34.083  31.612  1.00  0.00     0.029 A 
ATOM     58  C   UNL A   1      41.299  34.287  30.249  1.00  0.00     0.049 A 
ATOM     59  H   UNL A   1      39.807  34.418  28.773  1.00  0.00     0.167 HD
ATOM     60  C   UNL A   1      43.372  33.566  29.289  1.00  0.00     0.074 A 
ATOM     61  C   UNL A   1      44.707  33.496  28.724  1.00  0.00     0.031 C 
ATOM     62  C   UNL A   1      42.449  34.569  29.397  1.00  0.00     0.037 A 
BRANCH  49  63
ATOM     63  C   UNL A   1      36.453  33.872  30.779  1.00  0.00     0.058 A 
ATOM     64  C   UNL A   1      35.467  34.347  29.884  1.00  0.00     0.135 A 
ATOM     65  C   UNL A   1      36.136  34.074  32.143  1.00  0.00     0.135 A 
ATOM     66  F   UNL A   1      35.627  34.239  28.557  1.00  0.00    -0.206 F 
ATOM     67  C   UNL A   1      34.294  34.991  30.306  1.00  0.00     0.059 A 
ATOM     68  C   UNL A   1      34.956  34.672  32.587  1.00  0.00     0.059 A 
ATOM     69  F   UNL A   1      36.978  33.771  33.135  1.00  0.00    -0.206 F 
ATOM     70  C   UNL A   1      34.050  35.156  31.663  1.00  0.00     0.060 A 
BRANCH  70  71
ATOM     71  S   UNL A   1      32.577  36.033  32.219  1.00  0.00     0.124 S 
ATOM     72  O   UNL A   1      31.704  34.932  32.614  1.00  0.00    -0.237 OA
ATOM     73  O   UNL A   1      33.095  36.859  33.303  1.00  0.00    -0.237 OA
ATOM     74  O   UNL A   1      32.149  36.768  31.030  1.00  0.00    -0.744 OA
ENDBRANCH  70  71
ENDBRANCH  49  63
BRANCH  50  75
ATOM     75  C   UNL A   1      44.603  28.996  28.637  1.00  0.00     0.058 A 
ATOM     76  C   UNL A   1      44.034  29.028  27.349  1.00  0.00     0.135 A 
ATOM     77  C   UNL A   1      45.830  28.336  28.790  1.00  0.00     0.135 A 
ATOM     78  F   UNL A   1      42.854  29.638  27.152  1.00  0.00    -0.206 F 
ATOM     79  C   UNL A   1      44.728  28.578  26.233  1.00  0.00     0.059 A 
ATOM     80  C   UNL A   1      46.542  27.870  27.681  1.00  0.00     0.059 A 
ATOM     81  F   UNL A   1      46.418  28.273  29.993  1.00  0.00    -0.206 F 
ATOM     82  C   UNL A   1      46.010  28.063  26.405  1.00  0.00     0.060 A 
BRANCH  82  83
ATOM     83  S   UNL A   1      47.032  27.866  24.924  1.00  0.00     0.124 S 
ATOM     84  O   UNL A   1      46.505  26.632  24.354  1.00  0.00    -0.237 OA
ATOM     85  O   UNL A   1      46.712  29.088  24.188  1.00  0.00    -0.237 OA
ATOM     86  O   UNL A   1      48.385  27.792  25.460  1.00  0.00    -0.744 OA
ENDBRANCH  82  83
ENDBRANCH  50  75
BRANCH  62  87
ATOM     87  C   UNL A   1      42.583  35.931  28.756  1.00  0.00     0.058 A 
ATOM     88  C   UNL A   1      42.078  36.254  27.483  1.00  0.00     0.135 A 
ATOM     89  C   UNL A   1      43.129  37.011  29.488  1.00  0.00     0.135 A 
ATOM     90  F   UNL A   1      41.428  35.346  26.741  1.00  0.00    -0.206 F 
ATOM     91  C   UNL A   1      42.185  37.535  26.937  1.00  0.00     0.059 A 
ATOM     92  C   UNL A   1      43.195  38.309  28.984  1.00  0.00     0.059 A 
ATOM     93  F   UNL A   1      43.612  36.837  30.727  1.00  0.00    -0.206 F 
ATOM     94  C   UNL A   1      42.750  38.556  27.693  1.00  0.00     0.060 A 
BRANCH  94  95
ATOM     95  S   UNL A   1      42.858  40.225  27.018  1.00  0.00     0.124 S 
ATOM     96  O   UNL A   1      43.589  40.918  28.074  1.00  0.00    -0.237 OA
ATOM     97  O   UNL A   1      43.592  40.027  25.771  1.00  0.00    -0.237 OA
ATOM     98  O   UNL A   1      41.460  40.608  26.858  1.00  0.00    -0.744 OA
ENDBRANCH  94  95
ENDBRANCH  62  87
ENDBRANCH  36  37
ENDBRANCH  28  31
ENDBRANCH  26  27
ENDBRANCH  25  26
ENDBRANCH   1  25
TORSDOF 18
ENDMDL
MODEL 3
REMARK VINA RESULT:     -11.7      5.077     12.257
REMARK SMILES Cc1cccc(O[C@H](C)C(=O)N2CCC[C@@H](C(=O)NCCCCNC(=O)c3ccc(-c4c5nc(c(-c6c(F)cc(S(=O)(=O)[O-])cc6F)c6ccc([nH]6)c(-c6c(F)cc(S(=O)(=O)[O-])cc6F)c6nc(c(-c7c(F)cc(S(=O)(=O)[O-])cc7F)c7ccc4[nH]7)C=C6)C=C5)cc3)C2)c1
REMARK SMILES IDX 21 1 20 2 19 3 17 4 18 5 16 7 12 8 13 9 93 10 14 11 15 12
REMARK SMILES IDX 10 13 11 14 8 15 9 16 7 17 6 18 1 19 2 20 3 21 94 22 4 23
REMARK SMILES IDX 5 24 22 25 23 26 24 27 25 28 26 30 27 31 28 32 92 33 29 34
REMARK SMILES IDX 91 35 30 36 31 37 32 38 85 39 33 40 90 41 84 42 86 43 34 44
REMARK SMILES IDX 89 45 83 46 82 47 35 49 69 50 48 51 68 52 49 53 52 54 67 55
REMARK SMILES IDX 87 56 50 57 51 58 66 60 88 61 53 62 36 63 37 64 46 65 38 66
REMARK SMILES IDX 39 67 45 68 47 69 40 70 41 71 42 72 43 73 44 74 70 75 71 76
REMARK SMILES IDX 80 77 72 78 73 79 79 80 81 81 74 82 75 83 76 84 77 85 78 86
REMARK SMILES IDX 54 87 55 88 64 89 56 90 57 91 63 92 65 93 58 94 59 95 60 96
REMARK SMILES IDX 61 97 62 98
REMARK H PARENT 19 6 24 29 86 48 52 59
REMARK Flexibility Score: inf
ROOT
ATOM      1  C   UNL A   1      37.511  21.013  25.123  1.00  0.00     0.023 C 
ENDROOT
BRANCH   1   2
ATOM      2  C   UNL A   1      36.028  21.231  24.810  1.00  0.00     0.116 C 
BRANCH   2   3
ATOM      3  N   UNL A   1      35.180  20.912  25.948  1.00  0.00    -0.356 N 
ATOM      4  C   UNL A   1      34.084  21.514  26.467  1.00  0.00     0.224 C 
ATOM      5  O   UNL A   1      33.653  21.069  27.537  1.00  0.00    -0.275 OA
ATOM      6  H   UNL A   1      35.457  20.102  26.435  1.00  0.00     0.163 HD
BRANCH   4   7
ATOM      7  C   UNL A   1      33.336  22.642  25.776  1.00  0.00     0.098 C 
ATOM      8  N   UNL A   1      33.243  24.975  25.020  1.00  0.00    -0.339 N 
ATOM      9  C   UNL A   1      32.485  24.607  23.819  1.00  0.00     0.119 C 
ATOM     10  C   UNL A   1      34.127  23.926  25.519  1.00  0.00     0.133 C 
ATOM     11  C   UNL A   1      31.727  23.290  23.975  1.00  0.00     0.022 C 
ATOM     12  C   UNL A   1      32.629  22.173  24.502  1.00  0.00     0.017 C 
BRANCH   8  13
ATOM     13  C   UNL A   1      33.148  26.276  25.485  1.00  0.00     0.263 C 
ATOM     14  O   UNL A   1      34.146  26.828  25.975  1.00  0.00    -0.271 OA
BRANCH  13  15
ATOM     15  C   UNL A   1      31.807  27.063  25.487  1.00  0.00     0.259 C 
ATOM     16  C   UNL A   1      31.541  28.016  26.645  1.00  0.00     0.064 C 
BRANCH  15  17
ATOM     17  O   UNL A   1      31.327  27.366  24.180  1.00  0.00    -0.481 OA
BRANCH  17  18
ATOM     18  C   UNL A   1      30.108  27.862  23.855  1.00  0.00     0.120 A 
ATOM     19  C   UNL A   1      29.018  31.145  22.214  1.00  0.00     0.044 C 
ATOM     20  C   UNL A   1      28.981  29.757  22.787  1.00  0.00    -0.047 A 
ATOM     21  C   UNL A   1      27.782  29.049  22.813  1.00  0.00     0.003 A 
ATOM     22  C   UNL A   1      30.133  29.160  23.321  1.00  0.00     0.049 A 
ATOM     23  C   UNL A   1      27.756  27.746  23.309  1.00  0.00     0.004 A 
ATOM     24  C   UNL A   1      28.915  27.153  23.827  1.00  0.00     0.046 A 
ENDBRANCH  17  18
ENDBRANCH  15  17
ENDBRANCH  13  15
ENDBRANCH   8  13
ENDBRANCH   4   7
ENDBRANCH   2   3
ENDBRANCH   1   2
BRANCH   1  25
ATOM     25  C   UNL A   1      38.336  22.294  25.179  1.00  0.00     0.023 C 
BRANCH  25  26
ATOM     26  C   UNL A   1      38.278  22.968  26.539  1.00  0.00     0.116 C 
BRANCH  26  27
ATOM     27  N   UNL A   1      39.554  22.909  27.249  1.00  0.00    -0.352 N 
ATOM     28  C   UNL A   1      40.322  23.970  27.703  1.00  0.00     0.251 C 
ATOM     29  H   UNL A   1      39.909  22.008  27.427  1.00  0.00     0.163 HD
ATOM     30  O   UNL A   1      41.435  23.827  28.179  1.00  0.00    -0.269 OA
BRANCH  28  31
ATOM     31  C   UNL A   1      39.684  25.300  27.637  1.00  0.00     0.039 A 
ATOM     32  C   UNL A   1      40.327  26.256  26.845  1.00  0.00     0.014 A 
ATOM     33  C   UNL A   1      38.819  25.658  28.668  1.00  0.00     0.014 A 
ATOM     34  C   UNL A   1      40.300  27.585  27.244  1.00  0.00     0.010 A 
ATOM     35  C   UNL A   1      38.863  26.968  29.108  1.00  0.00     0.010 A 
ATOM     36  C   UNL A   1      39.669  27.909  28.443  1.00  0.00    -0.014 A 
BRANCH  36  37
ATOM     37  C   UNL A   1      39.916  29.157  29.159  1.00  0.00     0.031 A 
ATOM     38  C   UNL A   1      38.944  30.266  29.052  1.00  0.00     0.074 A 
ATOM     39  C   UNL A   1      40.988  29.269  29.979  1.00  0.00     0.049 A 
ATOM     40  N   UNL A   1      39.160  31.466  29.475  1.00  0.00    -0.248 NA
ATOM     41  C   UNL A   1      37.662  30.130  28.360  1.00  0.00     0.031 C 
ATOM     42  C   UNL A   1      41.194  30.254  31.037  1.00  0.00     0.029 A 
ATOM     43  N   UNL A   1      42.224  28.629  29.863  1.00  0.00    -0.354 N 
ATOM     44  C   UNL A   1      37.976  32.157  29.387  1.00  0.00     0.074 A 
ATOM     45  C   UNL A   1      37.128  31.336  28.565  1.00  0.00     0.031 C 
ATOM     46  C   UNL A   1      42.503  30.329  31.320  1.00  0.00     0.029 A 
ATOM     47  C   UNL A   1      43.205  29.516  30.343  1.00  0.00     0.049 A 
ATOM     48  H   UNL A   1      42.380  27.723  29.511  1.00  0.00     0.167 HD
ATOM     49  C   UNL A   1      37.816  33.274  30.149  1.00  0.00     0.037 A 
ATOM     50  C   UNL A   1      44.195  29.985  29.525  1.00  0.00     0.037 A 
ATOM     51  C   UNL A   1      39.118  33.780  30.591  1.00  0.00     0.049 A 
ATOM     52  C   UNL A   1      44.162  31.483  29.305  1.00  0.00     0.074 A 
ATOM     53  C   UNL A   1      39.793  33.773  31.798  1.00  0.00     0.029 A 
ATOM     54  N   UNL A   1      40.050  34.162  29.625  1.00  0.00    -0.354 N 
ATOM     55  N   UNL A   1      43.161  32.251  29.638  1.00  0.00    -0.248 NA
ATOM     56  C   UNL A   1      45.245  32.228  28.666  1.00  0.00     0.031 C 
ATOM     57  C   UNL A   1      41.169  34.019  31.528  1.00  0.00     0.029 A 
ATOM     58  C   UNL A   1      41.320  34.231  30.166  1.00  0.00     0.049 A 
ATOM     59  H   UNL A   1      39.832  34.358  28.685  1.00  0.00     0.167 HD
ATOM     60  C   UNL A   1      43.402  33.531  29.211  1.00  0.00     0.074 A 
ATOM     61  C   UNL A   1      44.740  33.474  28.651  1.00  0.00     0.031 C 
ATOM     62  C   UNL A   1      42.471  34.526  29.320  1.00  0.00     0.037 A 
BRANCH  49  63
ATOM     63  C   UNL A   1      36.476  33.775  30.675  1.00  0.00     0.058 A 
ATOM     64  C   UNL A   1      35.531  34.347  29.792  1.00  0.00     0.135 A 
ATOM     65  C   UNL A   1      36.116  33.871  32.040  1.00  0.00     0.135 A 
ATOM     66  F   UNL A   1      35.735  34.346  28.466  1.00  0.00    -0.206 F 
ATOM     67  C   UNL A   1      34.359  34.983  30.228  1.00  0.00     0.059 A 
ATOM     68  C   UNL A   1      34.934  34.458  32.494  1.00  0.00     0.059 A 
ATOM     69  F   UNL A   1      36.915  33.465  33.031  1.00  0.00    -0.206 F 
ATOM     70  C   UNL A   1      34.071  35.040  31.585  1.00  0.00     0.060 A 
BRANCH  70  71
ATOM     71  S   UNL A   1      32.599  35.904  32.164  1.00  0.00     0.124 S 
ATOM     72  O   UNL A   1      33.158  36.812  33.161  1.00  0.00    -0.237 OA
ATOM     73  O   UNL A   1      32.099  36.524  30.943  1.00  0.00    -0.237 OA
ATOM     74  O   UNL A   1      31.764  34.831  32.702  1.00  0.00    -0.744 OA
ENDBRANCH  70  71
ENDBRANCH  49  63
BRANCH  50  75
ATOM     75  C   UNL A   1      44.672  28.974  28.543  1.00  0.00     0.058 A 
ATOM     76  C   UNL A   1      45.622  28.036  28.987  1.00  0.00     0.135 A 
ATOM     77  C   UNL A   1      43.928  28.654  27.398  1.00  0.00     0.135 A 
ATOM     78  F   UNL A   1      46.369  28.300  30.072  1.00  0.00    -0.206 F 
ATOM     79  C   UNL A   1      45.714  26.768  28.429  1.00  0.00     0.059 A 
ATOM     80  C   UNL A   1      44.009  27.386  26.816  1.00  0.00     0.059 A 
ATOM     81  F   UNL A   1      43.008  29.510  26.928  1.00  0.00    -0.206 F 
ATOM     82  C   UNL A   1      44.853  26.432  27.387  1.00  0.00     0.060 A 
BRANCH  82  83
ATOM     83  S   UNL A   1      44.712  24.679  26.958  1.00  0.00     0.124 S 
ATOM     84  O   UNL A   1      44.518  24.061  28.264  1.00  0.00    -0.237 OA
ATOM     85  O   UNL A   1      43.540  24.689  26.085  1.00  0.00    -0.237 OA
ATOM     86  O   UNL A   1      45.981  24.394  26.301  1.00  0.00    -0.744 OA
ENDBRANCH  82  83
ENDBRANCH  50  75
BRANCH  62  87
ATOM     87  C   UNL A   1      42.596  35.893  28.685  1.00  0.00     0.058 A 
ATOM     88  C   UNL A   1      41.923  36.279  27.512  1.00  0.00     0.135 A 
ATOM     89  C   UNL A   1      43.321  36.916  29.338  1.00  0.00     0.135 A 
ATOM     90  F   UNL A   1      41.106  35.434  26.868  1.00  0.00    -0.206 F 
ATOM     91  C   UNL A   1      42.031  37.564  26.974  1.00  0.00     0.059 A 
ATOM     92  C   UNL A   1      43.397  38.219  28.850  1.00  0.00     0.059 A 
ATOM     93  F   UNL A   1      43.978  36.680  30.484  1.00  0.00    -0.206 F 
ATOM     94  C   UNL A   1      42.775  38.527  27.647  1.00  0.00     0.060 A 
BRANCH  94  95
ATOM     95  S   UNL A   1      42.891  40.201  26.988  1.00  0.00     0.124 S 
ATOM     96  O   UNL A   1      43.013  40.987  28.212  1.00  0.00    -0.237 OA
ATOM     97  O   UNL A   1      44.089  40.143  26.155  1.00  0.00    -0.237 OA
ATOM     98  O   UNL A   1      41.638  40.356  26.257  1.00  0.00    -0.744 OA
ENDBRANCH  94  95
ENDBRANCH  62  87
ENDBRANCH  36  37
ENDBRANCH  28  31
ENDBRANCH  26  27
ENDBRANCH  25  26
ENDBRANCH   1  25
TORSDOF 18
ENDMDL
