MODEL 1
REMARK VINA RESULT:     -10.1      0.000      0.000
REMARK SMILES C[C@@H](C(=O)NCCCCNC(=O)c1ccc(-c2c3nc(c(-c4c(F)cc(S(=O)(=O)[O-])cc4F)c4ccc([nH]4)c(-c4c(F)cc(S(=O)(=O)[O-])cc4F)c4nc(c(-c5c(F)cc(S(=O)(=O)[O-])cc5F)c5ccc2[nH]5)C=C4)C=C3)cc1)c1ccc(=O)n(C(F)F)c1
REMARK SMILES IDX 8 1 7 2 6 3 5 4 3 5 4 6 2 8 1 9 79 10 80 11 88 12 81 13
REMARK SMILES IDX 84 14 82 15 83 16 85 17 86 18 87 19 9 20 10 21 11 22 12 24
REMARK SMILES IDX 13 25 14 26 78 27 15 28 77 29 16 30 17 31 18 32 71 33 19 34
REMARK SMILES IDX 76 35 70 36 72 37 20 38 75 39 69 40 68 41 21 43 55 44 34 45
REMARK SMILES IDX 54 46 35 47 38 48 53 49 73 50 36 51 37 52 52 54 74 55 39 56
REMARK SMILES IDX 22 57 23 58 32 59 24 60 25 61 31 62 33 63 26 64 27 65 28 66
REMARK SMILES IDX 29 67 30 68 56 69 57 70 66 71 58 72 59 73 65 74 67 75 60 76
REMARK SMILES IDX 61 77 62 78 63 79 64 80 40 81 41 82 50 83 42 84 43 85 49 86
REMARK SMILES IDX 51 87 44 88 45 89 46 90 47 91 48 92
REMARK H PARENT 5 7 10 23 72 42 38 53
REMARK Flexibility Score: inf
ROOT
ATOM      1  C   UNL A   1      34.382  34.183  27.853  1.00  0.00     0.023 C 
ENDROOT
BRANCH   1   2
ATOM      2  C   UNL A   1      34.070  35.452  28.655  1.00  0.00     0.023 C 
BRANCH   2   3
ATOM      3  C   UNL A   1      33.215  35.222  29.903  1.00  0.00     0.116 C 
BRANCH   3   4
ATOM      4  N   UNL A   1      33.673  36.044  31.005  1.00  0.00    -0.356 N 
ATOM      5  C   UNL A   1      34.360  35.700  32.132  1.00  0.00     0.227 C 
ATOM      6  O   UNL A   1      34.519  36.584  32.978  1.00  0.00    -0.274 OA
ATOM      7  H   UNL A   1      33.453  37.000  30.928  1.00  0.00     0.163 HD
BRANCH   5   8
ATOM      8  C   UNL A   1      34.926  34.272  32.290  1.00  0.00     0.107 C 
ATOM      9  C   UNL A   1      34.557  33.626  33.629  1.00  0.00     0.023 C 
BRANCH   8  10
ATOM     10  C   UNL A   1      36.444  34.250  32.151  1.00  0.00    -0.019 A 
ATOM     11  C   UNL A   1      37.253  34.526  33.322  1.00  0.00     0.012 A 
ATOM     12  C   UNL A   1      37.067  34.063  30.973  1.00  0.00     0.099 A 
ATOM     13  C   UNL A   1      38.583  34.644  33.223  1.00  0.00     0.072 A 
ATOM     14  N   UNL A   1      38.441  34.161  30.846  1.00  0.00    -0.258 N 
ATOM     15  C   UNL A   1      39.265  34.491  31.908  1.00  0.00     0.254 A 
ATOM     16  O   UNL A   1      40.478  34.669  31.851  1.00  0.00    -0.269 OA
BRANCH  14  17
ATOM     17  C   UNL A   1      39.051  34.014  29.551  1.00  0.00     0.451 C 
ATOM     18  F   UNL A   1      38.148  33.555  28.648  1.00  0.00    -0.185 F 
ATOM     19  F   UNL A   1      39.541  35.189  29.088  1.00  0.00    -0.185 F 
ENDBRANCH  14  17
ENDBRANCH   8  10
ENDBRANCH   5   8
ENDBRANCH   3   4
ENDBRANCH   2   3
ENDBRANCH   1   2
BRANCH   1  20
ATOM     20  C   UNL A   1      34.216  32.878  28.620  1.00  0.00     0.116 C 
BRANCH  20  21
ATOM     21  N   UNL A   1      33.759  31.787  27.776  1.00  0.00    -0.352 N 
ATOM     22  C   UNL A   1      34.400  30.620  27.452  1.00  0.00     0.251 C 
ATOM     23  H   UNL A   1      32.863  31.902  27.385  1.00  0.00     0.163 HD
ATOM     24  O   UNL A   1      33.914  29.883  26.593  1.00  0.00    -0.269 OA
BRANCH  22  25
ATOM     25  C   UNL A   1      35.676  30.260  28.107  1.00  0.00     0.039 A 
ATOM     26  C   UNL A   1      35.638  29.591  29.333  1.00  0.00     0.014 A 
ATOM     27  C   UNL A   1      36.906  30.596  27.533  1.00  0.00     0.014 A 
ATOM     28  C   UNL A   1      36.831  29.232  29.963  1.00  0.00     0.010 A 
ATOM     29  C   UNL A   1      38.091  30.161  28.119  1.00  0.00     0.010 A 
ATOM     30  C   UNL A   1      38.069  29.499  29.355  1.00  0.00    -0.014 A 
BRANCH  30  31
ATOM     31  C   UNL A   1      39.344  29.131  30.024  1.00  0.00     0.031 A 
ATOM     32  C   UNL A   1      39.768  29.842  31.283  1.00  0.00     0.074 A 
ATOM     33  C   UNL A   1      40.132  28.181  29.484  1.00  0.00     0.049 A 
ATOM     34  N   UNL A   1      40.840  29.664  32.012  1.00  0.00    -0.248 NA
ATOM     35  C   UNL A   1      38.887  30.915  31.773  1.00  0.00     0.031 C 
ATOM     36  C   UNL A   1      39.856  27.458  28.241  1.00  0.00     0.029 A 
ATOM     37  N   UNL A   1      41.326  27.656  29.914  1.00  0.00    -0.354 N 
ATOM     38  C   UNL A   1      40.769  30.606  33.031  1.00  0.00     0.074 A 
ATOM     39  C   UNL A   1      39.582  31.396  32.793  1.00  0.00     0.031 C 
ATOM     40  C   UNL A   1      40.831  26.558  28.030  1.00  0.00     0.029 A 
ATOM     41  C   UNL A   1      41.817  26.662  29.101  1.00  0.00     0.049 A 
ATOM     42  H   UNL A   1      41.786  27.964  30.728  1.00  0.00     0.167 HD
ATOM     43  C   UNL A   1      41.599  30.781  34.086  1.00  0.00     0.037 A 
ATOM     44  C   UNL A   1      42.933  25.914  29.211  1.00  0.00     0.037 A 
ATOM     45  C   UNL A   1      42.764  29.970  34.333  1.00  0.00     0.049 A 
ATOM     46  C   UNL A   1      43.835  26.119  30.399  1.00  0.00     0.074 A 
ATOM     47  C   UNL A   1      43.635  30.021  35.407  1.00  0.00     0.029 A 
ATOM     48  N   UNL A   1      43.221  28.963  33.495  1.00  0.00    -0.354 N 
ATOM     49  N   UNL A   1      43.712  26.966  31.394  1.00  0.00    -0.248 NA
ATOM     50  C   UNL A   1      45.022  25.258  30.486  1.00  0.00     0.031 C 
ATOM     51  C   UNL A   1      44.649  29.082  35.190  1.00  0.00     0.029 A 
ATOM     52  C   UNL A   1      44.374  28.402  34.015  1.00  0.00     0.049 A 
ATOM     53  H   UNL A   1      42.788  28.689  32.654  1.00  0.00     0.167 HD
ATOM     54  C   UNL A   1      44.782  26.710  32.246  1.00  0.00     0.074 A 
ATOM     55  C   UNL A   1      45.536  25.625  31.651  1.00  0.00     0.031 C 
ATOM     56  C   UNL A   1      45.109  27.314  33.415  1.00  0.00     0.037 A 
BRANCH  43  57
ATOM     57  C   UNL A   1      41.282  31.893  35.052  1.00  0.00     0.058 A 
ATOM     58  C   UNL A   1      41.847  33.173  34.923  1.00  0.00     0.135 A 
ATOM     59  C   UNL A   1      40.377  31.684  36.105  1.00  0.00     0.135 A 
ATOM     60  F   UNL A   1      42.731  33.427  33.945  1.00  0.00    -0.206 F 
ATOM     61  C   UNL A   1      41.554  34.193  35.823  1.00  0.00     0.059 A 
ATOM     62  C   UNL A   1      40.044  32.699  36.997  1.00  0.00     0.059 A 
ATOM     63  F   UNL A   1      39.805  30.481  36.277  1.00  0.00    -0.206 F 
ATOM     64  C   UNL A   1      40.651  33.946  36.858  1.00  0.00     0.060 A 
BRANCH  64  65
ATOM     65  S   UNL A   1      40.282  35.281  38.015  1.00  0.00     0.124 S 
ATOM     66  O   UNL A   1      39.928  36.366  37.104  1.00  0.00    -0.237 OA
ATOM     67  O   UNL A   1      39.182  34.722  38.794  1.00  0.00    -0.237 OA
ATOM     68  O   UNL A   1      41.536  35.457  38.742  1.00  0.00    -0.744 OA
ENDBRANCH  64  65
ENDBRANCH  43  57
BRANCH  44  69
ATOM     69  C   UNL A   1      43.237  24.873  28.193  1.00  0.00     0.058 A 
ATOM     70  C   UNL A   1      43.863  25.208  26.983  1.00  0.00     0.135 A 
ATOM     71  C   UNL A   1      42.915  23.524  28.408  1.00  0.00     0.135 A 
ATOM     72  F   UNL A   1      44.188  26.486  26.727  1.00  0.00    -0.206 F 
ATOM     73  C   UNL A   1      44.138  24.251  26.012  1.00  0.00     0.059 A 
ATOM     74  C   UNL A   1      43.206  22.543  27.464  1.00  0.00     0.059 A 
ATOM     75  F   UNL A   1      42.332  23.147  29.557  1.00  0.00    -0.206 F 
ATOM     76  C   UNL A   1      43.807  22.919  26.264  1.00  0.00     0.060 A 
BRANCH  76  77
ATOM     77  S   UNL A   1      44.208  21.677  25.016  1.00  0.00     0.124 S 
ATOM     78  O   UNL A   1      44.049  22.438  23.782  1.00  0.00    -0.237 OA
ATOM     79  O   UNL A   1      45.576  21.316  25.373  1.00  0.00    -0.237 OA
ATOM     80  O   UNL A   1      43.212  20.634  25.247  1.00  0.00    -0.744 OA
ENDBRANCH  76  77
ENDBRANCH  44  69
BRANCH  56  81
ATOM     81  C   UNL A   1      46.302  26.780  34.161  1.00  0.00     0.058 A 
ATOM     82  C   UNL A   1      47.595  27.293  33.966  1.00  0.00     0.135 A 
ATOM     83  C   UNL A   1      46.142  25.755  35.109  1.00  0.00     0.135 A 
ATOM     84  F   UNL A   1      47.807  28.271  33.071  1.00  0.00    -0.206 F 
ATOM     85  C   UNL A   1      48.691  26.781  34.654  1.00  0.00     0.059 A 
ATOM     86  C   UNL A   1      47.218  25.252  35.831  1.00  0.00     0.059 A 
ATOM     87  F   UNL A   1      44.926  25.238  35.347  1.00  0.00    -0.206 F 
ATOM     88  C   UNL A   1      48.492  25.759  35.583  1.00  0.00     0.060 A 
BRANCH  88  89
ATOM     89  S   UNL A   1      49.921  25.107  36.473  1.00  0.00     0.124 S 
ATOM     90  O   UNL A   1      50.518  26.327  37.005  1.00  0.00    -0.237 OA
ATOM     91  O   UNL A   1      49.301  24.223  37.455  1.00  0.00    -0.237 OA
ATOM     92  O   UNL A   1      50.692  24.432  35.432  1.00  0.00    -0.744 OA
ENDBRANCH  88  89
ENDBRANCH  56  81
ENDBRANCH  30  31
ENDBRANCH  22  25
ENDBRANCH  20  21
ENDBRANCH   1  20
TORSDOF 16
ENDMDL
MODEL 2
REMARK VINA RESULT:     -10.1      4.539     11.472
REMARK SMILES C[C@@H](C(=O)NCCCCNC(=O)c1ccc(-c2c3nc(c(-c4c(F)cc(S(=O)(=O)[O-])cc4F)c4ccc([nH]4)c(-c4c(F)cc(S(=O)(=O)[O-])cc4F)c4nc(c(-c5c(F)cc(S(=O)(=O)[O-])cc5F)c5ccc2[nH]5)C=C4)C=C3)cc1)c1ccc(=O)n(C(F)F)c1
REMARK SMILES IDX 8 1 7 2 6 3 5 4 3 5 4 6 2 8 1 9 79 10 80 11 88 12 81 13
REMARK SMILES IDX 84 14 82 15 83 16 85 17 86 18 87 19 9 20 10 21 11 22 12 24
REMARK SMILES IDX 13 25 14 26 78 27 15 28 77 29 16 30 17 31 18 32 71 33 19 34
REMARK SMILES IDX 76 35 70 36 72 37 20 38 75 39 69 40 68 41 21 43 55 44 34 45
REMARK SMILES IDX 54 46 35 47 38 48 53 49 73 50 36 51 37 52 52 54 74 55 39 56
REMARK SMILES IDX 22 57 23 58 32 59 24 60 25 61 31 62 33 63 26 64 27 65 28 66
REMARK SMILES IDX 29 67 30 68 56 69 57 70 66 71 58 72 59 73 65 74 67 75 60 76
REMARK SMILES IDX 61 77 62 78 63 79 64 80 40 81 41 82 50 83 42 84 43 85 49 86
REMARK SMILES IDX 51 87 44 88 45 89 46 90 47 91 48 92
REMARK H PARENT 5 7 10 23 72 42 38 53
REMARK Flexibility Score: inf
ROOT
ATOM      1  C   UNL A   1      40.781  22.111  27.744  1.00  0.00     0.023 C 
ENDROOT
BRANCH   1   2
ATOM      2  C   UNL A   1      40.671  21.172  26.538  1.00  0.00     0.023 C 
BRANCH   2   3
ATOM      3  C   UNL A   1      39.329  21.230  25.805  1.00  0.00     0.116 C 
BRANCH   3   4
ATOM      4  N   UNL A   1      38.555  22.378  26.232  1.00  0.00    -0.356 N 
ATOM      5  C   UNL A   1      37.450  22.950  25.673  1.00  0.00     0.227 C 
ATOM      6  O   UNL A   1      37.056  24.005  26.175  1.00  0.00    -0.274 OA
ATOM      7  H   UNL A   1      38.878  22.814  27.053  1.00  0.00     0.163 HD
BRANCH   5   8
ATOM      8  C   UNL A   1      36.734  22.261  24.491  1.00  0.00     0.107 C 
ATOM      9  C   UNL A   1      36.850  23.046  23.180  1.00  0.00     0.023 C 
BRANCH   8  10
ATOM     10  C   UNL A   1      35.255  22.035  24.783  1.00  0.00    -0.019 A 
ATOM     11  C   UNL A   1      34.886  21.319  25.989  1.00  0.00     0.012 A 
ATOM     12  C   UNL A   1      34.278  22.402  23.934  1.00  0.00     0.099 A 
ATOM     13  C   UNL A   1      33.611  20.985  26.225  1.00  0.00     0.072 A 
ATOM     14  N   UNL A   1      32.951  22.087  24.162  1.00  0.00    -0.258 N 
ATOM     15  C   UNL A   1      32.539  21.345  25.255  1.00  0.00     0.254 A 
ATOM     16  O   UNL A   1      31.394  20.965  25.479  1.00  0.00    -0.269 OA
BRANCH  14  17
ATOM     17  C   UNL A   1      31.953  22.449  23.190  1.00  0.00     0.451 C 
ATOM     18  F   UNL A   1      32.380  23.493  22.436  1.00  0.00    -0.185 F 
ATOM     19  F   UNL A   1      31.668  21.422  22.354  1.00  0.00    -0.185 F 
ENDBRANCH  14  17
ENDBRANCH   8  10
ENDBRANCH   5   8
ENDBRANCH   3   4
ENDBRANCH   2   3
ENDBRANCH   1   2
BRANCH   1  20
ATOM     20  C   UNL A   1      41.855  23.185  27.629  1.00  0.00     0.116 C 
BRANCH  20  21
ATOM     21  N   UNL A   1      41.783  23.916  26.374  1.00  0.00    -0.352 N 
ATOM     22  C   UNL A   1      41.444  25.226  26.157  1.00  0.00     0.251 C 
ATOM     23  H   UNL A   1      42.012  23.397  25.569  1.00  0.00     0.163 HD
ATOM     24  O   UNL A   1      41.289  25.626  25.003  1.00  0.00    -0.269 OA
BRANCH  22  25
ATOM     25  C   UNL A   1      41.241  26.146  27.298  1.00  0.00     0.039 A 
ATOM     26  C   UNL A   1      40.140  25.947  28.134  1.00  0.00     0.014 A 
ATOM     27  C   UNL A   1      42.114  27.212  27.534  1.00  0.00     0.014 A 
ATOM     28  C   UNL A   1      39.935  26.797  29.223  1.00  0.00     0.010 A 
ATOM     29  C   UNL A   1      41.957  28.004  28.668  1.00  0.00     0.010 A 
ATOM     30  C   UNL A   1      40.851  27.823  29.510  1.00  0.00    -0.014 A 
BRANCH  30  31
ATOM     31  C   UNL A   1      40.635  28.739  30.660  1.00  0.00     0.031 A 
ATOM     32  C   UNL A   1      41.478  28.605  31.901  1.00  0.00     0.074 A 
ATOM     33  C   UNL A   1      39.663  29.671  30.599  1.00  0.00     0.049 A 
ATOM     34  N   UNL A   1      41.444  29.308  33.005  1.00  0.00    -0.248 NA
ATOM     35  C   UNL A   1      42.474  27.520  31.919  1.00  0.00     0.031 C 
ATOM     36  C   UNL A   1      38.746  29.865  29.473  1.00  0.00     0.029 A 
ATOM     37  N   UNL A   1      39.285  30.633  31.503  1.00  0.00    -0.354 N 
ATOM     38  C   UNL A   1      42.395  28.743  33.847  1.00  0.00     0.074 A 
ATOM     39  C   UNL A   1      42.948  27.602  33.153  1.00  0.00     0.031 C 
ATOM     40  C   UNL A   1      37.940  30.907  29.737  1.00  0.00     0.029 A 
ATOM     41  C   UNL A   1      38.258  31.433  31.062  1.00  0.00     0.049 A 
ATOM     42  H   UNL A   1      39.711  30.739  32.385  1.00  0.00     0.167 HD
ATOM     43  C   UNL A   1      42.793  29.154  35.074  1.00  0.00     0.037 A 
ATOM     44  C   UNL A   1      37.645  32.476  31.656  1.00  0.00     0.037 A 
ATOM     45  C   UNL A   1      42.259  30.310  35.746  1.00  0.00     0.049 A 
ATOM     46  C   UNL A   1      38.114  32.920  33.016  1.00  0.00     0.074 A 
ATOM     47  C   UNL A   1      42.640  30.850  36.961  1.00  0.00     0.029 A 
ATOM     48  N   UNL A   1      41.229  31.103  35.261  1.00  0.00    -0.354 N 
ATOM     49  N   UNL A   1      39.067  32.420  33.766  1.00  0.00    -0.248 NA
ATOM     50  C   UNL A   1      37.432  34.081  33.604  1.00  0.00     0.031 C 
ATOM     51  C   UNL A   1      41.803  31.937  37.237  1.00  0.00     0.029 A 
ATOM     52  C   UNL A   1      40.945  32.114  36.163  1.00  0.00     0.049 A 
ATOM     53  H   UNL A   1      40.769  30.967  34.401  1.00  0.00     0.167 HD
ATOM     54  C   UNL A   1      39.126  33.229  34.896  1.00  0.00     0.074 A 
ATOM     55  C   UNL A   1      38.118  34.255  34.725  1.00  0.00     0.031 C 
ATOM     56  C   UNL A   1      39.943  33.135  35.975  1.00  0.00     0.037 A 
BRANCH  43  57
ATOM     57  C   UNL A   1      43.857  28.346  35.772  1.00  0.00     0.058 A 
ATOM     58  C   UNL A   1      45.226  28.599  35.582  1.00  0.00     0.135 A 
ATOM     59  C   UNL A   1      43.501  27.323  36.667  1.00  0.00     0.135 A 
ATOM     60  F   UNL A   1      45.626  29.554  34.727  1.00  0.00    -0.206 F 
ATOM     61  C   UNL A   1      46.202  27.845  36.226  1.00  0.00     0.059 A 
ATOM     62  C   UNL A   1      44.460  26.579  37.347  1.00  0.00     0.059 A 
ATOM     63  F   UNL A   1      42.208  27.038  36.888  1.00  0.00    -0.206 F 
ATOM     64  C   UNL A   1      45.809  26.836  37.106  1.00  0.00     0.060 A 
BRANCH  64  65
ATOM     65  S   UNL A   1      47.089  25.868  37.933  1.00  0.00     0.124 S 
ATOM     66  O   UNL A   1      47.837  25.342  36.794  1.00  0.00    -0.237 OA
ATOM     67  O   UNL A   1      47.776  26.878  38.731  1.00  0.00    -0.237 OA
ATOM     68  O   UNL A   1      46.330  24.880  38.694  1.00  0.00    -0.744 OA
ENDBRANCH  64  65
ENDBRANCH  43  57
BRANCH  44  69
ATOM     69  C   UNL A   1      36.553  33.200  30.951  1.00  0.00     0.058 A 
ATOM     70  C   UNL A   1      35.217  33.066  31.360  1.00  0.00     0.135 A 
ATOM     71  C   UNL A   1      36.819  34.042  29.859  1.00  0.00     0.135 A 
ATOM     72  F   UNL A   1      34.910  32.270  32.396  1.00  0.00    -0.206 F 
ATOM     73  C   UNL A   1      34.182  33.721  30.701  1.00  0.00     0.059 A 
ATOM     74  C   UNL A   1      35.803  34.729  29.202  1.00  0.00     0.059 A 
ATOM     75  F   UNL A   1      38.081  34.218  29.439  1.00  0.00    -0.206 F 
ATOM     76  C   UNL A   1      34.486  34.553  29.624  1.00  0.00     0.060 A 
BRANCH  76  77
ATOM     77  S   UNL A   1      33.139  35.432  28.803  1.00  0.00     0.124 S 
ATOM     78  O   UNL A   1      33.869  36.424  28.021  1.00  0.00    -0.237 OA
ATOM     79  O   UNL A   1      32.497  34.365  28.042  1.00  0.00    -0.237 OA
ATOM     80  O   UNL A   1      32.354  35.958  29.916  1.00  0.00    -0.744 OA
ENDBRANCH  76  77
ENDBRANCH  44  69
BRANCH  56  81
ATOM     81  C   UNL A   1      39.822  34.201  37.030  1.00  0.00     0.058 A 
ATOM     82  C   UNL A   1      40.402  35.471  36.878  1.00  0.00     0.135 A 
ATOM     83  C   UNL A   1      39.086  33.955  38.201  1.00  0.00     0.135 A 
ATOM     84  F   UNL A   1      41.117  35.761  35.780  1.00  0.00    -0.206 F 
ATOM     85  C   UNL A   1      40.291  36.444  37.867  1.00  0.00     0.059 A 
ATOM     86  C   UNL A   1      38.935  34.924  39.188  1.00  0.00     0.059 A 
ATOM     87  F   UNL A   1      38.498  32.763  38.393  1.00  0.00    -0.206 F 
ATOM     88  C   UNL A   1      39.557  36.159  39.020  1.00  0.00     0.060 A 
BRANCH  88  89
ATOM     89  S   UNL A   1      39.416  37.430  40.293  1.00  0.00     0.124 S 
ATOM     90  O   UNL A   1      38.612  38.439  39.613  1.00  0.00    -0.237 OA
ATOM     91  O   UNL A   1      38.753  36.713  41.378  1.00  0.00    -0.237 OA
ATOM     92  O   UNL A   1      40.803  37.804  40.555  1.00  0.00    -0.744 OA
ENDBRANCH  88  89
ENDBRANCH  56  81
ENDBRANCH  30  31
ENDBRANCH  22  25
ENDBRANCH  20  21
ENDBRANCH   1  20
TORSDOF 16
ENDMDL
MODEL 3
REMARK VINA RESULT:     -10.0      5.066     11.813
REMARK SMILES C[C@@H](C(=O)NCCCCNC(=O)c1ccc(-c2c3nc(c(-c4c(F)cc(S(=O)(=O)[O-])cc4F)c4ccc([nH]4)c(-c4c(F)cc(S(=O)(=O)[O-])cc4F)c4nc(c(-c5c(F)cc(S(=O)(=O)[O-])cc5F)c5ccc2[nH]5)C=C4)C=C3)cc1)c1ccc(=O)n(C(F)F)c1
REMARK SMILES IDX 8 1 7 2 6 3 5 4 3 5 4 6 2 8 1 9 79 10 80 11 88 12 81 13
REMARK SMILES IDX 84 14 82 15 83 16 85 17 86 18 87 19 9 20 10 21 11 22 12 24
REMARK SMILES IDX 13 25 14 26 78 27 15 28 77 29 16 30 17 31 18 32 71 33 19 34
REMARK SMILES IDX 76 35 70 36 72 37 20 38 75 39 69 40 68 41 21 43 55 44 34 45
REMARK SMILES IDX 54 46 35 47 38 48 53 49 73 50 36 51 37 52 52 54 74 55 39 56
REMARK SMILES IDX 22 57 23 58 32 59 24 60 25 61 31 62 33 63 26 64 27 65 28 66
REMARK SMILES IDX 29 67 30 68 56 69 57 70 66 71 58 72 59 73 65 74 67 75 60 76
REMARK SMILES IDX 61 77 62 78 63 79 64 80 40 81 41 82 50 83 42 84 43 85 49 86
REMARK SMILES IDX 51 87 44 88 45 89 46 90 47 91 48 92
REMARK H PARENT 5 7 10 23 72 42 38 53
REMARK Flexibility Score: inf
ROOT
ATOM      1  C   UNL A   1      38.917  22.764  26.517  1.00  0.00     0.023 C 
ENDROOT
BRANCH   1   2
ATOM      2  C   UNL A   1      37.771  23.685  26.084  1.00  0.00     0.023 C 
BRANCH   2   3
ATOM      3  C   UNL A   1      36.559  22.960  25.494  1.00  0.00     0.116 C 
BRANCH   3   4
ATOM      4  N   UNL A   1      35.841  22.231  26.520  1.00  0.00    -0.356 N 
ATOM      5  C   UNL A   1      34.514  21.931  26.619  1.00  0.00     0.227 C 
ATOM      6  O   UNL A   1      34.141  21.399  27.668  1.00  0.00    -0.274 OA
ATOM      7  H   UNL A   1      36.398  21.903  27.262  1.00  0.00     0.163 HD
BRANCH   5   8
ATOM      8  C   UNL A   1      33.562  22.225  25.439  1.00  0.00     0.107 C 
ATOM      9  C   UNL A   1      32.191  22.739  25.890  1.00  0.00     0.023 C 
BRANCH   8  10
ATOM     10  C   UNL A   1      33.349  20.993  24.567  1.00  0.00    -0.019 A 
ATOM     11  C   UNL A   1      32.459  21.094  23.427  1.00  0.00     0.012 A 
ATOM     12  C   UNL A   1      33.888  19.794  24.853  1.00  0.00     0.099 A 
ATOM     13  C   UNL A   1      32.140  20.010  22.709  1.00  0.00     0.072 A 
ATOM     14  N   UNL A   1      33.592  18.662  24.117  1.00  0.00    -0.258 N 
ATOM     15  C   UNL A   1      32.696  18.674  23.061  1.00  0.00     0.254 A 
ATOM     16  O   UNL A   1      32.330  17.696  22.416  1.00  0.00    -0.269 OA
BRANCH  14  17
ATOM     17  C   UNL A   1      34.148  17.391  24.503  1.00  0.00     0.451 C 
ATOM     18  F   UNL A   1      35.496  17.479  24.625  1.00  0.00    -0.185 F 
ATOM     19  F   UNL A   1      33.651  16.964  25.689  1.00  0.00    -0.185 F 
ENDBRANCH  14  17
ENDBRANCH   8  10
ENDBRANCH   5   8
ENDBRANCH   3   4
ENDBRANCH   2   3
ENDBRANCH   1   2
BRANCH   1  20
ATOM     20  C   UNL A   1      40.124  23.474  27.115  1.00  0.00     0.116 C 
BRANCH  20  21
ATOM     21  N   UNL A   1      40.946  24.123  26.107  1.00  0.00    -0.352 N 
ATOM     22  C   UNL A   1      41.396  25.418  26.063  1.00  0.00     0.251 C 
ATOM     23  H   UNL A   1      41.219  23.553  25.352  1.00  0.00     0.163 HD
ATOM     24  O   UNL A   1      41.954  25.828  25.046  1.00  0.00    -0.269 OA
BRANCH  22  25
ATOM     25  C   UNL A   1      41.191  26.320  27.217  1.00  0.00     0.039 A 
ATOM     26  C   UNL A   1      40.134  26.062  28.093  1.00  0.00     0.014 A 
ATOM     27  C   UNL A   1      42.017  27.429  27.427  1.00  0.00     0.014 A 
ATOM     28  C   UNL A   1      39.928  26.895  29.195  1.00  0.00     0.010 A 
ATOM     29  C   UNL A   1      41.864  28.206  28.571  1.00  0.00     0.010 A 
ATOM     30  C   UNL A   1      40.802  27.965  29.454  1.00  0.00    -0.014 A 
BRANCH  30  31
ATOM     31  C   UNL A   1      40.584  28.864  30.617  1.00  0.00     0.031 A 
ATOM     32  C   UNL A   1      41.429  28.716  31.855  1.00  0.00     0.074 A 
ATOM     33  C   UNL A   1      39.609  29.794  30.570  1.00  0.00     0.049 A 
ATOM     34  N   UNL A   1      41.393  29.402  32.968  1.00  0.00    -0.248 NA
ATOM     35  C   UNL A   1      42.428  27.634  31.856  1.00  0.00     0.031 C 
ATOM     36  C   UNL A   1      38.690  30.001  29.448  1.00  0.00     0.029 A 
ATOM     37  N   UNL A   1      39.229  30.741  31.488  1.00  0.00    -0.354 N 
ATOM     38  C   UNL A   1      42.347  28.829  33.801  1.00  0.00     0.074 A 
ATOM     39  C   UNL A   1      42.903  27.699  33.091  1.00  0.00     0.031 C 
ATOM     40  C   UNL A   1      37.881  31.036  29.728  1.00  0.00     0.029 A 
ATOM     41  C   UNL A   1      38.198  31.544  31.059  1.00  0.00     0.049 A 
ATOM     42  H   UNL A   1      39.655  30.836  32.371  1.00  0.00     0.167 HD
ATOM     43  C   UNL A   1      42.745  29.223  35.034  1.00  0.00     0.037 A 
ATOM     44  C   UNL A   1      37.582  32.576  31.669  1.00  0.00     0.037 A 
ATOM     45  C   UNL A   1      42.208  30.368  35.723  1.00  0.00     0.049 A 
ATOM     46  C   UNL A   1      38.051  33.003  33.035  1.00  0.00     0.074 A 
ATOM     47  C   UNL A   1      42.588  30.892  36.946  1.00  0.00     0.029 A 
ATOM     48  N   UNL A   1      41.175  31.164  35.250  1.00  0.00    -0.354 N 
ATOM     49  N   UNL A   1      39.007  32.495  33.776  1.00  0.00    -0.248 NA
ATOM     50  C   UNL A   1      37.366  34.152  33.640  1.00  0.00     0.031 C 
ATOM     51  C   UNL A   1      41.748  31.971  37.237  1.00  0.00     0.029 A 
ATOM     52  C   UNL A   1      40.888  32.161  36.167  1.00  0.00     0.049 A 
ATOM     53  H   UNL A   1      40.714  31.038  34.389  1.00  0.00     0.167 HD
ATOM     54  C   UNL A   1      39.065  33.288  34.918  1.00  0.00     0.074 A 
ATOM     55  C   UNL A   1      38.053  34.313  34.763  1.00  0.00     0.031 C 
ATOM     56  C   UNL A   1      39.883  33.181  35.994  1.00  0.00     0.037 A 
BRANCH  43  57
ATOM     57  C   UNL A   1      43.812  28.409  35.719  1.00  0.00     0.058 A 
ATOM     58  C   UNL A   1      45.180  28.661  35.522  1.00  0.00     0.135 A 
ATOM     59  C   UNL A   1      43.461  27.380  36.609  1.00  0.00     0.135 A 
ATOM     60  F   UNL A   1      45.576  29.621  34.671  1.00  0.00    -0.206 F 
ATOM     61  C   UNL A   1      46.160  27.901  36.154  1.00  0.00     0.059 A 
ATOM     62  C   UNL A   1      44.424  26.629  37.277  1.00  0.00     0.059 A 
ATOM     63  F   UNL A   1      42.169  27.095  36.836  1.00  0.00    -0.206 F 
ATOM     64  C   UNL A   1      45.771  26.886  37.030  1.00  0.00     0.060 A 
BRANCH  64  65
ATOM     65  S   UNL A   1      47.055  25.911  37.841  1.00  0.00     0.124 S 
ATOM     66  O   UNL A   1      48.110  26.905  38.014  1.00  0.00    -0.237 OA
ATOM     67  O   UNL A   1      46.389  25.474  39.063  1.00  0.00    -0.237 OA
ATOM     68  O   UNL A   1      47.342  24.855  36.874  1.00  0.00    -0.744 OA
ENDBRANCH  64  65
ENDBRANCH  43  57
BRANCH  44  69
ATOM     69  C   UNL A   1      36.487  33.307  30.975  1.00  0.00     0.058 A 
ATOM     70  C   UNL A   1      35.154  33.176  31.395  1.00  0.00     0.135 A 
ATOM     71  C   UNL A   1      36.747  34.152  29.886  1.00  0.00     0.135 A 
ATOM     72  F   UNL A   1      34.852  32.376  32.430  1.00  0.00    -0.206 F 
ATOM     73  C   UNL A   1      34.116  33.836  30.747  1.00  0.00     0.059 A 
ATOM     74  C   UNL A   1      35.729  34.846  29.239  1.00  0.00     0.059 A 
ATOM     75  F   UNL A   1      38.007  34.327  29.456  1.00  0.00    -0.206 F 
ATOM     76  C   UNL A   1      34.415  34.672  29.670  1.00  0.00     0.060 A 
BRANCH  76  77
ATOM     77  S   UNL A   1      33.064  35.559  28.864  1.00  0.00     0.124 S 
ATOM     78  O   UNL A   1      33.790  36.556  28.085  1.00  0.00    -0.237 OA
ATOM     79  O   UNL A   1      32.415  34.498  28.099  1.00  0.00    -0.237 OA
ATOM     80  O   UNL A   1      32.286  36.078  29.985  1.00  0.00    -0.744 OA
ENDBRANCH  76  77
ENDBRANCH  44  69
BRANCH  56  81
ATOM     81  C   UNL A   1      39.760  34.232  37.065  1.00  0.00     0.058 A 
ATOM     82  C   UNL A   1      40.402  35.477  36.967  1.00  0.00     0.135 A 
ATOM     83  C   UNL A   1      38.959  33.997  38.196  1.00  0.00     0.135 A 
ATOM     84  F   UNL A   1      41.181  35.754  35.909  1.00  0.00    -0.206 F 
ATOM     85  C   UNL A   1      40.288  36.434  37.970  1.00  0.00     0.059 A 
ATOM     86  C   UNL A   1      38.804  34.953  39.194  1.00  0.00     0.059 A 
ATOM     87  F   UNL A   1      38.309  32.830  38.334  1.00  0.00    -0.206 F 
ATOM     88  C   UNL A   1      39.488  36.161  39.081  1.00  0.00     0.060 A 
BRANCH  88  89
ATOM     89  S   UNL A   1      39.343  37.414  40.373  1.00  0.00     0.124 S 
ATOM     90  O   UNL A   1      38.234  38.221  39.877  1.00  0.00    -0.237 OA
ATOM     91  O   UNL A   1      39.063  36.609  41.558  1.00  0.00    -0.237 OA
ATOM     92  O   UNL A   1      40.650  38.066  40.362  1.00  0.00    -0.744 OA
ENDBRANCH  88  89
ENDBRANCH  56  81
ENDBRANCH  30  31
ENDBRANCH  22  25
ENDBRANCH  20  21
ENDBRANCH   1  20
TORSDOF 16
ENDMDL
