MODEL 1
REMARK VINA RESULT:     -12.1      0.000      0.000
REMARK SMILES Cc1c(Cl)cc2c(c1C)O[C@@H](C(F)(F)F)C(C(=O)NCCCCNC(=O)c1ccc(-c3c4nc(c(-c5c(F)cc(S(=O)(=O)[O-])cc5F)c5ccc([nH]5)c(-c5c(F)cc(S(=O)(=O)[O-])cc5F)c5nc(c(-c6c(F)cc(S(=O)(=O)[O-])cc6F)c6ccc3[nH]6)C=C5)C=C4)cc1)=C2
REMARK SMILES IDX 22 1 21 2 20 3 19 4 17 5 18 6 16 8 1 9 2 10 3 11 8 12 4 13
REMARK SMILES IDX 5 14 7 15 9 16 6 17 10 18 93 19 11 20 12 21 13 22 14 23
REMARK SMILES IDX 15 24 23 25 24 26 25 27 26 29 27 30 28 31 92 32 29 33 91 34
REMARK SMILES IDX 30 35 31 36 32 37 85 38 33 39 90 40 84 41 86 42 34 43 89 44
REMARK SMILES IDX 83 45 82 46 35 48 69 49 48 50 68 51 49 52 52 53 67 54 87 55
REMARK SMILES IDX 50 56 51 57 66 59 88 60 53 61 36 62 37 63 46 64 38 65 39 66
REMARK SMILES IDX 45 67 47 68 40 69 41 70 42 71 43 72 44 73 70 74 71 75 80 76
REMARK SMILES IDX 72 77 73 78 79 79 81 80 74 81 75 82 76 83 77 84 78 85 54 86
REMARK SMILES IDX 55 87 64 88 56 89 57 90 63 91 65 92 58 93 59 94 60 95 61 96
REMARK SMILES IDX 62 97
REMARK H PARENT 19 7 24 28 86 47 52 58
REMARK Flexibility Score: inf
ROOT
ATOM      1  C   UNL A   1      33.959  28.247  25.830  1.00  0.00     0.023 C 
ENDROOT
BRANCH   1   2
ATOM      2  C   UNL A   1      33.126  29.057  24.832  1.00  0.00     0.023 C 
BRANCH   2   3
ATOM      3  C   UNL A   1      31.638  28.707  24.820  1.00  0.00     0.116 C 
BRANCH   3   4
ATOM      4  N   UNL A   1      31.193  28.328  23.492  1.00  0.00    -0.352 N 
ATOM      5  C   UNL A   1      31.084  27.179  22.786  1.00  0.00     0.251 C 
ATOM      6  O   UNL A   1      30.560  27.294  21.673  1.00  0.00    -0.270 OA
ATOM      7  H   UNL A   1      30.892  29.107  22.971  1.00  0.00     0.163 HD
BRANCH   5   8
ATOM      8  C   UNL A   1      31.542  25.834  23.245  1.00  0.00     0.067 C 
ATOM      9  C   UNL A   1      35.022  20.561  24.944  1.00  0.00     0.046 C 
ATOM     10  C   UNL A   1      34.467  21.870  24.443  1.00  0.00    -0.026 A 
ATOM     11  C   UNL A   1      35.309  22.902  23.981  1.00  0.00     0.045 A 
ATOM     12  C   UNL A   1      33.065  22.089  24.447  1.00  0.00    -0.004 A 
ATOM     13  Cl  UNL A   1      37.034  22.755  23.958  1.00  0.00    -0.084 Cl
ATOM     14  C   UNL A   1      34.782  24.110  23.513  1.00  0.00     0.032 A 
ATOM     15  C   UNL A   1      32.559  23.319  23.981  1.00  0.00     0.131 A 
ATOM     16  C   UNL A   1      32.079  21.058  24.939  1.00  0.00     0.049 C 
ATOM     17  C   UNL A   1      33.406  24.321  23.509  1.00  0.00     0.019 A 
ATOM     18  O   UNL A   1      31.197  23.479  23.971  1.00  0.00    -0.475 OA
ATOM     19  C   UNL A   1      32.840  25.564  23.004  1.00  0.00     0.025 C 
ATOM     20  C   UNL A   1      30.712  24.853  24.026  1.00  0.00     0.314 C 
BRANCH  20  21
ATOM     21  C   UNL A   1      30.468  25.266  25.487  1.00  0.00     0.429 C 
ATOM     22  F   UNL A   1      31.576  25.758  26.086  1.00  0.00    -0.167 F 
ATOM     23  F   UNL A   1      29.505  26.206  25.612  1.00  0.00    -0.167 F 
ATOM     24  F   UNL A   1      30.067  24.191  26.213  1.00  0.00    -0.167 F 
ENDBRANCH  20  21
ENDBRANCH   5   8
ENDBRANCH   3   4
ENDBRANCH   2   3
ENDBRANCH   1   2
BRANCH   1  25
ATOM     25  C   UNL A   1      33.595  28.451  27.295  1.00  0.00     0.116 C 
BRANCH  25  26
ATOM     26  N   UNL A   1      33.507  29.851  27.685  1.00  0.00    -0.352 N 
ATOM     27  C   UNL A   1      34.502  30.647  28.201  1.00  0.00     0.251 C 
ATOM     28  H   UNL A   1      32.630  30.280  27.564  1.00  0.00     0.163 HD
ATOM     29  O   UNL A   1      34.260  31.796  28.557  1.00  0.00    -0.269 OA
BRANCH  27  30
ATOM     30  C   UNL A   1      35.852  30.075  28.363  1.00  0.00     0.039 A 
ATOM     31  C   UNL A   1      36.750  30.160  27.297  1.00  0.00     0.014 A 
ATOM     32  C   UNL A   1      36.245  29.535  29.590  1.00  0.00     0.014 A 
ATOM     33  C   UNL A   1      38.074  29.766  27.487  1.00  0.00     0.010 A 
ATOM     34  C   UNL A   1      37.579  29.203  29.795  1.00  0.00     0.010 A 
ATOM     35  C   UNL A   1      38.505  29.321  28.747  1.00  0.00    -0.014 A 
BRANCH  35  36
ATOM     36  C   UNL A   1      39.923  28.965  28.990  1.00  0.00     0.031 A 
ATOM     37  C   UNL A   1      40.853  29.981  29.587  1.00  0.00     0.074 A 
ATOM     38  C   UNL A   1      40.380  27.753  28.619  1.00  0.00     0.049 A 
ATOM     39  N   UNL A   1      42.139  29.894  29.806  1.00  0.00    -0.248 NA
ATOM     40  C   UNL A   1      40.265  31.277  29.963  1.00  0.00     0.031 C 
ATOM     41  C   UNL A   1      39.579  26.699  27.991  1.00  0.00     0.029 A 
ATOM     42  N   UNL A   1      41.632  27.203  28.716  1.00  0.00    -0.354 N 
ATOM     43  C   UNL A   1      42.515  31.123  30.330  1.00  0.00     0.074 A 
ATOM     44  C   UNL A   1      41.333  31.956  30.352  1.00  0.00     0.031 C 
ATOM     45  C   UNL A   1      40.352  25.621  27.788  1.00  0.00     0.029 A 
ATOM     46  C   UNL A   1      41.708  25.914  28.243  1.00  0.00     0.049 A 
ATOM     47  H   UNL A   1      42.405  27.686  29.089  1.00  0.00     0.167 HD
ATOM     48  C   UNL A   1      43.731  31.513  30.780  1.00  0.00     0.037 A 
ATOM     49  C   UNL A   1      42.752  25.066  28.188  1.00  0.00     0.037 A 
ATOM     50  C   UNL A   1      44.894  30.669  30.790  1.00  0.00     0.049 A 
ATOM     51  C   UNL A   1      44.090  25.517  28.706  1.00  0.00     0.074 A 
ATOM     52  C   UNL A   1      46.163  30.955  31.261  1.00  0.00     0.029 A 
ATOM     53  N   UNL A   1      44.926  29.365  30.316  1.00  0.00    -0.354 N 
ATOM     54  N   UNL A   1      44.423  26.674  29.224  1.00  0.00    -0.248 NA
ATOM     55  C   UNL A   1      45.193  24.549  28.630  1.00  0.00     0.031 C 
ATOM     56  C   UNL A   1      46.968  29.830  31.055  1.00  0.00     0.029 A 
ATOM     57  C   UNL A   1      46.194  28.835  30.480  1.00  0.00     0.049 A 
ATOM     58  H   UNL A   1      44.161  28.888  29.923  1.00  0.00     0.167 HD
ATOM     59  C   UNL A   1      45.769  26.571  29.552  1.00  0.00     0.074 A 
ATOM     60  C   UNL A   1      46.187  25.233  29.182  1.00  0.00     0.031 C 
ATOM     61  C   UNL A   1      46.585  27.498  30.108  1.00  0.00     0.037 A 
BRANCH  48  62
ATOM     62  C   UNL A   1      43.849  32.911  31.314  1.00  0.00     0.058 A 
ATOM     63  C   UNL A   1      44.200  33.983  30.477  1.00  0.00     0.135 A 
ATOM     64  C   UNL A   1      43.606  33.187  32.668  1.00  0.00     0.135 A 
ATOM     65  F   UNL A   1      44.463  33.768  29.178  1.00  0.00    -0.206 F 
ATOM     66  C   UNL A   1      44.335  35.274  30.971  1.00  0.00     0.059 A 
ATOM     67  C   UNL A   1      43.714  34.477  33.179  1.00  0.00     0.059 A 
ATOM     68  F   UNL A   1      43.273  32.196  33.510  1.00  0.00    -0.206 F 
ATOM     69  C   UNL A   1      44.095  35.511  32.325  1.00  0.00     0.060 A 
BRANCH  69  70
ATOM     70  S   UNL A   1      44.286  37.192  32.954  1.00  0.00     0.124 S 
ATOM     71  O   UNL A   1      43.112  37.313  33.815  1.00  0.00    -0.237 OA
ATOM     72  O   UNL A   1      45.571  37.126  33.642  1.00  0.00    -0.237 OA
ATOM     73  O   UNL A   1      44.266  38.010  31.746  1.00  0.00    -0.744 OA
ENDBRANCH  69  70
ENDBRANCH  48  62
BRANCH  49  74
ATOM     74  C   UNL A   1      42.561  23.690  27.663  1.00  0.00     0.058 A 
ATOM     75  C   UNL A   1      42.620  23.438  26.285  1.00  0.00     0.135 A 
ATOM     76  C   UNL A   1      42.349  22.600  28.521  1.00  0.00     0.135 A 
ATOM     77  F   UNL A   1      42.815  24.451  25.427  1.00  0.00    -0.206 F 
ATOM     78  C   UNL A   1      42.471  22.154  25.772  1.00  0.00     0.059 A 
ATOM     79  C   UNL A   1      42.214  21.304  28.033  1.00  0.00     0.059 A 
ATOM     80  F   UNL A   1      42.300  22.790  29.849  1.00  0.00    -0.206 F 
ATOM     81  C   UNL A   1      42.273  21.092  26.656  1.00  0.00     0.060 A 
BRANCH  81  82
ATOM     82  S   UNL A   1      42.146  19.420  25.984  1.00  0.00     0.124 S 
ATOM     83  O   UNL A   1      42.675  18.621  27.082  1.00  0.00    -0.237 OA
ATOM     84  O   UNL A   1      40.712  19.296  25.737  1.00  0.00    -0.237 OA
ATOM     85  O   UNL A   1      42.976  19.479  24.785  1.00  0.00    -0.744 OA
ENDBRANCH  81  82
ENDBRANCH  49  74
BRANCH  61  86
ATOM     86  C   UNL A   1      48.010  27.101  30.363  1.00  0.00     0.058 A 
ATOM     87  C   UNL A   1      49.009  27.318  29.402  1.00  0.00     0.135 A 
ATOM     88  C   UNL A   1      48.390  26.571  31.605  1.00  0.00     0.135 A 
ATOM     89  F   UNL A   1      48.690  27.817  28.197  1.00  0.00    -0.206 F 
ATOM     90  C   UNL A   1      50.340  27.017  29.664  1.00  0.00     0.059 A 
ATOM     91  C   UNL A   1      49.718  26.280  31.895  1.00  0.00     0.059 A 
ATOM     92  F   UNL A   1      47.469  26.354  32.557  1.00  0.00    -0.206 F 
ATOM     93  C   UNL A   1      50.686  26.502  30.915  1.00  0.00     0.060 A 
BRANCH  93  94
ATOM     94  S   UNL A   1      52.426  26.169  31.263  1.00  0.00     0.124 S 
ATOM     95  O   UNL A   1      52.770  27.284  32.139  1.00  0.00    -0.237 OA
ATOM     96  O   UNL A   1      52.373  24.856  31.899  1.00  0.00    -0.237 OA
ATOM     97  O   UNL A   1      53.046  26.193  29.941  1.00  0.00    -0.744 OA
ENDBRANCH  93  94
ENDBRANCH  61  86
ENDBRANCH  35  36
ENDBRANCH  27  30
ENDBRANCH  25  26
ENDBRANCH   1  25
TORSDOF 15
ENDMDL
MODEL 2
REMARK VINA RESULT:     -11.8      2.663      3.455
REMARK SMILES Cc1c(Cl)cc2c(c1C)O[C@@H](C(F)(F)F)C(C(=O)NCCCCNC(=O)c1ccc(-c3c4nc(c(-c5c(F)cc(S(=O)(=O)[O-])cc5F)c5ccc([nH]5)c(-c5c(F)cc(S(=O)(=O)[O-])cc5F)c5nc(c(-c6c(F)cc(S(=O)(=O)[O-])cc6F)c6ccc3[nH]6)C=C5)C=C4)cc1)=C2
REMARK SMILES IDX 22 1 21 2 20 3 19 4 17 5 18 6 16 8 1 9 2 10 3 11 8 12 4 13
REMARK SMILES IDX 5 14 7 15 9 16 6 17 10 18 93 19 11 20 12 21 13 22 14 23
REMARK SMILES IDX 15 24 23 25 24 26 25 27 26 29 27 30 28 31 92 32 29 33 91 34
REMARK SMILES IDX 30 35 31 36 32 37 85 38 33 39 90 40 84 41 86 42 34 43 89 44
REMARK SMILES IDX 83 45 82 46 35 48 69 49 48 50 68 51 49 52 52 53 67 54 87 55
REMARK SMILES IDX 50 56 51 57 66 59 88 60 53 61 36 62 37 63 46 64 38 65 39 66
REMARK SMILES IDX 45 67 47 68 40 69 41 70 42 71 43 72 44 73 70 74 71 75 80 76
REMARK SMILES IDX 72 77 73 78 79 79 81 80 74 81 75 82 76 83 77 84 78 85 54 86
REMARK SMILES IDX 55 87 64 88 56 89 57 90 63 91 65 92 58 93 59 94 60 95 61 96
REMARK SMILES IDX 62 97
REMARK H PARENT 19 7 24 28 86 47 52 58
REMARK Flexibility Score: inf
ROOT
ATOM      1  C   UNL A   1      33.829  28.854  27.325  1.00  0.00     0.023 C 
ENDROOT
BRANCH   1   2
ATOM      2  C   UNL A   1      32.771  29.824  26.791  1.00  0.00     0.023 C 
BRANCH   2   3
ATOM      3  C   UNL A   1      32.174  29.428  25.442  1.00  0.00     0.116 C 
BRANCH   3   4
ATOM      4  N   UNL A   1      33.186  29.398  24.402  1.00  0.00    -0.352 N 
ATOM      5  C   UNL A   1      33.734  28.459  23.596  1.00  0.00     0.251 C 
ATOM      6  O   UNL A   1      34.540  28.888  22.763  1.00  0.00    -0.270 OA
ATOM      7  H   UNL A   1      33.573  30.289  24.242  1.00  0.00     0.163 HD
BRANCH   5   8
ATOM      8  C   UNL A   1      33.442  26.996  23.647  1.00  0.00     0.067 C 
ATOM      9  C   UNL A   1      32.767  20.723  25.380  1.00  0.00     0.046 C 
ATOM     10  C   UNL A   1      33.080  22.190  25.219  1.00  0.00    -0.026 A 
ATOM     11  C   UNL A   1      33.674  22.938  26.256  1.00  0.00     0.045 A 
ATOM     12  C   UNL A   1      32.759  22.850  24.004  1.00  0.00    -0.004 A 
ATOM     13  Cl  UNL A   1      34.082  22.243  27.788  1.00  0.00    -0.084 Cl
ATOM     14  C   UNL A   1      33.965  24.297  26.092  1.00  0.00     0.032 A 
ATOM     15  C   UNL A   1      33.051  24.221  23.868  1.00  0.00     0.131 A 
ATOM     16  C   UNL A   1      32.104  22.146  22.841  1.00  0.00     0.049 C 
ATOM     17  C   UNL A   1      33.657  24.941  24.897  1.00  0.00     0.019 A 
ATOM     18  O   UNL A   1      32.755  24.815  22.667  1.00  0.00    -0.475 OA
ATOM     19  C   UNL A   1      33.973  26.349  24.702  1.00  0.00     0.025 C 
ATOM     20  C   UNL A   1      32.539  26.256  22.700  1.00  0.00     0.314 C 
BRANCH  20  21
ATOM     21  C   UNL A   1      31.043  26.559  22.899  1.00  0.00     0.429 C 
ATOM     22  F   UNL A   1      30.751  26.956  24.158  1.00  0.00    -0.167 F 
ATOM     23  F   UNL A   1      30.590  27.523  22.069  1.00  0.00    -0.167 F 
ATOM     24  F   UNL A   1      30.307  25.445  22.652  1.00  0.00    -0.167 F 
ENDBRANCH  20  21
ENDBRANCH   5   8
ENDBRANCH   3   4
ENDBRANCH   2   3
ENDBRANCH   1   2
BRANCH   1  25
ATOM     25  C   UNL A   1      35.190  29.474  27.615  1.00  0.00     0.116 C 
BRANCH  25  26
ATOM     26  N   UNL A   1      35.229  30.249  28.846  1.00  0.00    -0.352 N 
ATOM     27  C   UNL A   1      36.294  30.434  29.695  1.00  0.00     0.251 C 
ATOM     28  H   UNL A   1      34.390  30.696  29.103  1.00  0.00     0.163 HD
ATOM     29  O   UNL A   1      36.157  31.054  30.744  1.00  0.00    -0.269 OA
BRANCH  27  30
ATOM     30  C   UNL A   1      37.592  29.828  29.341  1.00  0.00     0.039 A 
ATOM     31  C   UNL A   1      38.002  29.851  28.007  1.00  0.00     0.014 A 
ATOM     32  C   UNL A   1      38.426  29.318  30.338  1.00  0.00     0.014 A 
ATOM     33  C   UNL A   1      39.290  29.425  27.681  1.00  0.00     0.010 A 
ATOM     34  C   UNL A   1      39.729  28.954  30.021  1.00  0.00     0.010 A 
ATOM     35  C   UNL A   1      40.173  29.010  28.690  1.00  0.00    -0.014 A 
BRANCH  35  36
ATOM     36  C   UNL A   1      41.568  28.621  28.375  1.00  0.00     0.031 A 
ATOM     37  C   UNL A   1      42.653  29.658  28.397  1.00  0.00     0.074 A 
ATOM     38  C   UNL A   1      41.842  27.352  28.014  1.00  0.00     0.049 A 
ATOM     39  N   UNL A   1      43.915  29.539  28.079  1.00  0.00    -0.248 NA
ATOM     40  C   UNL A   1      42.260  31.018  28.805  1.00  0.00     0.031 C 
ATOM     41  C   UNL A   1      40.862  26.267  27.917  1.00  0.00     0.029 A 
ATOM     42  N   UNL A   1      43.028  26.760  27.661  1.00  0.00    -0.354 N 
ATOM     43  C   UNL A   1      44.463  30.805  28.235  1.00  0.00     0.074 A 
ATOM     44  C   UNL A   1      43.388  31.689  28.628  1.00  0.00     0.031 C 
ATOM     45  C   UNL A   1      41.492  25.136  27.560  1.00  0.00     0.029 A 
ATOM     46  C   UNL A   1      42.912  25.420  27.375  1.00  0.00     0.049 A 
ATOM     47  H   UNL A   1      43.881  27.249  27.617  1.00  0.00     0.167 HD
ATOM     48  C   UNL A   1      45.753  31.190  28.090  1.00  0.00     0.037 A 
ATOM     49  C   UNL A   1      43.848  24.523  27.009  1.00  0.00     0.037 A 
ATOM     50  C   UNL A   1      46.823  30.300  27.734  1.00  0.00     0.049 A 
ATOM     51  C   UNL A   1      45.276  24.973  26.868  1.00  0.00     0.074 A 
ATOM     52  C   UNL A   1      48.171  30.584  27.600  1.00  0.00     0.029 A 
ATOM     53  N   UNL A   1      46.669  28.948  27.467  1.00  0.00    -0.354 N 
ATOM     54  N   UNL A   1      45.783  26.169  27.046  1.00  0.00    -0.248 NA
ATOM     55  C   UNL A   1      46.259  23.952  26.476  1.00  0.00     0.031 C 
ATOM     56  C   UNL A   1      48.830  29.405  27.234  1.00  0.00     0.029 A 
ATOM     57  C   UNL A   1      47.895  28.383  27.165  1.00  0.00     0.049 A 
ATOM     58  H   UNL A   1      45.814  28.462  27.489  1.00  0.00     0.167 HD
ATOM     59  C   UNL A   1      47.145  26.044  26.803  1.00  0.00     0.074 A 
ATOM     60  C   UNL A   1      47.386  24.652  26.475  1.00  0.00     0.031 C 
ATOM     61  C   UNL A   1      48.110  26.994  26.846  1.00  0.00     0.037 A 
BRANCH  48  62
ATOM     62  C   UNL A   1      46.068  32.637  28.337  1.00  0.00     0.058 A 
ATOM     63  C   UNL A   1      46.498  33.083  29.598  1.00  0.00     0.135 A 
ATOM     64  C   UNL A   1      45.948  33.585  27.311  1.00  0.00     0.135 A 
ATOM     65  F   UNL A   1      46.610  32.218  30.619  1.00  0.00    -0.206 F 
ATOM     66  C   UNL A   1      46.768  34.424  29.839  1.00  0.00     0.059 A 
ATOM     67  C   UNL A   1      46.234  34.931  27.524  1.00  0.00     0.059 A 
ATOM     68  F   UNL A   1      45.535  33.211  26.090  1.00  0.00    -0.206 F 
ATOM     69  C   UNL A   1      46.628  35.342  28.797  1.00  0.00     0.060 A 
BRANCH  69  70
ATOM     70  S   UNL A   1      46.971  37.083  29.129  1.00  0.00     0.124 S 
ATOM     71  O   UNL A   1      45.779  37.723  28.580  1.00  0.00    -0.237 OA
ATOM     72  O   UNL A   1      47.090  37.108  30.584  1.00  0.00    -0.237 OA
ATOM     73  O   UNL A   1      48.210  37.330  28.398  1.00  0.00    -0.744 OA
ENDBRANCH  69  70
ENDBRANCH  48  62
BRANCH  49  74
ATOM     74  C   UNL A   1      43.469  23.103  26.797  1.00  0.00     0.058 A 
ATOM     75  C   UNL A   1      43.454  22.555  25.507  1.00  0.00     0.135 A 
ATOM     76  C   UNL A   1      43.148  22.261  27.873  1.00  0.00     0.135 A 
ATOM     77  F   UNL A   1      43.749  23.325  24.449  1.00  0.00    -0.206 F 
ATOM     78  C   UNL A   1      43.130  21.221  25.286  1.00  0.00     0.059 A 
ATOM     79  C   UNL A   1      42.836  20.920  27.679  1.00  0.00     0.059 A 
ATOM     80  F   UNL A   1      43.164  22.738  29.127  1.00  0.00    -0.206 F 
ATOM     81  C   UNL A   1      42.826  20.409  26.381  1.00  0.00     0.060 A 
BRANCH  81  82
ATOM     82  S   UNL A   1      42.470  18.663  26.089  1.00  0.00     0.124 S 
ATOM     83  O   UNL A   1      41.059  18.707  25.727  1.00  0.00    -0.237 OA
ATOM     84  O   UNL A   1      43.396  18.336  25.009  1.00  0.00    -0.237 OA
ATOM     85  O   UNL A   1      42.775  18.040  27.374  1.00  0.00    -0.744 OA
ENDBRANCH  81  82
ENDBRANCH  49  74
BRANCH  61  86
ATOM     86  C   UNL A   1      49.516  26.565  26.545  1.00  0.00     0.058 A 
ATOM     87  C   UNL A   1      50.345  26.035  27.544  1.00  0.00     0.135 A 
ATOM     88  C   UNL A   1      50.010  26.614  25.232  1.00  0.00     0.135 A 
ATOM     89  F   UNL A   1      49.918  25.975  28.815  1.00  0.00    -0.206 F 
ATOM     90  C   UNL A   1      51.623  25.570  27.253  1.00  0.00     0.059 A 
ATOM     91  C   UNL A   1      51.277  26.139  24.914  1.00  0.00     0.059 A 
ATOM     92  F   UNL A   1      49.249  27.107  24.242  1.00  0.00    -0.206 F 
ATOM     93  C   UNL A   1      52.079  25.623  25.933  1.00  0.00     0.060 A 
BRANCH  93  94
ATOM     94  S   UNL A   1      53.717  24.965  25.557  1.00  0.00     0.124 S 
ATOM     95  O   UNL A   1      54.108  25.783  24.414  1.00  0.00    -0.237 OA
ATOM     96  O   UNL A   1      54.448  25.215  26.796  1.00  0.00    -0.237 OA
ATOM     97  O   UNL A   1      53.457  23.558  25.264  1.00  0.00    -0.744 OA
ENDBRANCH  93  94
ENDBRANCH  61  86
ENDBRANCH  35  36
ENDBRANCH  27  30
ENDBRANCH  25  26
ENDBRANCH   1  25
TORSDOF 15
ENDMDL
MODEL 3
REMARK VINA RESULT:     -11.8      4.872     10.402
REMARK SMILES Cc1c(Cl)cc2c(c1C)O[C@@H](C(F)(F)F)C(C(=O)NCCCCNC(=O)c1ccc(-c3c4nc(c(-c5c(F)cc(S(=O)(=O)[O-])cc5F)c5ccc([nH]5)c(-c5c(F)cc(S(=O)(=O)[O-])cc5F)c5nc(c(-c6c(F)cc(S(=O)(=O)[O-])cc6F)c6ccc3[nH]6)C=C5)C=C4)cc1)=C2
REMARK SMILES IDX 22 1 21 2 20 3 19 4 17 5 18 6 16 8 1 9 2 10 3 11 8 12 4 13
REMARK SMILES IDX 5 14 7 15 9 16 6 17 10 18 93 19 11 20 12 21 13 22 14 23
REMARK SMILES IDX 15 24 23 25 24 26 25 27 26 29 27 30 28 31 92 32 29 33 91 34
REMARK SMILES IDX 30 35 31 36 32 37 85 38 33 39 90 40 84 41 86 42 34 43 89 44
REMARK SMILES IDX 83 45 82 46 35 48 69 49 48 50 68 51 49 52 52 53 67 54 87 55
REMARK SMILES IDX 50 56 51 57 66 59 88 60 53 61 36 62 37 63 46 64 38 65 39 66
REMARK SMILES IDX 45 67 47 68 40 69 41 70 42 71 43 72 44 73 70 74 71 75 80 76
REMARK SMILES IDX 72 77 73 78 79 79 81 80 74 81 75 82 76 83 77 84 78 85 54 86
REMARK SMILES IDX 55 87 64 88 56 89 57 90 63 91 65 92 58 93 59 94 60 95 61 96
REMARK SMILES IDX 62 97
REMARK H PARENT 19 7 24 28 86 47 52 58
REMARK Flexibility Score: inf
ROOT
ATOM      1  C   UNL A   1      37.368  23.727  25.353  1.00  0.00     0.023 C 
ENDROOT
BRANCH   1   2
ATOM      2  C   UNL A   1      36.121  22.930  25.748  1.00  0.00     0.023 C 
BRANCH   2   3
ATOM      3  C   UNL A   1      35.452  22.189  24.591  1.00  0.00     0.116 C 
BRANCH   3   4
ATOM      4  N   UNL A   1      34.183  21.611  24.993  1.00  0.00    -0.352 N 
ATOM      5  C   UNL A   1      32.893  22.015  25.038  1.00  0.00     0.251 C 
ATOM      6  O   UNL A   1      32.083  21.149  25.386  1.00  0.00    -0.270 OA
ATOM      7  H   UNL A   1      34.289  20.688  25.318  1.00  0.00     0.163 HD
BRANCH   5   8
ATOM      8  C   UNL A   1      32.402  23.386  24.710  1.00  0.00     0.067 C 
ATOM      9  C   UNL A   1      31.028  29.783  24.653  1.00  0.00     0.046 C 
ATOM     10  C   UNL A   1      31.432  28.357  24.934  1.00  0.00    -0.026 A 
ATOM     11  C   UNL A   1      32.172  28.010  26.083  1.00  0.00     0.045 A 
ATOM     12  C   UNL A   1      31.080  27.331  24.019  1.00  0.00    -0.004 A 
ATOM     13  Cl  UNL A   1      32.679  29.183  27.251  1.00  0.00    -0.084 Cl
ATOM     14  C   UNL A   1      32.536  26.684  26.336  1.00  0.00     0.032 A 
ATOM     15  C   UNL A   1      31.469  26.004  24.290  1.00  0.00     0.131 A 
ATOM     16  C   UNL A   1      30.307  27.598  22.751  1.00  0.00     0.049 C 
ATOM     17  C   UNL A   1      32.183  25.676  25.442  1.00  0.00     0.019 A 
ATOM     18  O   UNL A   1      31.081  25.037  23.398  1.00  0.00    -0.475 OA
ATOM     19  C   UNL A   1      32.535  24.288  25.702  1.00  0.00     0.025 C 
ATOM     20  C   UNL A   1      31.899  23.831  23.365  1.00  0.00     0.314 C 
BRANCH  20  21
ATOM     21  C   UNL A   1      33.002  23.973  22.301  1.00  0.00     0.429 C 
ATOM     22  F   UNL A   1      32.653  24.798  21.289  1.00  0.00    -0.167 F 
ATOM     23  F   UNL A   1      34.162  24.445  22.809  1.00  0.00    -0.167 F 
ATOM     24  F   UNL A   1      33.276  22.762  21.752  1.00  0.00    -0.167 F 
ENDBRANCH  20  21
ENDBRANCH   5   8
ENDBRANCH   3   4
ENDBRANCH   2   3
ENDBRANCH   1   2
BRANCH   1  25
ATOM     25  C   UNL A   1      38.329  24.035  26.494  1.00  0.00     0.116 C 
BRANCH  25  26
ATOM     26  N   UNL A   1      39.731  23.894  26.129  1.00  0.00    -0.352 N 
ATOM     27  C   UNL A   1      40.792  24.668  26.537  1.00  0.00     0.251 C 
ATOM     28  H   UNL A   1      39.947  23.155  25.515  1.00  0.00     0.163 HD
ATOM     29  O   UNL A   1      41.915  24.477  26.083  1.00  0.00    -0.269 OA
BRANCH  27  30
ATOM     30  C   UNL A   1      40.540  25.762  27.494  1.00  0.00     0.039 A 
ATOM     31  C   UNL A   1      39.597  25.567  28.505  1.00  0.00     0.014 A 
ATOM     32  C   UNL A   1      41.294  26.937  27.434  1.00  0.00     0.014 A 
ATOM     33  C   UNL A   1      39.461  26.528  29.506  1.00  0.00     0.010 A 
ATOM     34  C   UNL A   1      41.202  27.862  28.467  1.00  0.00     0.010 A 
ATOM     35  C   UNL A   1      40.289  27.662  29.514  1.00  0.00    -0.014 A 
BRANCH  35  36
ATOM     36  C   UNL A   1      40.210  28.661  30.607  1.00  0.00     0.031 A 
ATOM     37  C   UNL A   1      41.127  28.542  31.790  1.00  0.00     0.074 A 
ATOM     38  C   UNL A   1      39.278  29.632  30.558  1.00  0.00     0.049 A 
ATOM     39  N   UNL A   1      41.165  29.262  32.880  1.00  0.00    -0.248 NA
ATOM     40  C   UNL A   1      42.115  27.450  31.755  1.00  0.00     0.031 C 
ATOM     41  C   UNL A   1      38.306  29.822  29.479  1.00  0.00     0.029 A 
ATOM     42  N   UNL A   1      38.996  30.644  31.440  1.00  0.00    -0.354 N 
ATOM     43  C   UNL A   1      42.167  28.705  33.664  1.00  0.00     0.074 A 
ATOM     44  C   UNL A   1      42.679  27.558  32.948  1.00  0.00     0.031 C 
ATOM     45  C   UNL A   1      37.555  30.902  29.748  1.00  0.00     0.029 A 
ATOM     46  C   UNL A   1      37.972  31.464  31.030  1.00  0.00     0.049 A 
ATOM     47  H   UNL A   1      39.481  30.770  32.288  1.00  0.00     0.167 HD
ATOM     48  C   UNL A   1      42.636  29.130  34.860  1.00  0.00     0.037 A 
ATOM     49  C   UNL A   1      37.435  32.549  31.620  1.00  0.00     0.037 A 
ATOM     50  C   UNL A   1      42.147  30.292  35.550  1.00  0.00     0.049 A 
ATOM     51  C   UNL A   1      37.982  33.009  32.943  1.00  0.00     0.074 A 
ATOM     52  C   UNL A   1      42.583  30.830  36.749  1.00  0.00     0.029 A 
ATOM     53  N   UNL A   1      41.120  31.105  35.095  1.00  0.00    -0.354 N 
ATOM     54  N   UNL A   1      38.949  32.487  33.659  1.00  0.00    -0.248 NA
ATOM     55  C   UNL A   1      37.366  34.203  33.538  1.00  0.00     0.031 C 
ATOM     56  C   UNL A   1      41.805  31.959  37.028  1.00  0.00     0.029 A 
ATOM     57  C   UNL A   1      40.904  32.138  35.990  1.00  0.00     0.049 A 
ATOM     58  H   UNL A   1      40.619  30.969  34.259  1.00  0.00     0.167 HD
ATOM     59  C   UNL A   1      39.069  33.296  34.782  1.00  0.00     0.074 A 
ATOM     60  C   UNL A   1      38.083  34.349  34.646  1.00  0.00     0.031 C 
ATOM     61  C   UNL A   1      39.918  33.178  35.831  1.00  0.00     0.037 A 
BRANCH  48  62
ATOM     62  C   UNL A   1      43.747  28.336  35.482  1.00  0.00     0.058 A 
ATOM     63  C   UNL A   1      45.094  28.640  35.223  1.00  0.00     0.135 A 
ATOM     64  C   UNL A   1      43.470  27.266  36.348  1.00  0.00     0.135 A 
ATOM     65  F   UNL A   1      45.411  29.640  34.386  1.00  0.00    -0.206 F 
ATOM     66  C   UNL A   1      46.126  27.892  35.776  1.00  0.00     0.059 A 
ATOM     67  C   UNL A   1      44.489  26.518  36.931  1.00  0.00     0.059 A 
ATOM     68  F   UNL A   1      42.200  26.932  36.623  1.00  0.00    -0.206 F 
ATOM     69  C   UNL A   1      45.813  26.830  36.625  1.00  0.00     0.060 A 
BRANCH  69  70
ATOM     70  S   UNL A   1      47.165  25.861  37.327  1.00  0.00     0.124 S 
ATOM     71  O   UNL A   1      47.751  26.817  38.263  1.00  0.00    -0.237 OA
ATOM     72  O   UNL A   1      46.462  24.733  37.932  1.00  0.00    -0.237 OA
ATOM     73  O   UNL A   1      47.986  25.533  36.166  1.00  0.00    -0.744 OA
ENDBRANCH  69  70
ENDBRANCH  48  62
BRANCH  49  74
ATOM     74  C   UNL A   1      36.348  33.299  30.940  1.00  0.00     0.058 A 
ATOM     75  C   UNL A   1      35.039  33.267  31.440  1.00  0.00     0.135 A 
ATOM     76  C   UNL A   1      36.598  34.084  29.805  1.00  0.00     0.135 A 
ATOM     77  F   UNL A   1      34.753  32.525  32.521  1.00  0.00    -0.206 F 
ATOM     78  C   UNL A   1      34.011  33.983  30.838  1.00  0.00     0.059 A 
ATOM     79  C   UNL A   1      35.590  34.823  29.193  1.00  0.00     0.059 A 
ATOM     80  F   UNL A   1      37.839  34.158  29.298  1.00  0.00    -0.206 F 
ATOM     81  C   UNL A   1      34.297  34.763  29.715  1.00  0.00     0.060 A 
BRANCH  81  82
ATOM     82  S   UNL A   1      32.969  35.739  28.979  1.00  0.00     0.124 S 
ATOM     83  O   UNL A   1      32.385  34.785  28.044  1.00  0.00    -0.237 OA
ATOM     84  O   UNL A   1      32.153  36.074  30.142  1.00  0.00    -0.237 OA
ATOM     85  O   UNL A   1      33.677  36.865  28.377  1.00  0.00    -0.744 OA
ENDBRANCH  81  82
ENDBRANCH  49  74
BRANCH  61  86
ATOM     86  C   UNL A   1      39.830  34.217  36.911  1.00  0.00     0.058 A 
ATOM     87  C   UNL A   1      40.470  35.458  36.780  1.00  0.00     0.135 A 
ATOM     88  C   UNL A   1      39.039  33.997  38.048  1.00  0.00     0.135 A 
ATOM     89  F   UNL A   1      41.243  35.711  35.712  1.00  0.00    -0.206 F 
ATOM     90  C   UNL A   1      40.331  36.448  37.746  1.00  0.00     0.059 A 
ATOM     91  C   UNL A   1      38.871  34.978  39.018  1.00  0.00     0.059 A 
ATOM     92  F   UNL A   1      38.402  32.826  38.212  1.00  0.00    -0.206 F 
ATOM     93  C   UNL A   1      39.526  36.200  38.860  1.00  0.00     0.060 A 
BRANCH  93  94
ATOM     94  S   UNL A   1      39.308  37.514  40.079  1.00  0.00     0.124 S 
ATOM     95  O   UNL A   1      40.637  38.115  40.105  1.00  0.00    -0.237 OA
ATOM     96  O   UNL A   1      38.256  38.328  39.478  1.00  0.00    -0.237 OA
ATOM     97  O   UNL A   1      38.920  36.793  41.288  1.00  0.00    -0.744 OA
ENDBRANCH  93  94
ENDBRANCH  61  86
ENDBRANCH  35  36
ENDBRANCH  27  30
ENDBRANCH  25  26
ENDBRANCH   1  25
TORSDOF 15
ENDMDL
