MODEL 1
REMARK VINA RESULT:     -11.3      0.000      0.000
REMARK SMILES CC[C@](C)(NC(=O)CNC(=O)c1cccc(Cl)c1)C(=O)NCCCCNC(=O)c1ccc(-c2c3nc(c(-c4c(F)cc(S(=O)(=O)[O-])cc4F)c4ccc([nH]4)c(-c4c(F)cc(S(=O)(=O)[O-])cc4F)c4nc(c(-c5c(F)cc(S(=O)(=O)[O-])cc5F)c5ccc2[nH]5)C=C4)C=C3)cc1
REMARK SMILES IDX 23 1 22 2 21 3 19 4 20 5 3 7 4 8 2 9 1 10 5 11 6 12 7 14
REMARK SMILES IDX 8 15 9 16 10 17 11 19 12 20 13 21 18 22 14 23 16 24 15 25
REMARK SMILES IDX 17 26 24 27 25 28 26 29 27 30 28 32 29 33 30 34 94 35 31 36
REMARK SMILES IDX 93 37 32 38 33 39 34 40 87 41 35 42 92 43 86 44 88 45 36 46
REMARK SMILES IDX 91 47 85 48 84 49 37 51 71 52 50 53 70 54 51 55 54 56 69 57
REMARK SMILES IDX 89 58 52 59 53 60 68 62 90 63 55 64 38 65 39 66 48 67 40 68
REMARK SMILES IDX 41 69 47 70 49 71 42 72 43 73 44 74 45 75 46 76 72 77 73 78
REMARK SMILES IDX 82 79 74 80 75 81 81 82 83 83 76 84 77 85 78 86 79 87 80 88
REMARK SMILES IDX 56 89 57 90 66 91 58 92 59 93 65 94 67 95 60 96 61 97 62 98
REMARK SMILES IDX 63 99 64 100
REMARK H PARENT 21 6 5 13 9 18 26 31 88 50 54 61
REMARK Flexibility Score: inf
ROOT
ATOM      1  C   UNL A   1      31.504  30.765  26.530  1.00  0.00     0.023 C 
ENDROOT
BRANCH   1   2
ATOM      2  C   UNL A   1      32.324  30.079  25.432  1.00  0.00     0.116 C 
BRANCH   2   3
ATOM      3  N   UNL A   1      31.640  29.696  24.203  1.00  0.00    -0.354 N 
ATOM      4  C   UNL A   1      31.419  28.447  23.663  1.00  0.00     0.245 C 
ATOM      5  O   UNL A   1      30.389  28.279  23.006  1.00  0.00    -0.272 OA
ATOM      6  H   UNL A   1      31.280  30.445  23.676  1.00  0.00     0.163 HD
BRANCH   4   7
ATOM      7  C   UNL A   1      32.300  27.238  24.026  1.00  0.00     0.116 C 
ATOM      8  C   UNL A   1      33.775  27.415  23.613  1.00  0.00     0.045 C 
BRANCH   7   9
ATOM      9  C   UNL A   1      31.652  26.050  23.230  1.00  0.00     0.035 C 
ATOM     10  C   UNL A   1      32.624  25.176  22.433  1.00  0.00     0.007 C 
ENDBRANCH   7   9
BRANCH   7  11
ATOM     11  N   UNL A   1      32.287  26.985  25.481  1.00  0.00    -0.340 N 
ATOM     12  C   UNL A   1      31.212  26.735  26.300  1.00  0.00     0.240 C 
ATOM     13  H   UNL A   1      33.167  26.994  25.923  1.00  0.00     0.164 HD
ATOM     14  O   UNL A   1      31.336  27.067  27.483  1.00  0.00    -0.273 OA
BRANCH  12  15
ATOM     15  C   UNL A   1      29.957  25.947  25.831  1.00  0.00     0.216 C 
BRANCH  15  16
ATOM     16  N   UNL A   1      29.516  24.762  26.541  1.00  0.00    -0.343 N 
ATOM     17  C   UNL A   1      30.181  23.598  26.863  1.00  0.00     0.251 C 
ATOM     18  H   UNL A   1      28.581  24.794  26.847  1.00  0.00     0.164 HD
ATOM     19  O   UNL A   1      29.659  22.825  27.666  1.00  0.00    -0.269 OA
BRANCH  17  20
ATOM     20  C   UNL A   1      31.442  23.174  26.201  1.00  0.00     0.041 A 
ATOM     21  C   UNL A   1      32.722  23.529  26.635  1.00  0.00     0.014 A 
ATOM     22  C   UNL A   1      31.303  22.348  25.075  1.00  0.00     0.034 A 
ATOM     23  C   UNL A   1      33.844  23.149  25.880  1.00  0.00     0.002 A 
ATOM     24  C   UNL A   1      32.417  22.014  24.306  1.00  0.00     0.041 A 
ATOM     25  C   UNL A   1      33.688  22.425  24.695  1.00  0.00     0.020 A 
ATOM     26  Cl  UNL A   1      32.211  21.149  22.832  1.00  0.00    -0.084 Cl
ENDBRANCH  17  20
ENDBRANCH  15  16
ENDBRANCH  12  15
ENDBRANCH   7  11
ENDBRANCH   4   7
ENDBRANCH   2   3
ENDBRANCH   1   2
BRANCH   1  27
ATOM     27  C   UNL A   1      31.545  32.288  26.618  1.00  0.00     0.023 C 
BRANCH  27  28
ATOM     28  C   UNL A   1      32.702  32.874  27.410  1.00  0.00     0.116 C 
BRANCH  28  29
ATOM     29  N   UNL A   1      32.470  34.251  27.797  1.00  0.00    -0.352 N 
ATOM     30  C   UNL A   1      33.074  34.991  28.782  1.00  0.00     0.251 C 
ATOM     31  H   UNL A   1      31.780  34.724  27.279  1.00  0.00     0.163 HD
ATOM     32  O   UNL A   1      32.620  36.103  29.059  1.00  0.00    -0.269 OA
BRANCH  30  33
ATOM     33  C   UNL A   1      34.237  34.458  29.528  1.00  0.00     0.039 A 
ATOM     34  C   UNL A   1      34.015  33.849  30.766  1.00  0.00     0.014 A 
ATOM     35  C   UNL A   1      35.540  34.569  29.033  1.00  0.00     0.014 A 
ATOM     36  C   UNL A   1      35.087  33.308  31.479  1.00  0.00     0.010 A 
ATOM     37  C   UNL A   1      36.598  33.957  29.707  1.00  0.00     0.010 A 
ATOM     38  C   UNL A   1      36.385  33.328  30.943  1.00  0.00    -0.014 A 
BRANCH  38  39
ATOM     39  C   UNL A   1      37.523  32.705  31.670  1.00  0.00     0.031 A 
ATOM     40  C   UNL A   1      38.209  31.487  31.109  1.00  0.00     0.074 A 
ATOM     41  C   UNL A   1      37.915  33.211  32.856  1.00  0.00     0.049 A 
ATOM     42  N   UNL A   1      39.187  30.782  31.617  1.00  0.00    -0.248 NA
ATOM     43  C   UNL A   1      37.716  30.981  29.817  1.00  0.00     0.031 C 
ATOM     44  C   UNL A   1      37.304  34.362  33.528  1.00  0.00     0.029 A 
ATOM     45  N   UNL A   1      38.915  32.823  33.714  1.00  0.00    -0.354 N 
ATOM     46  C   UNL A   1      39.424  29.751  30.715  1.00  0.00     0.074 A 
ATOM     47  C   UNL A   1      38.446  29.886  29.658  1.00  0.00     0.031 C 
ATOM     48  C   UNL A   1      37.956  34.598  34.677  1.00  0.00     0.029 A 
ATOM     49  C   UNL A   1      39.001  33.593  34.850  1.00  0.00     0.049 A 
ATOM     50  H   UNL A   1      39.514  32.063  33.532  1.00  0.00     0.167 HD
ATOM     51  C   UNL A   1      40.384  28.795  30.750  1.00  0.00     0.037 A 
ATOM     52  C   UNL A   1      39.820  33.499  35.915  1.00  0.00     0.037 A 
ATOM     53  C   UNL A   1      41.364  28.675  31.799  1.00  0.00     0.049 A 
ATOM     54  C   UNL A   1      40.867  32.416  35.942  1.00  0.00     0.074 A 
ATOM     55  C   UNL A   1      42.405  27.768  31.902  1.00  0.00     0.029 A 
ATOM     56  N   UNL A   1      41.424  29.481  32.926  1.00  0.00    -0.354 N 
ATOM     57  N   UNL A   1      41.114  31.486  35.049  1.00  0.00    -0.248 NA
ATOM     58  C   UNL A   1      41.752  32.373  37.114  1.00  0.00     0.031 C 
ATOM     59  C   UNL A   1      43.060  27.991  33.118  1.00  0.00     0.029 A 
ATOM     60  C   UNL A   1      42.468  29.077  33.743  1.00  0.00     0.049 A 
ATOM     61  H   UNL A   1      40.814  30.230  33.119  1.00  0.00     0.167 HD
ATOM     62  C   UNL A   1      42.199  30.767  35.539  1.00  0.00     0.074 A 
ATOM     63  C   UNL A   1      42.570  31.378  36.799  1.00  0.00     0.031 C 
ATOM     64  C   UNL A   1      42.831  29.698  34.994  1.00  0.00     0.037 A 
BRANCH  51  65
ATOM     65  C   UNL A   1      40.425  27.803  29.618  1.00  0.00     0.058 A 
ATOM     66  C   UNL A   1      41.347  27.921  28.565  1.00  0.00     0.135 A 
ATOM     67  C   UNL A   1      39.558  26.698  29.604  1.00  0.00     0.135 A 
ATOM     68  F   UNL A   1      42.190  28.966  28.518  1.00  0.00    -0.206 F 
ATOM     69  C   UNL A   1      41.388  27.000  27.524  1.00  0.00     0.059 A 
ATOM     70  C   UNL A   1      39.603  25.745  28.589  1.00  0.00     0.059 A 
ATOM     71  F   UNL A   1      38.656  26.533  30.584  1.00  0.00    -0.206 F 
ATOM     72  C   UNL A   1      40.512  25.913  27.546  1.00  0.00     0.060 A 
BRANCH  72  73
ATOM     73  S   UNL A   1      40.581  24.726  26.188  1.00  0.00     0.124 S 
ATOM     74  O   UNL A   1      41.391  23.662  26.773  1.00  0.00    -0.237 OA
ATOM     75  O   UNL A   1      39.171  24.408  25.981  1.00  0.00    -0.237 OA
ATOM     76  O   UNL A   1      41.216  25.477  25.110  1.00  0.00    -0.744 OA
ENDBRANCH  72  73
ENDBRANCH  51  65
BRANCH  52  77
ATOM     77  C   UNL A   1      39.690  34.462  37.042  1.00  0.00     0.058 A 
ATOM     78  C   UNL A   1      40.276  35.735  36.982  1.00  0.00     0.135 A 
ATOM     79  C   UNL A   1      38.964  34.132  38.198  1.00  0.00     0.135 A 
ATOM     80  F   UNL A   1      40.984  36.096  35.901  1.00  0.00    -0.206 F 
ATOM     81  C   UNL A   1      40.164  36.640  38.032  1.00  0.00     0.059 A 
ATOM     82  C   UNL A   1      38.814  35.032  39.249  1.00  0.00     0.059 A 
ATOM     83  F   UNL A   1      38.369  32.934  38.300  1.00  0.00    -0.206 F 
ATOM     84  C   UNL A   1      39.427  36.280  39.161  1.00  0.00     0.060 A 
BRANCH  84  85
ATOM     85  S   UNL A   1      39.247  37.481  40.497  1.00  0.00     0.124 S 
ATOM     86  O   UNL A   1      38.793  36.634  41.594  1.00  0.00    -0.237 OA
ATOM     87  O   UNL A   1      40.603  38.010  40.617  1.00  0.00    -0.237 OA
ATOM     88  O   UNL A   1      38.260  38.421  39.974  1.00  0.00    -0.744 OA
ENDBRANCH  84  85
ENDBRANCH  52  77
BRANCH  64  89
ATOM     89  C   UNL A   1      44.016  29.139  35.735  1.00  0.00     0.058 A 
ATOM     90  C   UNL A   1      43.887  28.079  36.646  1.00  0.00     0.135 A 
ATOM     91  C   UNL A   1      45.307  29.636  35.488  1.00  0.00     0.135 A 
ATOM     92  F   UNL A   1      42.677  27.570  36.925  1.00  0.00    -0.206 F 
ATOM     93  C   UNL A   1      44.993  27.549  37.305  1.00  0.00     0.059 A 
ATOM     94  C   UNL A   1      46.429  29.100  36.111  1.00  0.00     0.059 A 
ATOM     95  F   UNL A   1      45.489  30.642  34.617  1.00  0.00    -0.206 F 
ATOM     96  C   UNL A   1      46.261  28.064  37.027  1.00  0.00     0.060 A 
BRANCH  96  97
ATOM     97  S   UNL A   1      47.689  27.344  37.863  1.00  0.00     0.124 S 
ATOM     98  O   UNL A   1      48.522  26.945  36.734  1.00  0.00    -0.237 OA
ATOM     99  O   UNL A   1      48.186  28.466  38.653  1.00  0.00    -0.237 OA
ATOM    100  O   UNL A   1      47.114  26.247  38.636  1.00  0.00    -0.744 OA
ENDBRANCH  96  97
ENDBRANCH  64  89
ENDBRANCH  38  39
ENDBRANCH  30  33
ENDBRANCH  28  29
ENDBRANCH  27  28
ENDBRANCH   1  27
TORSDOF 19
ENDMDL
MODEL 2
REMARK VINA RESULT:     -11.1      0.754      8.175
REMARK SMILES CC[C@](C)(NC(=O)CNC(=O)c1cccc(Cl)c1)C(=O)NCCCCNC(=O)c1ccc(-c2c3nc(c(-c4c(F)cc(S(=O)(=O)[O-])cc4F)c4ccc([nH]4)c(-c4c(F)cc(S(=O)(=O)[O-])cc4F)c4nc(c(-c5c(F)cc(S(=O)(=O)[O-])cc5F)c5ccc2[nH]5)C=C4)C=C3)cc1
REMARK SMILES IDX 23 1 22 2 21 3 19 4 20 5 3 7 4 8 2 9 1 10 5 11 6 12 7 14
REMARK SMILES IDX 8 15 9 16 10 17 11 19 12 20 13 21 18 22 14 23 16 24 15 25
REMARK SMILES IDX 17 26 24 27 25 28 26 29 27 30 28 32 29 33 30 34 94 35 31 36
REMARK SMILES IDX 93 37 32 38 33 39 34 40 87 41 35 42 92 43 86 44 88 45 36 46
REMARK SMILES IDX 91 47 85 48 84 49 37 51 71 52 50 53 70 54 51 55 54 56 69 57
REMARK SMILES IDX 89 58 52 59 53 60 68 62 90 63 55 64 38 65 39 66 48 67 40 68
REMARK SMILES IDX 41 69 47 70 49 71 42 72 43 73 44 74 45 75 46 76 72 77 73 78
REMARK SMILES IDX 82 79 74 80 75 81 81 82 83 83 76 84 77 85 78 86 79 87 80 88
REMARK SMILES IDX 56 89 57 90 66 91 58 92 59 93 65 94 67 95 60 96 61 97 62 98
REMARK SMILES IDX 63 99 64 100
REMARK H PARENT 21 6 5 13 9 18 26 31 88 50 54 61
REMARK Flexibility Score: inf
ROOT
ATOM      1  C   UNL A   1      31.377  31.149  26.659  1.00  0.00     0.023 C 
ENDROOT
BRANCH   1   2
ATOM      2  C   UNL A   1      31.832  30.245  25.509  1.00  0.00     0.116 C 
BRANCH   2   3
ATOM      3  N   UNL A   1      30.884  29.970  24.436  1.00  0.00    -0.354 N 
ATOM      4  C   UNL A   1      30.688  28.824  23.697  1.00  0.00     0.245 C 
ATOM      5  O   UNL A   1      29.547  28.585  23.297  1.00  0.00    -0.272 OA
ATOM      6  H   UNL A   1      30.292  30.721  24.201  1.00  0.00     0.163 HD
BRANCH   4   7
ATOM      7  C   UNL A   1      31.791  27.760  23.542  1.00  0.00     0.116 C 
ATOM      8  C   UNL A   1      33.067  28.301  22.868  1.00  0.00     0.045 C 
BRANCH   7   9
ATOM      9  C   UNL A   1      31.125  26.661  22.640  1.00  0.00     0.035 C 
ATOM     10  C   UNL A   1      32.071  25.591  22.089  1.00  0.00     0.007 C 
ENDBRANCH   7   9
BRANCH   7  11
ATOM     11  N   UNL A   1      32.194  27.212  24.853  1.00  0.00    -0.340 N 
ATOM     12  C   UNL A   1      31.398  26.716  25.858  1.00  0.00     0.240 C 
ATOM     13  H   UNL A   1      33.162  27.199  25.030  1.00  0.00     0.164 HD
ATOM     14  O   UNL A   1      31.846  26.806  27.006  1.00  0.00    -0.273 OA
BRANCH  12  15
ATOM     15  C   UNL A   1      30.075  25.945  25.587  1.00  0.00     0.216 C 
BRANCH  15  16
ATOM     16  N   UNL A   1      29.674  24.839  26.435  1.00  0.00    -0.343 N 
ATOM     17  C   UNL A   1      30.273  23.623  26.683  1.00  0.00     0.251 C 
ATOM     18  H   UNL A   1      28.827  24.982  26.916  1.00  0.00     0.164 HD
ATOM     19  O   UNL A   1      29.852  22.939  27.614  1.00  0.00    -0.269 OA
BRANCH  17  20
ATOM     20  C   UNL A   1      31.328  23.045  25.810  1.00  0.00     0.041 A 
ATOM     21  C   UNL A   1      31.160  22.750  24.455  1.00  0.00     0.014 A 
ATOM     22  C   UNL A   1      32.571  22.806  26.416  1.00  0.00     0.034 A 
ATOM     23  C   UNL A   1      32.195  22.120  23.745  1.00  0.00     0.002 A 
ATOM     24  C   UNL A   1      33.576  22.137  25.719  1.00  0.00     0.041 A 
ATOM     25  C   UNL A   1      33.388  21.777  24.388  1.00  0.00     0.020 A 
ATOM     26  Cl  UNL A   1      35.029  21.693  26.528  1.00  0.00    -0.084 Cl
ENDBRANCH  17  20
ENDBRANCH  15  16
ENDBRANCH  12  15
ENDBRANCH   7  11
ENDBRANCH   4   7
ENDBRANCH   2   3
ENDBRANCH   1   2
BRANCH   1  27
ATOM     27  C   UNL A   1      31.743  32.630  26.603  1.00  0.00     0.023 C 
BRANCH  27  28
ATOM     28  C   UNL A   1      32.838  33.077  27.557  1.00  0.00     0.116 C 
BRANCH  28  29
ATOM     29  N   UNL A   1      32.706  34.468  27.941  1.00  0.00    -0.352 N 
ATOM     30  C   UNL A   1      33.376  35.170  28.911  1.00  0.00     0.251 C 
ATOM     31  H   UNL A   1      32.041  34.985  27.432  1.00  0.00     0.163 HD
ATOM     32  O   UNL A   1      33.004  36.312  29.190  1.00  0.00    -0.269 OA
BRANCH  30  33
ATOM     33  C   UNL A   1      34.514  34.563  29.639  1.00  0.00     0.039 A 
ATOM     34  C   UNL A   1      34.271  33.968  30.881  1.00  0.00     0.014 A 
ATOM     35  C   UNL A   1      35.814  34.589  29.125  1.00  0.00     0.014 A 
ATOM     36  C   UNL A   1      35.317  33.359  31.579  1.00  0.00     0.010 A 
ATOM     37  C   UNL A   1      36.840  33.910  29.783  1.00  0.00     0.010 A 
ATOM     38  C   UNL A   1      36.605  33.295  31.023  1.00  0.00    -0.014 A 
BRANCH  38  39
ATOM     39  C   UNL A   1      37.711  32.599  31.733  1.00  0.00     0.031 A 
ATOM     40  C   UNL A   1      38.192  33.102  33.069  1.00  0.00     0.074 A 
ATOM     41  C   UNL A   1      38.310  31.537  31.159  1.00  0.00     0.049 A 
ATOM     42  N   UNL A   1      39.167  32.655  33.818  1.00  0.00    -0.248 NA
ATOM     43  C   UNL A   1      37.501  34.276  33.627  1.00  0.00     0.031 C 
ATOM     44  C   UNL A   1      37.965  30.978  29.849  1.00  0.00     0.029 A 
ATOM     45  N   UNL A   1      39.339  30.740  31.596  1.00  0.00    -0.354 N 
ATOM     46  C   UNL A   1      39.211  33.491  34.928  1.00  0.00     0.074 A 
ATOM     47  C   UNL A   1      38.204  34.509  34.726  1.00  0.00     0.031 C 
ATOM     48  C   UNL A   1      38.751  29.919  29.601  1.00  0.00     0.029 A 
ATOM     49  C   UNL A   1      39.685  29.746  30.711  1.00  0.00     0.049 A 
ATOM     50  H   UNL A   1      39.787  30.867  32.464  1.00  0.00     0.167 HD
ATOM     51  C   UNL A   1      39.999  33.403  36.028  1.00  0.00     0.037 A 
ATOM     52  C   UNL A   1      40.649  28.807  30.776  1.00  0.00     0.037 A 
ATOM     53  C   UNL A   1      40.990  32.377  36.229  1.00  0.00     0.049 A 
ATOM     54  C   UNL A   1      41.526  28.741  31.998  1.00  0.00     0.074 A 
ATOM     55  C   UNL A   1      41.807  32.176  37.328  1.00  0.00     0.029 A 
ATOM     56  N   UNL A   1      41.302  31.384  35.313  1.00  0.00    -0.354 N 
ATOM     57  N   UNL A   1      41.511  29.505  33.066  1.00  0.00    -0.248 NA
ATOM     58  C   UNL A   1      42.545  27.683  32.032  1.00  0.00     0.031 C 
ATOM     59  C   UNL A   1      42.651  31.095  37.054  1.00  0.00     0.029 A 
ATOM     60  C   UNL A   1      42.317  30.581  35.811  1.00  0.00     0.049 A 
ATOM     61  H   UNL A   1      40.868  31.265  34.437  1.00  0.00     0.167 HD
ATOM     62  C   UNL A   1      42.497  29.000  33.908  1.00  0.00     0.074 A 
ATOM     63  C   UNL A   1      43.078  27.859  33.232  1.00  0.00     0.031 C 
ATOM     64  C   UNL A   1      42.884  29.443  35.129  1.00  0.00     0.037 A 
BRANCH  51  65
ATOM     65  C   UNL A   1      39.819  34.443  37.101  1.00  0.00     0.058 A 
ATOM     66  C   UNL A   1      40.381  35.726  36.987  1.00  0.00     0.135 A 
ATOM     67  C   UNL A   1      39.045  34.171  38.240  1.00  0.00     0.135 A 
ATOM     68  F   UNL A   1      41.144  36.038  35.927  1.00  0.00    -0.206 F 
ATOM     69  C   UNL A   1      40.209  36.688  37.977  1.00  0.00     0.059 A 
ATOM     70  C   UNL A   1      38.831  35.129  39.228  1.00  0.00     0.059 A 
ATOM     71  F   UNL A   1      38.483  32.962  38.403  1.00  0.00    -0.206 F 
ATOM     72  C   UNL A   1      39.430  36.380  39.094  1.00  0.00     0.060 A 
BRANCH  72  73
ATOM     73  S   UNL A   1      39.215  37.642  40.366  1.00  0.00     0.124 S 
ATOM     74  O   UNL A   1      40.535  38.266  40.382  1.00  0.00    -0.237 OA
ATOM     75  O   UNL A   1      38.137  38.457  39.816  1.00  0.00    -0.237 OA
ATOM     76  O   UNL A   1      38.871  36.872  41.556  1.00  0.00    -0.744 OA
ENDBRANCH  72  73
ENDBRANCH  51  65
BRANCH  52  77
ATOM     77  C   UNL A   1      40.831  27.848  29.653  1.00  0.00     0.058 A 
ATOM     78  C   UNL A   1      41.901  27.973  28.756  1.00  0.00     0.135 A 
ATOM     79  C   UNL A   1      39.942  26.778  29.462  1.00  0.00     0.135 A 
ATOM     80  F   UNL A   1      42.775  28.982  28.892  1.00  0.00    -0.206 F 
ATOM     81  C   UNL A   1      42.076  27.084  27.700  1.00  0.00     0.059 A 
ATOM     82  C   UNL A   1      40.112  25.859  28.431  1.00  0.00     0.059 A 
ATOM     83  F   UNL A   1      38.910  26.602  30.302  1.00  0.00    -0.206 F 
ATOM     84  C   UNL A   1      41.178  26.027  27.548  1.00  0.00     0.060 A 
BRANCH  84  85
ATOM     85  S   UNL A   1      41.442  24.852  26.203  1.00  0.00     0.124 S 
ATOM     86  O   UNL A   1      41.489  25.736  25.045  1.00  0.00    -0.237 OA
ATOM     87  O   UNL A   1      42.707  24.230  26.586  1.00  0.00    -0.237 OA
ATOM     88  O   UNL A   1      40.274  23.979  26.285  1.00  0.00    -0.744 OA
ENDBRANCH  84  85
ENDBRANCH  52  77
BRANCH  64  89
ATOM     89  C   UNL A   1      43.965  28.671  35.838  1.00  0.00     0.058 A 
ATOM     90  C   UNL A   1      45.321  29.013  35.717  1.00  0.00     0.135 A 
ATOM     91  C   UNL A   1      43.632  27.607  36.694  1.00  0.00     0.135 A 
ATOM     92  F   UNL A   1      45.696  30.016  34.908  1.00  0.00    -0.206 F 
ATOM     93  C   UNL A   1      46.311  28.312  36.399  1.00  0.00     0.059 A 
ATOM     94  C   UNL A   1      44.602  26.913  37.410  1.00  0.00     0.059 A 
ATOM     95  F   UNL A   1      42.350  27.246  36.856  1.00  0.00    -0.206 F 
ATOM     96  C   UNL A   1      45.941  27.265  37.247  1.00  0.00     0.060 A 
BRANCH  96  97
ATOM     97  S   UNL A   1      47.232  26.387  38.151  1.00  0.00     0.124 S 
ATOM     98  O   UNL A   1      47.137  25.049  37.577  1.00  0.00    -0.237 OA
ATOM     99  O   UNL A   1      48.430  27.145  37.798  1.00  0.00    -0.237 OA
ATOM    100  O   UNL A   1      46.812  26.503  39.544  1.00  0.00    -0.744 OA
ENDBRANCH  96  97
ENDBRANCH  64  89
ENDBRANCH  38  39
ENDBRANCH  30  33
ENDBRANCH  28  29
ENDBRANCH  27  28
ENDBRANCH   1  27
TORSDOF 19
ENDMDL
MODEL 3
REMARK VINA RESULT:     -11.0      2.576      8.586
REMARK SMILES CC[C@](C)(NC(=O)CNC(=O)c1cccc(Cl)c1)C(=O)NCCCCNC(=O)c1ccc(-c2c3nc(c(-c4c(F)cc(S(=O)(=O)[O-])cc4F)c4ccc([nH]4)c(-c4c(F)cc(S(=O)(=O)[O-])cc4F)c4nc(c(-c5c(F)cc(S(=O)(=O)[O-])cc5F)c5ccc2[nH]5)C=C4)C=C3)cc1
REMARK SMILES IDX 23 1 22 2 21 3 19 4 20 5 3 7 4 8 2 9 1 10 5 11 6 12 7 14
REMARK SMILES IDX 8 15 9 16 10 17 11 19 12 20 13 21 18 22 14 23 16 24 15 25
REMARK SMILES IDX 17 26 24 27 25 28 26 29 27 30 28 32 29 33 30 34 94 35 31 36
REMARK SMILES IDX 93 37 32 38 33 39 34 40 87 41 35 42 92 43 86 44 88 45 36 46
REMARK SMILES IDX 91 47 85 48 84 49 37 51 71 52 50 53 70 54 51 55 54 56 69 57
REMARK SMILES IDX 89 58 52 59 53 60 68 62 90 63 55 64 38 65 39 66 48 67 40 68
REMARK SMILES IDX 41 69 47 70 49 71 42 72 43 73 44 74 45 75 46 76 72 77 73 78
REMARK SMILES IDX 82 79 74 80 75 81 81 82 83 83 76 84 77 85 78 86 79 87 80 88
REMARK SMILES IDX 56 89 57 90 66 91 58 92 59 93 65 94 67 95 60 96 61 97 62 98
REMARK SMILES IDX 63 99 64 100
REMARK H PARENT 21 6 5 13 9 18 26 31 88 50 54 61
REMARK Flexibility Score: inf
ROOT
ATOM      1  C   UNL A   1      37.963  21.955  25.603  1.00  0.00     0.023 C 
ENDROOT
BRANCH   1   2
ATOM      2  C   UNL A   1      36.659  21.694  24.842  1.00  0.00     0.116 C 
BRANCH   2   3
ATOM      3  N   UNL A   1      35.692  20.778  25.434  1.00  0.00    -0.354 N 
ATOM      4  C   UNL A   1      34.314  20.822  25.436  1.00  0.00     0.245 C 
ATOM      5  O   UNL A   1      33.705  19.750  25.444  1.00  0.00    -0.272 OA
ATOM      6  H   UNL A   1      36.083  20.007  25.904  1.00  0.00     0.163 HD
BRANCH   4   7
ATOM      7  C   UNL A   1      33.544  22.138  25.226  1.00  0.00     0.116 C 
ATOM      8  C   UNL A   1      33.750  22.746  23.824  1.00  0.00     0.045 C 
BRANCH   7   9
ATOM      9  C   UNL A   1      34.133  23.095  26.323  1.00  0.00     0.035 C 
ATOM     10  C   UNL A   1      34.717  24.414  25.811  1.00  0.00     0.007 C 
ENDBRANCH   7   9
BRANCH   7  11
ATOM     11  N   UNL A   1      32.091  21.943  25.403  1.00  0.00    -0.340 N 
ATOM     12  C   UNL A   1      31.146  22.854  25.808  1.00  0.00     0.240 C 
ATOM     13  H   UNL A   1      31.755  21.040  25.202  1.00  0.00     0.164 HD
ATOM     14  O   UNL A   1      30.151  22.394  26.379  1.00  0.00    -0.273 OA
BRANCH  12  15
ATOM     15  C   UNL A   1      31.220  24.365  25.453  1.00  0.00     0.216 C 
BRANCH  15  16
ATOM     16  N   UNL A   1      31.225  25.374  26.495  1.00  0.00    -0.343 N 
ATOM     17  C   UNL A   1      31.408  26.739  26.434  1.00  0.00     0.251 C 
ATOM     18  H   UNL A   1      31.073  25.023  27.402  1.00  0.00     0.164 HD
ATOM     19  O   UNL A   1      31.148  27.411  27.431  1.00  0.00    -0.269 OA
BRANCH  17  20
ATOM     20  C   UNL A   1      32.011  27.426  25.264  1.00  0.00     0.041 A 
ATOM     21  C   UNL A   1      33.384  27.604  25.071  1.00  0.00     0.014 A 
ATOM     22  C   UNL A   1      31.115  27.903  24.295  1.00  0.00     0.034 A 
ATOM     23  C   UNL A   1      33.842  28.350  23.973  1.00  0.00     0.002 A 
ATOM     24  C   UNL A   1      31.573  28.682  23.235  1.00  0.00     0.041 A 
ATOM     25  C   UNL A   1      32.935  28.922  23.077  1.00  0.00     0.020 A 
ATOM     26  Cl  UNL A   1      30.447  29.409  22.155  1.00  0.00    -0.084 Cl
ENDBRANCH  17  20
ENDBRANCH  15  16
ENDBRANCH  12  15
ENDBRANCH   7  11
ENDBRANCH   4   7
ENDBRANCH   2   3
ENDBRANCH   1   2
BRANCH   1  27
ATOM     27  C   UNL A   1      38.216  23.360  26.143  1.00  0.00     0.023 C 
BRANCH  27  28
ATOM     28  C   UNL A   1      39.464  23.527  26.993  1.00  0.00     0.116 C 
BRANCH  28  29
ATOM     29  N   UNL A   1      40.628  23.884  26.207  1.00  0.00    -0.352 N 
ATOM     30  C   UNL A   1      41.405  25.014  26.267  1.00  0.00     0.251 C 
ATOM     31  H   UNL A   1      40.902  23.220  25.535  1.00  0.00     0.163 HD
ATOM     32  O   UNL A   1      42.260  25.199  25.399  1.00  0.00    -0.269 OA
BRANCH  30  33
ATOM     33  C   UNL A   1      41.205  26.017  27.337  1.00  0.00     0.039 A 
ATOM     34  C   UNL A   1      40.165  25.823  28.249  1.00  0.00     0.014 A 
ATOM     35  C   UNL A   1      42.015  27.153  27.440  1.00  0.00     0.014 A 
ATOM     36  C   UNL A   1      39.970  26.734  29.290  1.00  0.00     0.010 A 
ATOM     37  C   UNL A   1      41.872  28.017  28.526  1.00  0.00     0.010 A 
ATOM     38  C   UNL A   1      40.841  27.824  29.458  1.00  0.00    -0.014 A 
BRANCH  38  39
ATOM     39  C   UNL A   1      40.674  28.768  30.595  1.00  0.00     0.031 A 
ATOM     40  C   UNL A   1      41.519  28.623  31.834  1.00  0.00     0.074 A 
ATOM     41  C   UNL A   1      39.736  29.733  30.530  1.00  0.00     0.049 A 
ATOM     42  N   UNL A   1      41.490  29.320  32.940  1.00  0.00    -0.248 NA
ATOM     43  C   UNL A   1      42.512  27.536  31.839  1.00  0.00     0.031 C 
ATOM     44  C   UNL A   1      38.825  29.952  29.403  1.00  0.00     0.029 A 
ATOM     45  N   UNL A   1      39.384  30.708  31.431  1.00  0.00    -0.354 N 
ATOM     46  C   UNL A   1      42.452  28.758  33.772  1.00  0.00     0.074 A 
ATOM     47  C   UNL A   1      43.004  27.623  33.066  1.00  0.00     0.031 C 
ATOM     48  C   UNL A   1      38.038  31.006  29.671  1.00  0.00     0.029 A 
ATOM     49  C   UNL A   1      38.354  31.512  31.004  1.00  0.00     0.049 A 
ATOM     50  H   UNL A   1      39.829  30.820  32.303  1.00  0.00     0.167 HD
ATOM     51  C   UNL A   1      42.856  29.165  35.000  1.00  0.00     0.037 A 
ATOM     52  C   UNL A   1      37.727  32.536  31.616  1.00  0.00     0.037 A 
ATOM     53  C   UNL A   1      42.311  30.306  35.691  1.00  0.00     0.049 A 
ATOM     54  C   UNL A   1      38.180  32.958  32.988  1.00  0.00     0.074 A 
ATOM     55  C   UNL A   1      42.684  30.825  36.918  1.00  0.00     0.029 A 
ATOM     56  N   UNL A   1      41.276  31.100  35.219  1.00  0.00    -0.354 N 
ATOM     57  N   UNL A   1      39.133  32.450  33.734  1.00  0.00    -0.248 NA
ATOM     58  C   UNL A   1      37.480  34.096  33.601  1.00  0.00     0.031 C 
ATOM     59  C   UNL A   1      41.840  31.900  37.213  1.00  0.00     0.029 A 
ATOM     60  C   UNL A   1      40.981  32.091  36.143  1.00  0.00     0.049 A 
ATOM     61  H   UNL A   1      40.818  30.978  34.357  1.00  0.00     0.167 HD
ATOM     62  C   UNL A   1      39.166  33.225  34.889  1.00  0.00     0.074 A 
ATOM     63  C   UNL A   1      38.146  34.243  34.737  1.00  0.00     0.031 C 
ATOM     64  C   UNL A   1      39.967  33.103  35.976  1.00  0.00     0.037 A 
BRANCH  51  65
ATOM     65  C   UNL A   1      43.944  28.373  35.676  1.00  0.00     0.058 A 
ATOM     66  C   UNL A   1      43.651  27.314  36.551  1.00  0.00     0.135 A 
ATOM     67  C   UNL A   1      45.297  28.650  35.418  1.00  0.00     0.135 A 
ATOM     68  F   UNL A   1      42.376  27.014  36.847  1.00  0.00    -0.206 F 
ATOM     69  C   UNL A   1      44.657  26.579  37.169  1.00  0.00     0.059 A 
ATOM     70  C   UNL A   1      46.320  27.906  36.000  1.00  0.00     0.059 A 
ATOM     71  F   UNL A   1      45.637  29.650  34.590  1.00  0.00    -0.206 F 
ATOM     72  C   UNL A   1      45.990  26.882  36.886  1.00  0.00     0.060 A 
BRANCH  72  73
ATOM     73  S   UNL A   1      47.282  25.916  37.695  1.00  0.00     0.124 S 
ATOM     74  O   UNL A   1      47.052  24.591  37.128  1.00  0.00    -0.237 OA
ATOM     75  O   UNL A   1      48.498  26.592  37.253  1.00  0.00    -0.237 OA
ATOM     76  O   UNL A   1      46.972  26.053  39.114  1.00  0.00    -0.744 OA
ENDBRANCH  72  73
ENDBRANCH  51  65
BRANCH  52  77
ATOM     77  C   UNL A   1      36.608  33.238  30.931  1.00  0.00     0.058 A 
ATOM     78  C   UNL A   1      36.844  34.107  29.856  1.00  0.00     0.135 A 
ATOM     79  C   UNL A   1      35.276  33.044  31.332  1.00  0.00     0.135 A 
ATOM     80  F   UNL A   1      38.099  34.331  29.438  1.00  0.00    -0.206 F 
ATOM     81  C   UNL A   1      35.805  34.773  29.213  1.00  0.00     0.059 A 
ATOM     82  C   UNL A   1      34.218  33.676  30.687  1.00  0.00     0.059 A 
ATOM     83  F   UNL A   1      34.993  32.210  32.345  1.00  0.00    -0.206 F 
ATOM     84  C   UNL A   1      34.494  34.547  29.634  1.00  0.00     0.060 A 
BRANCH  84  85
ATOM     85  S   UNL A   1      33.148  35.378  28.761  1.00  0.00     0.124 S 
ATOM     86  O   UNL A   1      33.878  36.342  27.947  1.00  0.00    -0.237 OA
ATOM     87  O   UNL A   1      32.525  34.273  28.040  1.00  0.00    -0.237 OA
ATOM     88  O   UNL A   1      32.345  35.943  29.842  1.00  0.00    -0.744 OA
ENDBRANCH  84  85
ENDBRANCH  52  77
BRANCH  64  89
ATOM     89  C   UNL A   1      39.805  34.118  37.077  1.00  0.00     0.058 A 
ATOM     90  C   UNL A   1      39.036  33.854  38.221  1.00  0.00     0.135 A 
ATOM     91  C   UNL A   1      40.473  35.353  37.007  1.00  0.00     0.135 A 
ATOM     92  F   UNL A   1      38.371  32.695  38.337  1.00  0.00    -0.206 F 
ATOM     93  C   UNL A   1      38.916  34.788  39.247  1.00  0.00     0.059 A 
ATOM     94  C   UNL A   1      40.393  36.287  38.035  1.00  0.00     0.059 A 
ATOM     95  F   UNL A   1      41.231  35.652  35.940  1.00  0.00    -0.206 F 
ATOM     96  C   UNL A   1      39.602  36.000  39.146  1.00  0.00     0.060 A 
BRANCH  96  97
ATOM     97  S   UNL A   1      39.464  37.187  40.499  1.00  0.00     0.124 S 
ATOM     98  O   UNL A   1      38.792  38.304  39.844  1.00  0.00    -0.237 OA
ATOM     99  O   UNL A   1      38.667  36.452  41.477  1.00  0.00    -0.237 OA
ATOM    100  O   UNL A   1      40.851  37.428  40.884  1.00  0.00    -0.744 OA
ENDBRANCH  96  97
ENDBRANCH  64  89
ENDBRANCH  38  39
ENDBRANCH  30  33
ENDBRANCH  28  29
ENDBRANCH  27  28
ENDBRANCH   1  27
TORSDOF 19
ENDMDL
