MODEL 1
REMARK VINA RESULT:     -10.0      0.000      0.000
REMARK SMILES CCCCCC[C@@H](C(=O)NCCCCNC(=O)c1ccc(-c2c3nc(c(-c4c(F)cc(S(=O)(=O)[O-])cc4F)c4ccc([nH]4)c(-c4c(F)cc(S(=O)(=O)[O-])cc4F)c4nc(c(-c5c(F)cc(S(=O)(=O)[O-])cc5F)c5ccc2[nH]5)C=C4)C=C3)cc1)c1ccccc1C
REMARK SMILES IDX 11 1 10 2 8 3 9 4 7 6 6 7 5 8 4 9 3 10 2 11 1 12 84 13 85 14
REMARK SMILES IDX 89 15 86 16 88 17 90 18 87 19 12 20 13 21 14 22 15 23 16 24
REMARK SMILES IDX 17 26 18 27 19 28 83 29 20 30 82 31 21 32 22 33 23 34 76 35
REMARK SMILES IDX 24 36 81 37 75 38 77 39 25 40 80 41 74 42 73 43 26 45 60 46
REMARK SMILES IDX 39 47 59 48 40 49 43 50 58 51 78 52 41 53 42 54 57 56 79 57
REMARK SMILES IDX 44 58 27 59 28 60 37 61 29 62 30 63 36 64 38 65 31 66 32 67
REMARK SMILES IDX 33 68 34 69 35 70 61 71 62 72 71 73 63 74 64 75 70 76 72 77
REMARK SMILES IDX 65 78 66 79 67 80 68 81 69 82 45 83 46 84 55 85 47 86 48 87
REMARK SMILES IDX 54 88 56 89 49 90 50 91 51 92 52 93 53 94
REMARK H PARENT 10 5 15 25 77 44 43 55
REMARK Flexibility Score: inf
ROOT
ATOM      1  C   UNL A   1      37.679  23.269  25.520  1.00  0.00     0.116 C 
ENDROOT
BRANCH   1   2
ATOM      2  N   UNL A   1      37.247  23.563  24.167  1.00  0.00    -0.356 N 
ATOM      3  C   UNL A   1      36.029  23.292  23.601  1.00  0.00     0.227 C 
ATOM      4  O   UNL A   1      36.029  22.980  22.408  1.00  0.00    -0.274 OA
ATOM      5  H   UNL A   1      37.907  24.007  23.587  1.00  0.00     0.163 HD
BRANCH   3   6
ATOM      6  C   UNL A   1      34.738  23.386  24.436  1.00  0.00     0.109 C 
BRANCH   6   7
ATOM      7  C   UNL A   1      33.769  22.284  23.880  1.00  0.00     0.018 C 
BRANCH   7   8
ATOM      8  C   UNL A   1      32.605  21.839  24.770  1.00  0.00     0.001 C 
BRANCH   8   9
ATOM      9  C   UNL A   1      32.907  21.677  26.263  1.00  0.00     0.000 C 
BRANCH   9  10
ATOM     10  C   UNL A   1      32.462  22.854  27.134  1.00  0.00    -0.000 C 
BRANCH  10  11
ATOM     11  C   UNL A   1      31.204  23.594  26.665  1.00  0.00    -0.003 C 
ATOM     12  C   UNL A   1      29.900  22.906  27.037  1.00  0.00     0.004 C 
ENDBRANCH  10  11
ENDBRANCH   9  10
ENDBRANCH   8   9
ENDBRANCH   7   8
ENDBRANCH   6   7
BRANCH   6  13
ATOM     13  C   UNL A   1      34.033  24.776  24.423  1.00  0.00    -0.033 A 
ATOM     14  C   UNL A   1      34.299  25.628  25.526  1.00  0.00     0.005 A 
ATOM     15  C   UNL A   1      33.179  25.294  23.422  1.00  0.00    -0.047 A 
ATOM     16  C   UNL A   1      33.597  26.813  25.749  1.00  0.00     0.000 A 
ATOM     17  C   UNL A   1      32.450  26.479  23.679  1.00  0.00     0.004 A 
ATOM     18  C   UNL A   1      32.959  24.691  22.060  1.00  0.00     0.044 C 
ATOM     19  C   UNL A   1      32.636  27.217  24.844  1.00  0.00     0.000 A 
ENDBRANCH   6  13
ENDBRANCH   3   6
ENDBRANCH   1   2
BRANCH   1  20
ATOM     20  C   UNL A   1      37.497  21.773  25.800  1.00  0.00     0.023 C 
BRANCH  20  21
ATOM     21  C   UNL A   1      38.656  20.886  25.370  1.00  0.00     0.023 C 
BRANCH  21  22
ATOM     22  C   UNL A   1      39.704  20.663  26.445  1.00  0.00     0.116 C 
BRANCH  22  23
ATOM     23  N   UNL A   1      40.598  19.547  26.166  1.00  0.00    -0.352 N 
ATOM     24  C   UNL A   1      41.972  19.570  26.042  1.00  0.00     0.251 C 
ATOM     25  H   UNL A   1      40.169  18.669  26.053  1.00  0.00     0.163 HD
ATOM     26  O   UNL A   1      42.589  18.570  25.726  1.00  0.00    -0.269 OA
BRANCH  24  27
ATOM     27  C   UNL A   1      42.667  20.859  26.255  1.00  0.00     0.039 A 
ATOM     28  C   UNL A   1      42.987  21.645  25.146  1.00  0.00     0.014 A 
ATOM     29  C   UNL A   1      42.892  21.327  27.551  1.00  0.00     0.014 A 
ATOM     30  C   UNL A   1      43.458  22.945  25.344  1.00  0.00     0.010 A 
ATOM     31  C   UNL A   1      43.270  22.647  27.743  1.00  0.00     0.010 A 
ATOM     32  C   UNL A   1      43.559  23.469  26.643  1.00  0.00    -0.014 A 
BRANCH  32  33
ATOM     33  C   UNL A   1      43.986  24.869  26.889  1.00  0.00     0.031 A 
ATOM     34  C   UNL A   1      45.431  25.243  26.706  1.00  0.00     0.074 A 
ATOM     35  C   UNL A   1      43.102  25.773  27.359  1.00  0.00     0.049 A 
ATOM     36  N   UNL A   1      46.038  26.365  26.990  1.00  0.00    -0.248 NA
ATOM     37  C   UNL A   1      46.321  24.198  26.171  1.00  0.00     0.031 C 
ATOM     38  C   UNL A   1      41.687  25.515  27.636  1.00  0.00     0.029 A 
ATOM     39  N   UNL A   1      43.270  27.090  27.702  1.00  0.00    -0.354 N 
ATOM     40  C   UNL A   1      47.381  26.150  26.701  1.00  0.00     0.074 A 
ATOM     41  C   UNL A   1      47.508  24.775  26.273  1.00  0.00     0.031 C 
ATOM     42  C   UNL A   1      41.112  26.644  28.082  1.00  0.00     0.029 A 
ATOM     43  C   UNL A   1      42.121  27.695  28.156  1.00  0.00     0.049 A 
ATOM     44  H   UNL A   1      44.133  27.560  27.630  1.00  0.00     0.167 HD
ATOM     45  C   UNL A   1      48.410  27.027  26.760  1.00  0.00     0.037 A 
ATOM     46  C   UNL A   1      41.910  28.955  28.584  1.00  0.00     0.037 A 
ATOM     47  C   UNL A   1      48.266  28.408  27.132  1.00  0.00     0.049 A 
ATOM     48  C   UNL A   1      43.059  29.927  28.592  1.00  0.00     0.074 A 
ATOM     49  C   UNL A   1      49.232  29.397  27.161  1.00  0.00     0.029 A 
ATOM     50  N   UNL A   1      47.073  28.998  27.526  1.00  0.00    -0.354 N 
ATOM     51  N   UNL A   1      44.313  29.721  28.268  1.00  0.00    -0.248 NA
ATOM     52  C   UNL A   1      42.765  31.303  29.017  1.00  0.00     0.031 C 
ATOM     53  C   UNL A   1      48.627  30.583  27.592  1.00  0.00     0.029 A 
ATOM     54  C   UNL A   1      47.278  30.338  27.801  1.00  0.00     0.049 A 
ATOM     55  H   UNL A   1      46.209  28.531  27.598  1.00  0.00     0.167 HD
ATOM     56  C   UNL A   1      44.952  30.945  28.422  1.00  0.00     0.074 A 
ATOM     57  C   UNL A   1      43.944  31.889  28.862  1.00  0.00     0.031 C 
ATOM     58  C   UNL A   1      46.254  31.262  28.218  1.00  0.00     0.037 A 
BRANCH  45  59
ATOM     59  C   UNL A   1      49.775  26.515  26.394  1.00  0.00     0.058 A 
ATOM     60  C   UNL A   1      50.302  26.690  25.105  1.00  0.00     0.135 A 
ATOM     61  C   UNL A   1      50.567  25.848  27.341  1.00  0.00     0.135 A 
ATOM     62  F   UNL A   1      49.578  27.303  24.155  1.00  0.00    -0.206 F 
ATOM     63  C   UNL A   1      51.552  26.189  24.756  1.00  0.00     0.059 A 
ATOM     64  C   UNL A   1      51.831  25.363  27.023  1.00  0.00     0.059 A 
ATOM     65  F   UNL A   1      50.109  25.652  28.588  1.00  0.00    -0.206 F 
ATOM     66  C   UNL A   1      52.308  25.523  25.722  1.00  0.00     0.060 A 
BRANCH  66  67
ATOM     67  S   UNL A   1      53.924  24.871  25.255  1.00  0.00     0.124 S 
ATOM     68  O   UNL A   1      54.180  25.594  24.013  1.00  0.00    -0.237 OA
ATOM     69  O   UNL A   1      54.757  25.251  26.391  1.00  0.00    -0.237 OA
ATOM     70  O   UNL A   1      53.684  23.439  25.109  1.00  0.00    -0.744 OA
ENDBRANCH  66  67
ENDBRANCH  45  59
BRANCH  46  71
ATOM     71  C   UNL A   1      40.548  29.383  29.001  1.00  0.00     0.058 A 
ATOM     72  C   UNL A   1      40.249  29.601  30.355  1.00  0.00     0.135 A 
ATOM     73  C   UNL A   1      39.526  29.589  28.064  1.00  0.00     0.135 A 
ATOM     74  F   UNL A   1      41.193  29.411  31.288  1.00  0.00    -0.206 F 
ATOM     75  C   UNL A   1      38.980  29.992  30.767  1.00  0.00     0.059 A 
ATOM     76  C   UNL A   1      38.253  30.002  28.450  1.00  0.00     0.059 A 
ATOM     77  F   UNL A   1      39.766  29.412  26.755  1.00  0.00    -0.206 F 
ATOM     78  C   UNL A   1      37.987  30.189  29.806  1.00  0.00     0.060 A 
BRANCH  78  79
ATOM     79  S   UNL A   1      36.354  30.741  30.346  1.00  0.00     0.124 S 
ATOM     80  O   UNL A   1      36.650  32.073  30.861  1.00  0.00    -0.237 OA
ATOM     81  O   UNL A   1      35.586  30.692  29.106  1.00  0.00    -0.237 OA
ATOM     82  O   UNL A   1      35.978  29.745  31.345  1.00  0.00    -0.744 OA
ENDBRANCH  78  79
ENDBRANCH  46  71
BRANCH  58  83
ATOM     83  C   UNL A   1      46.658  32.692  28.428  1.00  0.00     0.058 A 
ATOM     84  C   UNL A   1      46.542  33.646  27.408  1.00  0.00     0.135 A 
ATOM     85  C   UNL A   1      47.104  33.123  29.688  1.00  0.00     0.135 A 
ATOM     86  F   UNL A   1      46.125  33.281  26.185  1.00  0.00    -0.206 F 
ATOM     87  C   UNL A   1      46.870  34.980  27.624  1.00  0.00     0.059 A 
ATOM     88  C   UNL A   1      47.416  34.456  29.932  1.00  0.00     0.059 A 
ATOM     89  F   UNL A   1      47.221  32.249  30.700  1.00  0.00    -0.206 F 
ATOM     90  C   UNL A   1      47.305  35.376  28.891  1.00  0.00     0.060 A 
BRANCH  90  91
ATOM     91  S   UNL A   1      47.684  37.118  29.173  1.00  0.00     0.124 S 
ATOM     92  O   UNL A   1      49.017  37.227  28.590  1.00  0.00    -0.237 OA
ATOM     93  O   UNL A   1      46.616  37.795  28.444  1.00  0.00    -0.237 OA
ATOM     94  O   UNL A   1      47.619  37.247  30.626  1.00  0.00    -0.744 OA
ENDBRANCH  90  91
ENDBRANCH  58  83
ENDBRANCH  32  33
ENDBRANCH  24  27
ENDBRANCH  22  23
ENDBRANCH  21  22
ENDBRANCH  20  21
ENDBRANCH   1  20
TORSDOF 20
ENDMDL
MODEL 2
REMARK VINA RESULT:      -9.9      0.902      2.150
REMARK SMILES CCCCCC[C@@H](C(=O)NCCCCNC(=O)c1ccc(-c2c3nc(c(-c4c(F)cc(S(=O)(=O)[O-])cc4F)c4ccc([nH]4)c(-c4c(F)cc(S(=O)(=O)[O-])cc4F)c4nc(c(-c5c(F)cc(S(=O)(=O)[O-])cc5F)c5ccc2[nH]5)C=C4)C=C3)cc1)c1ccccc1C
REMARK SMILES IDX 11 1 10 2 8 3 9 4 7 6 6 7 5 8 4 9 3 10 2 11 1 12 84 13 85 14
REMARK SMILES IDX 89 15 86 16 88 17 90 18 87 19 12 20 13 21 14 22 15 23 16 24
REMARK SMILES IDX 17 26 18 27 19 28 83 29 20 30 82 31 21 32 22 33 23 34 76 35
REMARK SMILES IDX 24 36 81 37 75 38 77 39 25 40 80 41 74 42 73 43 26 45 60 46
REMARK SMILES IDX 39 47 59 48 40 49 43 50 58 51 78 52 41 53 42 54 57 56 79 57
REMARK SMILES IDX 44 58 27 59 28 60 37 61 29 62 30 63 36 64 38 65 31 66 32 67
REMARK SMILES IDX 33 68 34 69 35 70 61 71 62 72 71 73 63 74 64 75 70 76 72 77
REMARK SMILES IDX 65 78 66 79 67 80 68 81 69 82 45 83 46 84 55 85 47 86 48 87
REMARK SMILES IDX 54 88 56 89 49 90 50 91 51 92 52 93 53 94
REMARK H PARENT 10 5 15 25 77 44 43 55
REMARK Flexibility Score: inf
ROOT
ATOM      1  C   UNL A   1      36.695  22.932  25.900  1.00  0.00     0.116 C 
ENDROOT
BRANCH   1   2
ATOM      2  N   UNL A   1      36.406  23.555  24.623  1.00  0.00    -0.356 N 
ATOM      3  C   UNL A   1      35.245  23.478  23.899  1.00  0.00     0.227 C 
ATOM      4  O   UNL A   1      35.357  23.456  22.672  1.00  0.00    -0.274 OA
ATOM      5  H   UNL A   1      37.129  24.094  24.229  1.00  0.00     0.163 HD
BRANCH   3   6
ATOM      6  C   UNL A   1      33.880  23.428  24.610  1.00  0.00     0.109 C 
BRANCH   6   7
ATOM      7  C   UNL A   1      32.879  22.760  23.604  1.00  0.00     0.018 C 
BRANCH   7   8
ATOM      8  C   UNL A   1      32.789  21.231  23.590  1.00  0.00     0.001 C 
BRANCH   8   9
ATOM      9  C   UNL A   1      32.158  20.572  24.820  1.00  0.00     0.000 C 
BRANCH   9  10
ATOM     10  C   UNL A   1      32.937  19.374  25.370  1.00  0.00    -0.000 C 
BRANCH  10  11
ATOM     11  C   UNL A   1      33.856  18.660  24.372  1.00  0.00    -0.003 C 
ATOM     12  C   UNL A   1      33.857  17.144  24.502  1.00  0.00     0.004 C 
ENDBRANCH  10  11
ENDBRANCH   9  10
ENDBRANCH   8   9
ENDBRANCH   7   8
ENDBRANCH   6   7
BRANCH   6  13
ATOM     13  C   UNL A   1      33.322  24.804  25.086  1.00  0.00    -0.033 A 
ATOM     14  C   UNL A   1      33.901  25.957  24.495  1.00  0.00     0.005 A 
ATOM     15  C   UNL A   1      32.285  25.032  26.019  1.00  0.00    -0.047 A 
ATOM     16  C   UNL A   1      33.645  27.249  24.955  1.00  0.00     0.000 A 
ATOM     17  C   UNL A   1      32.061  26.343  26.499  1.00  0.00     0.004 A 
ATOM     18  C   UNL A   1      31.360  23.981  26.575  1.00  0.00     0.044 C 
ATOM     19  C   UNL A   1      32.753  27.439  25.993  1.00  0.00     0.000 A 
ENDBRANCH   6  13
ENDBRANCH   3   6
ENDBRANCH   1   2
BRANCH   1  20
ATOM     20  C   UNL A   1      36.771  21.411  25.721  1.00  0.00     0.023 C 
BRANCH  20  21
ATOM     21  C   UNL A   1      38.078  20.891  25.139  1.00  0.00     0.023 C 
BRANCH  21  22
ATOM     22  C   UNL A   1      39.275  21.041  26.059  1.00  0.00     0.116 C 
BRANCH  22  23
ATOM     23  N   UNL A   1      40.114  19.851  26.123  1.00  0.00    -0.352 N 
ATOM     24  C   UNL A   1      41.482  19.785  26.288  1.00  0.00     0.251 C 
ATOM     25  H   UNL A   1      39.647  18.990  26.038  1.00  0.00     0.163 HD
ATOM     26  O   UNL A   1      42.068  18.720  26.243  1.00  0.00    -0.269 OA
BRANCH  24  27
ATOM     27  C   UNL A   1      42.222  21.053  26.472  1.00  0.00     0.039 A 
ATOM     28  C   UNL A   1      42.516  21.832  25.351  1.00  0.00     0.014 A 
ATOM     29  C   UNL A   1      42.515  21.513  27.757  1.00  0.00     0.014 A 
ATOM     30  C   UNL A   1      43.032  23.118  25.529  1.00  0.00     0.010 A 
ATOM     31  C   UNL A   1      42.938  22.822  27.934  1.00  0.00     0.010 A 
ATOM     32  C   UNL A   1      43.203  23.637  26.822  1.00  0.00    -0.014 A 
BRANCH  32  33
ATOM     33  C   UNL A   1      43.678  25.025  27.050  1.00  0.00     0.031 A 
ATOM     34  C   UNL A   1      45.128  25.354  26.819  1.00  0.00     0.074 A 
ATOM     35  C   UNL A   1      42.838  25.955  27.546  1.00  0.00     0.049 A 
ATOM     36  N   UNL A   1      45.776  26.458  27.081  1.00  0.00    -0.248 NA
ATOM     37  C   UNL A   1      45.968  24.282  26.259  1.00  0.00     0.031 C 
ATOM     38  C   UNL A   1      41.426  25.739  27.870  1.00  0.00     0.029 A 
ATOM     39  N   UNL A   1      43.056  27.267  27.880  1.00  0.00    -0.354 N 
ATOM     40  C   UNL A   1      47.102  26.202  26.749  1.00  0.00     0.074 A 
ATOM     41  C   UNL A   1      47.175  24.824  26.321  1.00  0.00     0.031 C 
ATOM     42  C   UNL A   1      40.899  26.886  28.331  1.00  0.00     0.029 A 
ATOM     43  C   UNL A   1      41.941  27.907  28.369  1.00  0.00     0.049 A 
ATOM     44  H   UNL A   1      43.930  27.710  27.779  1.00  0.00     0.167 HD
ATOM     45  C   UNL A   1      48.158  27.049  26.772  1.00  0.00     0.037 A 
ATOM     46  C   UNL A   1      41.781  29.173  28.801  1.00  0.00     0.037 A 
ATOM     47  C   UNL A   1      48.068  28.434  27.145  1.00  0.00     0.049 A 
ATOM     48  C   UNL A   1      42.958  30.111  28.769  1.00  0.00     0.074 A 
ATOM     49  C   UNL A   1      49.063  29.394  27.140  1.00  0.00     0.029 A 
ATOM     50  N   UNL A   1      46.906  29.060  27.575  1.00  0.00    -0.354 N 
ATOM     51  N   UNL A   1      44.195  29.866  28.405  1.00  0.00    -0.248 NA
ATOM     52  C   UNL A   1      42.720  31.495  29.199  1.00  0.00     0.031 C 
ATOM     53  C   UNL A   1      48.508  30.599  27.587  1.00  0.00     0.029 A 
ATOM     54  C   UNL A   1      47.160  30.394  27.840  1.00  0.00     0.049 A 
ATOM     55  H   UNL A   1      46.032  28.619  27.677  1.00  0.00     0.167 HD
ATOM     56  C   UNL A   1      44.874  31.072  28.535  1.00  0.00     0.074 A 
ATOM     57  C   UNL A   1      43.910  32.046  29.004  1.00  0.00     0.031 C 
ATOM     58  C   UNL A   1      46.178  31.348  28.288  1.00  0.00     0.037 A 
BRANCH  45  59
ATOM     59  C   UNL A   1      49.495  26.495  26.364  1.00  0.00     0.058 A 
ATOM     60  C   UNL A   1      50.324  25.830  27.282  1.00  0.00     0.135 A 
ATOM     61  C   UNL A   1      49.951  26.625  25.043  1.00  0.00     0.135 A 
ATOM     62  F   UNL A   1      49.945  25.696  28.562  1.00  0.00    -0.206 F 
ATOM     63  C   UNL A   1      51.574  25.346  26.913  1.00  0.00     0.059 A 
ATOM     64  C   UNL A   1      51.186  26.124  24.646  1.00  0.00     0.059 A 
ATOM     65  F   UNL A   1      49.199  27.255  24.127  1.00  0.00    -0.206 F 
ATOM     66  C   UNL A   1      51.999  25.501  25.593  1.00  0.00     0.060 A 
BRANCH  66  67
ATOM     67  S   UNL A   1      53.626  24.875  25.130  1.00  0.00     0.124 S 
ATOM     68  O   UNL A   1      53.863  25.584  23.877  1.00  0.00    -0.237 OA
ATOM     69  O   UNL A   1      54.456  25.289  26.257  1.00  0.00    -0.237 OA
ATOM     70  O   UNL A   1      53.414  23.437  25.007  1.00  0.00    -0.744 OA
ENDBRANCH  66  67
ENDBRANCH  45  59
BRANCH  46  71
ATOM     71  C   UNL A   1      40.447  29.642  29.260  1.00  0.00     0.058 A 
ATOM     72  C   UNL A   1      39.415  29.881  28.339  1.00  0.00     0.135 A 
ATOM     73  C   UNL A   1      40.172  29.852  30.619  1.00  0.00     0.135 A 
ATOM     74  F   UNL A   1      39.632  29.699  27.029  1.00  0.00    -0.206 F 
ATOM     75  C   UNL A   1      38.163  30.328  28.747  1.00  0.00     0.059 A 
ATOM     76  C   UNL A   1      38.921  30.279  31.054  1.00  0.00     0.059 A 
ATOM     77  F   UNL A   1      41.120  29.620  31.541  1.00  0.00    -0.206 F 
ATOM     78  C   UNL A   1      37.925  30.525  30.108  1.00  0.00     0.060 A 
BRANCH  78  79
ATOM     79  S   UNL A   1      36.283  31.063  30.633  1.00  0.00     0.124 S 
ATOM     80  O   UNL A   1      35.948  30.052  31.630  1.00  0.00    -0.237 OA
ATOM     81  O   UNL A   1      36.547  32.404  31.148  1.00  0.00    -0.237 OA
ATOM     82  O   UNL A   1      35.506  31.017  29.399  1.00  0.00    -0.744 OA
ENDBRANCH  78  79
ENDBRANCH  46  71
BRANCH  58  83
ATOM     83  C   UNL A   1      46.631  32.767  28.481  1.00  0.00     0.058 A 
ATOM     84  C   UNL A   1      47.088  33.230  29.723  1.00  0.00     0.135 A 
ATOM     85  C   UNL A   1      46.669  33.651  27.391  1.00  0.00     0.135 A 
ATOM     86  F   UNL A   1      47.067  32.423  30.795  1.00  0.00    -0.206 F 
ATOM     87  C   UNL A   1      47.554  34.530  29.883  1.00  0.00     0.059 A 
ATOM     88  C   UNL A   1      47.151  34.949  27.524  1.00  0.00     0.059 A 
ATOM     89  F   UNL A   1      46.252  33.251  26.179  1.00  0.00    -0.206 F 
ATOM     90  C   UNL A   1      47.583  35.383  28.777  1.00  0.00     0.060 A 
BRANCH  90  91
ATOM     91  S   UNL A   1      48.233  37.054  28.985  1.00  0.00     0.124 S 
ATOM     92  O   UNL A   1      48.194  37.205  30.436  1.00  0.00    -0.237 OA
ATOM     93  O   UNL A   1      49.563  36.951  28.394  1.00  0.00    -0.237 OA
ATOM     94  O   UNL A   1      47.286  37.879  28.240  1.00  0.00    -0.744 OA
ENDBRANCH  90  91
ENDBRANCH  58  83
ENDBRANCH  32  33
ENDBRANCH  24  27
ENDBRANCH  22  23
ENDBRANCH  21  22
ENDBRANCH  20  21
ENDBRANCH   1  20
TORSDOF 20
ENDMDL
MODEL 3
REMARK VINA RESULT:      -9.9      4.350      5.763
REMARK SMILES CCCCCC[C@@H](C(=O)NCCCCNC(=O)c1ccc(-c2c3nc(c(-c4c(F)cc(S(=O)(=O)[O-])cc4F)c4ccc([nH]4)c(-c4c(F)cc(S(=O)(=O)[O-])cc4F)c4nc(c(-c5c(F)cc(S(=O)(=O)[O-])cc5F)c5ccc2[nH]5)C=C4)C=C3)cc1)c1ccccc1C
REMARK SMILES IDX 11 1 10 2 8 3 9 4 7 6 6 7 5 8 4 9 3 10 2 11 1 12 84 13 85 14
REMARK SMILES IDX 89 15 86 16 88 17 90 18 87 19 12 20 13 21 14 22 15 23 16 24
REMARK SMILES IDX 17 26 18 27 19 28 83 29 20 30 82 31 21 32 22 33 23 34 76 35
REMARK SMILES IDX 24 36 81 37 75 38 77 39 25 40 80 41 74 42 73 43 26 45 60 46
REMARK SMILES IDX 39 47 59 48 40 49 43 50 58 51 78 52 41 53 42 54 57 56 79 57
REMARK SMILES IDX 44 58 27 59 28 60 37 61 29 62 30 63 36 64 38 65 31 66 32 67
REMARK SMILES IDX 33 68 34 69 35 70 61 71 62 72 71 73 63 74 64 75 70 76 72 77
REMARK SMILES IDX 65 78 66 79 67 80 68 81 69 82 45 83 46 84 55 85 47 86 48 87
REMARK SMILES IDX 54 88 56 89 49 90 50 91 51 92 52 93 53 94
REMARK H PARENT 10 5 15 25 77 44 43 55
REMARK Flexibility Score: inf
ROOT
ATOM      1  C   UNL A   1      34.448  24.954  25.514  1.00  0.00     0.116 C 
ENDROOT
BRANCH   1   2
ATOM      2  N   UNL A   1      34.441  25.678  24.258  1.00  0.00    -0.356 N 
ATOM      3  C   UNL A   1      33.431  25.742  23.334  1.00  0.00     0.227 C 
ATOM      4  O   UNL A   1      33.766  25.789  22.149  1.00  0.00    -0.274 OA
ATOM      5  H   UNL A   1      35.260  26.181  24.043  1.00  0.00     0.163 HD
BRANCH   3   6
ATOM      6  C   UNL A   1      31.958  25.757  23.783  1.00  0.00     0.109 C 
BRANCH   6   7
ATOM      7  C   UNL A   1      31.176  24.848  22.771  1.00  0.00     0.018 C 
BRANCH   7   8
ATOM      8  C   UNL A   1      30.805  23.431  23.219  1.00  0.00     0.001 C 
BRANCH   8   9
ATOM      9  C   UNL A   1      31.509  22.903  24.472  1.00  0.00     0.000 C 
BRANCH   9  10
ATOM     10  C   UNL A   1      30.675  22.986  25.754  1.00  0.00    -0.000 C 
BRANCH  10  11
ATOM     11  C   UNL A   1      30.739  24.320  26.506  1.00  0.00    -0.003 C 
ATOM     12  C   UNL A   1      29.462  25.143  26.425  1.00  0.00     0.004 C 
ENDBRANCH  10  11
ENDBRANCH   9  10
ENDBRANCH   8   9
ENDBRANCH   7   8
ENDBRANCH   6   7
BRANCH   6  13
ATOM     13  C   UNL A   1      31.296  27.166  23.859  1.00  0.00    -0.033 A 
ATOM     14  C   UNL A   1      30.325  27.461  22.867  1.00  0.00     0.005 A 
ATOM     15  C   UNL A   1      31.533  28.173  24.823  1.00  0.00    -0.047 A 
ATOM     16  C   UNL A   1      29.792  28.737  22.691  1.00  0.00     0.000 A 
ATOM     17  C   UNL A   1      31.012  29.470  24.611  1.00  0.00     0.004 A 
ATOM     18  C   UNL A   1      32.313  27.998  26.099  1.00  0.00     0.044 C 
ATOM     19  C   UNL A   1      30.172  29.759  23.540  1.00  0.00     0.000 A 
ENDBRANCH   6  13
ENDBRANCH   3   6
ENDBRANCH   1   2
BRANCH   1  20
ATOM     20  C   UNL A   1      34.601  23.453  25.238  1.00  0.00     0.023 C 
BRANCH  20  21
ATOM     21  C   UNL A   1      35.827  23.066  24.424  1.00  0.00     0.023 C 
BRANCH  21  22
ATOM     22  C   UNL A   1      37.123  23.685  24.915  1.00  0.00     0.116 C 
BRANCH  22  23
ATOM     23  N   UNL A   1      38.140  22.704  25.270  1.00  0.00    -0.352 N 
ATOM     24  C   UNL A   1      39.232  22.873  26.097  1.00  0.00     0.251 C 
ATOM     25  H   UNL A   1      38.036  21.811  24.871  1.00  0.00     0.163 HD
ATOM     26  O   UNL A   1      40.051  21.985  26.243  1.00  0.00    -0.269 OA
BRANCH  24  27
ATOM     27  C   UNL A   1      39.403  24.184  26.762  1.00  0.00     0.039 A 
ATOM     28  C   UNL A   1      38.919  24.351  28.060  1.00  0.00     0.014 A 
ATOM     29  C   UNL A   1      40.138  25.194  26.138  1.00  0.00     0.014 A 
ATOM     30  C   UNL A   1      39.248  25.509  28.768  1.00  0.00     0.010 A 
ATOM     31  C   UNL A   1      40.542  26.297  26.875  1.00  0.00     0.010 A 
ATOM     32  C   UNL A   1      40.099  26.468  28.196  1.00  0.00    -0.014 A 
BRANCH  32  33
ATOM     33  C   UNL A   1      40.531  27.675  28.944  1.00  0.00     0.031 A 
ATOM     34  C   UNL A   1      41.879  27.686  29.611  1.00  0.00     0.074 A 
ATOM     35  C   UNL A   1      39.686  28.714  29.098  1.00  0.00     0.049 A 
ATOM     36  N   UNL A   1      42.396  28.576  30.416  1.00  0.00    -0.248 NA
ATOM     37  C   UNL A   1      42.743  26.517  29.374  1.00  0.00     0.031 C 
ATOM     38  C   UNL A   1      38.329  28.795  28.551  1.00  0.00     0.029 A 
ATOM     39  N   UNL A   1      39.839  29.897  29.775  1.00  0.00    -0.354 N 
ATOM     40  C   UNL A   1      43.627  28.060  30.806  1.00  0.00     0.074 A 
ATOM     41  C   UNL A   1      43.755  26.756  30.194  1.00  0.00     0.031 C 
ATOM     42  C   UNL A   1      37.786  29.975  28.894  1.00  0.00     0.029 A 
ATOM     43  C   UNL A   1      38.738  30.719  29.712  1.00  0.00     0.049 A 
ATOM     44  H   UNL A   1      40.661  30.135  30.263  1.00  0.00     0.167 HD
ATOM     45  C   UNL A   1      44.577  28.633  31.581  1.00  0.00     0.037 A 
ATOM     46  C   UNL A   1      38.524  31.933  30.255  1.00  0.00     0.037 A 
ATOM     47  C   UNL A   1      44.468  29.952  32.140  1.00  0.00     0.049 A 
ATOM     48  C   UNL A   1      39.615  32.572  31.071  1.00  0.00     0.074 A 
ATOM     49  C   UNL A   1      45.400  30.653  32.885  1.00  0.00     0.029 A 
ATOM     50  N   UNL A   1      43.361  30.778  32.001  1.00  0.00    -0.354 N 
ATOM     51  N   UNL A   1      40.794  32.091  31.389  1.00  0.00    -0.248 NA
ATOM     52  C   UNL A   1      39.353  33.919  31.597  1.00  0.00     0.031 C 
ATOM     53  C   UNL A   1      44.848  31.896  33.214  1.00  0.00     0.029 A 
ATOM     54  C   UNL A   1      43.586  31.981  32.647  1.00  0.00     0.049 A 
ATOM     55  H   UNL A   1      42.538  30.542  31.515  1.00  0.00     0.167 HD
ATOM     56  C   UNL A   1      41.424  33.086  32.127  1.00  0.00     0.074 A 
ATOM     57  C   UNL A   1      40.499  34.199  32.202  1.00  0.00     0.031 C 
ATOM     58  C   UNL A   1      42.656  33.081  32.691  1.00  0.00     0.037 A 
BRANCH  45  59
ATOM     59  C   UNL A   1      45.823  27.835  31.850  1.00  0.00     0.058 A 
ATOM     60  C   UNL A   1      45.922  26.984  32.962  1.00  0.00     0.135 A 
ATOM     61  C   UNL A   1      46.925  27.915  30.985  1.00  0.00     0.135 A 
ATOM     62  F   UNL A   1      44.905  26.885  33.832  1.00  0.00    -0.206 F 
ATOM     63  C   UNL A   1      47.085  26.269  33.229  1.00  0.00     0.059 A 
ATOM     64  C   UNL A   1      48.088  27.188  31.217  1.00  0.00     0.059 A 
ATOM     65  F   UNL A   1      46.883  28.716  29.908  1.00  0.00    -0.206 F 
ATOM     66  C   UNL A   1      48.165  26.381  32.352  1.00  0.00     0.060 A 
BRANCH  66  67
ATOM     67  S   UNL A   1      49.671  25.455  32.714  1.00  0.00     0.124 S 
ATOM     68  O   UNL A   1      50.505  26.485  33.324  1.00  0.00    -0.237 OA
ATOM     69  O   UNL A   1      49.190  24.413  33.617  1.00  0.00    -0.237 OA
ATOM     70  O   UNL A   1      50.106  24.990  31.401  1.00  0.00    -0.744 OA
ENDBRANCH  66  67
ENDBRANCH  45  59
BRANCH  46  71
ATOM     71  C   UNL A   1      37.240  32.643  30.012  1.00  0.00     0.058 A 
ATOM     72  C   UNL A   1      37.133  33.599  28.990  1.00  0.00     0.135 A 
ATOM     73  C   UNL A   1      36.099  32.378  30.782  1.00  0.00     0.135 A 
ATOM     74  F   UNL A   1      38.199  33.889  28.230  1.00  0.00    -0.206 F 
ATOM     75  C   UNL A   1      35.945  34.281  28.752  1.00  0.00     0.059 A 
ATOM     76  C   UNL A   1      34.892  33.032  30.549  1.00  0.00     0.059 A 
ATOM     77  F   UNL A   1      36.145  31.459  31.760  1.00  0.00    -0.206 F 
ATOM     78  C   UNL A   1      34.828  33.991  29.537  1.00  0.00     0.060 A 
BRANCH  78  79
ATOM     79  S   UNL A   1      33.277  34.849  29.192  1.00  0.00     0.124 S 
ATOM     80  O   UNL A   1      32.636  33.929  28.258  1.00  0.00    -0.237 OA
ATOM     81  O   UNL A   1      32.671  34.938  30.517  1.00  0.00    -0.237 OA
ATOM     82  O   UNL A   1      33.716  36.120  28.627  1.00  0.00    -0.744 OA
ENDBRANCH  78  79
ENDBRANCH  46  71
BRANCH  58  83
ATOM     83  C   UNL A   1      43.094  34.327  33.404  1.00  0.00     0.058 A 
ATOM     84  C   UNL A   1      43.856  35.312  32.762  1.00  0.00     0.135 A 
ATOM     85  C   UNL A   1      42.687  34.564  34.727  1.00  0.00     0.135 A 
ATOM     86  F   UNL A   1      44.273  35.129  31.499  1.00  0.00    -0.206 F 
ATOM     87  C   UNL A   1      44.216  36.488  33.413  1.00  0.00     0.059 A 
ATOM     88  C   UNL A   1      43.017  35.741  35.389  1.00  0.00     0.059 A 
ATOM     89  F   UNL A   1      41.947  33.655  35.381  1.00  0.00    -0.206 F 
ATOM     90  C   UNL A   1      43.790  36.694  34.727  1.00  0.00     0.060 A 
BRANCH  90  91
ATOM     91  S   UNL A   1      44.223  38.243  35.547  1.00  0.00     0.124 S 
ATOM     92  O   UNL A   1      45.669  38.281  35.357  1.00  0.00    -0.237 OA
ATOM     93  O   UNL A   1      43.457  39.226  34.786  1.00  0.00    -0.237 OA
ATOM     94  O   UNL A   1      43.772  38.035  36.920  1.00  0.00    -0.744 OA
ENDBRANCH  90  91
ENDBRANCH  58  83
ENDBRANCH  32  33
ENDBRANCH  24  27
ENDBRANCH  22  23
ENDBRANCH  21  22
ENDBRANCH  20  21
ENDBRANCH   1  20
TORSDOF 20
ENDMDL
