MODEL 1
REMARK VINA RESULT:     -10.9      0.000      0.000
REMARK SMILES C[C@H](NC(=O)c1cc(S(=O)(=O)N(C)C)cs1)C(=O)NCCCCNC(=O)c1ccc(-c2c3nc(c(-c4c(F)cc(S(=O)(=O)[O-])cc4F)c4ccc([nH]4)c(-c4c(F)cc(S(=O)(=O)[O-])cc4F)c4nc(c(-c5c(F)cc(S(=O)(=O)[O-])cc5F)c5ccc2[nH]5)C=C4)C=C3)cc1
REMARK SMILES IDX 21 1 20 2 19 3 17 4 18 5 2 7 1 8 3 9 4 10 5 12 6 13 7 14
REMARK SMILES IDX 16 15 8 16 15 17 9 18 10 19 11 20 12 21 13 22 14 23 22 24
REMARK SMILES IDX 23 25 24 26 25 27 26 29 27 30 28 31 92 32 29 33 91 34 30 35
REMARK SMILES IDX 31 36 32 37 85 38 33 39 90 40 84 41 86 42 34 43 89 44 83 45
REMARK SMILES IDX 82 46 35 48 69 49 48 50 68 51 49 52 52 53 67 54 87 55 50 56
REMARK SMILES IDX 51 57 66 59 88 60 53 61 36 62 37 63 46 64 38 65 39 66 45 67
REMARK SMILES IDX 47 68 40 69 41 70 42 71 43 72 44 73 70 74 71 75 80 76 72 77
REMARK SMILES IDX 73 78 79 79 81 80 74 81 75 82 76 83 77 84 78 85 54 86 55 87
REMARK SMILES IDX 64 88 56 89 57 90 63 91 65 92 58 93 59 94 60 95 61 96 62 97
REMARK H PARENT 19 6 3 11 24 28 86 47 52 58
REMARK Flexibility Score: inf
ROOT
ATOM      1  C   UNL A   1      31.419  27.514  26.445  1.00  0.00     0.023 C 
ENDROOT
BRANCH   1   2
ATOM      2  C   UNL A   1      30.895  26.603  25.338  1.00  0.00     0.116 C 
BRANCH   2   3
ATOM      3  N   UNL A   1      30.326  27.349  24.233  1.00  0.00    -0.354 N 
ATOM      4  C   UNL A   1      30.878  27.771  23.061  1.00  0.00     0.242 C 
ATOM      5  O   UNL A   1      30.132  28.332  22.252  1.00  0.00    -0.273 OA
ATOM      6  H   UNL A   1      29.379  27.593  24.350  1.00  0.00     0.163 HD
BRANCH   4   7
ATOM      7  C   UNL A   1      32.363  27.537  22.722  1.00  0.00     0.168 C 
ATOM      8  C   UNL A   1      33.173  28.827  22.694  1.00  0.00     0.041 C 
BRANCH   7   9
ATOM      9  N   UNL A   1      32.513  26.768  21.486  1.00  0.00    -0.340 N 
ATOM     10  C   UNL A   1      32.901  25.459  21.325  1.00  0.00     0.262 C 
ATOM     11  H   UNL A   1      32.309  27.256  20.656  1.00  0.00     0.164 HD
ATOM     12  O   UNL A   1      33.060  25.059  20.172  1.00  0.00    -0.268 OA
BRANCH  10  13
ATOM     13  C   UNL A   1      33.127  24.639  22.498  1.00  0.00     0.093 A 
ATOM     14  C   UNL A   1      34.282  24.446  23.231  1.00  0.00     0.047 A 
ATOM     15  S   UNL A   1      31.812  23.759  23.160  1.00  0.00    -0.137 S 
ATOM     16  C   UNL A   1      34.089  23.545  24.318  1.00  0.00     0.094 A 
ATOM     17  C   UNL A   1      32.796  23.073  24.379  1.00  0.00     0.087 A 
BRANCH  16  18
ATOM     18  S   UNL A   1      35.331  23.052  25.420  1.00  0.00     0.243 S 
ATOM     19  O   UNL A   1      36.232  24.179  25.467  1.00  0.00    -0.207 OA
ATOM     20  O   UNL A   1      34.580  22.629  26.586  1.00  0.00    -0.207 OA
BRANCH  18  21
ATOM     21  N   UNL A   1      36.171  21.713  24.790  1.00  0.00    -0.204 NA
ATOM     22  C   UNL A   1      37.611  21.650  25.123  1.00  0.00     0.124 C 
ATOM     23  C   UNL A   1      35.504  20.419  25.049  1.00  0.00     0.124 C 
ENDBRANCH  18  21
ENDBRANCH  16  18
ENDBRANCH  10  13
ENDBRANCH   7   9
ENDBRANCH   4   7
ENDBRANCH   2   3
ENDBRANCH   1   2
BRANCH   1  24
ATOM     24  C   UNL A   1      32.845  28.032  26.240  1.00  0.00     0.023 C 
BRANCH  24  25
ATOM     25  C   UNL A   1      33.583  28.462  27.506  1.00  0.00     0.116 C 
BRANCH  25  26
ATOM     26  N   UNL A   1      33.578  29.902  27.709  1.00  0.00    -0.352 N 
ATOM     27  C   UNL A   1      34.590  30.718  28.156  1.00  0.00     0.251 C 
ATOM     28  H   UNL A   1      32.732  30.355  27.496  1.00  0.00     0.163 HD
ATOM     29  O   UNL A   1      34.363  31.905  28.376  1.00  0.00    -0.269 OA
BRANCH  27  30
ATOM     30  C   UNL A   1      35.936  30.158  28.407  1.00  0.00     0.039 A 
ATOM     31  C   UNL A   1      36.870  30.161  27.368  1.00  0.00     0.014 A 
ATOM     32  C   UNL A   1      36.281  29.649  29.662  1.00  0.00     0.014 A 
ATOM     33  C   UNL A   1      38.174  29.721  27.609  1.00  0.00     0.010 A 
ATOM     34  C   UNL A   1      37.598  29.273  29.917  1.00  0.00     0.010 A 
ATOM     35  C   UNL A   1      38.559  29.310  28.896  1.00  0.00    -0.014 A 
BRANCH  35  36
ATOM     36  C   UNL A   1      39.963  28.930  29.195  1.00  0.00     0.031 A 
ATOM     37  C   UNL A   1      40.907  29.933  29.803  1.00  0.00     0.074 A 
ATOM     38  C   UNL A   1      40.410  27.706  28.852  1.00  0.00     0.049 A 
ATOM     39  N   UNL A   1      42.184  29.816  30.057  1.00  0.00    -0.248 NA
ATOM     40  C   UNL A   1      40.344  31.249  30.143  1.00  0.00     0.031 C 
ATOM     41  C   UNL A   1      39.608  26.662  28.209  1.00  0.00     0.029 A 
ATOM     42  N   UNL A   1      41.652  27.135  28.983  1.00  0.00    -0.354 N 
ATOM     43  C   UNL A   1      42.582  31.043  30.573  1.00  0.00     0.074 A 
ATOM     44  C   UNL A   1      41.420  31.907  30.549  1.00  0.00     0.031 C 
ATOM     45  C   UNL A   1      40.373  25.576  28.015  1.00  0.00     0.029 A 
ATOM     46  C   UNL A   1      41.726  25.855  28.486  1.00  0.00     0.049 A 
ATOM     47  H   UNL A   1      42.417  27.599  29.393  1.00  0.00     0.167 HD
ATOM     48  C   UNL A   1      43.798  31.411  31.046  1.00  0.00     0.037 A 
ATOM     49  C   UNL A   1      42.768  25.003  28.412  1.00  0.00     0.037 A 
ATOM     50  C   UNL A   1      44.943  30.541  31.091  1.00  0.00     0.049 A 
ATOM     51  C   UNL A   1      44.105  25.428  28.954  1.00  0.00     0.074 A 
ATOM     52  C   UNL A   1      46.204  30.803  31.600  1.00  0.00     0.029 A 
ATOM     53  N   UNL A   1      44.969  29.239  30.612  1.00  0.00    -0.354 N 
ATOM     54  N   UNL A   1      44.449  26.575  29.490  1.00  0.00    -0.248 NA
ATOM     55  C   UNL A   1      45.194  24.444  28.889  1.00  0.00     0.031 C 
ATOM     56  C   UNL A   1      47.002  29.671  31.397  1.00  0.00     0.029 A 
ATOM     57  C   UNL A   1      46.226  28.690  30.801  1.00  0.00     0.049 A 
ATOM     58  H   UNL A   1      44.206  28.774  30.199  1.00  0.00     0.167 HD
ATOM     59  C   UNL A   1      45.785  26.442  29.848  1.00  0.00     0.074 A 
ATOM     60  C   UNL A   1      46.185  25.100  29.478  1.00  0.00     0.031 C 
ATOM     61  C   UNL A   1      46.607  27.349  30.430  1.00  0.00     0.037 A 
BRANCH  48  62
ATOM     62  C   UNL A   1      43.944  32.817  31.559  1.00  0.00     0.058 A 
ATOM     63  C   UNL A   1      43.836  33.114  32.928  1.00  0.00     0.135 A 
ATOM     64  C   UNL A   1      44.216  33.877  30.679  1.00  0.00     0.135 A 
ATOM     65  F   UNL A   1      43.563  32.140  33.811  1.00  0.00    -0.206 F 
ATOM     66  C   UNL A   1      43.957  34.415  33.401  1.00  0.00     0.059 A 
ATOM     67  C   UNL A   1      44.367  35.183  31.134  1.00  0.00     0.059 A 
ATOM     68  F   UNL A   1      44.329  33.649  29.361  1.00  0.00    -0.206 F 
ATOM     69  C   UNL A   1      44.219  35.445  32.496  1.00  0.00     0.060 A 
BRANCH  69  70
ATOM     70  S   UNL A   1      44.363  37.131  33.124  1.00  0.00     0.124 S 
ATOM     71  O   UNL A   1      45.103  37.780  32.046  1.00  0.00    -0.237 OA
ATOM     72  O   UNL A   1      42.967  37.534  33.264  1.00  0.00    -0.237 OA
ATOM     73  O   UNL A   1      45.093  36.966  34.377  1.00  0.00    -0.744 OA
ENDBRANCH  69  70
ENDBRANCH  48  62
BRANCH  49  74
ATOM     74  C   UNL A   1      42.579  23.655  27.817  1.00  0.00     0.058 A 
ATOM     75  C   UNL A   1      42.615  23.469  26.428  1.00  0.00     0.135 A 
ATOM     76  C   UNL A   1      42.383  22.523  28.624  1.00  0.00     0.135 A 
ATOM     77  F   UNL A   1      42.794  24.522  25.615  1.00  0.00    -0.206 F 
ATOM     78  C   UNL A   1      42.452  22.212  25.856  1.00  0.00     0.059 A 
ATOM     79  C   UNL A   1      42.239  21.252  28.077  1.00  0.00     0.059 A 
ATOM     80  F   UNL A   1      42.358  22.647  29.960  1.00  0.00    -0.206 F 
ATOM     81  C   UNL A   1      42.268  21.108  26.690  1.00  0.00     0.060 A 
BRANCH  81  82
ATOM     82  S   UNL A   1      42.117  19.470  25.943  1.00  0.00     0.124 S 
ATOM     83  O   UNL A   1      42.624  18.614  27.008  1.00  0.00    -0.237 OA
ATOM     84  O   UNL A   1      40.683  19.384  25.680  1.00  0.00    -0.237 OA
ATOM     85  O   UNL A   1      42.958  19.566  24.754  1.00  0.00    -0.744 OA
ENDBRANCH  81  82
ENDBRANCH  49  74
BRANCH  61  86
ATOM     86  C   UNL A   1      48.014  26.914  30.732  1.00  0.00     0.058 A 
ATOM     87  C   UNL A   1      49.060  27.118  29.818  1.00  0.00     0.135 A 
ATOM     88  C   UNL A   1      48.329  26.334  31.972  1.00  0.00     0.135 A 
ATOM     89  F   UNL A   1      48.810  27.662  28.616  1.00  0.00    -0.206 F 
ATOM     90  C   UNL A   1      50.366  26.743  30.114  1.00  0.00     0.059 A 
ATOM     91  C   UNL A   1      49.632  25.975  32.299  1.00  0.00     0.059 A 
ATOM     92  F   UNL A   1      47.367  26.127  32.885  1.00  0.00    -0.206 F 
ATOM     93  C   UNL A   1      50.642  26.173  31.359  1.00  0.00     0.060 A 
BRANCH  93  94
ATOM     94  S   UNL A   1      52.347  25.724  31.747  1.00  0.00     0.124 S 
ATOM     95  O   UNL A   1      52.209  24.314  32.093  1.00  0.00    -0.237 OA
ATOM     96  O   UNL A   1      53.039  26.005  30.492  1.00  0.00    -0.237 OA
ATOM     97  O   UNL A   1      52.688  26.612  32.854  1.00  0.00    -0.744 OA
ENDBRANCH  93  94
ENDBRANCH  61  86
ENDBRANCH  35  36
ENDBRANCH  27  30
ENDBRANCH  25  26
ENDBRANCH  24  25
ENDBRANCH   1  24
TORSDOF 18
ENDMDL
MODEL 2
REMARK VINA RESULT:     -10.4      0.806      8.253
REMARK SMILES C[C@H](NC(=O)c1cc(S(=O)(=O)N(C)C)cs1)C(=O)NCCCCNC(=O)c1ccc(-c2c3nc(c(-c4c(F)cc(S(=O)(=O)[O-])cc4F)c4ccc([nH]4)c(-c4c(F)cc(S(=O)(=O)[O-])cc4F)c4nc(c(-c5c(F)cc(S(=O)(=O)[O-])cc5F)c5ccc2[nH]5)C=C4)C=C3)cc1
REMARK SMILES IDX 21 1 20 2 19 3 17 4 18 5 2 7 1 8 3 9 4 10 5 12 6 13 7 14
REMARK SMILES IDX 16 15 8 16 15 17 9 18 10 19 11 20 12 21 13 22 14 23 22 24
REMARK SMILES IDX 23 25 24 26 25 27 26 29 27 30 28 31 92 32 29 33 91 34 30 35
REMARK SMILES IDX 31 36 32 37 85 38 33 39 90 40 84 41 86 42 34 43 89 44 83 45
REMARK SMILES IDX 82 46 35 48 69 49 48 50 68 51 49 52 52 53 67 54 87 55 50 56
REMARK SMILES IDX 51 57 66 59 88 60 53 61 36 62 37 63 46 64 38 65 39 66 45 67
REMARK SMILES IDX 47 68 40 69 41 70 42 71 43 72 44 73 70 74 71 75 80 76 72 77
REMARK SMILES IDX 73 78 79 79 81 80 74 81 75 82 76 83 77 84 78 85 54 86 55 87
REMARK SMILES IDX 64 88 56 89 57 90 63 91 65 92 58 93 59 94 60 95 61 96 62 97
REMARK H PARENT 19 6 3 11 24 28 86 47 52 58
REMARK Flexibility Score: inf
ROOT
ATOM      1  C   UNL A   1      31.634  28.549  26.229  1.00  0.00     0.023 C 
ENDROOT
BRANCH   1   2
ATOM      2  C   UNL A   1      31.859  29.564  25.111  1.00  0.00     0.116 C 
BRANCH   2   3
ATOM      3  N   UNL A   1      31.089  29.254  23.922  1.00  0.00    -0.354 N 
ATOM      4  C   UNL A   1      31.368  28.442  22.864  1.00  0.00     0.242 C 
ATOM      5  O   UNL A   1      30.486  28.300  22.011  1.00  0.00    -0.273 OA
ATOM      6  H   UNL A   1      30.217  29.708  23.871  1.00  0.00     0.163 HD
BRANCH   4   7
ATOM      7  C   UNL A   1      32.707  27.692  22.735  1.00  0.00     0.168 C 
ATOM      8  C   UNL A   1      33.915  28.614  22.854  1.00  0.00     0.041 C 
BRANCH   7   9
ATOM      9  N   UNL A   1      32.752  26.885  21.516  1.00  0.00    -0.340 N 
ATOM     10  C   UNL A   1      32.899  25.524  21.386  1.00  0.00     0.262 C 
ATOM     11  H   UNL A   1      32.666  27.385  20.673  1.00  0.00     0.164 HD
ATOM     12  O   UNL A   1      33.017  25.079  20.244  1.00  0.00    -0.268 OA
BRANCH  10  13
ATOM     13  C   UNL A   1      32.934  24.699  22.577  1.00  0.00     0.093 A 
ATOM     14  C   UNL A   1      34.018  24.185  23.261  1.00  0.00     0.047 A 
ATOM     15  S   UNL A   1      31.455  24.268  23.331  1.00  0.00    -0.137 S 
ATOM     16  C   UNL A   1      33.626  23.407  24.389  1.00  0.00     0.094 A 
ATOM     17  C   UNL A   1      32.256  23.344  24.528  1.00  0.00     0.087 A 
BRANCH  16  18
ATOM     18  S   UNL A   1      34.723  22.587  25.450  1.00  0.00     0.243 S 
ATOM     19  O   UNL A   1      34.565  23.265  26.715  1.00  0.00    -0.207 OA
ATOM     20  O   UNL A   1      34.357  21.195  25.282  1.00  0.00    -0.207 OA
BRANCH  18  21
ATOM     21  N   UNL A   1      36.324  22.806  24.914  1.00  0.00    -0.204 NA
ATOM     22  C   UNL A   1      37.157  23.703  25.746  1.00  0.00     0.124 C 
ATOM     23  C   UNL A   1      37.028  21.539  24.620  1.00  0.00     0.124 C 
ENDBRANCH  18  21
ENDBRANCH  16  18
ENDBRANCH  10  13
ENDBRANCH   7   9
ENDBRANCH   4   7
ENDBRANCH   2   3
ENDBRANCH   1   2
BRANCH   1  24
ATOM     24  C   UNL A   1      32.835  27.655  26.546  1.00  0.00     0.023 C 
BRANCH  24  25
ATOM     25  C   UNL A   1      34.139  28.383  26.866  1.00  0.00     0.116 C 
BRANCH  25  26
ATOM     26  N   UNL A   1      33.934  29.640  27.568  1.00  0.00    -0.352 N 
ATOM     27  C   UNL A   1      34.816  30.353  28.345  1.00  0.00     0.251 C 
ATOM     28  H   UNL A   1      33.038  30.035  27.474  1.00  0.00     0.163 HD
ATOM     29  O   UNL A   1      34.425  31.344  28.957  1.00  0.00    -0.269 OA
BRANCH  27  30
ATOM     30  C   UNL A   1      36.220  29.906  28.470  1.00  0.00     0.039 A 
ATOM     31  C   UNL A   1      37.074  30.052  27.374  1.00  0.00     0.014 A 
ATOM     32  C   UNL A   1      36.697  29.361  29.666  1.00  0.00     0.014 A 
ATOM     33  C   UNL A   1      38.426  29.722  27.500  1.00  0.00     0.010 A 
ATOM     34  C   UNL A   1      38.057  29.095  29.809  1.00  0.00     0.010 A 
ATOM     35  C   UNL A   1      38.936  29.277  28.731  1.00  0.00    -0.014 A 
BRANCH  35  36
ATOM     36  C   UNL A   1      40.386  29.011  28.913  1.00  0.00     0.031 A 
ATOM     37  C   UNL A   1      40.956  27.660  28.575  1.00  0.00     0.074 A 
ATOM     38  C   UNL A   1      41.176  29.961  29.451  1.00  0.00     0.049 A 
ATOM     39  N   UNL A   1      42.173  27.212  28.744  1.00  0.00    -0.248 NA
ATOM     40  C   UNL A   1      40.028  26.675  27.998  1.00  0.00     0.031 C 
ATOM     41  C   UNL A   1      40.732  31.293  29.869  1.00  0.00     0.029 A 
ATOM     42  N   UNL A   1      42.515  29.949  29.753  1.00  0.00    -0.354 N 
ATOM     43  C   UNL A   1      42.156  25.893  28.309  1.00  0.00     0.074 A 
ATOM     44  C   UNL A   1      40.795  25.598  27.914  1.00  0.00     0.031 C 
ATOM     45  C   UNL A   1      41.781  31.973  30.358  1.00  0.00     0.029 A 
ATOM     46  C   UNL A   1      42.963  31.118  30.322  1.00  0.00     0.049 A 
ATOM     47  H   UNL A   1      43.099  29.176  29.578  1.00  0.00     0.167 HD
ATOM     48  C   UNL A   1      43.184  25.014  28.222  1.00  0.00     0.037 A 
ATOM     49  C   UNL A   1      44.187  31.460  30.771  1.00  0.00     0.037 A 
ATOM     50  C   UNL A   1      44.541  25.320  28.592  1.00  0.00     0.049 A 
ATOM     51  C   UNL A   1      45.315  30.474  30.654  1.00  0.00     0.074 A 
ATOM     52  C   UNL A   1      45.663  24.516  28.492  1.00  0.00     0.029 A 
ATOM     53  N   UNL A   1      44.962  26.527  29.131  1.00  0.00    -0.354 N 
ATOM     54  N   UNL A   1      45.292  29.248  30.187  1.00  0.00    -0.248 NA
ATOM     55  C   UNL A   1      46.638  30.916  31.117  1.00  0.00     0.031 C 
ATOM     56  C   UNL A   1      46.757  25.224  29.002  1.00  0.00     0.029 A 
ATOM     57  C   UNL A   1      46.324  26.485  29.381  1.00  0.00     0.049 A 
ATOM     58  H   UNL A   1      44.380  27.300  29.310  1.00  0.00     0.167 HD
ATOM     59  C   UNL A   1      46.599  28.782  30.277  1.00  0.00     0.074 A 
ATOM     60  C   UNL A   1      47.389  29.861  30.834  1.00  0.00     0.031 C 
ATOM     61  C   UNL A   1      47.098  27.570  29.931  1.00  0.00     0.037 A 
BRANCH  48  62
ATOM     62  C   UNL A   1      42.877  23.639  27.699  1.00  0.00     0.058 A 
ATOM     63  C   UNL A   1      42.861  23.363  26.322  1.00  0.00     0.135 A 
ATOM     64  C   UNL A   1      42.614  22.578  28.582  1.00  0.00     0.135 A 
ATOM     65  F   UNL A   1      43.091  24.344  25.434  1.00  0.00    -0.206 F 
ATOM     66  C   UNL A   1      42.563  22.094  25.837  1.00  0.00     0.059 A 
ATOM     67  C   UNL A   1      42.339  21.295  28.119  1.00  0.00     0.059 A 
ATOM     68  F   UNL A   1      42.615  22.786  29.908  1.00  0.00    -0.206 F 
ATOM     69  C   UNL A   1      42.299  21.066  26.744  1.00  0.00     0.060 A 
BRANCH  69  70
ATOM     70  S   UNL A   1      41.903  19.428  26.099  1.00  0.00     0.124 S 
ATOM     71  O   UNL A   1      40.466  19.547  25.870  1.00  0.00    -0.237 OA
ATOM     72  O   UNL A   1      42.731  19.354  24.900  1.00  0.00    -0.237 OA
ATOM     73  O   UNL A   1      42.293  18.532  27.184  1.00  0.00    -0.744 OA
ENDBRANCH  69  70
ENDBRANCH  48  62
BRANCH  49  74
ATOM     74  C   UNL A   1      44.409  32.809  31.355  1.00  0.00     0.058 A 
ATOM     75  C   UNL A   1      44.751  33.898  30.540  1.00  0.00     0.135 A 
ATOM     76  C   UNL A   1      44.258  33.042  32.730  1.00  0.00     0.135 A 
ATOM     77  F   UNL A   1      44.911  33.723  29.219  1.00  0.00    -0.206 F 
ATOM     78  C   UNL A   1      44.949  35.169  31.068  1.00  0.00     0.059 A 
ATOM     79  C   UNL A   1      44.430  34.309  33.280  1.00  0.00     0.059 A 
ATOM     80  F   UNL A   1      43.914  32.036  33.549  1.00  0.00    -0.206 F 
ATOM     81  C   UNL A   1      44.783  35.366  32.440  1.00  0.00     0.060 A 
BRANCH  81  82
ATOM     82  S   UNL A   1      44.983  37.031  33.110  1.00  0.00     0.124 S 
ATOM     83  O   UNL A   1      46.104  37.532  32.323  1.00  0.00    -0.237 OA
ATOM     84  O   UNL A   1      43.684  37.633  32.829  1.00  0.00    -0.237 OA
ATOM     85  O   UNL A   1      45.260  36.791  34.523  1.00  0.00    -0.744 OA
ENDBRANCH  81  82
ENDBRANCH  49  74
BRANCH  61  86
ATOM     86  C   UNL A   1      48.574  27.353  30.115  1.00  0.00     0.058 A 
ATOM     87  C   UNL A   1      49.498  27.695  29.115  1.00  0.00     0.135 A 
ATOM     88  C   UNL A   1      49.073  26.845  31.325  1.00  0.00     0.135 A 
ATOM     89  F   UNL A   1      49.071  28.178  27.937  1.00  0.00    -0.206 F 
ATOM     90  C   UNL A   1      50.865  27.523  29.301  1.00  0.00     0.059 A 
ATOM     91  C   UNL A   1      50.438  26.688  31.542  1.00  0.00     0.059 A 
ATOM     92  F   UNL A   1      48.232  26.511  32.316  1.00  0.00    -0.206 F 
ATOM     93  C   UNL A   1      51.326  27.019  30.519  1.00  0.00     0.060 A 
BRANCH  93  94
ATOM     94  S   UNL A   1      53.105  26.834  30.764  1.00  0.00     0.124 S 
ATOM     95  O   UNL A   1      53.180  25.521  31.395  1.00  0.00    -0.237 OA
ATOM     96  O   UNL A   1      53.619  26.912  29.400  1.00  0.00    -0.237 OA
ATOM     97  O   UNL A   1      53.449  27.964  31.621  1.00  0.00    -0.744 OA
ENDBRANCH  93  94
ENDBRANCH  61  86
ENDBRANCH  35  36
ENDBRANCH  27  30
ENDBRANCH  25  26
ENDBRANCH  24  25
ENDBRANCH   1  24
TORSDOF 18
ENDMDL
MODEL 3
REMARK VINA RESULT:     -10.4      4.760     10.527
REMARK SMILES C[C@H](NC(=O)c1cc(S(=O)(=O)N(C)C)cs1)C(=O)NCCCCNC(=O)c1ccc(-c2c3nc(c(-c4c(F)cc(S(=O)(=O)[O-])cc4F)c4ccc([nH]4)c(-c4c(F)cc(S(=O)(=O)[O-])cc4F)c4nc(c(-c5c(F)cc(S(=O)(=O)[O-])cc5F)c5ccc2[nH]5)C=C4)C=C3)cc1
REMARK SMILES IDX 21 1 20 2 19 3 17 4 18 5 2 7 1 8 3 9 4 10 5 12 6 13 7 14
REMARK SMILES IDX 16 15 8 16 15 17 9 18 10 19 11 20 12 21 13 22 14 23 22 24
REMARK SMILES IDX 23 25 24 26 25 27 26 29 27 30 28 31 92 32 29 33 91 34 30 35
REMARK SMILES IDX 31 36 32 37 85 38 33 39 90 40 84 41 86 42 34 43 89 44 83 45
REMARK SMILES IDX 82 46 35 48 69 49 48 50 68 51 49 52 52 53 67 54 87 55 50 56
REMARK SMILES IDX 51 57 66 59 88 60 53 61 36 62 37 63 46 64 38 65 39 66 45 67
REMARK SMILES IDX 47 68 40 69 41 70 42 71 43 72 44 73 70 74 71 75 80 76 72 77
REMARK SMILES IDX 73 78 79 79 81 80 74 81 75 82 76 83 77 84 78 85 54 86 55 87
REMARK SMILES IDX 64 88 56 89 57 90 63 91 65 92 58 93 59 94 60 95 61 96 62 97
REMARK H PARENT 19 6 3 11 24 28 86 47 52 58
REMARK Flexibility Score: inf
ROOT
ATOM      1  C   UNL A   1      36.080  23.705  25.580  1.00  0.00     0.023 C 
ENDROOT
BRANCH   1   2
ATOM      2  C   UNL A   1      35.202  23.495  24.349  1.00  0.00     0.116 C 
BRANCH   2   3
ATOM      3  N   UNL A   1      34.645  22.158  24.292  1.00  0.00    -0.354 N 
ATOM      4  C   UNL A   1      33.777  21.515  25.123  1.00  0.00     0.242 C 
ATOM      5  O   UNL A   1      33.403  20.386  24.789  1.00  0.00    -0.273 OA
ATOM      6  H   UNL A   1      34.945  21.624  23.521  1.00  0.00     0.163 HD
BRANCH   4   7
ATOM      7  C   UNL A   1      33.242  22.165  26.413  1.00  0.00     0.168 C 
ATOM      8  C   UNL A   1      34.071  21.810  27.641  1.00  0.00     0.041 C 
BRANCH   7   9
ATOM      9  N   UNL A   1      31.821  21.875  26.608  1.00  0.00    -0.340 N 
ATOM     10  C   UNL A   1      30.728  22.525  26.087  1.00  0.00     0.262 C 
ATOM     11  H   UNL A   1      31.621  21.109  27.193  1.00  0.00     0.164 HD
ATOM     12  O   UNL A   1      29.619  22.163  26.482  1.00  0.00    -0.268 OA
BRANCH  10  13
ATOM     13  C   UNL A   1      30.930  23.602  25.138  1.00  0.00     0.093 A 
ATOM     14  C   UNL A   1      31.009  24.964  25.355  1.00  0.00     0.047 A 
ATOM     15  S   UNL A   1      31.138  23.218  23.480  1.00  0.00    -0.137 S 
ATOM     16  C   UNL A   1      31.206  25.693  24.146  1.00  0.00     0.094 A 
ATOM     17  C   UNL A   1      31.266  24.868  23.044  1.00  0.00     0.087 A 
BRANCH  16  18
ATOM     18  S   UNL A   1      31.316  27.419  24.044  1.00  0.00     0.243 S 
ATOM     19  O   UNL A   1      31.306  27.857  25.419  1.00  0.00    -0.207 OA
ATOM     20  O   UNL A   1      32.471  27.619  23.191  1.00  0.00    -0.207 OA
BRANCH  18  21
ATOM     21  N   UNL A   1      29.939  28.045  23.265  1.00  0.00    -0.204 NA
ATOM     22  C   UNL A   1      28.656  27.400  23.623  1.00  0.00     0.124 C 
ATOM     23  C   UNL A   1      29.837  29.519  23.336  1.00  0.00     0.124 C 
ENDBRANCH  18  21
ENDBRANCH  16  18
ENDBRANCH  10  13
ENDBRANCH   7   9
ENDBRANCH   4   7
ENDBRANCH   2   3
ENDBRANCH   1   2
BRANCH   1  24
ATOM     24  C   UNL A   1      37.585  23.559  25.337  1.00  0.00     0.023 C 
BRANCH  24  25
ATOM     25  C   UNL A   1      38.491  24.149  26.415  1.00  0.00     0.116 C 
BRANCH  25  26
ATOM     26  N   UNL A   1      39.906  23.940  26.150  1.00  0.00    -0.352 N 
ATOM     27  C   UNL A   1      40.988  24.658  26.601  1.00  0.00     0.251 C 
ATOM     28  H   UNL A   1      40.118  23.177  25.566  1.00  0.00     0.163 HD
ATOM     29  O   UNL A   1      42.110  24.400  26.175  1.00  0.00    -0.269 OA
BRANCH  27  30
ATOM     30  C   UNL A   1      40.794  25.760  27.568  1.00  0.00     0.039 A 
ATOM     31  C   UNL A   1      39.753  25.668  28.495  1.00  0.00     0.014 A 
ATOM     32  C   UNL A   1      41.642  26.871  27.572  1.00  0.00     0.014 A 
ATOM     33  C   UNL A   1      39.608  26.653  29.474  1.00  0.00     0.010 A 
ATOM     34  C   UNL A   1      41.537  27.818  28.589  1.00  0.00     0.010 A 
ATOM     35  C   UNL A   1      40.523  27.716  29.553  1.00  0.00    -0.014 A 
BRANCH  35  36
ATOM     36  C   UNL A   1      40.444  28.721  30.644  1.00  0.00     0.031 A 
ATOM     37  C   UNL A   1      41.324  28.594  31.857  1.00  0.00     0.074 A 
ATOM     38  C   UNL A   1      39.527  29.708  30.576  1.00  0.00     0.049 A 
ATOM     39  N   UNL A   1      41.341  29.319  32.945  1.00  0.00    -0.248 NA
ATOM     40  C   UNL A   1      42.294  27.487  31.858  1.00  0.00     0.031 C 
ATOM     41  C   UNL A   1      38.580  29.909  29.477  1.00  0.00     0.029 A 
ATOM     42  N   UNL A   1      39.232  30.719  31.456  1.00  0.00    -0.354 N 
ATOM     43  C   UNL A   1      42.309  28.752  33.765  1.00  0.00     0.074 A 
ATOM     44  C   UNL A   1      42.823  27.591  33.068  1.00  0.00     0.031 C 
ATOM     45  C   UNL A   1      37.821  30.983  29.741  1.00  0.00     0.029 A 
ATOM     46  C   UNL A   1      38.200  31.528  31.041  1.00  0.00     0.049 A 
ATOM     47  H   UNL A   1      39.713  30.852  32.304  1.00  0.00     0.167 HD
ATOM     48  C   UNL A   1      42.747  29.172  34.976  1.00  0.00     0.037 A 
ATOM     49  C   UNL A   1      37.620  32.586  31.643  1.00  0.00     0.037 A 
ATOM     50  C   UNL A   1      42.251  30.341  35.653  1.00  0.00     0.049 A 
ATOM     51  C   UNL A   1      38.131  33.041  32.981  1.00  0.00     0.074 A 
ATOM     52  C   UNL A   1      42.668  30.879  36.859  1.00  0.00     0.029 A 
ATOM     53  N   UNL A   1      41.231  31.155  35.184  1.00  0.00    -0.354 N 
ATOM     54  N   UNL A   1      39.087  32.525  33.717  1.00  0.00    -0.248 NA
ATOM     55  C   UNL A   1      37.493  34.227  33.569  1.00  0.00     0.031 C 
ATOM     56  C   UNL A   1      41.875  32.000  37.135  1.00  0.00     0.029 A 
ATOM     57  C   UNL A   1      40.994  32.183  36.082  1.00  0.00     0.049 A 
ATOM     58  H   UNL A   1      40.746  31.022  34.338  1.00  0.00     0.167 HD
ATOM     59  C   UNL A   1      39.180  33.336  34.842  1.00  0.00     0.074 A 
ATOM     60  C   UNL A   1      38.191  34.383  34.685  1.00  0.00     0.031 C 
ATOM     61  C   UNL A   1      40.009  33.222  35.909  1.00  0.00     0.037 A 
BRANCH  48  62
ATOM     62  C   UNL A   1      43.825  28.361  35.641  1.00  0.00     0.058 A 
ATOM     63  C   UNL A   1      43.517  27.319  36.531  1.00  0.00     0.135 A 
ATOM     64  C   UNL A   1      45.180  28.614  35.374  1.00  0.00     0.135 A 
ATOM     65  F   UNL A   1      42.238  27.045  36.833  1.00  0.00    -0.206 F 
ATOM     66  C   UNL A   1      44.513  26.579  37.157  1.00  0.00     0.059 A 
ATOM     67  C   UNL A   1      46.193  27.868  35.969  1.00  0.00     0.059 A 
ATOM     68  F   UNL A   1      45.531  29.599  34.532  1.00  0.00    -0.206 F 
ATOM     69  C   UNL A   1      45.850  26.863  36.873  1.00  0.00     0.060 A 
BRANCH  69  70
ATOM     70  S   UNL A   1      47.132  25.901  37.702  1.00  0.00     0.124 S 
ATOM     71  O   UNL A   1      47.541  26.818  38.763  1.00  0.00    -0.237 OA
ATOM     72  O   UNL A   1      46.402  24.715  38.138  1.00  0.00    -0.237 OA
ATOM     73  O   UNL A   1      48.120  25.676  36.652  1.00  0.00    -0.744 OA
ENDBRANCH  69  70
ENDBRANCH  48  62
BRANCH  49  74
ATOM     74  C   UNL A   1      36.502  33.296  30.969  1.00  0.00     0.058 A 
ATOM     75  C   UNL A   1      35.178  33.125  31.398  1.00  0.00     0.135 A 
ATOM     76  C   UNL A   1      36.736  34.177  29.903  1.00  0.00     0.135 A 
ATOM     77  F   UNL A   1      34.904  32.288  32.411  1.00  0.00    -0.206 F 
ATOM     78  C   UNL A   1      34.122  33.792  30.786  1.00  0.00     0.059 A 
ATOM     79  C   UNL A   1      35.699  34.873  29.289  1.00  0.00     0.059 A 
ATOM     80  F   UNL A   1      37.988  34.388  29.467  1.00  0.00    -0.206 F 
ATOM     81  C   UNL A   1      34.393  34.667  29.734  1.00  0.00     0.060 A 
BRANCH  81  82
ATOM     82  S   UNL A   1      33.023  35.576  28.985  1.00  0.00     0.124 S 
ATOM     83  O   UNL A   1      32.378  34.534  28.194  1.00  0.00    -0.237 OA
ATOM     84  O   UNL A   1      32.286  36.040  30.155  1.00  0.00    -0.237 OA
ATOM     85  O   UNL A   1      33.695  36.624  28.222  1.00  0.00    -0.744 OA
ENDBRANCH  81  82
ENDBRANCH  49  74
BRANCH  61  86
ATOM     86  C   UNL A   1      39.907  34.273  36.978  1.00  0.00     0.058 A 
ATOM     87  C   UNL A   1      40.542  35.518  36.850  1.00  0.00     0.135 A 
ATOM     88  C   UNL A   1      39.121  34.051  38.121  1.00  0.00     0.135 A 
ATOM     89  F   UNL A   1      41.309  35.778  35.779  1.00  0.00    -0.206 F 
ATOM     90  C   UNL A   1      40.417  36.500  37.827  1.00  0.00     0.059 A 
ATOM     91  C   UNL A   1      38.963  35.028  39.099  1.00  0.00     0.059 A 
ATOM     92  F   UNL A   1      38.486  32.880  38.287  1.00  0.00    -0.206 F 
ATOM     93  C   UNL A   1      39.625  36.246  38.948  1.00  0.00     0.060 A 
BRANCH  93  94
ATOM     94  S   UNL A   1      39.441  37.541  40.192  1.00  0.00     0.124 S 
ATOM     95  O   UNL A   1      38.530  38.463  39.524  1.00  0.00    -0.237 OA
ATOM     96  O   UNL A   1      38.885  36.809  41.326  1.00  0.00    -0.237 OA
ATOM     97  O   UNL A   1      40.805  38.028  40.377  1.00  0.00    -0.744 OA
ENDBRANCH  93  94
ENDBRANCH  61  86
ENDBRANCH  35  36
ENDBRANCH  27  30
ENDBRANCH  25  26
ENDBRANCH  24  25
ENDBRANCH   1  24
TORSDOF 18
ENDMDL
