MODEL 1
REMARK VINA RESULT:     -12.1      0.000      0.000
REMARK SMILES O=C(NCCCCNC(=O)c1cc(Br)ccc1OC(=O)c1ccc(F)cc1)c1ccc(-c2c3nc(c(-c4c(F)cc(S(=O)(=O)[O-])cc4F)c4ccc([nH]4)c(-c4c(F)cc(S(=O)(=O)[O-])cc4F)c4nc(c(-c5c(F)cc(S(=O)(=O)[O-])cc5F)c5ccc2[nH]5)C=C4)C=C3)cc1
REMARK SMILES IDX 5 1 4 2 3 3 1 4 2 5 28 7 29 8 93 9 30 10 92 11 31 12 32 13
REMARK SMILES IDX 33 14 86 15 34 16 91 17 85 18 87 19 35 20 90 21 84 22 83 23
REMARK SMILES IDX 36 25 70 26 49 27 69 28 50 29 53 30 68 31 88 32 51 33 52 34
REMARK SMILES IDX 67 36 89 37 54 38 37 39 38 40 47 41 39 42 40 43 46 44 48 45
REMARK SMILES IDX 41 46 42 47 43 48 44 49 45 50 71 51 72 52 81 53 73 54 74 55
REMARK SMILES IDX 80 56 82 57 75 58 76 59 77 60 78 61 79 62 55 63 56 64 65 65
REMARK SMILES IDX 57 66 58 67 64 68 66 69 59 70 60 71 61 72 62 73 63 74 6 75
REMARK SMILES IDX 7 76 8 77 9 78 10 80 11 81 12 82 17 83 13 84 16 85 14 86
REMARK SMILES IDX 15 87 18 88 19 89 20 90 21 91 22 92 27 93 23 94 26 95 24 96
REMARK SMILES IDX 25 97
REMARK H PARENT 3 6 87 24 53 35 8 79
REMARK Flexibility Score: inf
ROOT
ATOM      1  C   UNL A   1      37.876  20.504  25.040  1.00  0.00     0.023 C 
ENDROOT
BRANCH   1   2
ATOM      2  C   UNL A   1      39.168  20.749  25.806  1.00  0.00     0.116 C 
BRANCH   2   3
ATOM      3  N   UNL A   1      40.038  19.583  25.887  1.00  0.00    -0.352 N 
ATOM      4  O   UNL A   1      41.970  18.438  26.108  1.00  0.00    -0.269 OA
ATOM      5  C   UNL A   1      41.387  19.517  26.157  1.00  0.00     0.251 C 
ATOM      6  H   UNL A   1      39.598  18.717  25.726  1.00  0.00     0.163 HD
BRANCH   5   7
ATOM      7  C   UNL A   1      42.138  20.757  26.458  1.00  0.00     0.039 A 
ATOM      8  C   UNL A   1      42.330  21.173  27.776  1.00  0.00     0.014 A 
ATOM      9  C   UNL A   1      42.612  21.539  25.400  1.00  0.00     0.014 A 
ATOM     10  C   UNL A   1      42.816  22.451  28.027  1.00  0.00     0.010 A 
ATOM     11  C   UNL A   1      43.194  22.785  25.662  1.00  0.00     0.010 A 
ATOM     12  C   UNL A   1      43.251  23.275  26.976  1.00  0.00    -0.014 A 
BRANCH  12  13
ATOM     13  C   UNL A   1      43.769  24.633  27.289  1.00  0.00     0.031 A 
ATOM     14  C   UNL A   1      45.210  24.995  27.041  1.00  0.00     0.074 A 
ATOM     15  C   UNL A   1      42.908  25.569  27.735  1.00  0.00     0.049 A 
ATOM     16  N   UNL A   1      45.807  26.150  27.201  1.00  0.00    -0.248 NA
ATOM     17  C   UNL A   1      46.100  23.927  26.559  1.00  0.00     0.031 C 
ATOM     18  C   UNL A   1      41.489  25.336  28.016  1.00  0.00     0.029 A 
ATOM     19  N   UNL A   1      43.082  26.905  27.991  1.00  0.00    -0.354 N 
ATOM     20  C   UNL A   1      47.138  25.947  26.855  1.00  0.00     0.074 A 
ATOM     21  C   UNL A   1      47.271  24.549  26.505  1.00  0.00     0.031 C 
ATOM     22  C   UNL A   1      40.908  26.501  28.335  1.00  0.00     0.029 A 
ATOM     23  C   UNL A   1      41.921  27.551  28.342  1.00  0.00     0.049 A 
ATOM     24  H   UNL A   1      43.955  27.357  27.930  1.00  0.00     0.167 HD
ATOM     25  C   UNL A   1      48.152  26.845  26.821  1.00  0.00     0.037 A 
ATOM     26  C   UNL A   1      41.690  28.844  28.638  1.00  0.00     0.037 A 
ATOM     27  C   UNL A   1      48.010  28.241  27.153  1.00  0.00     0.049 A 
ATOM     28  C   UNL A   1      42.829  29.819  28.598  1.00  0.00     0.074 A 
ATOM     29  C   UNL A   1      48.979  29.231  27.146  1.00  0.00     0.029 A 
ATOM     30  N   UNL A   1      46.826  28.848  27.546  1.00  0.00    -0.354 N 
ATOM     31  N   UNL A   1      44.082  29.603  28.278  1.00  0.00    -0.248 NA
ATOM     32  C   UNL A   1      42.527  31.208  28.965  1.00  0.00     0.031 C 
ATOM     33  C   UNL A   1      48.387  30.428  27.563  1.00  0.00     0.029 A 
ATOM     34  C   UNL A   1      47.040  30.195  27.792  1.00  0.00     0.049 A 
ATOM     35  H   UNL A   1      45.959  28.388  27.636  1.00  0.00     0.167 HD
ATOM     36  C   UNL A   1      44.720  30.831  28.401  1.00  0.00     0.074 A 
ATOM     37  C   UNL A   1      43.709  31.788  28.805  1.00  0.00     0.031 C 
ATOM     38  C   UNL A   1      46.027  31.134  28.202  1.00  0.00     0.037 A 
BRANCH  25  39
ATOM     39  C   UNL A   1      49.514  26.349  26.420  1.00  0.00     0.058 A 
ATOM     40  C   UNL A   1      50.364  25.749  27.363  1.00  0.00     0.135 A 
ATOM     41  C   UNL A   1      49.998  26.504  25.110  1.00  0.00     0.135 A 
ATOM     42  F   UNL A   1      49.951  25.572  28.628  1.00  0.00    -0.206 F 
ATOM     43  C   UNL A   1      51.646  25.325  27.025  1.00  0.00     0.059 A 
ATOM     44  C   UNL A   1      51.269  26.068  24.744  1.00  0.00     0.059 A 
ATOM     45  F   UNL A   1      49.220  27.052  24.164  1.00  0.00    -0.206 F 
ATOM     46  C   UNL A   1      52.090  25.488  25.712  1.00  0.00     0.060 A 
BRANCH  46  47
ATOM     47  S   UNL A   1      53.733  24.880  25.271  1.00  0.00     0.124 S 
ATOM     48  O   UNL A   1      54.013  25.628  24.052  1.00  0.00    -0.237 OA
ATOM     49  O   UNL A   1      54.523  25.250  26.442  1.00  0.00    -0.237 OA
ATOM     50  O   UNL A   1      53.525  23.446  25.099  1.00  0.00    -0.744 OA
ENDBRANCH  46  47
ENDBRANCH  25  39
BRANCH  26  51
ATOM     51  C   UNL A   1      40.309  29.272  28.975  1.00  0.00     0.058 A 
ATOM     52  C   UNL A   1      39.377  29.568  27.969  1.00  0.00     0.135 A 
ATOM     53  C   UNL A   1      39.923  29.474  30.308  1.00  0.00     0.135 A 
ATOM     54  F   UNL A   1      39.704  29.402  26.678  1.00  0.00    -0.206 F 
ATOM     55  C   UNL A   1      38.126  30.093  28.269  1.00  0.00     0.059 A 
ATOM     56  C   UNL A   1      38.667  29.975  30.635  1.00  0.00     0.059 A 
ATOM     57  F   UNL A   1      40.778  29.194  31.303  1.00  0.00    -0.206 F 
ATOM     58  C   UNL A   1      37.785  30.304  29.605  1.00  0.00     0.060 A 
BRANCH  58  59
ATOM     59  S   UNL A   1      36.174  31.031  29.974  1.00  0.00     0.124 S 
ATOM     60  O   UNL A   1      35.320  30.344  29.010  1.00  0.00    -0.237 OA
ATOM     61  O   UNL A   1      35.981  30.660  31.372  1.00  0.00    -0.237 OA
ATOM     62  O   UNL A   1      36.382  32.455  29.727  1.00  0.00    -0.744 OA
ENDBRANCH  58  59
ENDBRANCH  26  51
BRANCH  38  63
ATOM     63  C   UNL A   1      46.441  32.563  28.412  1.00  0.00     0.058 A 
ATOM     64  C   UNL A   1      46.869  33.003  29.674  1.00  0.00     0.135 A 
ATOM     65  C   UNL A   1      46.364  33.506  27.376  1.00  0.00     0.135 A 
ATOM     66  F   UNL A   1      46.958  32.139  30.698  1.00  0.00    -0.206 F 
ATOM     67  C   UNL A   1      47.198  34.334  29.905  1.00  0.00     0.059 A 
ATOM     68  C   UNL A   1      46.708  34.840  27.579  1.00  0.00     0.059 A 
ATOM     69  F   UNL A   1      45.973  33.132  26.148  1.00  0.00    -0.206 F 
ATOM     70  C   UNL A   1      47.111  35.246  28.852  1.00  0.00     0.060 A 
BRANCH  70  71
ATOM     71  S   UNL A   1      47.565  36.966  29.161  1.00  0.00     0.124 S 
ATOM     72  O   UNL A   1      48.768  36.815  29.974  1.00  0.00    -0.237 OA
ATOM     73  O   UNL A   1      47.773  37.481  27.811  1.00  0.00    -0.237 OA
ATOM     74  O   UNL A   1      46.399  37.504  29.856  1.00  0.00    -0.744 OA
ENDBRANCH  70  71
ENDBRANCH  38  63
ENDBRANCH  12  13
ENDBRANCH   5   7
ENDBRANCH   2   3
ENDBRANCH   1   2
BRANCH   1  75
ATOM     75  C   UNL A   1      37.173  21.749  24.513  1.00  0.00     0.023 C 
BRANCH  75  76
ATOM     76  C   UNL A   1      37.020  22.892  25.510  1.00  0.00     0.116 C 
BRANCH  76  77
ATOM     77  N   UNL A   1      35.997  22.662  26.521  1.00  0.00    -0.352 N 
ATOM     78  C   UNL A   1      34.719  23.167  26.595  1.00  0.00     0.255 C 
ATOM     79  H   UNL A   1      36.257  22.059  27.255  1.00  0.00     0.163 HD
ATOM     80  O   UNL A   1      34.000  22.932  27.560  1.00  0.00    -0.269 OA
BRANCH  78  81
ATOM     81  C   UNL A   1      34.219  24.012  25.497  1.00  0.00     0.083 A 
ATOM     82  C   UNL A   1      34.261  25.405  25.640  1.00  0.00     0.033 A 
ATOM     83  C   UNL A   1      33.705  23.453  24.322  1.00  0.00     0.144 A 
ATOM     84  C   UNL A   1      33.695  26.217  24.659  1.00  0.00     0.019 A 
ATOM     85  C   UNL A   1      33.158  24.272  23.332  1.00  0.00     0.049 A 
ATOM     86  Br  UNL A   1      33.677  28.092  24.896  1.00  0.00    -0.051 Br
ATOM     87  C   UNL A   1      33.127  25.655  23.515  1.00  0.00     0.019 A 
BRANCH  83  88
ATOM     88  O   UNL A   1      33.826  22.091  24.002  1.00  0.00    -0.422 OA
BRANCH  88  89
ATOM     89  C   UNL A   1      32.833  21.239  24.443  1.00  0.00     0.343 C 
ATOM     90  O   UNL A   1      31.807  21.550  25.036  1.00  0.00    -0.246 OA
BRANCH  89  91
ATOM     91  C   UNL A   1      33.189  19.844  24.065  1.00  0.00     0.060 A 
ATOM     92  C   UNL A   1      32.408  19.101  23.164  1.00  0.00     0.019 A 
ATOM     93  C   UNL A   1      34.314  19.252  24.657  1.00  0.00     0.019 A 
ATOM     94  C   UNL A   1      32.749  17.780  22.864  1.00  0.00     0.040 A 
ATOM     95  C   UNL A   1      34.656  17.932  24.348  1.00  0.00     0.040 A 
ATOM     96  C   UNL A   1      33.869  17.208  23.458  1.00  0.00     0.123 A 
ATOM     97  F   UNL A   1      34.186  15.939  23.171  1.00  0.00    -0.207 F 
ENDBRANCH  89  91
ENDBRANCH  88  89
ENDBRANCH  83  88
ENDBRANCH  78  81
ENDBRANCH  76  77
ENDBRANCH  75  76
ENDBRANCH   1  75
TORSDOF 17
ENDMDL
MODEL 2
REMARK VINA RESULT:     -12.0      3.431      7.976
REMARK SMILES O=C(NCCCCNC(=O)c1cc(Br)ccc1OC(=O)c1ccc(F)cc1)c1ccc(-c2c3nc(c(-c4c(F)cc(S(=O)(=O)[O-])cc4F)c4ccc([nH]4)c(-c4c(F)cc(S(=O)(=O)[O-])cc4F)c4nc(c(-c5c(F)cc(S(=O)(=O)[O-])cc5F)c5ccc2[nH]5)C=C4)C=C3)cc1
REMARK SMILES IDX 5 1 4 2 3 3 1 4 2 5 28 7 29 8 93 9 30 10 92 11 31 12 32 13
REMARK SMILES IDX 33 14 86 15 34 16 91 17 85 18 87 19 35 20 90 21 84 22 83 23
REMARK SMILES IDX 36 25 70 26 49 27 69 28 50 29 53 30 68 31 88 32 51 33 52 34
REMARK SMILES IDX 67 36 89 37 54 38 37 39 38 40 47 41 39 42 40 43 46 44 48 45
REMARK SMILES IDX 41 46 42 47 43 48 44 49 45 50 71 51 72 52 81 53 73 54 74 55
REMARK SMILES IDX 80 56 82 57 75 58 76 59 77 60 78 61 79 62 55 63 56 64 65 65
REMARK SMILES IDX 57 66 58 67 64 68 66 69 59 70 60 71 61 72 62 73 63 74 6 75
REMARK SMILES IDX 7 76 8 77 9 78 10 80 11 81 12 82 17 83 13 84 16 85 14 86
REMARK SMILES IDX 15 87 18 88 19 89 20 90 21 91 22 92 27 93 23 94 26 95 24 96
REMARK SMILES IDX 25 97
REMARK H PARENT 3 6 87 24 53 35 8 79
REMARK Flexibility Score: inf
ROOT
ATOM      1  C   UNL A   1      32.401  28.003  26.532  1.00  0.00     0.023 C 
ENDROOT
BRANCH   1   2
ATOM      2  C   UNL A   1      33.695  28.495  27.165  1.00  0.00     0.116 C 
BRANCH   2   3
ATOM      3  N   UNL A   1      33.619  29.856  27.682  1.00  0.00    -0.352 N 
ATOM      4  O   UNL A   1      34.323  31.727  28.730  1.00  0.00    -0.269 OA
ATOM      5  C   UNL A   1      34.596  30.615  28.286  1.00  0.00     0.251 C 
ATOM      6  H   UNL A   1      32.744  30.295  27.585  1.00  0.00     0.163 HD
BRANCH   5   7
ATOM      7  C   UNL A   1      35.963  30.066  28.443  1.00  0.00     0.039 A 
ATOM      8  C   UNL A   1      36.385  29.543  29.665  1.00  0.00     0.014 A 
ATOM      9  C   UNL A   1      36.847  30.121  27.361  1.00  0.00     0.014 A 
ATOM     10  C   UNL A   1      37.733  29.263  29.862  1.00  0.00     0.010 A 
ATOM     11  C   UNL A   1      38.183  29.742  27.534  1.00  0.00     0.010 A 
ATOM     12  C   UNL A   1      38.650  29.362  28.802  1.00  0.00    -0.014 A 
BRANCH  12  13
ATOM     13  C   UNL A   1      40.081  29.046  29.053  1.00  0.00     0.031 A 
ATOM     14  C   UNL A   1      40.666  27.712  28.668  1.00  0.00     0.074 A 
ATOM     15  C   UNL A   1      40.875  30.005  29.568  1.00  0.00     0.049 A 
ATOM     16  N   UNL A   1      41.906  27.301  28.761  1.00  0.00    -0.248 NA
ATOM     17  C   UNL A   1      39.745  26.706  28.116  1.00  0.00     0.031 C 
ATOM     18  C   UNL A   1      40.423  31.336  29.982  1.00  0.00     0.029 A 
ATOM     19  N   UNL A   1      42.228  30.030  29.794  1.00  0.00    -0.354 N 
ATOM     20  C   UNL A   1      41.913  25.991  28.295  1.00  0.00     0.074 A 
ATOM     21  C   UNL A   1      40.547  25.663  27.947  1.00  0.00     0.031 C 
ATOM     22  C   UNL A   1      41.485  32.069  30.342  1.00  0.00     0.029 A 
ATOM     23  C   UNL A   1      42.685  31.244  30.245  1.00  0.00     0.049 A 
ATOM     24  H   UNL A   1      42.814  29.252  29.647  1.00  0.00     0.167 HD
ATOM     25  C   UNL A   1      42.963  25.145  28.158  1.00  0.00     0.037 A 
ATOM     26  C   UNL A   1      43.931  31.656  30.549  1.00  0.00     0.037 A 
ATOM     27  C   UNL A   1      44.324  25.483  28.489  1.00  0.00     0.049 A 
ATOM     28  C   UNL A   1      45.077  30.701  30.394  1.00  0.00     0.074 A 
ATOM     29  C   UNL A   1      45.458  24.694  28.382  1.00  0.00     0.029 A 
ATOM     30  N   UNL A   1      44.741  26.710  28.984  1.00  0.00    -0.354 N 
ATOM     31  N   UNL A   1      45.059  29.463  29.961  1.00  0.00    -0.248 NA
ATOM     32  C   UNL A   1      46.406  31.192  30.774  1.00  0.00     0.031 C 
ATOM     33  C   UNL A   1      46.553  25.434  28.841  1.00  0.00     0.029 A 
ATOM     34  C   UNL A   1      46.111  26.698  29.197  1.00  0.00     0.049 A 
ATOM     35  H   UNL A   1      44.149  27.479  29.159  1.00  0.00     0.167 HD
ATOM     36  C   UNL A   1      46.377  29.027  30.013  1.00  0.00     0.074 A 
ATOM     37  C   UNL A   1      47.167  30.140  30.500  1.00  0.00     0.031 C 
ATOM     38  C   UNL A   1      46.883  27.811  29.690  1.00  0.00     0.037 A 
BRANCH  25  39
ATOM     39  C   UNL A   1      42.684  23.762  27.637  1.00  0.00     0.058 A 
ATOM     40  C   UNL A   1      42.517  22.684  28.521  1.00  0.00     0.135 A 
ATOM     41  C   UNL A   1      42.624  23.492  26.259  1.00  0.00     0.135 A 
ATOM     42  F   UNL A   1      42.560  22.884  29.847  1.00  0.00    -0.206 F 
ATOM     43  C   UNL A   1      42.305  21.388  28.060  1.00  0.00     0.059 A 
ATOM     44  C   UNL A   1      42.391  22.208  25.775  1.00  0.00     0.059 A 
ATOM     45  F   UNL A   1      42.756  24.490  25.371  1.00  0.00    -0.206 F 
ATOM     46  C   UNL A   1      42.243  21.159  26.683  1.00  0.00     0.060 A 
BRANCH  46  47
ATOM     47  S   UNL A   1      41.909  19.483  26.098  1.00  0.00     0.124 S 
ATOM     48  O   UNL A   1      42.329  18.678  27.239  1.00  0.00    -0.237 OA
ATOM     49  O   UNL A   1      40.472  19.526  25.842  1.00  0.00    -0.237 OA
ATOM     50  O   UNL A   1      42.742  19.372  24.905  1.00  0.00    -0.744 OA
ENDBRANCH  46  47
ENDBRANCH  25  39
BRANCH  26  51
ATOM     51  C   UNL A   1      44.137  33.053  31.009  1.00  0.00     0.058 A 
ATOM     52  C   UNL A   1      43.952  33.407  32.354  1.00  0.00     0.135 A 
ATOM     53  C   UNL A   1      44.438  34.075  30.097  1.00  0.00     0.135 A 
ATOM     54  F   UNL A   1      43.651  32.466  33.262  1.00  0.00    -0.206 F 
ATOM     55  C   UNL A   1      44.015  34.730  32.772  1.00  0.00     0.059 A 
ATOM     56  C   UNL A   1      44.530  35.404  30.496  1.00  0.00     0.059 A 
ATOM     57  F   UNL A   1      44.633  33.781  28.802  1.00  0.00    -0.206 F 
ATOM     58  C   UNL A   1      44.292  35.723  31.833  1.00  0.00     0.060 A 
BRANCH  58  59
ATOM     59  S   UNL A   1      44.321  37.442  32.386  1.00  0.00     0.124 S 
ATOM     60  O   UNL A   1      43.896  38.142  31.177  1.00  0.00    -0.237 OA
ATOM     61  O   UNL A   1      43.360  37.428  33.484  1.00  0.00    -0.237 OA
ATOM     62  O   UNL A   1      45.713  37.647  32.775  1.00  0.00    -0.744 OA
ENDBRANCH  58  59
ENDBRANCH  26  51
BRANCH  38  63
ATOM     63  C   UNL A   1      48.364  27.618  29.847  1.00  0.00     0.058 A 
ATOM     64  C   UNL A   1      49.238  27.919  28.791  1.00  0.00     0.135 A 
ATOM     65  C   UNL A   1      48.912  27.087  31.024  1.00  0.00     0.135 A 
ATOM     66  F   UNL A   1      48.763  28.428  27.643  1.00  0.00    -0.206 F 
ATOM     67  C   UNL A   1      50.606  27.690  28.893  1.00  0.00     0.059 A 
ATOM     68  C   UNL A   1      50.281  26.869  31.156  1.00  0.00     0.059 A 
ATOM     69  F   UNL A   1      48.119  26.795  32.068  1.00  0.00    -0.206 F 
ATOM     70  C   UNL A   1      51.117  27.162  30.079  1.00  0.00     0.060 A 
BRANCH  70  71
ATOM     71  S   UNL A   1      52.898  26.894  30.206  1.00  0.00     0.124 S 
ATOM     72  O   UNL A   1      53.383  28.242  30.482  1.00  0.00    -0.237 OA
ATOM     73  O   UNL A   1      52.993  25.947  31.313  1.00  0.00    -0.237 OA
ATOM     74  O   UNL A   1      53.253  26.353  28.897  1.00  0.00    -0.744 OA
ENDBRANCH  70  71
ENDBRANCH  38  63
ENDBRANCH  12  13
ENDBRANCH   5   7
ENDBRANCH   2   3
ENDBRANCH   1   2
BRANCH   1  75
ATOM     75  C   UNL A   1      32.059  26.538  26.782  1.00  0.00     0.023 C 
BRANCH  75  76
ATOM     76  C   UNL A   1      30.651  26.113  26.380  1.00  0.00     0.116 C 
BRANCH  76  77
ATOM     77  N   UNL A   1      30.612  25.152  25.286  1.00  0.00    -0.352 N 
ATOM     78  C   UNL A   1      30.528  25.381  23.932  1.00  0.00     0.255 C 
ATOM     79  H   UNL A   1      30.653  24.205  25.553  1.00  0.00     0.163 HD
ATOM     80  O   UNL A   1      30.430  24.452  23.138  1.00  0.00    -0.269 OA
BRANCH  78  81
ATOM     81  C   UNL A   1      30.545  26.768  23.438  1.00  0.00     0.083 A 
ATOM     82  C   UNL A   1      29.333  27.465  23.328  1.00  0.00     0.033 A 
ATOM     83  C   UNL A   1      31.740  27.400  23.078  1.00  0.00     0.144 A 
ATOM     84  C   UNL A   1      29.318  28.738  22.763  1.00  0.00     0.019 A 
ATOM     85  C   UNL A   1      31.722  28.685  22.532  1.00  0.00     0.049 A 
ATOM     86  Br  UNL A   1      27.672  29.639  22.538  1.00  0.00    -0.051 Br
ATOM     87  C   UNL A   1      30.504  29.343  22.347  1.00  0.00     0.019 A 
BRANCH  83  88
ATOM     88  O   UNL A   1      33.007  26.866  23.360  1.00  0.00    -0.422 OA
BRANCH  88  89
ATOM     89  C   UNL A   1      33.474  25.858  22.540  1.00  0.00     0.343 C 
ATOM     90  O   UNL A   1      33.470  25.845  21.314  1.00  0.00    -0.246 OA
BRANCH  89  91
ATOM     91  C   UNL A   1      34.022  24.761  23.384  1.00  0.00     0.060 A 
ATOM     92  C   UNL A   1      34.006  23.422  22.956  1.00  0.00     0.019 A 
ATOM     93  C   UNL A   1      34.531  25.077  24.652  1.00  0.00     0.019 A 
ATOM     94  C   UNL A   1      34.492  22.414  23.792  1.00  0.00     0.040 A 
ATOM     95  C   UNL A   1      35.022  24.065  25.482  1.00  0.00     0.040 A 
ATOM     96  C   UNL A   1      34.995  22.744  25.046  1.00  0.00     0.123 A 
ATOM     97  F   UNL A   1      35.452  21.771  25.845  1.00  0.00    -0.207 F 
ENDBRANCH  89  91
ENDBRANCH  88  89
ENDBRANCH  83  88
ENDBRANCH  78  81
ENDBRANCH  76  77
ENDBRANCH  75  76
ENDBRANCH   1  75
TORSDOF 17
ENDMDL
MODEL 3
REMARK VINA RESULT:     -12.0      6.424      8.961
REMARK SMILES O=C(NCCCCNC(=O)c1cc(Br)ccc1OC(=O)c1ccc(F)cc1)c1ccc(-c2c3nc(c(-c4c(F)cc(S(=O)(=O)[O-])cc4F)c4ccc([nH]4)c(-c4c(F)cc(S(=O)(=O)[O-])cc4F)c4nc(c(-c5c(F)cc(S(=O)(=O)[O-])cc5F)c5ccc2[nH]5)C=C4)C=C3)cc1
REMARK SMILES IDX 5 1 4 2 3 3 1 4 2 5 28 7 29 8 93 9 30 10 92 11 31 12 32 13
REMARK SMILES IDX 33 14 86 15 34 16 91 17 85 18 87 19 35 20 90 21 84 22 83 23
REMARK SMILES IDX 36 25 70 26 49 27 69 28 50 29 53 30 68 31 88 32 51 33 52 34
REMARK SMILES IDX 67 36 89 37 54 38 37 39 38 40 47 41 39 42 40 43 46 44 48 45
REMARK SMILES IDX 41 46 42 47 43 48 44 49 45 50 71 51 72 52 81 53 73 54 74 55
REMARK SMILES IDX 80 56 82 57 75 58 76 59 77 60 78 61 79 62 55 63 56 64 65 65
REMARK SMILES IDX 57 66 58 67 64 68 66 69 59 70 60 71 61 72 62 73 63 74 6 75
REMARK SMILES IDX 7 76 8 77 9 78 10 80 11 81 12 82 17 83 13 84 16 85 14 86
REMARK SMILES IDX 15 87 18 88 19 89 20 90 21 91 22 92 27 93 23 94 26 95 24 96
REMARK SMILES IDX 25 97
REMARK H PARENT 3 6 87 24 53 35 8 79
REMARK Flexibility Score: inf
ROOT
ATOM      1  C   UNL A   1      40.068  21.663  26.819  1.00  0.00     0.023 C 
ENDROOT
BRANCH   1   2
ATOM      2  C   UNL A   1      40.142  23.132  27.209  1.00  0.00     0.116 C 
BRANCH   2   3
ATOM      3  N   UNL A   1      40.624  24.003  26.145  1.00  0.00    -0.352 N 
ATOM      4  O   UNL A   1      41.282  25.928  25.168  1.00  0.00    -0.269 OA
ATOM      5  C   UNL A   1      40.964  25.336  26.195  1.00  0.00     0.251 C 
ATOM      6  H   UNL A   1      40.721  23.577  25.264  1.00  0.00     0.163 HD
BRANCH   5   7
ATOM      7  C   UNL A   1      40.897  26.064  27.483  1.00  0.00     0.039 A 
ATOM      8  C   UNL A   1      39.780  25.946  28.312  1.00  0.00     0.014 A 
ATOM      9  C   UNL A   1      41.948  26.914  27.841  1.00  0.00     0.014 A 
ATOM     10  C   UNL A   1      39.628  26.817  29.384  1.00  0.00     0.010 A 
ATOM     11  C   UNL A   1      41.835  27.719  28.980  1.00  0.00     0.010 A 
ATOM     12  C   UNL A   1      40.650  27.718  29.731  1.00  0.00    -0.014 A 
BRANCH  12  13
ATOM     13  C   UNL A   1      40.448  28.627  30.890  1.00  0.00     0.031 A 
ATOM     14  C   UNL A   1      41.371  28.592  32.080  1.00  0.00     0.074 A 
ATOM     15  C   UNL A   1      39.463  29.545  30.830  1.00  0.00     0.049 A 
ATOM     16  N   UNL A   1      41.372  29.358  33.142  1.00  0.00    -0.248 NA
ATOM     17  C   UNL A   1      42.423  27.563  32.087  1.00  0.00     0.031 C 
ATOM     18  C   UNL A   1      38.504  29.674  29.729  1.00  0.00     0.029 A 
ATOM     19  N   UNL A   1      39.127  30.564  31.684  1.00  0.00    -0.354 N 
ATOM     20  C   UNL A   1      42.408  28.899  33.947  1.00  0.00     0.074 A 
ATOM     21  C   UNL A   1      42.997  27.766  33.266  1.00  0.00     0.031 C 
ATOM     22  C   UNL A   1      37.737  30.753  29.940  1.00  0.00     0.029 A 
ATOM     23  C   UNL A   1      38.106  31.356  31.217  1.00  0.00     0.049 A 
ATOM     24  H   UNL A   1      39.574  30.713  32.548  1.00  0.00     0.167 HD
ATOM     25  C   UNL A   1      42.836  29.384  35.138  1.00  0.00     0.037 A 
ATOM     26  C   UNL A   1      37.526  32.447  31.751  1.00  0.00     0.037 A 
ATOM     27  C   UNL A   1      42.257  30.524  35.804  1.00  0.00     0.049 A 
ATOM     28  C   UNL A   1      38.013  32.964  33.072  1.00  0.00     0.074 A 
ATOM     29  C   UNL A   1      42.623  31.094  37.012  1.00  0.00     0.029 A 
ATOM     30  N   UNL A   1      41.195  31.273  35.318  1.00  0.00    -0.354 N 
ATOM     31  N   UNL A   1      38.988  32.507  33.821  1.00  0.00    -0.248 NA
ATOM     32  C   UNL A   1      37.321  34.134  33.624  1.00  0.00     0.031 C 
ATOM     33  C   UNL A   1      41.764  32.167  37.271  1.00  0.00     0.029 A 
ATOM     34  C   UNL A   1      40.887  32.293  36.205  1.00  0.00     0.049 A 
ATOM     35  H   UNL A   1      40.728  31.106  34.467  1.00  0.00     0.167 HD
ATOM     36  C   UNL A   1      39.030  33.338  34.933  1.00  0.00     0.074 A 
ATOM     37  C   UNL A   1      37.995  34.336  34.749  1.00  0.00     0.031 C 
ATOM     38  C   UNL A   1      39.849  33.274  36.012  1.00  0.00     0.037 A 
BRANCH  25  39
ATOM     39  C   UNL A   1      43.983  28.679  35.810  1.00  0.00     0.058 A 
ATOM     40  C   UNL A   1      43.749  27.605  36.683  1.00  0.00     0.135 A 
ATOM     41  C   UNL A   1      45.313  29.094  35.624  1.00  0.00     0.135 A 
ATOM     42  F   UNL A   1      42.500  27.164  36.894  1.00  0.00    -0.206 F 
ATOM     43  C   UNL A   1      44.791  26.969  37.352  1.00  0.00     0.059 A 
ATOM     44  C   UNL A   1      46.372  28.458  36.266  1.00  0.00     0.059 A 
ATOM     45  F   UNL A   1      45.593  30.103  34.785  1.00  0.00    -0.206 F 
ATOM     46  C   UNL A   1      46.101  27.402  37.136  1.00  0.00     0.060 A 
BRANCH  46  47
ATOM     47  S   UNL A   1      47.449  26.531  37.964  1.00  0.00     0.124 S 
ATOM     48  O   UNL A   1      47.786  25.502  36.988  1.00  0.00    -0.237 OA
ATOM     49  O   UNL A   1      48.438  27.590  38.143  1.00  0.00    -0.237 OA
ATOM     50  O   UNL A   1      46.832  26.053  39.198  1.00  0.00    -0.744 OA
ENDBRANCH  46  47
ENDBRANCH  25  39
BRANCH  26  51
ATOM     51  C   UNL A   1      36.433  33.121  31.005  1.00  0.00     0.058 A 
ATOM     52  C   UNL A   1      36.704  33.895  29.867  1.00  0.00     0.135 A 
ATOM     53  C   UNL A   1      35.110  33.074  31.468  1.00  0.00     0.135 A 
ATOM     54  F   UNL A   1      37.957  33.981  29.394  1.00  0.00    -0.206 F 
ATOM     55  C   UNL A   1      35.710  34.635  29.239  1.00  0.00     0.059 A 
ATOM     56  C   UNL A   1      34.093  33.787  30.841  1.00  0.00     0.059 A 
ATOM     57  F   UNL A   1      34.803  32.338  32.548  1.00  0.00    -0.206 F 
ATOM     58  C   UNL A   1      34.409  34.584  29.741  1.00  0.00     0.060 A 
BRANCH  58  59
ATOM     59  S   UNL A   1      33.141  35.590  28.940  1.00  0.00     0.124 S 
ATOM     60  O   UNL A   1      33.954  36.600  28.271  1.00  0.00    -0.237 OA
ATOM     61  O   UNL A   1      32.486  34.621  28.068  1.00  0.00    -0.237 OA
ATOM     62  O   UNL A   1      32.336  36.070  30.059  1.00  0.00    -0.744 OA
ENDBRANCH  58  59
ENDBRANCH  26  51
BRANCH  38  63
ATOM     63  C   UNL A   1      39.666  34.317  37.078  1.00  0.00     0.058 A 
ATOM     64  C   UNL A   1      40.350  35.540  37.004  1.00  0.00     0.135 A 
ATOM     65  C   UNL A   1      38.854  34.083  38.198  1.00  0.00     0.135 A 
ATOM     66  F   UNL A   1      41.141  35.811  35.953  1.00  0.00    -0.206 F 
ATOM     67  C   UNL A   1      40.243  36.494  38.010  1.00  0.00     0.059 A 
ATOM     68  C   UNL A   1      38.715  35.032  39.207  1.00  0.00     0.059 A 
ATOM     69  F   UNL A   1      38.169  32.934  38.308  1.00  0.00    -0.206 F 
ATOM     70  C   UNL A   1      39.426  36.229  39.110  1.00  0.00     0.060 A 
BRANCH  70  71
ATOM     71  S   UNL A   1      39.277  37.487  40.397  1.00  0.00     0.124 S 
ATOM     72  O   UNL A   1      38.968  36.677  41.571  1.00  0.00    -0.237 OA
ATOM     73  O   UNL A   1      40.599  38.105  40.382  1.00  0.00    -0.237 OA
ATOM     74  O   UNL A   1      38.191  38.336  39.915  1.00  0.00    -0.744 OA
ENDBRANCH  70  71
ENDBRANCH  38  63
ENDBRANCH  12  13
ENDBRANCH   5   7
ENDBRANCH   2   3
ENDBRANCH   1   2
BRANCH   1  75
ATOM     75  C   UNL A   1      38.990  21.302  25.804  1.00  0.00     0.023 C 
BRANCH  75  76
ATOM     76  C   UNL A   1      37.782  22.232  25.765  1.00  0.00     0.116 C 
BRANCH  76  77
ATOM     77  N   UNL A   1      37.461  22.730  24.435  1.00  0.00    -0.352 N 
ATOM     78  C   UNL A   1      36.250  22.749  23.783  1.00  0.00     0.255 C 
ATOM     79  H   UNL A   1      38.219  23.107  23.930  1.00  0.00     0.163 HD
ATOM     80  O   UNL A   1      36.160  23.139  22.624  1.00  0.00    -0.269 OA
BRANCH  78  81
ATOM     81  C   UNL A   1      35.047  22.281  24.493  1.00  0.00     0.083 A 
ATOM     82  C   UNL A   1      34.729  20.916  24.461  1.00  0.00     0.033 A 
ATOM     83  C   UNL A   1      34.223  23.167  25.194  1.00  0.00     0.144 A 
ATOM     84  C   UNL A   1      33.541  20.472  25.036  1.00  0.00     0.019 A 
ATOM     85  C   UNL A   1      33.043  22.712  25.787  1.00  0.00     0.049 A 
ATOM     86  Br  UNL A   1      33.073  18.644  24.917  1.00  0.00    -0.051 Br
ATOM     87  C   UNL A   1      32.687  21.367  25.682  1.00  0.00     0.019 A 
BRANCH  83  88
ATOM     88  O   UNL A   1      34.577  24.498  25.463  1.00  0.00    -0.422 OA
BRANCH  88  89
ATOM     89  C   UNL A   1      34.007  25.484  24.683  1.00  0.00     0.343 C 
ATOM     90  O   UNL A   1      34.092  25.599  23.465  1.00  0.00    -0.246 OA
BRANCH  89  91
ATOM     91  C   UNL A   1      33.231  26.405  25.556  1.00  0.00     0.060 A 
ATOM     92  C   UNL A   1      33.828  27.523  26.165  1.00  0.00     0.019 A 
ATOM     93  C   UNL A   1      31.879  26.124  25.801  1.00  0.00     0.019 A 
ATOM     94  C   UNL A   1      33.078  28.344  27.011  1.00  0.00     0.040 A 
ATOM     95  C   UNL A   1      31.131  26.952  26.643  1.00  0.00     0.040 A 
ATOM     96  C   UNL A   1      31.738  28.051  27.242  1.00  0.00     0.123 A 
ATOM     97  F   UNL A   1      31.027  28.838  28.060  1.00  0.00    -0.207 F 
ENDBRANCH  89  91
ENDBRANCH  88  89
ENDBRANCH  83  88
ENDBRANCH  78  81
ENDBRANCH  76  77
ENDBRANCH  75  76
ENDBRANCH   1  75
TORSDOF 17
ENDMDL
