MODEL 1
REMARK VINA RESULT:     -11.3      0.000      0.000
REMARK SMILES O=C(NCCCCNC(=O)c1cncc(Oc2cc(F)ccc2F)n1)c1ccc(-c2c3nc(c(-c4c(F)cc(S(=O)(=O)[O-])cc4F)c4ccc([nH]4)c(-c4c(F)cc(S(=O)(=O)[O-])cc4F)c4nc(c(-c5c(F)cc(S(=O)(=O)[O-])cc5F)c5ccc2[nH]5)C=C4)C=C3)cc1
REMARK SMILES IDX 5 1 4 2 3 3 1 4 2 5 26 7 27 8 91 9 28 10 90 11 29 12 30 13
REMARK SMILES IDX 31 14 84 15 32 16 89 17 83 18 85 19 33 20 88 21 82 22 81 23
REMARK SMILES IDX 34 25 68 26 47 27 67 28 48 29 51 30 66 31 86 32 49 33 50 34
REMARK SMILES IDX 65 36 87 37 52 38 35 39 36 40 45 41 37 42 38 43 44 44 46 45
REMARK SMILES IDX 39 46 40 47 41 48 42 49 43 50 69 51 70 52 79 53 71 54 72 55
REMARK SMILES IDX 78 56 80 57 73 58 74 59 75 60 76 61 77 62 53 63 54 64 63 65
REMARK SMILES IDX 55 66 56 67 62 68 64 69 57 70 58 71 59 72 60 73 61 74 6 75
REMARK SMILES IDX 7 76 8 77 9 78 10 80 11 81 12 82 25 83 13 84 15 85 14 86
REMARK SMILES IDX 16 87 17 88 18 89 23 90 19 91 22 92 24 93 20 94 21 95
REMARK H PARENT 3 6 85 24 51 35 8 79
REMARK Flexibility Score: inf
ROOT
ATOM      1  C   UNL A   1      45.124  24.989  27.097  1.00  0.00     0.023 C 
ENDROOT
BRANCH   1   2
ATOM      2  C   UNL A   1      43.752  24.330  27.184  1.00  0.00     0.116 C 
BRANCH   2   3
ATOM      3  N   UNL A   1      42.870  24.724  26.098  1.00  0.00    -0.352 N 
ATOM      4  O   UNL A   1      41.090  25.723  25.143  1.00  0.00    -0.269 OA
ATOM      5  C   UNL A   1      41.830  25.623  26.118  1.00  0.00     0.251 C 
ATOM      6  H   UNL A   1      43.040  24.289  25.231  1.00  0.00     0.163 HD
BRANCH   5   7
ATOM      7  C   UNL A   1      41.598  26.451  27.320  1.00  0.00     0.039 A 
ATOM      8  C   UNL A   1      42.315  27.635  27.519  1.00  0.00     0.014 A 
ATOM      9  C   UNL A   1      40.637  26.048  28.253  1.00  0.00     0.014 A 
ATOM     10  C   UNL A   1      42.153  28.355  28.698  1.00  0.00     0.010 A 
ATOM     11  C   UNL A   1      40.421  26.813  29.402  1.00  0.00     0.010 A 
ATOM     12  C   UNL A   1      41.185  27.966  29.638  1.00  0.00    -0.014 A 
BRANCH  12  13
ATOM     13  C   UNL A   1      40.900  28.850  30.795  1.00  0.00     0.031 A 
ATOM     14  C   UNL A   1      39.786  29.856  30.759  1.00  0.00     0.074 A 
ATOM     15  C   UNL A   1      41.687  28.738  31.883  1.00  0.00     0.049 A 
ATOM     16  N   UNL A   1      39.433  30.719  31.677  1.00  0.00    -0.248 NA
ATOM     17  C   UNL A   1      38.962  29.909  29.541  1.00  0.00     0.031 C 
ATOM     18  C   UNL A   1      42.818  27.812  32.012  1.00  0.00     0.029 A 
ATOM     19  N   UNL A   1      41.668  29.400  33.084  1.00  0.00    -0.354 N 
ATOM     20  C   UNL A   1      38.367  31.433  31.144  1.00  0.00     0.074 A 
ATOM     21  C   UNL A   1      38.131  30.908  29.816  1.00  0.00     0.031 C 
ATOM     22  C   UNL A   1      43.372  27.956  33.223  1.00  0.00     0.029 A 
ATOM     23  C   UNL A   1      42.678  29.021  33.936  1.00  0.00     0.049 A 
ATOM     24  H   UNL A   1      40.995  30.082  33.313  1.00  0.00     0.167 HD
ATOM     25  C   UNL A   1      37.656  32.433  31.718  1.00  0.00     0.037 A 
ATOM     26  C   UNL A   1      43.036  29.503  35.141  1.00  0.00     0.037 A 
ATOM     27  C   UNL A   1      37.886  32.923  33.055  1.00  0.00     0.049 A 
ATOM     28  C   UNL A   1      42.240  30.625  35.739  1.00  0.00     0.074 A 
ATOM     29  C   UNL A   1      37.154  33.863  33.761  1.00  0.00     0.029 A 
ATOM     30  N   UNL A   1      38.928  32.528  33.880  1.00  0.00    -0.354 N 
ATOM     31  N   UNL A   1      41.183  31.231  35.252  1.00  0.00    -0.248 NA
ATOM     32  C   UNL A   1      42.688  31.140  37.038  1.00  0.00     0.031 C 
ATOM     33  C   UNL A   1      37.786  34.077  34.991  1.00  0.00     0.029 A 
ATOM     34  C   UNL A   1      38.886  33.239  35.069  1.00  0.00     0.049 A 
ATOM     35  H   UNL A   1      39.600  31.845  33.653  1.00  0.00     0.167 HD
ATOM     36  C   UNL A   1      40.840  32.199  36.187  1.00  0.00     0.074 A 
ATOM     37  C   UNL A   1      41.783  32.079  37.281  1.00  0.00     0.031 C 
ATOM     38  C   UNL A   1      39.840  33.112  36.140  1.00  0.00     0.037 A 
BRANCH  25  39
ATOM     39  C   UNL A   1      36.562  33.087  30.921  1.00  0.00     0.058 A 
ATOM     40  C   UNL A   1      35.207  32.882  31.219  1.00  0.00     0.135 A 
ATOM     41  C   UNL A   1      36.880  34.024  29.924  1.00  0.00     0.135 A 
ATOM     42  F   UNL A   1      34.848  31.990  32.155  1.00  0.00    -0.206 F 
ATOM     43  C   UNL A   1      34.205  33.585  30.559  1.00  0.00     0.059 A 
ATOM     44  C   UNL A   1      35.895  34.751  29.263  1.00  0.00     0.059 A 
ATOM     45  F   UNL A   1      38.162  34.256  29.600  1.00  0.00    -0.206 F 
ATOM     46  C   UNL A   1      34.559  34.525  29.587  1.00  0.00     0.060 A 
BRANCH  46  47
ATOM     47  S   UNL A   1      33.247  35.468  28.779  1.00  0.00     0.124 S 
ATOM     48  O   UNL A   1      32.519  35.999  29.928  1.00  0.00    -0.237 OA
ATOM     49  O   UNL A   1      34.002  36.446  28.001  1.00  0.00    -0.237 OA
ATOM     50  O   UNL A   1      32.537  34.463  27.996  1.00  0.00    -0.744 OA
ENDBRANCH  46  47
ENDBRANCH  25  39
BRANCH  26  51
ATOM     51  C   UNL A   1      44.234  28.959  35.830  1.00  0.00     0.058 A 
ATOM     52  C   UNL A   1      45.503  29.521  35.637  1.00  0.00     0.135 A 
ATOM     53  C   UNL A   1      44.128  27.862  36.700  1.00  0.00     0.135 A 
ATOM     54  F   UNL A   1      45.655  30.569  34.814  1.00  0.00    -0.206 F 
ATOM     55  C   UNL A   1      46.631  29.001  36.266  1.00  0.00     0.059 A 
ATOM     56  C   UNL A   1      45.234  27.342  37.360  1.00  0.00     0.059 A 
ATOM     57  F   UNL A   1      42.931  27.300  36.932  1.00  0.00    -0.206 F 
ATOM     58  C   UNL A   1      46.486  27.909  37.122  1.00  0.00     0.060 A 
BRANCH  58  59
ATOM     59  S   UNL A   1      47.948  27.252  37.953  1.00  0.00     0.124 S 
ATOM     60  O   UNL A   1      49.014  27.710  37.072  1.00  0.00    -0.237 OA
ATOM     61  O   UNL A   1      47.878  27.897  39.261  1.00  0.00    -0.237 OA
ATOM     62  O   UNL A   1      47.707  25.812  37.963  1.00  0.00    -0.744 OA
ENDBRANCH  58  59
ENDBRANCH  26  51
BRANCH  38  63
ATOM     63  C   UNL A   1      39.723  34.057  37.300  1.00  0.00     0.058 A 
ATOM     64  C   UNL A   1      40.328  35.322  37.271  1.00  0.00     0.135 A 
ATOM     65  C   UNL A   1      38.959  33.716  38.428  1.00  0.00     0.135 A 
ATOM     66  F   UNL A   1      41.079  35.689  36.220  1.00  0.00    -0.206 F 
ATOM     67  C   UNL A   1      40.192  36.215  38.329  1.00  0.00     0.059 A 
ATOM     68  C   UNL A   1      38.790  34.602  39.486  1.00  0.00     0.059 A 
ATOM     69  F   UNL A   1      38.356  32.518  38.500  1.00  0.00    -0.206 F 
ATOM     70  C   UNL A   1      39.418  35.846  39.431  1.00  0.00     0.060 A 
BRANCH  70  71
ATOM     71  S   UNL A   1      39.212  37.031  40.777  1.00  0.00     0.124 S 
ATOM     72  O   UNL A   1      40.578  37.507  40.961  1.00  0.00    -0.237 OA
ATOM     73  O   UNL A   1      38.276  37.995  40.206  1.00  0.00    -0.237 OA
ATOM     74  O   UNL A   1      38.678  36.218  41.866  1.00  0.00    -0.744 OA
ENDBRANCH  70  71
ENDBRANCH  38  63
ENDBRANCH  12  13
ENDBRANCH   5   7
ENDBRANCH   2   3
ENDBRANCH   1   2
BRANCH   1  75
ATOM     75  C   UNL A   1      46.258  24.081  26.624  1.00  0.00     0.023 C 
BRANCH  75  76
ATOM     76  C   UNL A   1      45.825  22.702  26.134  1.00  0.00     0.116 C 
BRANCH  76  77
ATOM     77  N   UNL A   1      45.412  22.706  24.740  1.00  0.00    -0.351 N 
ATOM     78  C   UNL A   1      44.612  21.802  24.078  1.00  0.00     0.271 C 
ATOM     79  H   UNL A   1      45.749  23.455  24.198  1.00  0.00     0.163 HD
ATOM     80  O   UNL A   1      44.395  21.925  22.877  1.00  0.00    -0.267 OA
BRANCH  78  81
ATOM     81  C   UNL A   1      43.994  20.694  24.837  1.00  0.00     0.150 A 
ATOM     82  C   UNL A   1      44.466  19.399  24.662  1.00  0.00     0.145 A 
ATOM     83  N   UNL A   1      42.942  20.998  25.637  1.00  0.00    -0.205 NA
ATOM     84  N   UNL A   1      43.877  18.331  25.254  1.00  0.00    -0.257 NA
ATOM     85  C   UNL A   1      42.374  19.937  26.251  1.00  0.00     0.238 A 
ATOM     86  C   UNL A   1      42.818  18.634  26.049  1.00  0.00     0.179 A 
BRANCH  85  87
ATOM     87  O   UNL A   1      41.270  20.103  27.077  1.00  0.00    -0.434 OA
BRANCH  87  88
ATOM     88  C   UNL A   1      40.276  20.928  26.610  1.00  0.00     0.168 A 
ATOM     89  C   UNL A   1      39.318  20.470  25.706  1.00  0.00     0.089 A 
ATOM     90  C   UNL A   1      40.177  22.216  27.138  1.00  0.00     0.166 A 
ATOM     91  C   UNL A   1      38.294  21.328  25.317  1.00  0.00     0.127 A 
ATOM     92  C   UNL A   1      39.145  23.068  26.750  1.00  0.00     0.046 A 
ATOM     93  F   UNL A   1      41.071  22.645  28.042  1.00  0.00    -0.203 F 
ATOM     94  F   UNL A   1      37.373  20.899  24.445  1.00  0.00    -0.207 F 
ATOM     95  C   UNL A   1      38.198  22.621  25.829  1.00  0.00     0.042 A 
ENDBRANCH  87  88
ENDBRANCH  85  87
ENDBRANCH  78  81
ENDBRANCH  76  77
ENDBRANCH  75  76
ENDBRANCH   1  75
TORSDOF 16
ENDMDL
MODEL 2
REMARK VINA RESULT:     -11.2      5.226     11.098
REMARK SMILES O=C(NCCCCNC(=O)c1cncc(Oc2cc(F)ccc2F)n1)c1ccc(-c2c3nc(c(-c4c(F)cc(S(=O)(=O)[O-])cc4F)c4ccc([nH]4)c(-c4c(F)cc(S(=O)(=O)[O-])cc4F)c4nc(c(-c5c(F)cc(S(=O)(=O)[O-])cc5F)c5ccc2[nH]5)C=C4)C=C3)cc1
REMARK SMILES IDX 5 1 4 2 3 3 1 4 2 5 26 7 27 8 91 9 28 10 90 11 29 12 30 13
REMARK SMILES IDX 31 14 84 15 32 16 89 17 83 18 85 19 33 20 88 21 82 22 81 23
REMARK SMILES IDX 34 25 68 26 47 27 67 28 48 29 51 30 66 31 86 32 49 33 50 34
REMARK SMILES IDX 65 36 87 37 52 38 35 39 36 40 45 41 37 42 38 43 44 44 46 45
REMARK SMILES IDX 39 46 40 47 41 48 42 49 43 50 69 51 70 52 79 53 71 54 72 55
REMARK SMILES IDX 78 56 80 57 73 58 74 59 75 60 76 61 77 62 53 63 54 64 63 65
REMARK SMILES IDX 55 66 56 67 62 68 64 69 57 70 58 71 59 72 60 73 61 74 6 75
REMARK SMILES IDX 7 76 8 77 9 78 10 80 11 81 12 82 25 83 13 84 15 85 14 86
REMARK SMILES IDX 16 87 17 88 18 89 23 90 19 91 22 92 24 93 20 94 21 95
REMARK H PARENT 3 6 85 24 51 35 8 79
REMARK Flexibility Score: inf
ROOT
ATOM      1  C   UNL A   1      33.922  27.991  25.778  1.00  0.00     0.023 C 
ENDROOT
BRANCH   1   2
ATOM      2  C   UNL A   1      33.657  28.290  27.249  1.00  0.00     0.116 C 
BRANCH   2   3
ATOM      3  N   UNL A   1      33.487  29.710  27.512  1.00  0.00    -0.352 N 
ATOM      4  O   UNL A   1      34.026  31.735  28.340  1.00  0.00    -0.269 OA
ATOM      5  C   UNL A   1      34.389  30.599  28.045  1.00  0.00     0.251 C 
ATOM      6  H   UNL A   1      32.608  30.085  27.275  1.00  0.00     0.163 HD
BRANCH   5   7
ATOM      7  C   UNL A   1      35.787  30.178  28.278  1.00  0.00     0.039 A 
ATOM      8  C   UNL A   1      36.737  30.267  27.256  1.00  0.00     0.014 A 
ATOM      9  C   UNL A   1      36.156  29.703  29.540  1.00  0.00     0.014 A 
ATOM     10  C   UNL A   1      38.024  29.782  27.461  1.00  0.00     0.010 A 
ATOM     11  C   UNL A   1      37.471  29.286  29.767  1.00  0.00     0.010 A 
ATOM     12  C   UNL A   1      38.411  29.311  28.726  1.00  0.00    -0.014 A 
BRANCH  12  13
ATOM     13  C   UNL A   1      39.835  28.974  28.971  1.00  0.00     0.031 A 
ATOM     14  C   UNL A   1      40.404  27.639  28.584  1.00  0.00     0.074 A 
ATOM     15  C   UNL A   1      40.608  29.901  29.572  1.00  0.00     0.049 A 
ATOM     16  N   UNL A   1      41.618  27.186  28.761  1.00  0.00    -0.248 NA
ATOM     17  C   UNL A   1      39.500  26.687  27.921  1.00  0.00     0.031 C 
ATOM     18  C   UNL A   1      40.148  31.221  30.016  1.00  0.00     0.029 A 
ATOM     19  N   UNL A   1      41.935  29.883  29.919  1.00  0.00    -0.354 N 
ATOM     20  C   UNL A   1      41.623  25.892  28.255  1.00  0.00     0.074 A 
ATOM     21  C   UNL A   1      40.286  25.627  27.768  1.00  0.00     0.031 C 
ATOM     22  C   UNL A   1      41.174  31.888  30.561  1.00  0.00     0.029 A 
ATOM     23  C   UNL A   1      42.349  31.025  30.560  1.00  0.00     0.049 A 
ATOM     24  H   UNL A   1      42.532  29.124  29.726  1.00  0.00     0.167 HD
ATOM     25  C   UNL A   1      42.653  25.014  28.204  1.00  0.00     0.037 A 
ATOM     26  C   UNL A   1      43.532  31.334  31.125  1.00  0.00     0.037 A 
ATOM     27  C   UNL A   1      43.988  25.308  28.665  1.00  0.00     0.049 A 
ATOM     28  C   UNL A   1      44.646  30.330  31.070  1.00  0.00     0.074 A 
ATOM     29  C   UNL A   1      45.121  24.519  28.565  1.00  0.00     0.029 A 
ATOM     30  N   UNL A   1      44.365  26.467  29.326  1.00  0.00    -0.354 N 
ATOM     31  N   UNL A   1      44.653  29.142  30.513  1.00  0.00    -0.248 NA
ATOM     32  C   UNL A   1      45.905  30.697  31.728  1.00  0.00     0.031 C 
ATOM     33  C   UNL A   1      46.171  25.179  29.214  1.00  0.00     0.029 A 
ATOM     34  C   UNL A   1      45.702  26.396  29.680  1.00  0.00     0.049 A 
ATOM     35  H   UNL A   1      43.769  27.227  29.516  1.00  0.00     0.167 HD
ATOM     36  C   UNL A   1      45.917  28.621  30.754  1.00  0.00     0.074 A 
ATOM     37  C   UNL A   1      46.657  29.632  31.481  1.00  0.00     0.031 C 
ATOM     38  C   UNL A   1      46.417  27.408  30.413  1.00  0.00     0.037 A 
BRANCH  25  39
ATOM     39  C   UNL A   1      42.403  23.643  27.641  1.00  0.00     0.058 A 
ATOM     40  C   UNL A   1      42.423  23.395  26.260  1.00  0.00     0.135 A 
ATOM     41  C   UNL A   1      42.259  22.543  28.503  1.00  0.00     0.135 A 
ATOM     42  F   UNL A   1      42.546  24.412  25.393  1.00  0.00    -0.206 F 
ATOM     43  C   UNL A   1      42.313  22.104  25.754  1.00  0.00     0.059 A 
ATOM     44  C   UNL A   1      42.166  21.241  28.019  1.00  0.00     0.059 A 
ATOM     45  F   UNL A   1      42.232  22.726  29.833  1.00  0.00    -0.206 F 
ATOM     46  C   UNL A   1      42.194  21.032  26.641  1.00  0.00     0.060 A 
BRANCH  46  47
ATOM     47  S   UNL A   1      42.109  19.358  25.968  1.00  0.00     0.124 S 
ATOM     48  O   UNL A   1      42.947  19.479  24.779  1.00  0.00    -0.237 OA
ATOM     49  O   UNL A   1      42.663  18.557  27.054  1.00  0.00    -0.237 OA
ATOM     50  O   UNL A   1      40.684  19.164  25.714  1.00  0.00    -0.744 OA
ENDBRANCH  46  47
ENDBRANCH  25  39
BRANCH  26  51
ATOM     51  C   UNL A   1      43.699  32.628  31.835  1.00  0.00     0.058 A 
ATOM     52  C   UNL A   1      43.436  32.746  33.206  1.00  0.00     0.135 A 
ATOM     53  C   UNL A   1      44.130  33.775  31.148  1.00  0.00     0.135 A 
ATOM     54  F   UNL A   1      43.020  31.678  33.904  1.00  0.00    -0.206 F 
ATOM     55  C   UNL A   1      43.572  33.961  33.870  1.00  0.00     0.059 A 
ATOM     56  C   UNL A   1      44.300  34.993  31.794  1.00  0.00     0.059 A 
ATOM     57  F   UNL A   1      44.413  33.708  29.838  1.00  0.00    -0.206 F 
ATOM     58  C   UNL A   1      44.001  35.080  33.154  1.00  0.00     0.060 A 
BRANCH  58  59
ATOM     59  S   UNL A   1      44.197  36.650  34.023  1.00  0.00     0.124 S 
ATOM     60  O   UNL A   1      43.653  37.590  33.052  1.00  0.00    -0.237 OA
ATOM     61  O   UNL A   1      43.399  36.440  35.227  1.00  0.00    -0.237 OA
ATOM     62  O   UNL A   1      45.638  36.730  34.245  1.00  0.00    -0.744 OA
ENDBRANCH  58  59
ENDBRANCH  26  51
BRANCH  38  63
ATOM     63  C   UNL A   1      47.828  27.109  30.831  1.00  0.00     0.058 A 
ATOM     64  C   UNL A   1      48.112  26.567  32.093  1.00  0.00     0.135 A 
ATOM     65  C   UNL A   1      48.897  27.320  29.946  1.00  0.00     0.135 A 
ATOM     66  F   UNL A   1      47.124  26.360  32.978  1.00  0.00    -0.206 F 
ATOM     67  C   UNL A   1      49.413  26.255  32.471  1.00  0.00     0.059 A 
ATOM     68  C   UNL A   1      50.203  26.992  30.295  1.00  0.00     0.059 A 
ATOM     69  F   UNL A   1      48.675  27.832  28.725  1.00  0.00    -0.206 F 
ATOM     70  C   UNL A   1      50.452  26.468  31.563  1.00  0.00     0.060 A 
BRANCH  70  71
ATOM     71  S   UNL A   1      52.130  26.017  32.049  1.00  0.00     0.124 S 
ATOM     72  O   UNL A   1      52.916  26.605  30.970  1.00  0.00    -0.237 OA
ATOM     73  O   UNL A   1      52.264  26.660  33.353  1.00  0.00    -0.237 OA
ATOM     74  O   UNL A   1      52.095  24.558  32.078  1.00  0.00    -0.744 OA
ENDBRANCH  70  71
ENDBRANCH  38  63
ENDBRANCH  12  13
ENDBRANCH   5   7
ENDBRANCH   2   3
ENDBRANCH   1   2
BRANCH   1  75
ATOM     75  C   UNL A   1      33.260  28.947  24.786  1.00  0.00     0.023 C 
BRANCH  75  76
ATOM     76  C   UNL A   1      32.215  28.313  23.871  1.00  0.00     0.116 C 
BRANCH  76  77
ATOM     77  N   UNL A   1      32.784  27.819  22.627  1.00  0.00    -0.351 N 
ATOM     78  C   UNL A   1      32.996  26.517  22.236  1.00  0.00     0.271 C 
ATOM     79  H   UNL A   1      33.053  28.510  21.979  1.00  0.00     0.163 HD
ATOM     80  O   UNL A   1      33.535  26.269  21.162  1.00  0.00    -0.267 OA
BRANCH  78  81
ATOM     81  C   UNL A   1      32.545  25.417  23.114  1.00  0.00     0.150 A 
ATOM     82  C   UNL A   1      31.263  24.903  22.962  1.00  0.00     0.145 A 
ATOM     83  N   UNL A   1      33.403  24.997  24.077  1.00  0.00    -0.205 NA
ATOM     84  N   UNL A   1      30.760  23.963  23.799  1.00  0.00    -0.257 NA
ATOM     85  C   UNL A   1      32.912  24.039  24.893  1.00  0.00     0.238 A 
ATOM     86  C   UNL A   1      31.615  23.548  24.769  1.00  0.00     0.179 A 
BRANCH  85  87
ATOM     87  O   UNL A   1      33.674  23.539  25.940  1.00  0.00    -0.434 OA
BRANCH  87  88
ATOM     88  C   UNL A   1      34.901  23.018  25.608  1.00  0.00     0.168 A 
ATOM     89  C   UNL A   1      36.075  23.742  25.813  1.00  0.00     0.089 A 
ATOM     90  C   UNL A   1      34.965  21.699  25.156  1.00  0.00     0.166 A 
ATOM     91  C   UNL A   1      37.296  23.141  25.522  1.00  0.00     0.127 A 
ATOM     92  C   UNL A   1      36.190  21.101  24.874  1.00  0.00     0.046 A 
ATOM     93  F   UNL A   1      33.839  20.985  25.002  1.00  0.00    -0.203 F 
ATOM     94  F   UNL A   1      38.429  23.830  25.709  1.00  0.00    -0.207 F 
ATOM     95  C   UNL A   1      37.365  21.830  25.055  1.00  0.00     0.042 A 
ENDBRANCH  87  88
ENDBRANCH  85  87
ENDBRANCH  78  81
ENDBRANCH  76  77
ENDBRANCH  75  76
ENDBRANCH   1  75
TORSDOF 16
ENDMDL
MODEL 3
REMARK VINA RESULT:     -11.2      5.338     11.165
REMARK SMILES O=C(NCCCCNC(=O)c1cncc(Oc2cc(F)ccc2F)n1)c1ccc(-c2c3nc(c(-c4c(F)cc(S(=O)(=O)[O-])cc4F)c4ccc([nH]4)c(-c4c(F)cc(S(=O)(=O)[O-])cc4F)c4nc(c(-c5c(F)cc(S(=O)(=O)[O-])cc5F)c5ccc2[nH]5)C=C4)C=C3)cc1
REMARK SMILES IDX 5 1 4 2 3 3 1 4 2 5 26 7 27 8 91 9 28 10 90 11 29 12 30 13
REMARK SMILES IDX 31 14 84 15 32 16 89 17 83 18 85 19 33 20 88 21 82 22 81 23
REMARK SMILES IDX 34 25 68 26 47 27 67 28 48 29 51 30 66 31 86 32 49 33 50 34
REMARK SMILES IDX 65 36 87 37 52 38 35 39 36 40 45 41 37 42 38 43 44 44 46 45
REMARK SMILES IDX 39 46 40 47 41 48 42 49 43 50 69 51 70 52 79 53 71 54 72 55
REMARK SMILES IDX 78 56 80 57 73 58 74 59 75 60 76 61 77 62 53 63 54 64 63 65
REMARK SMILES IDX 55 66 56 67 62 68 64 69 57 70 58 71 59 72 60 73 61 74 6 75
REMARK SMILES IDX 7 76 8 77 9 78 10 80 11 81 12 82 25 83 13 84 15 85 14 86
REMARK SMILES IDX 16 87 17 88 18 89 23 90 19 91 22 92 24 93 20 94 21 95
REMARK H PARENT 3 6 85 24 51 35 8 79
REMARK Flexibility Score: inf
ROOT
ATOM      1  C   UNL A   1      32.943  28.036  25.810  1.00  0.00     0.023 C 
ENDROOT
BRANCH   1   2
ATOM      2  C   UNL A   1      33.887  28.404  26.948  1.00  0.00     0.116 C 
BRANCH   2   3
ATOM      3  N   UNL A   1      33.674  29.755  27.440  1.00  0.00    -0.352 N 
ATOM      4  O   UNL A   1      34.140  31.624  28.609  1.00  0.00    -0.269 OA
ATOM      5  C   UNL A   1      34.539  30.562  28.139  1.00  0.00     0.251 C 
ATOM      6  H   UNL A   1      32.791  30.146  27.244  1.00  0.00     0.163 HD
BRANCH   5   7
ATOM      7  C   UNL A   1      35.942  30.139  28.337  1.00  0.00     0.039 A 
ATOM      8  C   UNL A   1      36.877  30.267  27.306  1.00  0.00     0.014 A 
ATOM      9  C   UNL A   1      36.331  29.622  29.577  1.00  0.00     0.014 A 
ATOM     10  C   UNL A   1      38.169  29.780  27.476  1.00  0.00     0.010 A 
ATOM     11  C   UNL A   1      37.649  29.201  29.771  1.00  0.00     0.010 A 
ATOM     12  C   UNL A   1      38.575  29.267  28.719  1.00  0.00    -0.014 A 
BRANCH  12  13
ATOM     13  C   UNL A   1      40.003  28.927  28.932  1.00  0.00     0.031 A 
ATOM     14  C   UNL A   1      40.559  27.589  28.537  1.00  0.00     0.074 A 
ATOM     15  C   UNL A   1      40.792  29.853  29.512  1.00  0.00     0.049 A 
ATOM     16  N   UNL A   1      41.776  27.133  28.686  1.00  0.00    -0.248 NA
ATOM     17  C   UNL A   1      39.638  26.637  27.897  1.00  0.00     0.031 C 
ATOM     18  C   UNL A   1      40.345  31.176  29.963  1.00  0.00     0.029 A 
ATOM     19  N   UNL A   1      42.126  29.833  29.828  1.00  0.00    -0.354 N 
ATOM     20  C   UNL A   1      41.766  25.838  28.184  1.00  0.00     0.074 A 
ATOM     21  C   UNL A   1      40.417  25.574  27.729  1.00  0.00     0.031 C 
ATOM     22  C   UNL A   1      41.386  31.842  30.482  1.00  0.00     0.029 A 
ATOM     23  C   UNL A   1      42.558  30.976  30.456  1.00  0.00     0.049 A 
ATOM     24  H   UNL A   1      42.717  29.072  29.624  1.00  0.00     0.167 HD
ATOM     25  C   UNL A   1      42.793  24.957  28.113  1.00  0.00     0.037 A 
ATOM     26  C   UNL A   1      43.754  31.283  30.993  1.00  0.00     0.037 A 
ATOM     27  C   UNL A   1      44.138  25.248  28.543  1.00  0.00     0.049 A 
ATOM     28  C   UNL A   1      44.864  30.277  30.915  1.00  0.00     0.074 A 
ATOM     29  C   UNL A   1      45.268  24.457  28.419  1.00  0.00     0.029 A 
ATOM     30  N   UNL A   1      44.533  26.408  29.191  1.00  0.00    -0.354 N 
ATOM     31  N   UNL A   1      44.855  29.087  30.362  1.00  0.00    -0.248 NA
ATOM     32  C   UNL A   1      46.139  30.642  31.543  1.00  0.00     0.031 C 
ATOM     33  C   UNL A   1      46.334  25.115  29.041  1.00  0.00     0.029 A 
ATOM     34  C   UNL A   1      45.879  26.335  29.514  1.00  0.00     0.049 A 
ATOM     35  H   UNL A   1      43.944  27.171  29.392  1.00  0.00     0.167 HD
ATOM     36  C   UNL A   1      46.123  28.563  30.576  1.00  0.00     0.074 A 
ATOM     37  C   UNL A   1      46.882  29.575  31.283  1.00  0.00     0.031 C 
ATOM     38  C   UNL A   1      46.613  27.348  30.227  1.00  0.00     0.037 A 
BRANCH  25  39
ATOM     39  C   UNL A   1      42.526  23.585  27.560  1.00  0.00     0.058 A 
ATOM     40  C   UNL A   1      42.569  23.321  26.183  1.00  0.00     0.135 A 
ATOM     41  C   UNL A   1      42.343  22.498  28.431  1.00  0.00     0.135 A 
ATOM     42  F   UNL A   1      42.729  24.325  25.307  1.00  0.00    -0.206 F 
ATOM     43  C   UNL A   1      42.443  22.027  25.689  1.00  0.00     0.059 A 
ATOM     44  C   UNL A   1      42.233  21.193  27.960  1.00  0.00     0.059 A 
ATOM     45  F   UNL A   1      42.294  22.697  29.758  1.00  0.00    -0.206 F 
ATOM     46  C   UNL A   1      42.284  20.967  26.585  1.00  0.00     0.060 A 
BRANCH  46  47
ATOM     47  S   UNL A   1      42.179  19.288  25.929  1.00  0.00     0.124 S 
ATOM     48  O   UNL A   1      42.683  18.503  27.051  1.00  0.00    -0.237 OA
ATOM     49  O   UNL A   1      40.753  19.151  25.650  1.00  0.00    -0.237 OA
ATOM     50  O   UNL A   1      43.042  19.327  24.752  1.00  0.00    -0.744 OA
ENDBRANCH  46  47
ENDBRANCH  25  39
BRANCH  26  51
ATOM     51  C   UNL A   1      43.941  32.579  31.695  1.00  0.00     0.058 A 
ATOM     52  C   UNL A   1      44.353  33.728  31.006  1.00  0.00     0.135 A 
ATOM     53  C   UNL A   1      43.707  32.690  33.075  1.00  0.00     0.135 A 
ATOM     54  F   UNL A   1      44.591  33.671  29.687  1.00  0.00    -0.206 F 
ATOM     55  C   UNL A   1      44.548  34.938  31.665  1.00  0.00     0.059 A 
ATOM     56  C   UNL A   1      43.869  33.893  33.750  1.00  0.00     0.059 A 
ATOM     57  F   UNL A   1      43.293  31.623  33.775  1.00  0.00    -0.206 F 
ATOM     58  C   UNL A   1      44.307  35.009  33.038  1.00  0.00     0.060 A 
BRANCH  58  59
ATOM     59  S   UNL A   1      44.540  36.587  33.884  1.00  0.00     0.124 S 
ATOM     60  O   UNL A   1      45.989  36.733  33.833  1.00  0.00    -0.237 OA
ATOM     61  O   UNL A   1      43.775  37.505  33.046  1.00  0.00    -0.237 OA
ATOM     62  O   UNL A   1      43.974  36.342  35.207  1.00  0.00    -0.744 OA
ENDBRANCH  58  59
ENDBRANCH  26  51
BRANCH  38  63
ATOM     63  C   UNL A   1      48.032  27.047  30.614  1.00  0.00     0.058 A 
ATOM     64  C   UNL A   1      48.331  26.355  31.797  1.00  0.00     0.135 A 
ATOM     65  C   UNL A   1      49.095  27.408  29.772  1.00  0.00     0.135 A 
ATOM     66  F   UNL A   1      47.348  26.001  32.640  1.00  0.00    -0.206 F 
ATOM     67  C   UNL A   1      49.641  26.042  32.141  1.00  0.00     0.059 A 
ATOM     68  C   UNL A   1      50.411  27.083  30.085  1.00  0.00     0.059 A 
ATOM     69  F   UNL A   1      48.859  28.066  28.626  1.00  0.00    -0.206 F 
ATOM     70  C   UNL A   1      50.674  26.408  31.277  1.00  0.00     0.060 A 
BRANCH  70  71
ATOM     71  S   UNL A   1      52.367  25.957  31.713  1.00  0.00     0.124 S 
ATOM     72  O   UNL A   1      52.197  24.578  32.157  1.00  0.00    -0.237 OA
ATOM     73  O   UNL A   1      53.074  26.132  30.448  1.00  0.00    -0.237 OA
ATOM     74  O   UNL A   1      52.716  26.915  32.756  1.00  0.00    -0.744 OA
ENDBRANCH  70  71
ENDBRANCH  38  63
ENDBRANCH  12  13
ENDBRANCH   5   7
ENDBRANCH   2   3
ENDBRANCH   1   2
BRANCH   1  75
ATOM     75  C   UNL A   1      33.214  28.740  24.481  1.00  0.00     0.023 C 
BRANCH  75  76
ATOM     76  C   UNL A   1      32.187  28.473  23.383  1.00  0.00     0.116 C 
BRANCH  76  77
ATOM     77  N   UNL A   1      32.756  27.779  22.240  1.00  0.00    -0.351 N 
ATOM     78  C   UNL A   1      32.976  26.430  22.075  1.00  0.00     0.271 C 
ATOM     79  H   UNL A   1      33.019  28.350  21.482  1.00  0.00     0.163 HD
ATOM     80  O   UNL A   1      33.514  26.006  21.057  1.00  0.00    -0.267 OA
BRANCH  78  81
ATOM     81  C   UNL A   1      32.534  25.493  23.129  1.00  0.00     0.150 A 
ATOM     82  C   UNL A   1      31.202  25.101  23.181  1.00  0.00     0.145 A 
ATOM     83  N   UNL A   1      33.458  25.101  24.041  1.00  0.00    -0.205 NA
ATOM     84  N   UNL A   1      30.718  24.323  24.180  1.00  0.00    -0.257 NA
ATOM     85  C   UNL A   1      32.982  24.301  25.020  1.00  0.00     0.238 A 
ATOM     86  C   UNL A   1      31.641  23.937  25.098  1.00  0.00     0.179 A 
BRANCH  85  87
ATOM     87  O   UNL A   1      33.815  23.850  26.036  1.00  0.00    -0.434 OA
BRANCH  87  88
ATOM     88  C   UNL A   1      34.734  22.889  25.691  1.00  0.00     0.168 A 
ATOM     89  C   UNL A   1      34.336  21.599  25.339  1.00  0.00     0.089 A 
ATOM     90  C   UNL A   1      36.077  23.254  25.595  1.00  0.00     0.166 A 
ATOM     91  C   UNL A   1      35.302  20.683  24.934  1.00  0.00     0.127 A 
ATOM     92  C   UNL A   1      37.038  22.335  25.181  1.00  0.00     0.046 A 
ATOM     93  F   UNL A   1      36.457  24.507  25.889  1.00  0.00    -0.203 F 
ATOM     94  F   UNL A   1      34.930  19.440  24.600  1.00  0.00    -0.207 F 
ATOM     95  C   UNL A   1      36.647  21.038  24.852  1.00  0.00     0.042 A 
ENDBRANCH  87  88
ENDBRANCH  85  87
ENDBRANCH  78  81
ENDBRANCH  76  77
ENDBRANCH  75  76
ENDBRANCH   1  75
TORSDOF 16
ENDMDL
