MODEL 1
REMARK VINA RESULT:     -11.6      0.000      0.000
REMARK SMILES O=C(NCc1ccsc1)NC[C@H]1CC[C@@H](C(=O)NCCCCNC(=O)c2ccc(-c3c4nc(c(-c5c(F)cc(S(=O)(=O)[O-])cc5F)c5ccc([nH]5)c(-c5c(F)cc(S(=O)(=O)[O-])cc5F)c5nc(c(-c6c(F)cc(S(=O)(=O)[O-])cc6F)c6ccc3[nH]6)C=C5)C=C4)cc2)CC1
REMARK SMILES IDX 20 1 19 2 18 3 16 4 17 5 15 7 12 8 13 9 93 10 14 11 92 12
REMARK SMILES IDX 11 13 10 14 1 15 2 16 3 17 4 20 5 21 6 22 9 23 7 24 8 25
REMARK SMILES IDX 21 26 22 27 23 28 24 29 25 31 26 32 27 33 91 34 28 35 90 36
REMARK SMILES IDX 29 37 30 38 31 39 84 40 32 41 89 42 83 43 85 44 33 45 88 46
REMARK SMILES IDX 82 47 81 48 34 50 68 51 47 52 67 53 48 54 51 55 66 56 86 57
REMARK SMILES IDX 49 58 50 59 65 61 87 62 52 63 35 64 36 65 45 66 37 67 38 68
REMARK SMILES IDX 44 69 46 70 39 71 40 72 41 73 42 74 43 75 69 76 70 77 79 78
REMARK SMILES IDX 71 79 72 80 78 81 80 82 73 83 74 84 75 85 76 86 77 87 53 88
REMARK SMILES IDX 54 89 63 90 55 91 56 92 62 93 64 94 57 95 58 96 59 97 60 98
REMARK SMILES IDX 61 99
REMARK H PARENT 18 6 3 18 10 19 23 30 85 49 51 60
REMARK Flexibility Score: inf
ROOT
ATOM      1  C   UNL A   1      31.542  27.561  26.989  1.00  0.00     0.023 C 
ENDROOT
BRANCH   1   2
ATOM      2  C   UNL A   1      30.960  26.592  25.960  1.00  0.00     0.116 C 
BRANCH   2   3
ATOM      3  N   UNL A   1      30.445  25.383  26.566  1.00  0.00    -0.356 N 
ATOM      4  C   UNL A   1      30.778  24.075  26.462  1.00  0.00     0.223 C 
ATOM      5  O   UNL A   1      30.148  23.300  27.192  1.00  0.00    -0.275 OA
ATOM      6  H   UNL A   1      29.695  25.544  27.183  1.00  0.00     0.163 HD
BRANCH   4   7
ATOM      7  C   UNL A   1      31.840  23.495  25.514  1.00  0.00     0.078 C 
ATOM      8  C   UNL A   1      33.197  24.911  23.213  1.00  0.00     0.008 C 
ATOM      9  C   UNL A   1      33.730  25.062  24.649  1.00  0.00     0.006 C 
ATOM     10  C   UNL A   1      31.750  24.415  23.121  1.00  0.00     0.006 C 
ATOM     11  C   UNL A   1      33.268  24.016  25.657  1.00  0.00     0.014 C 
ATOM     12  C   UNL A   1      31.391  23.291  24.074  1.00  0.00     0.014 C 
BRANCH   8  13
ATOM     13  C   UNL A   1      33.392  26.259  22.477  1.00  0.00     0.121 C 
BRANCH  13  14
ATOM     14  N   UNL A   1      32.320  27.213  22.690  1.00  0.00    -0.338 N 
ATOM     15  O   UNL A   1      33.708  29.003  22.928  1.00  0.00    -0.249 OA
ATOM     16  C   UNL A   1      32.574  28.534  22.894  1.00  0.00     0.315 C 
ATOM     17  N   UNL A   1      31.523  29.355  23.095  1.00  0.00    -0.334 N 
ATOM     18  H   UNL A   1      31.765  30.303  23.207  1.00  0.00     0.165 HD
ATOM     19  H   UNL A   1      31.387  26.897  22.687  1.00  0.00     0.165 HD
BRANCH  17  20
ATOM     20  C   UNL A   1      30.106  29.093  23.177  1.00  0.00     0.154 C 
BRANCH  20  21
ATOM     21  C   UNL A   1      29.357  30.315  22.741  1.00  0.00    -0.018 A 
ATOM     22  C   UNL A   1      28.934  31.378  23.610  1.00  0.00     0.017 A 
ATOM     23  C   UNL A   1      28.964  30.572  21.439  1.00  0.00     0.070 A 
ATOM     24  C   UNL A   1      28.254  32.374  22.945  1.00  0.00     0.065 A 
ATOM     25  S   UNL A   1      28.105  32.042  21.276  1.00  0.00    -0.152 S 
ENDBRANCH  20  21
ENDBRANCH  17  20
ENDBRANCH  13  14
ENDBRANCH   8  13
ENDBRANCH   4   7
ENDBRANCH   2   3
ENDBRANCH   1   2
BRANCH   1  26
ATOM     26  C   UNL A   1      32.288  28.766  26.426  1.00  0.00     0.023 C 
BRANCH  26  27
ATOM     27  C   UNL A   1      33.580  29.157  27.138  1.00  0.00     0.116 C 
BRANCH  27  28
ATOM     28  N   UNL A   1      33.585  30.449  27.809  1.00  0.00    -0.352 N 
ATOM     29  C   UNL A   1      34.652  31.042  28.457  1.00  0.00     0.251 C 
ATOM     30  H   UNL A   1      32.739  30.953  27.800  1.00  0.00     0.163 HD
ATOM     31  O   UNL A   1      34.563  32.150  28.977  1.00  0.00    -0.269 OA
BRANCH  29  32
ATOM     32  C   UNL A   1      35.908  30.270  28.599  1.00  0.00     0.039 A 
ATOM     33  C   UNL A   1      36.836  30.323  27.556  1.00  0.00     0.014 A 
ATOM     34  C   UNL A   1      36.223  29.624  29.796  1.00  0.00     0.014 A 
ATOM     35  C   UNL A   1      38.126  29.829  27.757  1.00  0.00     0.010 A 
ATOM     36  C   UNL A   1      37.531  29.200  30.020  1.00  0.00     0.010 A 
ATOM     37  C   UNL A   1      38.501  29.326  29.012  1.00  0.00    -0.014 A 
BRANCH  37  38
ATOM     38  C   UNL A   1      39.913  28.972  29.310  1.00  0.00     0.031 A 
ATOM     39  C   UNL A   1      40.818  29.963  29.981  1.00  0.00     0.074 A 
ATOM     40  C   UNL A   1      40.404  27.787  28.892  1.00  0.00     0.049 A 
ATOM     41  N   UNL A   1      42.098  29.876  30.233  1.00  0.00    -0.248 NA
ATOM     42  C   UNL A   1      40.207  31.238  30.392  1.00  0.00     0.031 C 
ATOM     43  C   UNL A   1      39.645  26.758  28.174  1.00  0.00     0.029 A 
ATOM     44  N   UNL A   1      41.662  27.249  29.004  1.00  0.00    -0.354 N 
ATOM     45  C   UNL A   1      42.455  31.092  30.799  1.00  0.00     0.074 A 
ATOM     46  C   UNL A   1      41.262  31.913  30.822  1.00  0.00     0.031 C 
ATOM     47  C   UNL A   1      40.443  25.704  27.942  1.00  0.00     0.029 A 
ATOM     48  C   UNL A   1      41.776  25.991  28.461  1.00  0.00     0.049 A 
ATOM     49  H   UNL A   1      42.412  27.721  29.433  1.00  0.00     0.167 HD
ATOM     50  C   UNL A   1      43.661  31.487  31.272  1.00  0.00     0.037 A 
ATOM     51  C   UNL A   1      42.835  25.161  28.392  1.00  0.00     0.037 A 
ATOM     52  C   UNL A   1      44.834  30.654  31.291  1.00  0.00     0.049 A 
ATOM     53  C   UNL A   1      44.150  25.595  28.973  1.00  0.00     0.074 A 
ATOM     54  C   UNL A   1      46.086  30.936  31.810  1.00  0.00     0.029 A 
ATOM     55  N   UNL A   1      44.897  29.369  30.773  1.00  0.00    -0.354 N 
ATOM     56  N   UNL A   1      44.459  26.732  29.549  1.00  0.00    -0.248 NA
ATOM     57  C   UNL A   1      45.260  24.636  28.896  1.00  0.00     0.031 C 
ATOM     58  C   UNL A   1      46.910  29.826  31.591  1.00  0.00     0.029 A 
ATOM     59  C   UNL A   1      46.166  28.845  30.956  1.00  0.00     0.049 A 
ATOM     60  H   UNL A   1      44.150  28.898  30.339  1.00  0.00     0.167 HD
ATOM     61  C   UNL A   1      45.793  26.619  29.921  1.00  0.00     0.074 A 
ATOM     62  C   UNL A   1      46.231  25.301  29.509  1.00  0.00     0.031 C 
ATOM     63  C   UNL A   1      46.581  27.527  30.546  1.00  0.00     0.037 A 
BRANCH  50  64
ATOM     64  C   UNL A   1      43.754  32.887  31.805  1.00  0.00     0.058 A 
ATOM     65  C   UNL A   1      44.101  33.965  30.975  1.00  0.00     0.135 A 
ATOM     66  C   UNL A   1      43.535  33.148  33.166  1.00  0.00     0.135 A 
ATOM     67  F   UNL A   1      44.339  33.764  29.669  1.00  0.00    -0.206 F 
ATOM     68  C   UNL A   1      44.281  35.246  31.486  1.00  0.00     0.059 A 
ATOM     69  C   UNL A   1      43.686  34.426  33.695  1.00  0.00     0.059 A 
ATOM     70  F   UNL A   1      43.200  32.152  34.001  1.00  0.00    -0.206 F 
ATOM     71  C   UNL A   1      44.086  35.463  32.852  1.00  0.00     0.060 A 
BRANCH  71  72
ATOM     72  S   UNL A   1      44.375  37.114  33.522  1.00  0.00     0.124 S 
ATOM     73  O   UNL A   1      43.792  36.991  34.855  1.00  0.00    -0.237 OA
ATOM     74  O   UNL A   1      45.830  37.228  33.476  1.00  0.00    -0.237 OA
ATOM     75  O   UNL A   1      43.654  37.983  32.596  1.00  0.00    -0.744 OA
ENDBRANCH  71  72
ENDBRANCH  50  64
BRANCH  51  76
ATOM     76  C   UNL A   1      42.673  23.812  27.792  1.00  0.00     0.058 A 
ATOM     77  C   UNL A   1      42.773  23.635  26.406  1.00  0.00     0.135 A 
ATOM     78  C   UNL A   1      42.459  22.676  28.588  1.00  0.00     0.135 A 
ATOM     79  F   UNL A   1      42.970  24.695  25.607  1.00  0.00    -0.206 F 
ATOM     80  C   UNL A   1      42.668  22.377  25.823  1.00  0.00     0.059 A 
ATOM     81  C   UNL A   1      42.366  21.405  28.028  1.00  0.00     0.059 A 
ATOM     82  F   UNL A   1      42.372  22.795  29.921  1.00  0.00    -0.206 F 
ATOM     83  C   UNL A   1      42.468  21.266  26.644  1.00  0.00     0.060 A 
BRANCH  83  84
ATOM     84  S   UNL A   1      42.412  19.626  25.887  1.00  0.00     0.124 S 
ATOM     85  O   UNL A   1      42.797  18.774  27.004  1.00  0.00    -0.237 OA
ATOM     86  O   UNL A   1      41.018  19.529  25.461  1.00  0.00    -0.237 OA
ATOM     87  O   UNL A   1      43.382  19.727  24.802  1.00  0.00    -0.744 OA
ENDBRANCH  83  84
ENDBRANCH  51  76
BRANCH  63  88
ATOM     88  C   UNL A   1      47.992  27.116  30.846  1.00  0.00     0.058 A 
ATOM     89  C   UNL A   1      48.324  26.446  32.033  1.00  0.00     0.135 A 
ATOM     90  C   UNL A   1      49.014  27.349  29.912  1.00  0.00     0.135 A 
ATOM     91  F   UNL A   1      47.382  26.210  32.960  1.00  0.00    -0.206 F 
ATOM     92  C   UNL A   1      49.625  26.031  32.291  1.00  0.00     0.059 A 
ATOM     93  C   UNL A   1      50.320  26.927  30.143  1.00  0.00     0.059 A 
ATOM     94  F   UNL A   1      48.744  27.981  28.759  1.00  0.00    -0.206 F 
ATOM     95  C   UNL A   1      50.617  26.277  31.339  1.00  0.00     0.060 A 
BRANCH  95  96
ATOM     96  S   UNL A   1      52.297  25.695  31.660  1.00  0.00     0.124 S 
ATOM     97  O   UNL A   1      52.063  24.294  31.992  1.00  0.00    -0.237 OA
ATOM     98  O   UNL A   1      52.968  25.941  30.388  1.00  0.00    -0.237 OA
ATOM     99  O   UNL A   1      52.740  26.539  32.766  1.00  0.00    -0.744 OA
ENDBRANCH  95  96
ENDBRANCH  63  88
ENDBRANCH  37  38
ENDBRANCH  29  32
ENDBRANCH  27  28
ENDBRANCH  26  27
ENDBRANCH   1  26
TORSDOF 18
ENDMDL
MODEL 2
REMARK VINA RESULT:     -11.5      4.720     10.312
REMARK SMILES O=C(NCc1ccsc1)NC[C@H]1CC[C@@H](C(=O)NCCCCNC(=O)c2ccc(-c3c4nc(c(-c5c(F)cc(S(=O)(=O)[O-])cc5F)c5ccc([nH]5)c(-c5c(F)cc(S(=O)(=O)[O-])cc5F)c5nc(c(-c6c(F)cc(S(=O)(=O)[O-])cc6F)c6ccc3[nH]6)C=C5)C=C4)cc2)CC1
REMARK SMILES IDX 20 1 19 2 18 3 16 4 17 5 15 7 12 8 13 9 93 10 14 11 92 12
REMARK SMILES IDX 11 13 10 14 1 15 2 16 3 17 4 20 5 21 6 22 9 23 7 24 8 25
REMARK SMILES IDX 21 26 22 27 23 28 24 29 25 31 26 32 27 33 91 34 28 35 90 36
REMARK SMILES IDX 29 37 30 38 31 39 84 40 32 41 89 42 83 43 85 44 33 45 88 46
REMARK SMILES IDX 82 47 81 48 34 50 68 51 47 52 67 53 48 54 51 55 66 56 86 57
REMARK SMILES IDX 49 58 50 59 65 61 87 62 52 63 35 64 36 65 45 66 37 67 38 68
REMARK SMILES IDX 44 69 46 70 39 71 40 72 41 73 42 74 43 75 69 76 70 77 79 78
REMARK SMILES IDX 71 79 72 80 78 81 80 82 73 83 74 84 75 85 76 86 77 87 53 88
REMARK SMILES IDX 54 89 63 90 55 91 56 92 62 93 64 94 57 95 58 96 59 97 60 98
REMARK SMILES IDX 61 99
REMARK H PARENT 18 6 3 18 10 19 23 30 85 49 51 60
REMARK Flexibility Score: inf
ROOT
ATOM      1  C   UNL A   1      40.382  21.156  26.133  1.00  0.00     0.023 C 
ENDROOT
BRANCH   1   2
ATOM      2  C   UNL A   1      38.865  20.988  26.060  1.00  0.00     0.116 C 
BRANCH   2   3
ATOM      3  N   UNL A   1      38.161  22.249  26.155  1.00  0.00    -0.356 N 
ATOM      4  C   UNL A   1      37.022  22.723  25.598  1.00  0.00     0.223 C 
ATOM      5  O   UNL A   1      36.677  23.855  25.961  1.00  0.00    -0.275 OA
ATOM      6  H   UNL A   1      38.602  22.898  26.749  1.00  0.00     0.163 HD
BRANCH   4   7
ATOM      7  C   UNL A   1      36.160  21.988  24.560  1.00  0.00     0.078 C 
ATOM      8  C   UNL A   1      33.144  21.760  24.529  1.00  0.00     0.008 C 
ATOM      9  C   UNL A   1      33.843  22.992  23.925  1.00  0.00     0.006 C 
ATOM     10  C   UNL A   1      34.010  20.951  25.502  1.00  0.00     0.006 C 
ATOM     11  C   UNL A   1      35.327  22.842  23.607  1.00  0.00     0.014 C 
ATOM     12  C   UNL A   1      35.447  20.741  25.065  1.00  0.00     0.014 C 
BRANCH   8  13
ATOM     13  C   UNL A   1      31.820  22.224  25.183  1.00  0.00     0.121 C 
BRANCH  13  14
ATOM     14  N   UNL A   1      31.686  23.664  25.298  1.00  0.00    -0.338 N 
ATOM     15  O   UNL A   1      31.179  23.626  27.519  1.00  0.00    -0.249 OA
ATOM     16  C   UNL A   1      31.377  24.256  26.483  1.00  0.00     0.315 C 
ATOM     17  N   UNL A   1      31.260  25.600  26.505  1.00  0.00    -0.334 N 
ATOM     18  H   UNL A   1      31.065  25.975  27.395  1.00  0.00     0.165 HD
ATOM     19  H   UNL A   1      31.821  24.224  24.500  1.00  0.00     0.165 HD
BRANCH  17  20
ATOM     20  C   UNL A   1      31.367  26.587  25.458  1.00  0.00     0.154 C 
BRANCH  20  21
ATOM     21  C   UNL A   1      32.157  27.754  25.965  1.00  0.00    -0.018 A 
ATOM     22  C   UNL A   1      31.753  29.130  25.868  1.00  0.00     0.017 A 
ATOM     23  C   UNL A   1      33.390  27.657  26.585  1.00  0.00     0.070 A 
ATOM     24  C   UNL A   1      32.677  29.997  26.406  1.00  0.00     0.065 A 
ATOM     25  S   UNL A   1      34.041  29.176  27.024  1.00  0.00    -0.152 S 
ENDBRANCH  20  21
ENDBRANCH  17  20
ENDBRANCH  13  14
ENDBRANCH   8  13
ENDBRANCH   4   7
ENDBRANCH   2   3
ENDBRANCH   1   2
BRANCH   1  26
ATOM     26  C   UNL A   1      40.910  21.961  27.315  1.00  0.00     0.023 C 
BRANCH  26  27
ATOM     27  C   UNL A   1      41.968  23.015  26.999  1.00  0.00     0.116 C 
BRANCH  27  28
ATOM     28  N   UNL A   1      41.668  23.928  25.906  1.00  0.00    -0.352 N 
ATOM     29  C   UNL A   1      41.493  25.297  25.993  1.00  0.00     0.251 C 
ATOM     30  H   UNL A   1      41.578  23.529  25.010  1.00  0.00     0.163 HD
ATOM     31  O   UNL A   1      41.262  25.987  25.005  1.00  0.00    -0.269 OA
BRANCH  29  32
ATOM     32  C   UNL A   1      41.499  25.924  27.335  1.00  0.00     0.039 A 
ATOM     33  C   UNL A   1      42.573  26.752  27.671  1.00  0.00     0.014 A 
ATOM     34  C   UNL A   1      40.398  25.810  28.187  1.00  0.00     0.014 A 
ATOM     35  C   UNL A   1      42.490  27.558  28.808  1.00  0.00     0.010 A 
ATOM     36  C   UNL A   1      40.286  26.669  29.277  1.00  0.00     0.010 A 
ATOM     37  C   UNL A   1      41.319  27.571  29.580  1.00  0.00    -0.014 A 
BRANCH  37  38
ATOM     38  C   UNL A   1      41.131  28.554  30.678  1.00  0.00     0.031 A 
ATOM     39  C   UNL A   1      42.005  28.504  31.897  1.00  0.00     0.074 A 
ATOM     40  C   UNL A   1      40.112  29.435  30.616  1.00  0.00     0.049 A 
ATOM     41  N   UNL A   1      41.932  29.209  32.996  1.00  0.00    -0.248 NA
ATOM     42  C   UNL A   1      43.085  27.504  31.892  1.00  0.00     0.031 C 
ATOM     43  C   UNL A   1      39.152  29.547  29.513  1.00  0.00     0.029 A 
ATOM     44  N   UNL A   1      39.707  30.401  31.503  1.00  0.00    -0.354 N 
ATOM     45  C   UNL A   1      42.930  28.717  33.827  1.00  0.00     0.074 A 
ATOM     46  C   UNL A   1      43.572  27.631  33.118  1.00  0.00     0.031 C 
ATOM     47  C   UNL A   1      38.294  30.546  29.775  1.00  0.00     0.029 A 
ATOM     48  C   UNL A   1      38.619  31.124  31.075  1.00  0.00     0.049 A 
ATOM     49  H   UNL A   1      40.155  30.561  32.365  1.00  0.00     0.167 HD
ATOM     50  C   UNL A   1      43.289  29.140  35.063  1.00  0.00     0.037 A 
ATOM     51  C   UNL A   1      37.958  32.140  31.663  1.00  0.00     0.037 A 
ATOM     52  C   UNL A   1      42.680  30.248  35.749  1.00  0.00     0.049 A 
ATOM     53  C   UNL A   1      38.409  32.631  33.009  1.00  0.00     0.074 A 
ATOM     54  C   UNL A   1      43.018  30.798  36.973  1.00  0.00     0.029 A 
ATOM     55  N   UNL A   1      41.610  30.984  35.262  1.00  0.00    -0.354 N 
ATOM     56  N   UNL A   1      39.386  32.185  33.761  1.00  0.00    -0.248 NA
ATOM     57  C   UNL A   1      37.669  33.762  33.586  1.00  0.00     0.031 C 
ATOM     58  C   UNL A   1      42.140  31.857  37.233  1.00  0.00     0.029 A 
ATOM     59  C   UNL A   1      41.271  31.981  36.162  1.00  0.00     0.049 A 
ATOM     60  H   UNL A   1      41.157  30.822  34.403  1.00  0.00     0.167 HD
ATOM     61  C   UNL A   1      39.392  32.992  34.892  1.00  0.00     0.074 A 
ATOM     62  C   UNL A   1      38.324  33.957  34.723  1.00  0.00     0.031 C 
ATOM     63  C   UNL A   1      40.209  32.937  35.972  1.00  0.00     0.037 A 
BRANCH  50  64
ATOM     64  C   UNL A   1      44.397  28.386  35.740  1.00  0.00     0.058 A 
ATOM     65  C   UNL A   1      45.745  28.711  35.520  1.00  0.00     0.135 A 
ATOM     66  C   UNL A   1      44.110  27.301  36.583  1.00  0.00     0.135 A 
ATOM     67  F   UNL A   1      46.071  29.728  34.708  1.00  0.00    -0.206 F 
ATOM     68  C   UNL A   1      46.773  27.953  36.070  1.00  0.00     0.059 A 
ATOM     69  C   UNL A   1      45.123  26.543  37.163  1.00  0.00     0.059 A 
ATOM     70  F   UNL A   1      42.838  26.950  36.826  1.00  0.00    -0.206 F 
ATOM     71  C   UNL A   1      46.452  26.861  36.878  1.00  0.00     0.060 A 
BRANCH  71  72
ATOM     72  S   UNL A   1      47.787  25.845  37.544  1.00  0.00     0.124 S 
ATOM     73  O   UNL A   1      48.959  26.642  37.192  1.00  0.00    -0.237 OA
ATOM     74  O   UNL A   1      47.466  25.787  38.967  1.00  0.00    -0.237 OA
ATOM     75  O   UNL A   1      47.642  24.585  36.822  1.00  0.00    -0.744 OA
ENDBRANCH  71  72
ENDBRANCH  50  64
BRANCH  51  76
ATOM     76  C   UNL A   1      36.830  32.793  30.949  1.00  0.00     0.058 A 
ATOM     77  C   UNL A   1      35.509  32.576  31.362  1.00  0.00     0.135 A 
ATOM     78  C   UNL A   1      37.050  33.672  29.879  1.00  0.00     0.135 A 
ATOM     79  F   UNL A   1      35.252  31.738  32.378  1.00  0.00    -0.206 F 
ATOM     80  C   UNL A   1      34.439  33.209  30.739  1.00  0.00     0.059 A 
ATOM     81  C   UNL A   1      35.996  34.329  29.249  1.00  0.00     0.059 A 
ATOM     82  F   UNL A   1      38.299  33.922  29.459  1.00  0.00    -0.206 F 
ATOM     83  C   UNL A   1      34.693  34.087  29.685  1.00  0.00     0.060 A 
BRANCH  83  84
ATOM     84  S   UNL A   1      33.304  34.965  28.932  1.00  0.00     0.124 S 
ATOM     85  O   UNL A   1      33.966  36.140  28.379  1.00  0.00    -0.237 OA
ATOM     86  O   UNL A   1      32.813  33.992  27.961  1.00  0.00    -0.237 OA
ATOM     87  O   UNL A   1      32.415  35.211  30.063  1.00  0.00    -0.744 OA
ENDBRANCH  83  84
ENDBRANCH  51  76
BRANCH  63  88
ATOM     88  C   UNL A   1      39.996  33.964  37.044  1.00  0.00     0.058 A 
ATOM     89  C   UNL A   1      40.608  35.224  36.983  1.00  0.00     0.135 A 
ATOM     90  C   UNL A   1      39.130  33.702  38.117  1.00  0.00     0.135 A 
ATOM     91  F   UNL A   1      41.451  35.517  35.980  1.00  0.00    -0.206 F 
ATOM     92  C   UNL A   1      40.378  36.190  37.957  1.00  0.00     0.059 A 
ATOM     93  C   UNL A   1      38.873  34.659  39.095  1.00  0.00     0.059 A 
ATOM     94  F   UNL A   1      38.517  32.512  38.216  1.00  0.00    -0.206 F 
ATOM     95  C   UNL A   1      39.509  35.897  39.010  1.00  0.00     0.060 A 
BRANCH  95  96
ATOM     96  S   UNL A   1      39.179  37.170  40.248  1.00  0.00     0.124 S 
ATOM     97  O   UNL A   1      38.497  38.184  39.451  1.00  0.00    -0.237 OA
ATOM     98  O   UNL A   1      38.348  36.463  41.218  1.00  0.00    -0.237 OA
ATOM     99  O   UNL A   1      40.511  37.532  40.722  1.00  0.00    -0.744 OA
ENDBRANCH  95  96
ENDBRANCH  63  88
ENDBRANCH  37  38
ENDBRANCH  29  32
ENDBRANCH  27  28
ENDBRANCH  26  27
ENDBRANCH   1  26
TORSDOF 18
ENDMDL
MODEL 3
REMARK VINA RESULT:     -11.3      2.097      2.811
REMARK SMILES O=C(NCc1ccsc1)NC[C@H]1CC[C@@H](C(=O)NCCCCNC(=O)c2ccc(-c3c4nc(c(-c5c(F)cc(S(=O)(=O)[O-])cc5F)c5ccc([nH]5)c(-c5c(F)cc(S(=O)(=O)[O-])cc5F)c5nc(c(-c6c(F)cc(S(=O)(=O)[O-])cc6F)c6ccc3[nH]6)C=C5)C=C4)cc2)CC1
REMARK SMILES IDX 20 1 19 2 18 3 16 4 17 5 15 7 12 8 13 9 93 10 14 11 92 12
REMARK SMILES IDX 11 13 10 14 1 15 2 16 3 17 4 20 5 21 6 22 9 23 7 24 8 25
REMARK SMILES IDX 21 26 22 27 23 28 24 29 25 31 26 32 27 33 91 34 28 35 90 36
REMARK SMILES IDX 29 37 30 38 31 39 84 40 32 41 89 42 83 43 85 44 33 45 88 46
REMARK SMILES IDX 82 47 81 48 34 50 68 51 47 52 67 53 48 54 51 55 66 56 86 57
REMARK SMILES IDX 49 58 50 59 65 61 87 62 52 63 35 64 36 65 45 66 37 67 38 68
REMARK SMILES IDX 44 69 46 70 39 71 40 72 41 73 42 74 43 75 69 76 70 77 79 78
REMARK SMILES IDX 71 79 72 80 78 81 80 82 73 83 74 84 75 85 76 86 77 87 53 88
REMARK SMILES IDX 54 89 63 90 55 91 56 92 62 93 64 94 57 95 58 96 59 97 60 98
REMARK SMILES IDX 61 99
REMARK H PARENT 18 6 3 18 10 19 23 30 85 49 51 60
REMARK Flexibility Score: inf
ROOT
ATOM      1  C   UNL A   1      31.326  27.534  26.883  1.00  0.00     0.023 C 
ENDROOT
BRANCH   1   2
ATOM      2  C   UNL A   1      30.758  26.532  25.878  1.00  0.00     0.116 C 
BRANCH   2   3
ATOM      3  N   UNL A   1      30.334  25.298  26.502  1.00  0.00    -0.356 N 
ATOM      4  C   UNL A   1      30.887  24.065  26.597  1.00  0.00     0.223 C 
ATOM      5  O   UNL A   1      30.257  23.245  27.277  1.00  0.00    -0.275 OA
ATOM      6  H   UNL A   1      29.462  25.367  26.953  1.00  0.00     0.163 HD
BRANCH   4   7
ATOM      7  C   UNL A   1      32.192  23.616  25.922  1.00  0.00     0.078 C 
ATOM      8  C   UNL A   1      33.518  24.861  23.507  1.00  0.00     0.008 C 
ATOM      9  C   UNL A   1      33.766  25.429  24.916  1.00  0.00     0.006 C 
ATOM     10  C   UNL A   1      32.265  23.987  23.385  1.00  0.00     0.006 C 
ATOM     11  C   UNL A   1      33.414  24.518  26.086  1.00  0.00     0.014 C 
ATOM     12  C   UNL A   1      32.040  23.019  24.530  1.00  0.00     0.014 C 
BRANCH   8  13
ATOM     13  C   UNL A   1      33.499  26.040  22.503  1.00  0.00     0.121 C 
BRANCH  13  14
ATOM     14  N   UNL A   1      32.443  27.006  22.741  1.00  0.00    -0.338 N 
ATOM     15  O   UNL A   1      33.811  28.820  22.569  1.00  0.00    -0.249 OA
ATOM     16  C   UNL A   1      32.693  28.343  22.747  1.00  0.00     0.315 C 
ATOM     17  N   UNL A   1      31.660  29.178  22.987  1.00  0.00    -0.334 N 
ATOM     18  H   UNL A   1      31.894  30.133  22.949  1.00  0.00     0.165 HD
ATOM     19  H   UNL A   1      31.526  26.686  22.903  1.00  0.00     0.165 HD
BRANCH  17  20
ATOM     20  C   UNL A   1      30.273  28.919  23.291  1.00  0.00     0.154 C 
BRANCH  20  21
ATOM     21  C   UNL A   1      29.444  30.067  22.803  1.00  0.00    -0.018 A 
ATOM     22  C   UNL A   1      28.752  31.004  23.645  1.00  0.00     0.017 A 
ATOM     23  C   UNL A   1      29.226  30.367  21.470  1.00  0.00     0.070 A 
ATOM     24  C   UNL A   1      28.056  31.953  22.930  1.00  0.00     0.065 A 
ATOM     25  S   UNL A   1      28.213  31.727  21.245  1.00  0.00    -0.152 S 
ENDBRANCH  20  21
ENDBRANCH  17  20
ENDBRANCH  13  14
ENDBRANCH   8  13
ENDBRANCH   4   7
ENDBRANCH   2   3
ENDBRANCH   1   2
BRANCH   1  26
ATOM     26  C   UNL A   1      32.267  28.590  26.317  1.00  0.00     0.023 C 
BRANCH  26  27
ATOM     27  C   UNL A   1      33.374  29.080  27.246  1.00  0.00     0.116 C 
BRANCH  27  28
ATOM     28  N   UNL A   1      33.537  30.523  27.355  1.00  0.00    -0.352 N 
ATOM     29  C   UNL A   1      34.678  31.202  27.740  1.00  0.00     0.251 C 
ATOM     30  H   UNL A   1      32.751  31.074  27.132  1.00  0.00     0.163 HD
ATOM     31  O   UNL A   1      34.723  32.428  27.781  1.00  0.00    -0.269 OA
BRANCH  29  32
ATOM     32  C   UNL A   1      35.845  30.415  28.199  1.00  0.00     0.039 A 
ATOM     33  C   UNL A   1      37.011  30.453  27.429  1.00  0.00     0.014 A 
ATOM     34  C   UNL A   1      35.835  29.768  29.437  1.00  0.00     0.014 A 
ATOM     35  C   UNL A   1      38.199  29.943  27.954  1.00  0.00     0.010 A 
ATOM     36  C   UNL A   1      37.036  29.329  29.989  1.00  0.00     0.010 A 
ATOM     37  C   UNL A   1      38.234  29.439  29.263  1.00  0.00    -0.014 A 
BRANCH  37  38
ATOM     38  C   UNL A   1      39.517  29.068  29.913  1.00  0.00     0.031 A 
ATOM     39  C   UNL A   1      40.016  29.838  31.100  1.00  0.00     0.074 A 
ATOM     40  C   UNL A   1      40.278  28.094  29.374  1.00  0.00     0.049 A 
ATOM     41  N   UNL A   1      41.152  29.729  31.738  1.00  0.00    -0.248 NA
ATOM     42  C   UNL A   1      39.132  30.895  31.617  1.00  0.00     0.031 C 
ATOM     43  C   UNL A   1      39.937  27.309  28.183  1.00  0.00     0.029 A 
ATOM     44  N   UNL A   1      41.502  27.599  29.753  1.00  0.00    -0.354 N 
ATOM     45  C   UNL A   1      41.136  30.722  32.709  1.00  0.00     0.074 A 
ATOM     46  C   UNL A   1      39.892  31.446  32.552  1.00  0.00     0.031 C 
ATOM     47  C   UNL A   1      40.909  26.413  27.952  1.00  0.00     0.029 A 
ATOM     48  C   UNL A   1      41.958  26.579  28.953  1.00  0.00     0.049 A 
ATOM     49  H   UNL A   1      42.005  27.945  30.525  1.00  0.00     0.167 HD
ATOM     50  C   UNL A   1      42.066  30.999  33.654  1.00  0.00     0.037 A 
ATOM     51  C   UNL A   1      43.093  25.856  29.020  1.00  0.00     0.037 A 
ATOM     52  C   UNL A   1      43.281  30.251  33.839  1.00  0.00     0.049 A 
ATOM     53  C   UNL A   1      44.085  26.141  30.111  1.00  0.00     0.074 A 
ATOM     54  C   UNL A   1      44.254  30.409  34.810  1.00  0.00     0.029 A 
ATOM     55  N   UNL A   1      43.685  29.194  33.036  1.00  0.00    -0.354 N 
ATOM     56  N   UNL A   1      44.032  27.054  31.051  1.00  0.00    -0.248 NA
ATOM     57  C   UNL A   1      45.288  25.300  30.152  1.00  0.00     0.031 C 
ATOM     58  C   UNL A   1      45.255  29.456  34.584  1.00  0.00     0.029 A 
ATOM     59  C   UNL A   1      44.895  28.692  33.486  1.00  0.00     0.049 A 
ATOM     60  H   UNL A   1      43.186  28.852  32.260  1.00  0.00     0.167 HD
ATOM     61  C   UNL A   1      45.185  26.886  31.808  1.00  0.00     0.074 A 
ATOM     62  C   UNL A   1      45.913  25.781  31.219  1.00  0.00     0.031 C 
ATOM     63  C   UNL A   1      45.601  27.585  32.892  1.00  0.00     0.037 A 
BRANCH  50  64
ATOM     64  C   UNL A   1      41.787  32.167  34.556  1.00  0.00     0.058 A 
ATOM     65  C   UNL A   1      41.025  32.023  35.726  1.00  0.00     0.135 A 
ATOM     66  C   UNL A   1      42.250  33.450  34.225  1.00  0.00     0.135 A 
ATOM     67  F   UNL A   1      40.544  30.820  36.076  1.00  0.00    -0.206 F 
ATOM     68  C   UNL A   1      40.685  33.120  36.510  1.00  0.00     0.059 A 
ATOM     69  C   UNL A   1      41.941  34.558  35.008  1.00  0.00     0.059 A 
ATOM     70  F   UNL A   1      42.983  33.640  33.117  1.00  0.00    -0.206 F 
ATOM     71  C   UNL A   1      41.136  34.387  36.133  1.00  0.00     0.060 A 
BRANCH  71  72
ATOM     72  S   UNL A   1      40.646  35.816  37.121  1.00  0.00     0.124 S 
ATOM     73  O   UNL A   1      41.936  36.458  37.360  1.00  0.00    -0.237 OA
ATOM     74  O   UNL A   1      39.741  36.530  36.225  1.00  0.00    -0.237 OA
ATOM     75  O   UNL A   1      40.015  35.214  38.292  1.00  0.00    -0.744 OA
ENDBRANCH  71  72
ENDBRANCH  50  64
BRANCH  51  76
ATOM     76  C   UNL A   1      43.320  24.755  28.049  1.00  0.00     0.058 A 
ATOM     77  C   UNL A   1      43.986  25.001  26.840  1.00  0.00     0.135 A 
ATOM     78  C   UNL A   1      42.921  23.439  28.325  1.00  0.00     0.135 A 
ATOM     79  F   UNL A   1      44.380  26.246  26.533  1.00  0.00    -0.206 F 
ATOM     80  C   UNL A   1      44.250  23.980  25.934  1.00  0.00     0.059 A 
ATOM     81  C   UNL A   1      43.187  22.397  27.440  1.00  0.00     0.059 A 
ATOM     82  F   UNL A   1      42.295  23.153  29.476  1.00  0.00    -0.206 F 
ATOM     83  C   UNL A   1      43.849  22.679  26.245  1.00  0.00     0.060 A 
BRANCH  83  84
ATOM     84  S   UNL A   1      44.265  21.345  25.099  1.00  0.00     0.124 S 
ATOM     85  O   UNL A   1      43.253  20.351  25.427  1.00  0.00    -0.237 OA
ATOM     86  O   UNL A   1      44.123  21.998  23.800  1.00  0.00    -0.237 OA
ATOM     87  O   UNL A   1      45.635  21.003  25.470  1.00  0.00    -0.744 OA
ENDBRANCH  83  84
ENDBRANCH  51  76
BRANCH  63  88
ATOM     88  C   UNL A   1      46.891  27.160  33.527  1.00  0.00     0.058 A 
ATOM     89  C   UNL A   1      48.116  27.728  33.149  1.00  0.00     0.135 A 
ATOM     90  C   UNL A   1      46.896  26.211  34.561  1.00  0.00     0.135 A 
ATOM     91  F   UNL A   1      48.163  28.633  32.159  1.00  0.00    -0.206 F 
ATOM     92  C   UNL A   1      49.307  27.362  33.766  1.00  0.00     0.059 A 
ATOM     93  C   UNL A   1      48.073  25.840  35.204  1.00  0.00     0.059 A 
ATOM     94  F   UNL A   1      45.747  25.643  34.962  1.00  0.00    -0.206 F 
ATOM     95  C   UNL A   1      49.275  26.415  34.793  1.00  0.00     0.060 A 
BRANCH  95  96
ATOM     96  S   UNL A   1      50.817  25.976  35.623  1.00  0.00     0.124 S 
ATOM     97  O   UNL A   1      51.247  27.268  36.148  1.00  0.00    -0.237 OA
ATOM     98  O   UNL A   1      50.379  25.002  36.617  1.00  0.00    -0.237 OA
ATOM     99  O   UNL A   1      51.636  25.431  34.544  1.00  0.00    -0.744 OA
ENDBRANCH  95  96
ENDBRANCH  63  88
ENDBRANCH  37  38
ENDBRANCH  29  32
ENDBRANCH  27  28
ENDBRANCH  26  27
ENDBRANCH   1  26
TORSDOF 18
ENDMDL
