MODEL 1
REMARK VINA RESULT:     -11.2      0.000      0.000
REMARK SMILES CC[C@@H](C(=O)NCCCCNC(=O)c1ccc(-c2c3nc(c(-c4c(F)cc(S(=O)(=O)[O-])cc4F)c4ccc([nH]4)c(-c4c(F)cc(S(=O)(=O)[O-])cc4F)c4nc(c(-c5c(F)cc(S(=O)(=O)[O-])cc5F)c5ccc2[nH]5)C=C4)C=C3)cc1)N1C(=O)/C(=C\c2ccc(C(=O)OC)cc2)SC1=S
REMARK SMILES IDX 8 1 7 2 6 3 4 4 5 5 3 7 2 8 1 9 80 10 81 11 96 12 82 13
REMARK SMILES IDX 83 14 95 15 97 16 84 17 85 18 86 19 94 20 87 21 93 22 88 23
REMARK SMILES IDX 89 24 90 25 91 26 92 27 9 28 10 29 11 30 12 31 13 33 14 34
REMARK SMILES IDX 15 35 79 36 16 37 78 38 17 39 18 40 19 41 72 42 20 43 77 44
REMARK SMILES IDX 71 45 73 46 21 47 76 48 70 49 69 50 22 52 56 53 35 54 55 55
REMARK SMILES IDX 36 56 39 57 54 58 74 59 37 60 38 61 53 63 75 64 40 65 23 66
REMARK SMILES IDX 24 67 33 68 25 69 26 70 32 71 34 72 27 73 28 74 29 75 30 76
REMARK SMILES IDX 31 77 57 78 58 79 67 80 59 81 60 82 66 83 68 84 61 85 62 86
REMARK SMILES IDX 63 87 64 88 65 89 41 90 42 91 51 92 43 93 44 94 50 95 52 96
REMARK SMILES IDX 45 97 46 98 47 99 48 100 49 101
REMARK H PARENT 6 6 11 32 73 51 39 62
REMARK Flexibility Score: inf
ROOT
ATOM      1  C   UNL A   1      34.209  31.426  28.152  1.00  0.00     0.023 C 
ENDROOT
BRANCH   1   2
ATOM      2  C   UNL A   1      33.305  30.972  27.003  1.00  0.00     0.116 C 
BRANCH   2   3
ATOM      3  N   UNL A   1      34.001  29.993  26.187  1.00  0.00    -0.354 N 
ATOM      4  C   UNL A   1      33.548  28.805  25.687  1.00  0.00     0.243 C 
ATOM      5  O   UNL A   1      34.379  27.948  25.380  1.00  0.00    -0.273 OA
ATOM      6  H   UNL A   1      34.934  30.218  25.963  1.00  0.00     0.163 HD
BRANCH   4   7
ATOM      7  C   UNL A   1      32.035  28.558  25.526  1.00  0.00     0.181 C 
BRANCH   7   8
ATOM      8  C   UNL A   1      31.650  27.519  26.633  1.00  0.00     0.032 C 
ATOM      9  C   UNL A   1      31.397  28.076  28.022  1.00  0.00     0.006 C 
ENDBRANCH   7   8
BRANCH   7  10
ATOM     10  N   UNL A   1      31.707  27.977  24.188  1.00  0.00    -0.280 N 
ATOM     11  C   UNL A   1      31.880  26.615  24.053  1.00  0.00     0.266 C 
ATOM     12  C   UNL A   1      30.857  28.456  23.217  1.00  0.00     0.149 C 
ATOM     13  O   UNL A   1      31.919  25.830  24.990  1.00  0.00    -0.268 OA
ATOM     14  C   UNL A   1      31.841  26.218  22.621  1.00  0.00     0.081 C 
ATOM     15  S   UNL A   1      31.065  27.479  21.745  1.00  0.00    -0.054 SA
ATOM     16  S   UNL A   1      29.705  29.658  23.295  1.00  0.00    -0.052 S 
ATOM     17  C   UNL A   1      32.342  25.098  22.075  1.00  0.00     0.029 C 
BRANCH  17  18
ATOM     18  C   UNL A   1      33.003  24.028  22.835  1.00  0.00    -0.024 A 
ATOM     19  C   UNL A   1      34.346  24.140  23.208  1.00  0.00     0.009 A 
ATOM     20  C   UNL A   1      32.282  22.893  23.227  1.00  0.00     0.009 A 
ATOM     21  C   UNL A   1      34.936  23.163  24.021  1.00  0.00     0.016 A 
ATOM     22  C   UNL A   1      32.858  21.934  24.063  1.00  0.00     0.016 A 
ATOM     23  C   UNL A   1      34.185  22.072  24.478  1.00  0.00     0.060 A 
BRANCH  23  24
ATOM     24  C   UNL A   1      34.819  21.099  25.410  1.00  0.00     0.337 C 
ATOM     25  O   UNL A   1      35.965  20.687  25.286  1.00  0.00    -0.246 OA
BRANCH  24  26
ATOM     26  O   UNL A   1      33.961  20.775  26.408  1.00  0.00    -0.465 OA
ATOM     27  C   UNL A   1      34.006  21.648  27.536  1.00  0.00     0.282 C 
ENDBRANCH  24  26
ENDBRANCH  23  24
ENDBRANCH  17  18
ENDBRANCH   7  10
ENDBRANCH   4   7
ENDBRANCH   2   3
ENDBRANCH   1   2
BRANCH   1  28
ATOM     28  C   UNL A   1      35.422  32.242  27.723  1.00  0.00     0.023 C 
BRANCH  28  29
ATOM     29  C   UNL A   1      36.466  32.431  28.808  1.00  0.00     0.116 C 
BRANCH  29  30
ATOM     30  N   UNL A   1      36.032  31.930  30.106  1.00  0.00    -0.352 N 
ATOM     31  C   UNL A   1      36.533  30.879  30.836  1.00  0.00     0.251 C 
ATOM     32  H   UNL A   1      35.277  32.411  30.516  1.00  0.00     0.163 HD
ATOM     33  O   UNL A   1      35.955  30.497  31.848  1.00  0.00    -0.269 OA
BRANCH  31  34
ATOM     34  C   UNL A   1      37.753  30.193  30.361  1.00  0.00     0.039 A 
ATOM     35  C   UNL A   1      37.974  30.072  28.989  1.00  0.00     0.014 A 
ATOM     36  C   UNL A   1      38.711  29.750  31.276  1.00  0.00     0.014 A 
ATOM     37  C   UNL A   1      39.203  29.590  28.534  1.00  0.00     0.010 A 
ATOM     38  C   UNL A   1      39.966  29.368  30.822  1.00  0.00     0.010 A 
ATOM     39  C   UNL A   1      40.227  29.287  29.446  1.00  0.00    -0.014 A 
BRANCH  39  40
ATOM     40  C   UNL A   1      41.587  28.909  28.986  1.00  0.00     0.031 A 
ATOM     41  C   UNL A   1      42.668  29.951  28.895  1.00  0.00     0.074 A 
ATOM     42  C   UNL A   1      41.822  27.645  28.577  1.00  0.00     0.049 A 
ATOM     43  N   UNL A   1      43.890  29.834  28.446  1.00  0.00    -0.248 NA
ATOM     44  C   UNL A   1      42.319  31.312  29.334  1.00  0.00     0.031 C 
ATOM     45  C   UNL A   1      40.835  26.563  28.558  1.00  0.00     0.029 A 
ATOM     46  N   UNL A   1      42.961  27.059  28.084  1.00  0.00    -0.354 N 
ATOM     47  C   UNL A   1      44.449  31.103  28.537  1.00  0.00     0.074 A 
ATOM     48  C   UNL A   1      43.415  31.987  29.024  1.00  0.00     0.031 C 
ATOM     49  C   UNL A   1      41.418  25.440  28.107  1.00  0.00     0.029 A 
ATOM     50  C   UNL A   1      42.805  25.730  27.762  1.00  0.00     0.049 A 
ATOM     51  H   UNL A   1      43.811  27.544  27.971  1.00  0.00     0.167 HD
ATOM     52  C   UNL A   1      45.719  31.489  28.265  1.00  0.00     0.037 A 
ATOM     53  C   UNL A   1      43.679  24.849  27.238  1.00  0.00     0.037 A 
ATOM     54  C   UNL A   1      46.747  30.594  27.804  1.00  0.00     0.049 A 
ATOM     55  C   UNL A   1      45.081  25.303  26.941  1.00  0.00     0.074 A 
ATOM     56  C   UNL A   1      48.082  30.870  27.564  1.00  0.00     0.029 A 
ATOM     57  N   UNL A   1      46.556  29.253  27.505  1.00  0.00    -0.354 N 
ATOM     58  N   UNL A   1      45.616  26.489  27.108  1.00  0.00    -0.248 NA
ATOM     59  C   UNL A   1      46.001  24.301  26.385  1.00  0.00     0.031 C 
ATOM     60  C   UNL A   1      48.685  29.708  27.071  1.00  0.00     0.029 A 
ATOM     61  C   UNL A   1      47.740  28.694  27.056  1.00  0.00     0.049 A 
ATOM     62  H   UNL A   1      45.703  28.769  27.598  1.00  0.00     0.167 HD
ATOM     63  C   UNL A   1      46.939  26.371  26.696  1.00  0.00     0.074 A 
ATOM     64  C   UNL A   1      47.127  24.993  26.292  1.00  0.00     0.031 C 
ATOM     65  C   UNL A   1      47.909  27.319  26.654  1.00  0.00     0.037 A 
BRANCH  52  66
ATOM     66  C   UNL A   1      46.066  32.939  28.468  1.00  0.00     0.058 A 
ATOM     67  C   UNL A   1      46.571  33.412  29.689  1.00  0.00     0.135 A 
ATOM     68  C   UNL A   1      45.923  33.861  27.418  1.00  0.00     0.135 A 
ATOM     69  F   UNL A   1      46.712  32.579  30.733  1.00  0.00    -0.206 F 
ATOM     70  C   UNL A   1      46.896  34.752  29.873  1.00  0.00     0.059 A 
ATOM     71  C   UNL A   1      46.271  35.201  27.570  1.00  0.00     0.059 A 
ATOM     72  F   UNL A   1      45.442  33.464  26.230  1.00  0.00    -0.206 F 
ATOM     73  C   UNL A   1      46.744  35.639  28.805  1.00  0.00     0.060 A 
BRANCH  73  74
ATOM     74  S   UNL A   1      47.180  37.372  29.060  1.00  0.00     0.124 S 
ATOM     75  O   UNL A   1      47.065  37.902  27.705  1.00  0.00    -0.237 OA
ATOM     76  O   UNL A   1      46.158  37.816  30.002  1.00  0.00    -0.237 OA
ATOM     77  O   UNL A   1      48.536  37.306  29.595  1.00  0.00    -0.744 OA
ENDBRANCH  73  74
ENDBRANCH  52  66
BRANCH  53  78
ATOM     78  C   UNL A   1      43.256  23.445  26.978  1.00  0.00     0.058 A 
ATOM     79  C   UNL A   1      43.076  22.977  25.669  1.00  0.00     0.135 A 
ATOM     80  C   UNL A   1      43.040  22.541  28.031  1.00  0.00     0.135 A 
ATOM     81  F   UNL A   1      43.264  23.803  24.629  1.00  0.00    -0.206 F 
ATOM     82  C   UNL A   1      42.681  21.668  25.410  1.00  0.00     0.059 A 
ATOM     83  C   UNL A   1      42.671  21.220  27.796  1.00  0.00     0.059 A 
ATOM     84  F   UNL A   1      43.214  22.933  29.302  1.00  0.00    -0.206 F 
ATOM     85  C   UNL A   1      42.484  20.795  26.481  1.00  0.00     0.060 A 
BRANCH  85  86
ATOM     86  S   UNL A   1      42.022  19.085  26.131  1.00  0.00     0.124 S 
ATOM     87  O   UNL A   1      40.601  19.221  25.827  1.00  0.00    -0.237 OA
ATOM     88  O   UNL A   1      42.889  18.758  25.003  1.00  0.00    -0.237 OA
ATOM     89  O   UNL A   1      42.338  18.391  27.375  1.00  0.00    -0.744 OA
ENDBRANCH  85  86
ENDBRANCH  53  78
BRANCH  65  90
ATOM     90  C   UNL A   1      49.268  26.894  26.170  1.00  0.00     0.058 A 
ATOM     91  C   UNL A   1      49.668  27.088  24.839  1.00  0.00     0.135 A 
ATOM     92  C   UNL A   1      50.199  26.333  27.059  1.00  0.00     0.135 A 
ATOM     93  F   UNL A   1      48.814  27.614  23.945  1.00  0.00    -0.206 F 
ATOM     94  C   UNL A   1      50.936  26.720  24.401  1.00  0.00     0.059 A 
ATOM     95  C   UNL A   1      51.482  25.985  26.649  1.00  0.00     0.059 A 
ATOM     96  F   UNL A   1      49.871  26.135  28.345  1.00  0.00    -0.206 F 
ATOM     97  C   UNL A   1      51.837  26.172  25.315  1.00  0.00     0.060 A 
BRANCH  97  98
ATOM     98  S   UNL A   1      53.489  25.730  24.740  1.00  0.00     0.124 S 
ATOM     99  O   UNL A   1      53.533  24.302  25.038  1.00  0.00    -0.237 OA
ATOM    100  O   UNL A   1      53.431  26.079  23.324  1.00  0.00    -0.237 OA
ATOM    101  O   UNL A   1      54.368  26.568  25.550  1.00  0.00    -0.744 OA
ENDBRANCH  97  98
ENDBRANCH  65  90
ENDBRANCH  39  40
ENDBRANCH  31  34
ENDBRANCH  29  30
ENDBRANCH  28  29
ENDBRANCH   1  28
TORSDOF 19
ENDMDL
MODEL 2
REMARK VINA RESULT:     -10.9      6.189     10.240
REMARK SMILES CC[C@@H](C(=O)NCCCCNC(=O)c1ccc(-c2c3nc(c(-c4c(F)cc(S(=O)(=O)[O-])cc4F)c4ccc([nH]4)c(-c4c(F)cc(S(=O)(=O)[O-])cc4F)c4nc(c(-c5c(F)cc(S(=O)(=O)[O-])cc5F)c5ccc2[nH]5)C=C4)C=C3)cc1)N1C(=O)/C(=C\c2ccc(C(=O)OC)cc2)SC1=S
REMARK SMILES IDX 8 1 7 2 6 3 4 4 5 5 3 7 2 8 1 9 80 10 81 11 96 12 82 13
REMARK SMILES IDX 83 14 95 15 97 16 84 17 85 18 86 19 94 20 87 21 93 22 88 23
REMARK SMILES IDX 89 24 90 25 91 26 92 27 9 28 10 29 11 30 12 31 13 33 14 34
REMARK SMILES IDX 15 35 79 36 16 37 78 38 17 39 18 40 19 41 72 42 20 43 77 44
REMARK SMILES IDX 71 45 73 46 21 47 76 48 70 49 69 50 22 52 56 53 35 54 55 55
REMARK SMILES IDX 36 56 39 57 54 58 74 59 37 60 38 61 53 63 75 64 40 65 23 66
REMARK SMILES IDX 24 67 33 68 25 69 26 70 32 71 34 72 27 73 28 74 29 75 30 76
REMARK SMILES IDX 31 77 57 78 58 79 67 80 59 81 60 82 66 83 68 84 61 85 62 86
REMARK SMILES IDX 63 87 64 88 65 89 41 90 42 91 51 92 43 93 44 94 50 95 52 96
REMARK SMILES IDX 45 97 46 98 47 99 48 100 49 101
REMARK H PARENT 6 6 11 32 73 51 39 62
REMARK Flexibility Score: inf
ROOT
ATOM      1  C   UNL A   1      33.513  30.407  27.229  1.00  0.00     0.023 C 
ENDROOT
BRANCH   1   2
ATOM      2  C   UNL A   1      34.015  28.964  27.138  1.00  0.00     0.116 C 
BRANCH   2   3
ATOM      3  N   UNL A   1      32.916  28.045  27.372  1.00  0.00    -0.354 N 
ATOM      4  C   UNL A   1      32.069  27.462  26.471  1.00  0.00     0.243 C 
ATOM      5  O   UNL A   1      30.979  27.055  26.877  1.00  0.00    -0.273 OA
ATOM      6  H   UNL A   1      32.757  27.809  28.315  1.00  0.00     0.163 HD
BRANCH   4   7
ATOM      7  C   UNL A   1      32.480  27.333  24.991  1.00  0.00     0.181 C 
BRANCH   7   8
ATOM      8  C   UNL A   1      31.758  28.504  24.242  1.00  0.00     0.032 C 
ATOM      9  C   UNL A   1      32.104  28.681  22.775  1.00  0.00     0.006 C 
ENDBRANCH   7   8
BRANCH   7  10
ATOM     10  N   UNL A   1      32.029  26.035  24.401  1.00  0.00    -0.280 N 
ATOM     11  C   UNL A   1      32.813  24.933  24.676  1.00  0.00     0.266 C 
ATOM     12  C   UNL A   1      30.767  25.648  24.014  1.00  0.00     0.149 C 
ATOM     13  O   UNL A   1      33.591  24.859  25.616  1.00  0.00    -0.268 OA
ATOM     14  C   UNL A   1      32.458  23.798  23.783  1.00  0.00     0.081 C 
ATOM     15  S   UNL A   1      30.886  24.097  23.151  1.00  0.00    -0.054 SA
ATOM     16  S   UNL A   1      29.286  26.349  24.321  1.00  0.00    -0.052 S 
ATOM     17  C   UNL A   1      33.218  22.735  23.481  1.00  0.00     0.029 C 
BRANCH  17  18
ATOM     18  C   UNL A   1      34.560  22.491  24.029  1.00  0.00    -0.024 A 
ATOM     19  C   UNL A   1      35.690  23.059  23.432  1.00  0.00     0.009 A 
ATOM     20  C   UNL A   1      34.721  21.711  25.182  1.00  0.00     0.009 A 
ATOM     21  C   UNL A   1      36.952  22.906  24.023  1.00  0.00     0.016 A 
ATOM     22  C   UNL A   1      35.971  21.583  25.790  1.00  0.00     0.016 A 
ATOM     23  C   UNL A   1      37.093  22.194  25.222  1.00  0.00     0.060 A 
BRANCH  23  24
ATOM     24  C   UNL A   1      38.432  22.124  25.867  1.00  0.00     0.337 C 
ATOM     25  O   UNL A   1      39.198  21.178  25.743  1.00  0.00    -0.246 OA
BRANCH  24  26
ATOM     26  O   UNL A   1      38.677  23.258  26.569  1.00  0.00    -0.465 OA
ATOM     27  C   UNL A   1      40.036  23.425  26.972  1.00  0.00     0.282 C 
ENDBRANCH  24  26
ENDBRANCH  23  24
ENDBRANCH  17  18
ENDBRANCH   7  10
ENDBRANCH   4   7
ENDBRANCH   2   3
ENDBRANCH   1   2
BRANCH   1  28
ATOM     28  C   UNL A   1      34.360  31.321  28.104  1.00  0.00     0.023 C 
BRANCH  28  29
ATOM     29  C   UNL A   1      34.516  32.734  27.571  1.00  0.00     0.116 C 
BRANCH  29  30
ATOM     30  N   UNL A   1      33.572  33.671  28.167  1.00  0.00    -0.352 N 
ATOM     31  C   UNL A   1      33.577  34.213  29.431  1.00  0.00     0.251 C 
ATOM     32  H   UNL A   1      32.831  33.956  27.585  1.00  0.00     0.163 HD
ATOM     33  O   UNL A   1      32.623  34.876  29.824  1.00  0.00    -0.269 OA
BRANCH  31  34
ATOM     34  C   UNL A   1      34.728  33.949  30.319  1.00  0.00     0.039 A 
ATOM     35  C   UNL A   1      34.631  32.939  31.277  1.00  0.00     0.014 A 
ATOM     36  C   UNL A   1      35.926  34.646  30.142  1.00  0.00     0.014 A 
ATOM     37  C   UNL A   1      35.769  32.564  31.994  1.00  0.00     0.010 A 
ATOM     38  C   UNL A   1      37.076  34.204  30.782  1.00  0.00     0.010 A 
ATOM     39  C   UNL A   1      37.011  33.156  31.711  1.00  0.00    -0.014 A 
BRANCH  39  40
ATOM     40  C   UNL A   1      38.260  32.680  32.357  1.00  0.00     0.031 A 
ATOM     41  C   UNL A   1      39.225  31.821  31.586  1.00  0.00     0.074 A 
ATOM     42  C   UNL A   1      38.483  32.955  33.659  1.00  0.00     0.049 A 
ATOM     43  N   UNL A   1      40.326  31.247  31.995  1.00  0.00    -0.248 NA
ATOM     44  C   UNL A   1      38.893  31.544  30.179  1.00  0.00     0.031 C 
ATOM     45  C   UNL A   1      37.588  33.724  34.527  1.00  0.00     0.029 A 
ATOM     46  N   UNL A   1      39.523  32.609  34.484  1.00  0.00    -0.354 N 
ATOM     47  C   UNL A   1      40.808  30.533  30.905  1.00  0.00     0.074 A 
ATOM     48  C   UNL A   1      39.849  30.695  29.836  1.00  0.00     0.031 C 
ATOM     49  C   UNL A   1      38.131  33.816  35.751  1.00  0.00     0.029 A 
ATOM     50  C   UNL A   1      39.388  33.077  35.771  1.00  0.00     0.049 A 
ATOM     51  H   UNL A   1      40.295  32.076  34.182  1.00  0.00     0.167 HD
ATOM     52  C   UNL A   1      41.960  29.829  30.797  1.00  0.00     0.037 A 
ATOM     53  C   UNL A   1      40.183  32.918  36.847  1.00  0.00     0.037 A 
ATOM     54  C   UNL A   1      42.920  29.695  31.860  1.00  0.00     0.049 A 
ATOM     55  C   UNL A   1      41.455  32.128  36.703  1.00  0.00     0.074 A 
ATOM     56  C   UNL A   1      44.149  29.061  31.833  1.00  0.00     0.029 A 
ATOM     57  N   UNL A   1      42.756  30.195  33.144  1.00  0.00    -0.354 N 
ATOM     58  N   UNL A   1      41.935  31.526  35.641  1.00  0.00    -0.248 NA
ATOM     59  C   UNL A   1      42.295  31.997  37.901  1.00  0.00     0.031 C 
ATOM     60  C   UNL A   1      44.706  29.135  33.114  1.00  0.00     0.029 A 
ATOM     61  C   UNL A   1      43.849  29.861  33.926  1.00  0.00     0.049 A 
ATOM     62  H   UNL A   1      41.977  30.713  33.453  1.00  0.00     0.167 HD
ATOM     63  C   UNL A   1      43.141  30.961  36.037  1.00  0.00     0.074 A 
ATOM     64  C   UNL A   1      43.327  31.311  37.430  1.00  0.00     0.031 C 
ATOM     65  C   UNL A   1      44.015  30.217  35.314  1.00  0.00     0.037 A 
BRANCH  52  66
ATOM     66  C   UNL A   1      42.247  29.158  29.481  1.00  0.00     0.058 A 
ATOM     67  C   UNL A   1      43.040  29.772  28.498  1.00  0.00     0.135 A 
ATOM     68  C   UNL A   1      41.752  27.872  29.212  1.00  0.00     0.135 A 
ATOM     69  F   UNL A   1      43.526  31.009  28.694  1.00  0.00    -0.206 F 
ATOM     70  C   UNL A   1      43.309  29.148  27.284  1.00  0.00     0.059 A 
ATOM     71  C   UNL A   1      42.034  27.215  28.016  1.00  0.00     0.059 A 
ATOM     72  F   UNL A   1      40.987  27.239  30.114  1.00  0.00    -0.206 F 
ATOM     73  C   UNL A   1      42.802  27.868  27.053  1.00  0.00     0.060 A 
BRANCH  73  74
ATOM     74  S   UNL A   1      43.169  27.070  25.476  1.00  0.00     0.124 S 
ATOM     75  O   UNL A   1      44.628  27.110  25.464  1.00  0.00    -0.237 OA
ATOM     76  O   UNL A   1      42.573  25.749  25.649  1.00  0.00    -0.237 OA
ATOM     77  O   UNL A   1      42.509  27.930  24.498  1.00  0.00    -0.744 OA
ENDBRANCH  73  74
ENDBRANCH  52  66
BRANCH  53  78
ATOM     78  C   UNL A   1      39.806  33.534  38.149  1.00  0.00     0.058 A 
ATOM     79  C   UNL A   1      38.820  32.957  38.961  1.00  0.00     0.135 A 
ATOM     80  C   UNL A   1      40.435  34.700  38.614  1.00  0.00     0.135 A 
ATOM     81  F   UNL A   1      38.185  31.845  38.559  1.00  0.00    -0.206 F 
ATOM     82  C   UNL A   1      38.457  33.521  40.181  1.00  0.00     0.059 A 
ATOM     83  C   UNL A   1      40.108  35.267  39.842  1.00  0.00     0.059 A 
ATOM     84  F   UNL A   1      41.397  35.283  37.883  1.00  0.00    -0.206 F 
ATOM     85  C   UNL A   1      39.110  34.675  40.615  1.00  0.00     0.060 A 
BRANCH  85  86
ATOM     86  S   UNL A   1      38.666  35.369  42.222  1.00  0.00     0.124 S 
ATOM     87  O   UNL A   1      39.052  36.766  42.056  1.00  0.00    -0.237 OA
ATOM     88  O   UNL A   1      37.232  35.103  42.284  1.00  0.00    -0.237 OA
ATOM     89  O   UNL A   1      39.480  34.596  43.156  1.00  0.00    -0.744 OA
ENDBRANCH  85  86
ENDBRANCH  53  78
BRANCH  65  90
ATOM     90  C   UNL A   1      45.262  29.744  36.011  1.00  0.00     0.058 A 
ATOM     91  C   UNL A   1      46.430  30.520  36.034  1.00  0.00     0.135 A 
ATOM     92  C   UNL A   1      45.270  28.524  36.707  1.00  0.00     0.135 A 
ATOM     93  F   UNL A   1      46.479  31.691  35.378  1.00  0.00    -0.206 F 
ATOM     94  C   UNL A   1      47.573  30.093  36.703  1.00  0.00     0.059 A 
ATOM     95  C   UNL A   1      46.391  28.092  37.408  1.00  0.00     0.059 A 
ATOM     96  F   UNL A   1      44.175  27.749  36.725  1.00  0.00    -0.206 F 
ATOM     97  C   UNL A   1      47.542  28.878  37.390  1.00  0.00     0.060 A 
BRANCH  97  98
ATOM     98  S   UNL A   1      49.020  28.352  38.283  1.00  0.00     0.124 S 
ATOM     99  O   UNL A   1      49.837  29.560  38.235  1.00  0.00    -0.237 OA
ATOM    100  O   UNL A   1      48.484  28.001  39.594  1.00  0.00    -0.237 OA
ATOM    101  O   UNL A   1      49.513  27.228  37.492  1.00  0.00    -0.744 OA
ENDBRANCH  97  98
ENDBRANCH  65  90
ENDBRANCH  39  40
ENDBRANCH  31  34
ENDBRANCH  29  30
ENDBRANCH  28  29
ENDBRANCH   1  28
TORSDOF 19
ENDMDL
MODEL 3
REMARK VINA RESULT:     -10.4      6.176     13.532
REMARK SMILES CC[C@@H](C(=O)NCCCCNC(=O)c1ccc(-c2c3nc(c(-c4c(F)cc(S(=O)(=O)[O-])cc4F)c4ccc([nH]4)c(-c4c(F)cc(S(=O)(=O)[O-])cc4F)c4nc(c(-c5c(F)cc(S(=O)(=O)[O-])cc5F)c5ccc2[nH]5)C=C4)C=C3)cc1)N1C(=O)/C(=C\c2ccc(C(=O)OC)cc2)SC1=S
REMARK SMILES IDX 8 1 7 2 6 3 4 4 5 5 3 7 2 8 1 9 80 10 81 11 96 12 82 13
REMARK SMILES IDX 83 14 95 15 97 16 84 17 85 18 86 19 94 20 87 21 93 22 88 23
REMARK SMILES IDX 89 24 90 25 91 26 92 27 9 28 10 29 11 30 12 31 13 33 14 34
REMARK SMILES IDX 15 35 79 36 16 37 78 38 17 39 18 40 19 41 72 42 20 43 77 44
REMARK SMILES IDX 71 45 73 46 21 47 76 48 70 49 69 50 22 52 56 53 35 54 55 55
REMARK SMILES IDX 36 56 39 57 54 58 74 59 37 60 38 61 53 63 75 64 40 65 23 66
REMARK SMILES IDX 24 67 33 68 25 69 26 70 32 71 34 72 27 73 28 74 29 75 30 76
REMARK SMILES IDX 31 77 57 78 58 79 67 80 59 81 60 82 66 83 68 84 61 85 62 86
REMARK SMILES IDX 63 87 64 88 65 89 41 90 42 91 51 92 43 93 44 94 50 95 52 96
REMARK SMILES IDX 45 97 46 98 47 99 48 100 49 101
REMARK H PARENT 6 6 11 32 73 51 39 62
REMARK Flexibility Score: inf
ROOT
ATOM      1  C   UNL A   1      46.444  28.741  25.675  1.00  0.00     0.023 C 
ENDROOT
BRANCH   1   2
ATOM      2  C   UNL A   1      45.868  30.093  26.103  1.00  0.00     0.116 C 
BRANCH   2   3
ATOM      3  N   UNL A   1      46.803  30.769  26.984  1.00  0.00    -0.354 N 
ATOM      4  C   UNL A   1      46.644  31.147  28.288  1.00  0.00     0.243 C 
ATOM      5  O   UNL A   1      47.366  32.045  28.726  1.00  0.00    -0.273 OA
ATOM      6  H   UNL A   1      47.677  30.987  26.585  1.00  0.00     0.163 HD
BRANCH   4   7
ATOM      7  C   UNL A   1      45.582  30.463  29.170  1.00  0.00     0.181 C 
BRANCH   7   8
ATOM      8  C   UNL A   1      44.932  31.606  30.022  1.00  0.00     0.032 C 
ATOM      9  C   UNL A   1      43.448  31.845  29.811  1.00  0.00     0.006 C 
ENDBRANCH   7   8
BRANCH   7  10
ATOM     10  N   UNL A   1      46.190  29.460  30.097  1.00  0.00    -0.280 N 
ATOM     11  C   UNL A   1      46.416  28.202  29.575  1.00  0.00     0.266 C 
ATOM     12  C   UNL A   1      46.966  29.667  31.214  1.00  0.00     0.149 C 
ATOM     13  O   UNL A   1      46.504  27.959  28.379  1.00  0.00    -0.268 OA
ATOM     14  C   UNL A   1      46.706  27.226  30.657  1.00  0.00     0.081 C 
ATOM     15  S   UNL A   1      47.185  28.113  32.052  1.00  0.00    -0.054 SA
ATOM     16  S   UNL A   1      47.725  31.049  31.754  1.00  0.00    -0.052 S 
ATOM     17  C   UNL A   1      46.592  25.890  30.598  1.00  0.00     0.029 C 
BRANCH  17  18
ATOM     18  C   UNL A   1      46.183  25.145  29.400  1.00  0.00    -0.024 A 
ATOM     19  C   UNL A   1      47.101  24.867  28.381  1.00  0.00     0.009 A 
ATOM     20  C   UNL A   1      44.870  24.670  29.278  1.00  0.00     0.009 A 
ATOM     21  C   UNL A   1      46.727  24.066  27.294  1.00  0.00     0.016 A 
ATOM     22  C   UNL A   1      44.504  23.847  28.212  1.00  0.00     0.016 A 
ATOM     23  C   UNL A   1      45.436  23.526  27.220  1.00  0.00     0.060 A 
BRANCH  23  24
ATOM     24  C   UNL A   1      45.099  22.611  26.096  1.00  0.00     0.337 C 
ATOM     25  O   UNL A   1      44.035  22.637  25.493  1.00  0.00    -0.246 OA
BRANCH  24  26
ATOM     26  O   UNL A   1      46.142  21.786  25.832  1.00  0.00    -0.465 OA
ATOM     27  C   UNL A   1      45.800  20.615  25.091  1.00  0.00     0.282 C 
ENDBRANCH  24  26
ENDBRANCH  23  24
ENDBRANCH  17  18
ENDBRANCH   7  10
ENDBRANCH   4   7
ENDBRANCH   2   3
ENDBRANCH   1   2
BRANCH   1  28
ATOM     28  C   UNL A   1      45.449  27.813  24.991  1.00  0.00     0.023 C 
BRANCH  28  29
ATOM     29  C   UNL A   1      44.839  26.764  25.904  1.00  0.00     0.116 C 
BRANCH  29  30
ATOM     30  N   UNL A   1      43.790  25.989  25.255  1.00  0.00    -0.352 N 
ATOM     31  C   UNL A   1      42.465  25.872  25.601  1.00  0.00     0.251 C 
ATOM     32  H   UNL A   1      44.069  25.480  24.459  1.00  0.00     0.163 HD
ATOM     33  O   UNL A   1      41.746  25.058  25.030  1.00  0.00    -0.269 OA
BRANCH  31  34
ATOM     34  C   UNL A   1      41.933  26.710  26.695  1.00  0.00     0.039 A 
ATOM     35  C   UNL A   1      41.376  26.093  27.816  1.00  0.00     0.014 A 
ATOM     36  C   UNL A   1      42.066  28.100  26.642  1.00  0.00     0.014 A 
ATOM     37  C   UNL A   1      41.039  26.869  28.926  1.00  0.00     0.010 A 
ATOM     38  C   UNL A   1      41.824  28.855  27.782  1.00  0.00     0.010 A 
ATOM     39  C   UNL A   1      41.312  28.247  28.938  1.00  0.00    -0.014 A 
BRANCH  39  40
ATOM     40  C   UNL A   1      41.094  29.070  30.154  1.00  0.00     0.031 A 
ATOM     41  C   UNL A   1      41.950  28.853  31.372  1.00  0.00     0.074 A 
ATOM     42  C   UNL A   1      40.074  29.953  30.186  1.00  0.00     0.049 A 
ATOM     43  N   UNL A   1      41.865  29.415  32.550  1.00  0.00    -0.248 NA
ATOM     44  C   UNL A   1      43.022  27.850  31.263  1.00  0.00     0.031 C 
ATOM     45  C   UNL A   1      39.136  30.203  29.089  1.00  0.00     0.029 A 
ATOM     46  N   UNL A   1      39.647  30.794  31.183  1.00  0.00    -0.354 N 
ATOM     47  C   UNL A   1      42.860  28.826  33.322  1.00  0.00     0.074 A 
ATOM     48  C   UNL A   1      43.494  27.820  32.500  1.00  0.00     0.031 C 
ATOM     49  C   UNL A   1      38.265  31.154  29.462  1.00  0.00     0.029 A 
ATOM     50  C   UNL A   1      38.550  31.549  30.837  1.00  0.00     0.049 A 
ATOM     51  H   UNL A   1      40.085  30.852  32.063  1.00  0.00     0.167 HD
ATOM     52  C   UNL A   1      43.228  29.117  34.592  1.00  0.00     0.037 A 
ATOM     53  C   UNL A   1      37.848  32.450  31.550  1.00  0.00     0.037 A 
ATOM     54  C   UNL A   1      42.605  30.138  35.393  1.00  0.00     0.049 A 
ATOM     55  C   UNL A   1      38.274  32.753  32.961  1.00  0.00     0.074 A 
ATOM     56  C   UNL A   1      42.947  30.558  36.666  1.00  0.00     0.029 A 
ATOM     57  N   UNL A   1      41.508  30.893  35.003  1.00  0.00    -0.354 N 
ATOM     58  N   UNL A   1      39.268  32.243  33.649  1.00  0.00    -0.248 NA
ATOM     59  C   UNL A   1      37.486  33.754  33.693  1.00  0.00     0.031 C 
ATOM     60  C   UNL A   1      42.025  31.532  37.066  1.00  0.00     0.029 A 
ATOM     61  C   UNL A   1      41.142  31.756  36.021  1.00  0.00     0.049 A 
ATOM     62  H   UNL A   1      41.057  30.824  34.130  1.00  0.00     0.167 HD
ATOM     63  C   UNL A   1      39.237  32.875  34.887  1.00  0.00     0.074 A 
ATOM     64  C   UNL A   1      38.139  33.818  34.845  1.00  0.00     0.031 C 
ATOM     65  C   UNL A   1      40.042  32.688  35.962  1.00  0.00     0.037 A 
BRANCH  52  66
ATOM     66  C   UNL A   1      44.361  28.327  35.189  1.00  0.00     0.058 A 
ATOM     67  C   UNL A   1      44.169  27.034  35.702  1.00  0.00     0.135 A 
ATOM     68  C   UNL A   1      45.662  28.855  35.219  1.00  0.00     0.135 A 
ATOM     69  F   UNL A   1      42.942  26.486  35.715  1.00  0.00    -0.206 F 
ATOM     70  C   UNL A   1      45.218  26.304  36.249  1.00  0.00     0.059 A 
ATOM     71  C   UNL A   1      46.734  28.130  35.734  1.00  0.00     0.059 A 
ATOM     72  F   UNL A   1      45.903  30.087  34.745  1.00  0.00    -0.206 F 
ATOM     73  C   UNL A   1      46.499  26.860  36.259  1.00  0.00     0.060 A 
BRANCH  73  74
ATOM     74  S   UNL A   1      47.850  25.894  36.964  1.00  0.00     0.124 S 
ATOM     75  O   UNL A   1      47.473  24.539  36.572  1.00  0.00    -0.237 OA
ATOM     76  O   UNL A   1      49.017  26.448  36.286  1.00  0.00    -0.237 OA
ATOM     77  O   UNL A   1      47.764  26.180  38.393  1.00  0.00    -0.744 OA
ENDBRANCH  73  74
ENDBRANCH  52  66
BRANCH  53  78
ATOM     78  C   UNL A   1      36.681  33.142  30.937  1.00  0.00     0.058 A 
ATOM     79  C   UNL A   1      35.371  32.823  31.321  1.00  0.00     0.135 A 
ATOM     80  C   UNL A   1      36.853  34.144  29.968  1.00  0.00     0.135 A 
ATOM     81  F   UNL A   1      35.153  31.869  32.239  1.00  0.00    -0.206 F 
ATOM     82  C   UNL A   1      34.270  33.461  30.756  1.00  0.00     0.059 A 
ATOM     83  C   UNL A   1      35.769  34.814  29.409  1.00  0.00     0.059 A 
ATOM     84  F   UNL A   1      38.086  34.497  29.577  1.00  0.00    -0.206 F 
ATOM     85  C   UNL A   1      34.479  34.459  29.803  1.00  0.00     0.060 A 
BRANCH  85  86
ATOM     86  S   UNL A   1      33.045  35.314  29.115  1.00  0.00     0.124 S 
ATOM     87  O   UNL A   1      32.487  34.292  28.237  1.00  0.00    -0.237 OA
ATOM     88  O   UNL A   1      32.270  35.623  30.312  1.00  0.00    -0.237 OA
ATOM     89  O   UNL A   1      33.635  36.469  28.444  1.00  0.00    -0.744 OA
ENDBRANCH  85  86
ENDBRANCH  53  78
BRANCH  65  90
ATOM     90  C   UNL A   1      39.778  33.534  37.178  1.00  0.00     0.058 A 
ATOM     91  C   UNL A   1      40.434  34.758  37.379  1.00  0.00     0.135 A 
ATOM     92  C   UNL A   1      38.820  33.139  38.126  1.00  0.00     0.135 A 
ATOM     93  F   UNL A   1      41.364  35.179  36.507  1.00  0.00    -0.206 F 
ATOM     94  C   UNL A   1      40.166  35.550  38.491  1.00  0.00     0.059 A 
ATOM     95  C   UNL A   1      38.515  33.930  39.229  1.00  0.00     0.059 A 
ATOM     96  F   UNL A   1      38.157  31.982  37.976  1.00  0.00    -0.206 F 
ATOM     97  C   UNL A   1      39.202  35.129  39.408  1.00  0.00     0.060 A 
BRANCH  97  98
ATOM     98  S   UNL A   1      38.841  36.184  40.827  1.00  0.00     0.124 S 
ATOM     99  O   UNL A   1      37.778  35.436  41.488  1.00  0.00    -0.237 OA
ATOM    100  O   UNL A   1      40.122  36.216  41.527  1.00  0.00    -0.237 OA
ATOM    101  O   UNL A   1      38.436  37.447  40.219  1.00  0.00    -0.744 OA
ENDBRANCH  97  98
ENDBRANCH  65  90
ENDBRANCH  39  40
ENDBRANCH  31  34
ENDBRANCH  29  30
ENDBRANCH  28  29
ENDBRANCH   1  28
TORSDOF 19
ENDMDL
