MODEL 1
REMARK VINA RESULT:     -13.9      0.000      0.000
REMARK SMILES COC(=O)c1ccc(NC(=O)[C@@H]2CC=CC[C@@H]2C(=O)NCCCCNC(=O)c2ccc(-c3c4nc(c(-c5c(F)cc(S(=O)(=O)[O-])cc5F)c5ccc([nH]5)c(-c5c(F)cc(S(=O)(=O)[O-])cc5F)c5nc(c(-c6c(F)cc(S(=O)(=O)[O-])cc6F)c6ccc3[nH]6)C=C5)C=C4)cc2)c(C)c1
REMARK SMILES IDX 22 1 21 2 20 3 18 4 19 5 17 7 12 8 13 9 14 10 16 11 15 12
REMARK SMILES IDX 10 13 9 14 11 16 8 17 5 18 6 19 96 20 7 21 94 22 95 23 3 24
REMARK SMILES IDX 4 25 2 26 1 27 23 28 24 29 25 30 26 31 27 33 28 34 29 35
REMARK SMILES IDX 93 36 30 37 92 38 31 39 32 40 33 41 86 42 34 43 91 44 85 45
REMARK SMILES IDX 87 46 35 47 90 48 84 49 83 50 36 52 70 53 49 54 69 55 50 56
REMARK SMILES IDX 53 57 68 58 88 59 51 60 52 61 67 63 89 64 54 65 37 66 38 67
REMARK SMILES IDX 47 68 39 69 40 70 46 71 48 72 41 73 42 74 43 75 44 76 45 77
REMARK SMILES IDX 71 78 72 79 81 80 73 81 74 82 80 83 82 84 75 85 76 86 77 87
REMARK SMILES IDX 78 88 79 89 55 90 56 91 65 92 57 93 58 94 64 95 66 96 59 97
REMARK SMILES IDX 60 98 61 99 62 100 63 101
REMARK H PARENT 20 6 9 15 25 32 87 51 53 62
REMARK Flexibility Score: inf
ROOT
ATOM      1  C   UNL A   1      36.946  22.675  23.970  1.00  0.00     0.023 C 
ENDROOT
BRANCH   1   2
ATOM      2  C   UNL A   1      35.712  23.555  24.207  1.00  0.00     0.116 C 
BRANCH   2   3
ATOM      3  N   UNL A   1      35.106  23.311  25.500  1.00  0.00    -0.356 N 
ATOM      4  C   UNL A   1      33.827  23.336  25.942  1.00  0.00     0.224 C 
ATOM      5  O   UNL A   1      33.685  22.927  27.102  1.00  0.00    -0.275 OA
ATOM      6  H   UNL A   1      35.759  23.080  26.200  1.00  0.00     0.163 HD
BRANCH   4   7
ATOM      7  C   UNL A   1      32.614  23.788  25.085  1.00  0.00     0.095 C 
ATOM      8  C   UNL A   1      31.239  23.108  25.369  1.00  0.00     0.095 C 
ATOM      9  C   UNL A   1      31.470  21.593  25.471  1.00  0.00     0.041 C 
ATOM     10  C   UNL A   1      32.148  21.098  24.214  1.00  0.00    -0.030 C 
ATOM     11  C   UNL A   1      32.934  23.410  23.606  1.00  0.00     0.041 C 
ATOM     12  C   UNL A   1      32.763  21.923  23.347  1.00  0.00    -0.030 C 
BRANCH   8  13
ATOM     13  C   UNL A   1      30.395  23.823  26.420  1.00  0.00     0.228 C 
ATOM     14  N   UNL A   1      29.665  24.940  26.133  1.00  0.00    -0.326 N 
ATOM     15  H   UNL A   1      28.819  25.008  26.630  1.00  0.00     0.169 HD
ATOM     16  O   UNL A   1      30.371  23.426  27.588  1.00  0.00    -0.274 OA
BRANCH  14  17
ATOM     17  C   UNL A   1      29.906  26.008  25.254  1.00  0.00     0.044 A 
ATOM     18  C   UNL A   1      30.518  28.061  23.430  1.00  0.00     0.060 A 
ATOM     19  C   UNL A   1      29.537  27.118  23.121  1.00  0.00     0.018 A 
ATOM     20  C   UNL A   1      31.186  27.983  24.658  1.00  0.00     0.021 A 
ATOM     21  C   UNL A   1      29.242  26.096  24.024  1.00  0.00     0.027 A 
ATOM     22  C   UNL A   1      30.909  26.946  25.569  1.00  0.00    -0.027 A 
ATOM     23  C   UNL A   1      31.663  26.909  26.874  1.00  0.00     0.046 C 
BRANCH  18  24
ATOM     24  C   UNL A   1      30.820  29.116  22.423  1.00  0.00     0.337 C 
ATOM     25  O   UNL A   1      31.921  29.631  22.306  1.00  0.00    -0.246 OA
BRANCH  24  26
ATOM     26  O   UNL A   1      29.768  29.415  21.622  1.00  0.00    -0.465 OA
ATOM     27  C   UNL A   1      29.155  30.678  21.904  1.00  0.00     0.282 C 
ENDBRANCH  24  26
ENDBRANCH  18  24
ENDBRANCH  14  17
ENDBRANCH   8  13
ENDBRANCH   4   7
ENDBRANCH   2   3
ENDBRANCH   1   2
BRANCH   1  28
ATOM     28  C   UNL A   1      37.641  22.174  25.239  1.00  0.00     0.023 C 
BRANCH  28  29
ATOM     29  C   UNL A   1      38.193  23.307  26.085  1.00  0.00     0.116 C 
BRANCH  29  30
ATOM     30  N   UNL A   1      39.393  22.982  26.836  1.00  0.00    -0.352 N 
ATOM     31  C   UNL A   1      40.286  23.884  27.404  1.00  0.00     0.251 C 
ATOM     32  H   UNL A   1      39.594  22.026  26.956  1.00  0.00     0.163 HD
ATOM     33  O   UNL A   1      41.400  23.568  27.762  1.00  0.00    -0.269 OA
BRANCH  31  34
ATOM     34  C   UNL A   1      39.748  25.236  27.689  1.00  0.00     0.039 A 
ATOM     35  C   UNL A   1      40.228  26.284  26.895  1.00  0.00     0.014 A 
ATOM     36  C   UNL A   1      39.097  25.485  28.894  1.00  0.00     0.014 A 
ATOM     37  C   UNL A   1      40.223  27.582  27.401  1.00  0.00     0.010 A 
ATOM     38  C   UNL A   1      39.196  26.752  29.436  1.00  0.00     0.010 A 
ATOM     39  C   UNL A   1      39.795  27.793  28.710  1.00  0.00    -0.014 A 
BRANCH  39  40
ATOM     40  C   UNL A   1      39.992  29.046  29.435  1.00  0.00     0.031 A 
ATOM     41  C   UNL A   1      38.940  30.089  29.397  1.00  0.00     0.074 A 
ATOM     42  C   UNL A   1      41.083  29.217  30.215  1.00  0.00     0.049 A 
ATOM     43  N   UNL A   1      39.116  31.326  29.719  1.00  0.00    -0.248 NA
ATOM     44  C   UNL A   1      37.580  29.811  28.943  1.00  0.00     0.031 C 
ATOM     45  C   UNL A   1      41.276  30.232  31.248  1.00  0.00     0.029 A 
ATOM     46  N   UNL A   1      42.337  28.611  30.089  1.00  0.00    -0.354 N 
ATOM     47  C   UNL A   1      37.882  31.939  29.763  1.00  0.00     0.074 A 
ATOM     48  C   UNL A   1      36.962  30.956  29.243  1.00  0.00     0.031 C 
ATOM     49  C   UNL A   1      42.587  30.366  31.491  1.00  0.00     0.029 A 
ATOM     50  C   UNL A   1      43.295  29.551  30.521  1.00  0.00     0.049 A 
ATOM     51  H   UNL A   1      42.517  27.700  29.762  1.00  0.00     0.167 HD
ATOM     52  C   UNL A   1      37.762  33.170  30.341  1.00  0.00     0.037 A 
ATOM     53  C   UNL A   1      44.254  30.024  29.671  1.00  0.00     0.037 A 
ATOM     54  C   UNL A   1      39.072  33.696  30.721  1.00  0.00     0.049 A 
ATOM     55  C   UNL A   1      44.166  31.509  29.411  1.00  0.00     0.074 A 
ATOM     56  C   UNL A   1      39.777  33.684  31.914  1.00  0.00     0.029 A 
ATOM     57  N   UNL A   1      39.980  34.055  29.731  1.00  0.00    -0.354 N 
ATOM     58  N   UNL A   1      43.119  32.239  29.688  1.00  0.00    -0.248 NA
ATOM     59  C   UNL A   1      45.244  32.293  28.813  1.00  0.00     0.031 C 
ATOM     60  C   UNL A   1      41.136  33.960  31.623  1.00  0.00     0.029 A 
ATOM     61  C   UNL A   1      41.253  34.167  30.258  1.00  0.00     0.049 A 
ATOM     62  H   UNL A   1      39.749  34.208  28.786  1.00  0.00     0.167 HD
ATOM     63  C   UNL A   1      43.341  33.534  29.293  1.00  0.00     0.074 A 
ATOM     64  C   UNL A   1      44.698  33.522  28.779  1.00  0.00     0.031 C 
ATOM     65  C   UNL A   1      42.388  34.507  29.412  1.00  0.00     0.037 A 
BRANCH  52  66
ATOM     66  C   UNL A   1      36.443  33.752  30.813  1.00  0.00     0.058 A 
ATOM     67  C   UNL A   1      35.457  34.154  29.884  1.00  0.00     0.135 A 
ATOM     68  C   UNL A   1      36.111  34.000  32.159  1.00  0.00     0.135 A 
ATOM     69  F   UNL A   1      35.581  33.900  28.574  1.00  0.00    -0.206 F 
ATOM     70  C   UNL A   1      34.301  34.850  30.250  1.00  0.00     0.059 A 
ATOM     71  C   UNL A   1      34.993  34.748  32.547  1.00  0.00     0.059 A 
ATOM     72  F   UNL A   1      36.835  33.480  33.160  1.00  0.00    -0.206 F 
ATOM     73  C   UNL A   1      34.095  35.180  31.581  1.00  0.00     0.060 A 
BRANCH  73  74
ATOM     74  S   UNL A   1      32.651  36.163  32.024  1.00  0.00     0.124 S 
ATOM     75  O   UNL A   1      33.169  37.011  33.094  1.00  0.00    -0.237 OA
ATOM     76  O   UNL A   1      32.346  36.839  30.769  1.00  0.00    -0.237 OA
ATOM     77  O   UNL A   1      31.676  35.161  32.450  1.00  0.00    -0.744 OA
ENDBRANCH  73  74
ENDBRANCH  52  66
BRANCH  53  78
ATOM     78  C   UNL A   1      44.750  28.987  28.724  1.00  0.00     0.058 A 
ATOM     79  C   UNL A   1      44.241  29.025  27.410  1.00  0.00     0.135 A 
ATOM     80  C   UNL A   1      45.978  28.342  28.924  1.00  0.00     0.135 A 
ATOM     81  F   UNL A   1      43.053  29.601  27.170  1.00  0.00    -0.206 F 
ATOM     82  C   UNL A   1      45.003  28.623  26.320  1.00  0.00     0.059 A 
ATOM     83  C   UNL A   1      46.755  27.919  27.840  1.00  0.00     0.059 A 
ATOM     84  F   UNL A   1      46.507  28.262  30.154  1.00  0.00    -0.206 F 
ATOM     85  C   UNL A   1      46.291  28.144  26.543  1.00  0.00     0.060 A 
BRANCH  85  86
ATOM     86  S   UNL A   1      47.394  28.001  25.115  1.00  0.00     0.124 S 
ATOM     87  O   UNL A   1      46.679  28.758  24.094  1.00  0.00    -0.237 OA
ATOM     88  O   UNL A   1      48.617  28.630  25.615  1.00  0.00    -0.237 OA
ATOM     89  O   UNL A   1      47.472  26.563  24.895  1.00  0.00    -0.744 OA
ENDBRANCH  85  86
ENDBRANCH  53  78
BRANCH  65  90
ATOM     90  C   UNL A   1      42.471  35.899  28.828  1.00  0.00     0.058 A 
ATOM     91  C   UNL A   1      43.089  36.985  29.470  1.00  0.00     0.135 A 
ATOM     92  C   UNL A   1      42.031  36.146  27.503  1.00  0.00     0.135 A 
ATOM     93  F   UNL A   1      43.653  36.850  30.679  1.00  0.00    -0.206 F 
ATOM     94  C   UNL A   1      43.195  38.245  28.877  1.00  0.00     0.059 A 
ATOM     95  C   UNL A   1      42.178  37.379  26.873  1.00  0.00     0.059 A 
ATOM     96  F   UNL A   1      41.451  35.185  26.769  1.00  0.00    -0.206 F 
ATOM     97  C   UNL A   1      42.736  38.434  27.579  1.00  0.00     0.060 A 
BRANCH  97  98
ATOM     98  S   UNL A   1      42.918  40.041  26.781  1.00  0.00     0.124 S 
ATOM     99  O   UNL A   1      44.079  39.811  25.927  1.00  0.00    -0.237 OA
ATOM    100  O   UNL A   1      41.646  40.205  26.083  1.00  0.00    -0.237 OA
ATOM    101  O   UNL A   1      43.128  40.946  27.906  1.00  0.00    -0.744 OA
ENDBRANCH  97  98
ENDBRANCH  65  90
ENDBRANCH  39  40
ENDBRANCH  31  34
ENDBRANCH  29  30
ENDBRANCH  28  29
ENDBRANCH   1  28
TORSDOF 18
ENDMDL
MODEL 2
REMARK VINA RESULT:     -13.8      4.936     11.517
REMARK SMILES COC(=O)c1ccc(NC(=O)[C@@H]2CC=CC[C@@H]2C(=O)NCCCCNC(=O)c2ccc(-c3c4nc(c(-c5c(F)cc(S(=O)(=O)[O-])cc5F)c5ccc([nH]5)c(-c5c(F)cc(S(=O)(=O)[O-])cc5F)c5nc(c(-c6c(F)cc(S(=O)(=O)[O-])cc6F)c6ccc3[nH]6)C=C5)C=C4)cc2)c(C)c1
REMARK SMILES IDX 22 1 21 2 20 3 18 4 19 5 17 7 12 8 13 9 14 10 16 11 15 12
REMARK SMILES IDX 10 13 9 14 11 16 8 17 5 18 6 19 96 20 7 21 94 22 95 23 3 24
REMARK SMILES IDX 4 25 2 26 1 27 23 28 24 29 25 30 26 31 27 33 28 34 29 35
REMARK SMILES IDX 93 36 30 37 92 38 31 39 32 40 33 41 86 42 34 43 91 44 85 45
REMARK SMILES IDX 87 46 35 47 90 48 84 49 83 50 36 52 70 53 49 54 69 55 50 56
REMARK SMILES IDX 53 57 68 58 88 59 51 60 52 61 67 63 89 64 54 65 37 66 38 67
REMARK SMILES IDX 47 68 39 69 40 70 46 71 48 72 41 73 42 74 43 75 44 76 45 77
REMARK SMILES IDX 71 78 72 79 81 80 73 81 74 82 80 83 82 84 75 85 76 86 77 87
REMARK SMILES IDX 78 88 79 89 55 90 56 91 65 92 57 93 58 94 64 95 66 96 59 97
REMARK SMILES IDX 60 98 61 99 62 100 63 101
REMARK H PARENT 20 6 9 15 25 32 87 51 53 62
REMARK Flexibility Score: inf
ROOT
ATOM      1  C   UNL A   1      32.703  29.793  25.373  1.00  0.00     0.023 C 
ENDROOT
BRANCH   1   2
ATOM      2  C   UNL A   1      31.252  29.457  25.006  1.00  0.00     0.116 C 
BRANCH   2   3
ATOM      3  N   UNL A   1      31.159  28.713  23.767  1.00  0.00    -0.356 N 
ATOM      4  C   UNL A   1      31.510  27.454  23.416  1.00  0.00     0.224 C 
ATOM      5  O   UNL A   1      31.140  27.124  22.281  1.00  0.00    -0.275 OA
ATOM      6  H   UNL A   1      30.761  29.229  23.029  1.00  0.00     0.163 HD
BRANCH   4   7
ATOM      7  C   UNL A   1      32.269  26.466  24.344  1.00  0.00     0.095 C 
ATOM      8  C   UNL A   1      32.287  24.962  23.931  1.00  0.00     0.095 C 
ATOM      9  C   UNL A   1      30.857  24.560  23.537  1.00  0.00     0.041 C 
ATOM     10  C   UNL A   1      29.912  24.870  24.675  1.00  0.00    -0.030 C 
ATOM     11  C   UNL A   1      31.537  26.480  25.721  1.00  0.00     0.041 C 
ATOM     12  C   UNL A   1      30.237  25.695  25.686  1.00  0.00    -0.030 C 
BRANCH   8  13
ATOM     13  C   UNL A   1      33.462  24.574  23.038  1.00  0.00     0.228 C 
ATOM     14  N   UNL A   1      33.701  23.282  22.669  1.00  0.00    -0.326 N 
ATOM     15  H   UNL A   1      34.076  23.184  21.764  1.00  0.00     0.169 HD
ATOM     16  O   UNL A   1      34.262  25.425  22.643  1.00  0.00    -0.274 OA
BRANCH  14  17
ATOM     17  C   UNL A   1      33.507  22.069  23.348  1.00  0.00     0.044 A 
ATOM     18  C   UNL A   1      33.223  19.566  24.601  1.00  0.00     0.060 A 
ATOM     19  C   UNL A   1      34.136  20.497  25.095  1.00  0.00     0.018 A 
ATOM     20  C   UNL A   1      32.442  19.891  23.484  1.00  0.00     0.021 A 
ATOM     21  C   UNL A   1      34.281  21.735  24.467  1.00  0.00     0.027 A 
ATOM     22  C   UNL A   1      32.593  21.129  22.832  1.00  0.00    -0.027 A 
ATOM     23  C   UNL A   1      31.729  21.424  21.631  1.00  0.00     0.046 C 
BRANCH  18  24
ATOM     24  C   UNL A   1      33.124  18.247  25.286  1.00  0.00     0.337 C 
ATOM     25  O   UNL A   1      32.419  18.055  26.265  1.00  0.00    -0.246 OA
BRANCH  24  26
ATOM     26  O   UNL A   1      33.853  17.272  24.691  1.00  0.00    -0.465 OA
ATOM     27  C   UNL A   1      33.959  16.067  25.458  1.00  0.00     0.282 C 
ENDBRANCH  24  26
ENDBRANCH  18  24
ENDBRANCH  14  17
ENDBRANCH   8  13
ENDBRANCH   4   7
ENDBRANCH   2   3
ENDBRANCH   1   2
BRANCH   1  28
ATOM     28  C   UNL A   1      32.938  30.141  26.845  1.00  0.00     0.023 C 
BRANCH  28  29
ATOM     29  C   UNL A   1      34.377  29.914  27.273  1.00  0.00     0.116 C 
BRANCH  29  30
ATOM     30  N   UNL A   1      35.111  31.119  27.616  1.00  0.00    -0.352 N 
ATOM     31  C   UNL A   1      36.337  31.186  28.269  1.00  0.00     0.251 C 
ATOM     32  H   UNL A   1      34.699  31.975  27.360  1.00  0.00     0.163 HD
ATOM     33  O   UNL A   1      36.756  32.204  28.777  1.00  0.00    -0.269 OA
BRANCH  31  34
ATOM     34  C   UNL A   1      37.185  29.973  28.182  1.00  0.00     0.039 A 
ATOM     35  C   UNL A   1      37.288  29.194  29.340  1.00  0.00     0.014 A 
ATOM     36  C   UNL A   1      38.092  29.832  27.136  1.00  0.00     0.014 A 
ATOM     37  C   UNL A   1      38.418  28.403  29.533  1.00  0.00     0.010 A 
ATOM     38  C   UNL A   1      39.260  29.136  27.378  1.00  0.00     0.010 A 
ATOM     39  C   UNL A   1      39.445  28.454  28.592  1.00  0.00    -0.014 A 
BRANCH  39  40
ATOM     40  C   UNL A   1      40.774  27.888  28.810  1.00  0.00     0.031 A 
ATOM     41  C   UNL A   1      41.052  26.490  28.401  1.00  0.00     0.074 A 
ATOM     42  C   UNL A   1      41.772  28.661  29.293  1.00  0.00     0.049 A 
ATOM     43  N   UNL A   1      42.053  25.787  28.813  1.00  0.00    -0.248 NA
ATOM     44  C   UNL A   1      40.173  25.750  27.501  1.00  0.00     0.031 C 
ATOM     45  C   UNL A   1      43.204  28.371  29.258  1.00  0.00     0.029 A 
ATOM     46  N   UNL A   1      41.670  29.796  30.102  1.00  0.00    -0.354 N 
ATOM     47  C   UNL A   1      42.101  24.630  28.065  1.00  0.00     0.074 A 
ATOM     48  C   UNL A   1      40.889  24.645  27.281  1.00  0.00     0.031 C 
ATOM     49  C   UNL A   1      43.824  29.118  30.183  1.00  0.00     0.029 A 
ATOM     50  C   UNL A   1      42.799  29.805  30.947  1.00  0.00     0.049 A 
ATOM     51  H   UNL A   1      40.947  30.464  30.085  1.00  0.00     0.167 HD
ATOM     52  C   UNL A   1      43.217  23.846  28.110  1.00  0.00     0.037 A 
ATOM     53  C   UNL A   1      42.667  29.729  32.303  1.00  0.00     0.037 A 
ATOM     54  C   UNL A   1      44.166  24.348  29.102  1.00  0.00     0.049 A 
ATOM     55  C   UNL A   1      43.286  28.491  32.911  1.00  0.00     0.074 A 
ATOM     56  C   UNL A   1      45.277  25.171  29.004  1.00  0.00     0.029 A 
ATOM     57  N   UNL A   1      43.848  24.277  30.454  1.00  0.00    -0.354 N 
ATOM     58  N   UNL A   1      43.632  27.435  32.226  1.00  0.00    -0.248 NA
ATOM     59  C   UNL A   1      43.558  28.338  34.338  1.00  0.00     0.031 C 
ATOM     60  C   UNL A   1      45.576  25.660  30.300  1.00  0.00     0.029 A 
ATOM     61  C   UNL A   1      44.665  25.114  31.189  1.00  0.00     0.049 A 
ATOM     62  H   UNL A   1      43.138  23.711  30.834  1.00  0.00     0.167 HD
ATOM     63  C   UNL A   1      44.121  26.474  33.073  1.00  0.00     0.074 A 
ATOM     64  C   UNL A   1      44.083  27.100  34.381  1.00  0.00     0.031 C 
ATOM     65  C   UNL A   1      44.509  25.239  32.631  1.00  0.00     0.037 A 
BRANCH  52  66
ATOM     66  C   UNL A   1      43.557  22.805  27.059  1.00  0.00     0.058 A 
ATOM     67  C   UNL A   1      42.841  21.590  26.988  1.00  0.00     0.135 A 
ATOM     68  C   UNL A   1      44.614  22.915  26.136  1.00  0.00     0.135 A 
ATOM     69  F   UNL A   1      41.749  21.372  27.734  1.00  0.00    -0.206 F 
ATOM     70  C   UNL A   1      43.217  20.529  26.158  1.00  0.00     0.059 A 
ATOM     71  C   UNL A   1      45.050  21.847  25.340  1.00  0.00     0.059 A 
ATOM     72  F   UNL A   1      45.239  24.082  25.930  1.00  0.00    -0.206 F 
ATOM     73  C   UNL A   1      44.349  20.650  25.366  1.00  0.00     0.060 A 
BRANCH  73  74
ATOM     74  S   UNL A   1      44.878  19.240  24.376  1.00  0.00     0.124 S 
ATOM     75  O   UNL A   1      44.535  19.665  23.022  1.00  0.00    -0.237 OA
ATOM     76  O   UNL A   1      46.303  19.172  24.680  1.00  0.00    -0.237 OA
ATOM     77  O   UNL A   1      44.072  18.138  24.898  1.00  0.00    -0.744 OA
ENDBRANCH  73  74
ENDBRANCH  52  66
BRANCH  53  78
ATOM     78  C   UNL A   1      41.476  30.464  32.812  1.00  0.00     0.058 A 
ATOM     79  C   UNL A   1      40.313  29.707  33.055  1.00  0.00     0.135 A 
ATOM     80  C   UNL A   1      41.605  31.686  33.485  1.00  0.00     0.135 A 
ATOM     81  F   UNL A   1      40.125  28.545  32.409  1.00  0.00    -0.206 F 
ATOM     82  C   UNL A   1      39.417  30.046  34.062  1.00  0.00     0.059 A 
ATOM     83  C   UNL A   1      40.708  32.052  34.495  1.00  0.00     0.059 A 
ATOM     84  F   UNL A   1      42.684  32.457  33.286  1.00  0.00    -0.206 F 
ATOM     85  C   UNL A   1      39.670  31.181  34.828  1.00  0.00     0.060 A 
BRANCH  85  86
ATOM     86  S   UNL A   1      38.732  31.385  36.363  1.00  0.00     0.124 S 
ATOM     87  O   UNL A   1      37.583  32.169  35.922  1.00  0.00    -0.237 OA
ATOM     88  O   UNL A   1      38.438  29.998  36.724  1.00  0.00    -0.237 OA
ATOM     89  O   UNL A   1      39.669  32.077  37.238  1.00  0.00    -0.744 OA
ENDBRANCH  85  86
ENDBRANCH  53  78
BRANCH  65  90
ATOM     90  C   UNL A   1      44.868  24.061  33.509  1.00  0.00     0.058 A 
ATOM     91  C   UNL A   1      44.006  22.984  33.769  1.00  0.00     0.135 A 
ATOM     92  C   UNL A   1      46.183  23.924  34.018  1.00  0.00     0.135 A 
ATOM     93  F   UNL A   1      42.773  22.936  33.244  1.00  0.00    -0.206 F 
ATOM     94  C   UNL A   1      44.389  21.885  34.541  1.00  0.00     0.059 A 
ATOM     95  C   UNL A   1      46.604  22.812  34.743  1.00  0.00     0.059 A 
ATOM     96  F   UNL A   1      47.114  24.870  33.816  1.00  0.00    -0.206 F 
ATOM     97  C   UNL A   1      45.690  21.808  35.027  1.00  0.00     0.060 A 
BRANCH  97  98
ATOM     98  S   UNL A   1      46.216  20.369  35.978  1.00  0.00     0.124 S 
ATOM     99  O   UNL A   1      45.763  20.726  37.318  1.00  0.00    -0.237 OA
ATOM    100  O   UNL A   1      45.491  19.274  35.339  1.00  0.00    -0.237 OA
ATOM    101  O   UNL A   1      47.661  20.353  35.780  1.00  0.00    -0.744 OA
ENDBRANCH  97  98
ENDBRANCH  65  90
ENDBRANCH  39  40
ENDBRANCH  31  34
ENDBRANCH  29  30
ENDBRANCH  28  29
ENDBRANCH   1  28
TORSDOF 18
ENDMDL
MODEL 3
REMARK VINA RESULT:     -13.8      1.068      1.722
REMARK SMILES COC(=O)c1ccc(NC(=O)[C@@H]2CC=CC[C@@H]2C(=O)NCCCCNC(=O)c2ccc(-c3c4nc(c(-c5c(F)cc(S(=O)(=O)[O-])cc5F)c5ccc([nH]5)c(-c5c(F)cc(S(=O)(=O)[O-])cc5F)c5nc(c(-c6c(F)cc(S(=O)(=O)[O-])cc6F)c6ccc3[nH]6)C=C5)C=C4)cc2)c(C)c1
REMARK SMILES IDX 22 1 21 2 20 3 18 4 19 5 17 7 12 8 13 9 14 10 16 11 15 12
REMARK SMILES IDX 10 13 9 14 11 16 8 17 5 18 6 19 96 20 7 21 94 22 95 23 3 24
REMARK SMILES IDX 4 25 2 26 1 27 23 28 24 29 25 30 26 31 27 33 28 34 29 35
REMARK SMILES IDX 93 36 30 37 92 38 31 39 32 40 33 41 86 42 34 43 91 44 85 45
REMARK SMILES IDX 87 46 35 47 90 48 84 49 83 50 36 52 70 53 49 54 69 55 50 56
REMARK SMILES IDX 53 57 68 58 88 59 51 60 52 61 67 63 89 64 54 65 37 66 38 67
REMARK SMILES IDX 47 68 39 69 40 70 46 71 48 72 41 73 42 74 43 75 44 76 45 77
REMARK SMILES IDX 71 78 72 79 81 80 73 81 74 82 80 83 82 84 75 85 76 86 77 87
REMARK SMILES IDX 78 88 79 89 55 90 56 91 65 92 57 93 58 94 64 95 66 96 59 97
REMARK SMILES IDX 60 98 61 99 62 100 63 101
REMARK H PARENT 20 6 9 15 25 32 87 51 53 62
REMARK Flexibility Score: inf
ROOT
ATOM      1  C   UNL A   1      37.014  22.201  23.998  1.00  0.00     0.023 C 
ENDROOT
BRANCH   1   2
ATOM      2  C   UNL A   1      35.565  22.604  23.696  1.00  0.00     0.116 C 
BRANCH   2   3
ATOM      3  N   UNL A   1      34.608  21.772  24.395  1.00  0.00    -0.356 N 
ATOM      4  C   UNL A   1      33.318  21.954  24.764  1.00  0.00     0.224 C 
ATOM      5  O   UNL A   1      32.779  20.942  25.232  1.00  0.00    -0.275 OA
ATOM      6  H   UNL A   1      34.971  20.894  24.657  1.00  0.00     0.163 HD
BRANCH   4   7
ATOM      7  C   UNL A   1      32.538  23.285  24.590  1.00  0.00     0.095 C 
ATOM      8  C   UNL A   1      32.717  24.373  25.692  1.00  0.00     0.095 C 
ATOM      9  C   UNL A   1      32.591  23.688  27.062  1.00  0.00     0.041 C 
ATOM     10  C   UNL A   1      31.274  22.950  27.140  1.00  0.00    -0.030 C 
ATOM     11  C   UNL A   1      31.019  22.933  24.637  1.00  0.00     0.041 C 
ATOM     12  C   UNL A   1      30.540  22.655  26.051  1.00  0.00    -0.030 C 
BRANCH   8  13
ATOM     13  C   UNL A   1      33.862  25.346  25.429  1.00  0.00     0.228 C 
ATOM     14  N   UNL A   1      33.655  26.683  25.244  1.00  0.00    -0.326 N 
ATOM     15  H   UNL A   1      34.374  27.255  25.598  1.00  0.00     0.169 HD
ATOM     16  O   UNL A   1      35.025  24.944  25.342  1.00  0.00    -0.274 OA
BRANCH  14  17
ATOM     17  C   UNL A   1      32.602  27.386  24.640  1.00  0.00     0.044 A 
ATOM     18  C   UNL A   1      30.603  28.904  23.368  1.00  0.00     0.060 A 
ATOM     19  C   UNL A   1      31.117  27.764  22.750  1.00  0.00     0.018 A 
ATOM     20  C   UNL A   1      31.082  29.279  24.630  1.00  0.00     0.021 A 
ATOM     21  C   UNL A   1      32.115  27.018  23.379  1.00  0.00     0.027 A 
ATOM     22  C   UNL A   1      32.100  28.545  25.266  1.00  0.00    -0.027 A 
ATOM     23  C   UNL A   1      32.580  28.998  26.622  1.00  0.00     0.046 C 
BRANCH  18  24
ATOM     24  C   UNL A   1      29.560  29.685  22.645  1.00  0.00     0.337 C 
ATOM     25  O   UNL A   1      29.541  29.807  21.431  1.00  0.00    -0.246 OA
BRANCH  24  26
ATOM     26  O   UNL A   1      28.613  30.206  23.462  1.00  0.00    -0.465 OA
ATOM     27  C   UNL A   1      28.215  31.540  23.123  1.00  0.00     0.282 C 
ENDBRANCH  24  26
ENDBRANCH  18  24
ENDBRANCH  14  17
ENDBRANCH   8  13
ENDBRANCH   4   7
ENDBRANCH   2   3
ENDBRANCH   1   2
BRANCH   1  28
ATOM     28  C   UNL A   1      37.344  22.027  25.482  1.00  0.00     0.023 C 
BRANCH  28  29
ATOM     29  C   UNL A   1      38.074  23.227  26.059  1.00  0.00     0.116 C 
BRANCH  29  30
ATOM     30  N   UNL A   1      39.325  22.919  26.728  1.00  0.00    -0.352 N 
ATOM     31  C   UNL A   1      40.247  23.834  27.225  1.00  0.00     0.251 C 
ATOM     32  H   UNL A   1      39.543  21.966  26.842  1.00  0.00     0.163 HD
ATOM     33  O   UNL A   1      41.386  23.531  27.509  1.00  0.00    -0.269 OA
BRANCH  31  34
ATOM     34  C   UNL A   1      39.718  25.183  27.536  1.00  0.00     0.039 A 
ATOM     35  C   UNL A   1      40.175  26.237  26.736  1.00  0.00     0.014 A 
ATOM     36  C   UNL A   1      39.102  25.424  28.761  1.00  0.00     0.014 A 
ATOM     37  C   UNL A   1      40.185  27.531  27.251  1.00  0.00     0.010 A 
ATOM     38  C   UNL A   1      39.216  26.687  29.309  1.00  0.00     0.010 A 
ATOM     39  C   UNL A   1      39.794  27.733  28.573  1.00  0.00    -0.014 A 
BRANCH  39  40
ATOM     40  C   UNL A   1      40.013  28.981  29.301  1.00  0.00     0.031 A 
ATOM     41  C   UNL A   1      38.968  30.034  29.283  1.00  0.00     0.074 A 
ATOM     42  C   UNL A   1      41.116  29.139  30.066  1.00  0.00     0.049 A 
ATOM     43  N   UNL A   1      39.160  31.267  29.607  1.00  0.00    -0.248 NA
ATOM     44  C   UNL A   1      37.600  29.769  28.847  1.00  0.00     0.031 C 
ATOM     45  C   UNL A   1      41.332  30.148  31.101  1.00  0.00     0.029 A 
ATOM     46  N   UNL A   1      42.363  28.524  29.919  1.00  0.00    -0.354 N 
ATOM     47  C   UNL A   1      37.932  31.890  29.672  1.00  0.00     0.074 A 
ATOM     48  C   UNL A   1      36.996  30.917  29.161  1.00  0.00     0.031 C 
ATOM     49  C   UNL A   1      42.648  30.271  31.325  1.00  0.00     0.029 A 
ATOM     50  C   UNL A   1      43.335  29.454  30.341  1.00  0.00     0.049 A 
ATOM     51  H   UNL A   1      42.531  27.613  29.585  1.00  0.00     0.167 HD
ATOM     52  C   UNL A   1      37.830  33.119  30.258  1.00  0.00     0.037 A 
ATOM     53  C   UNL A   1      44.286  29.922  29.480  1.00  0.00     0.037 A 
ATOM     54  C   UNL A   1      39.150  33.633  30.622  1.00  0.00     0.049 A 
ATOM     55  C   UNL A   1      44.206  31.410  29.228  1.00  0.00     0.074 A 
ATOM     56  C   UNL A   1      39.872  33.609  31.804  1.00  0.00     0.029 A 
ATOM     57  N   UNL A   1      40.047  33.989  29.620  1.00  0.00    -0.354 N 
ATOM     58  N   UNL A   1      43.170  32.148  29.523  1.00  0.00    -0.248 NA
ATOM     59  C   UNL A   1      45.282  32.187  28.618  1.00  0.00     0.031 C 
ATOM     60  C   UNL A   1      41.229  33.875  31.494  1.00  0.00     0.029 A 
ATOM     61  C   UNL A   1      41.328  34.088  30.129  1.00  0.00     0.049 A 
ATOM     62  H   UNL A   1      39.803  34.149  28.679  1.00  0.00     0.167 HD
ATOM     63  C   UNL A   1      43.396  33.442  29.131  1.00  0.00     0.074 A 
ATOM     64  C   UNL A   1      44.746  33.421  28.598  1.00  0.00     0.031 C 
ATOM     65  C   UNL A   1      42.453  34.423  29.269  1.00  0.00     0.037 A 
BRANCH  52  66
ATOM     66  C   UNL A   1      36.523  33.710  30.751  1.00  0.00     0.058 A 
ATOM     67  C   UNL A   1      35.548  34.171  29.838  1.00  0.00     0.135 A 
ATOM     68  C   UNL A   1      36.194  33.910  32.106  1.00  0.00     0.135 A 
ATOM     69  F   UNL A   1      35.670  33.968  28.519  1.00  0.00    -0.206 F 
ATOM     70  C   UNL A   1      34.407  34.877  30.230  1.00  0.00     0.059 A 
ATOM     71  C   UNL A   1      35.091  34.666  32.523  1.00  0.00     0.059 A 
ATOM     72  F   UNL A   1      36.904  33.334  33.085  1.00  0.00    -0.206 F 
ATOM     73  C   UNL A   1      34.205  35.156  31.574  1.00  0.00     0.060 A 
BRANCH  73  74
ATOM     74  S   UNL A   1      32.781  36.151  32.055  1.00  0.00     0.124 S 
ATOM     75  O   UNL A   1      33.334  36.992  33.114  1.00  0.00    -0.237 OA
ATOM     76  O   UNL A   1      32.452  36.833  30.809  1.00  0.00    -0.237 OA
ATOM     77  O   UNL A   1      31.808  35.157  32.503  1.00  0.00    -0.744 OA
ENDBRANCH  73  74
ENDBRANCH  52  66
BRANCH  53  78
ATOM     78  C   UNL A   1      44.759  28.886  28.521  1.00  0.00     0.058 A 
ATOM     79  C   UNL A   1      44.264  28.960  27.204  1.00  0.00     0.135 A 
ATOM     80  C   UNL A   1      45.965  28.202  28.721  1.00  0.00     0.135 A 
ATOM     81  F   UNL A   1      43.096  29.575  26.962  1.00  0.00    -0.206 F 
ATOM     82  C   UNL A   1      45.023  28.552  26.114  1.00  0.00     0.059 A 
ATOM     83  C   UNL A   1      46.740  27.772  27.638  1.00  0.00     0.059 A 
ATOM     84  F   UNL A   1      46.480  28.086  29.955  1.00  0.00    -0.206 F 
ATOM     85  C   UNL A   1      46.295  28.031  26.340  1.00  0.00     0.060 A 
BRANCH  85  86
ATOM     86  S   UNL A   1      47.406  27.877  24.921  1.00  0.00     0.124 S 
ATOM     87  O   UNL A   1      48.664  28.387  25.456  1.00  0.00    -0.237 OA
ATOM     88  O   UNL A   1      47.376  26.436  24.669  1.00  0.00    -0.237 OA
ATOM     89  O   UNL A   1      46.770  28.706  23.906  1.00  0.00    -0.744 OA
ENDBRANCH  85  86
ENDBRANCH  53  78
BRANCH  65  90
ATOM     90  C   UNL A   1      42.540  35.817  28.689  1.00  0.00     0.058 A 
ATOM     91  C   UNL A   1      41.833  36.239  27.551  1.00  0.00     0.135 A 
ATOM     92  C   UNL A   1      43.260  36.830  29.369  1.00  0.00     0.135 A 
ATOM     93  F   UNL A   1      41.020  35.405  26.886  1.00  0.00    -0.206 F 
ATOM     94  C   UNL A   1      41.895  37.550  27.074  1.00  0.00     0.059 A 
ATOM     95  C   UNL A   1      43.290  38.155  28.942  1.00  0.00     0.059 A 
ATOM     96  F   UNL A   1      43.955  36.565  30.486  1.00  0.00    -0.206 F 
ATOM     97  C   UNL A   1      42.628  38.502  27.774  1.00  0.00     0.060 A 
BRANCH  97  98
ATOM     98  S   UNL A   1      42.670  40.211  27.201  1.00  0.00     0.124 S 
ATOM     99  O   UNL A   1      41.317  40.375  26.679  1.00  0.00    -0.237 OA
ATOM    100  O   UNL A   1      42.970  40.957  28.420  1.00  0.00    -0.237 OA
ATOM    101  O   UNL A   1      43.736  40.199  26.205  1.00  0.00    -0.744 OA
ENDBRANCH  97  98
ENDBRANCH  65  90
ENDBRANCH  39  40
ENDBRANCH  31  34
ENDBRANCH  29  30
ENDBRANCH  28  29
ENDBRANCH   1  28
TORSDOF 18
ENDMDL
