MODEL 1
REMARK VINA RESULT:     -11.9      0.000      0.000
REMARK SMILES O=C(NCCCCNC(=O)[C@H]1CC(=O)N(Cc2cccc(Cl)c2)C1)c1ccc(-c2c3nc(c(-c4c(F)cc(S(=O)(=O)[O-])cc4F)c4ccc([nH]4)c(-c4c(F)cc(S(=O)(=O)[O-])cc4F)c4nc(c(-c5c(F)cc(S(=O)(=O)[O-])cc5F)c5ccc2[nH]5)C=C4)C=C3)cc1
REMARK SMILES IDX 5 1 4 2 3 3 1 4 2 5 25 7 26 8 90 9 27 10 89 11 28 12 29 13
REMARK SMILES IDX 30 14 83 15 31 16 88 17 82 18 84 19 32 20 87 21 81 22 80 23
REMARK SMILES IDX 33 25 67 26 46 27 66 28 47 29 50 30 65 31 85 32 48 33 49 34
REMARK SMILES IDX 64 36 86 37 51 38 34 39 35 40 44 41 36 42 37 43 43 44 45 45
REMARK SMILES IDX 38 46 39 47 40 48 41 49 42 50 68 51 69 52 78 53 70 54 71 55
REMARK SMILES IDX 77 56 79 57 72 58 73 59 74 60 75 61 76 62 52 63 53 64 62 65
REMARK SMILES IDX 54 66 55 67 61 68 63 69 56 70 57 71 58 72 59 73 60 74 6 75
REMARK SMILES IDX 7 76 8 77 9 78 10 80 11 81 12 82 24 83 13 84 15 85 14 86
REMARK SMILES IDX 16 87 17 88 18 89 23 90 19 91 21 92 20 93 22 94
REMARK H PARENT 3 6 84 24 50 35 8 79
REMARK Flexibility Score: inf
ROOT
ATOM      1  C   UNL A   1      35.534  32.363  27.930  1.00  0.00     0.023 C 
ENDROOT
BRANCH   1   2
ATOM      2  C   UNL A   1      36.181  32.660  29.277  1.00  0.00     0.116 C 
BRANCH   2   3
ATOM      3  N   UNL A   1      35.803  31.709  30.312  1.00  0.00    -0.352 N 
ATOM      4  O   UNL A   1      35.950  29.828  31.548  1.00  0.00    -0.269 OA
ATOM      5  C   UNL A   1      36.487  30.602  30.762  1.00  0.00     0.251 C 
ATOM      6  H   UNL A   1      34.939  31.881  30.752  1.00  0.00     0.163 HD
BRANCH   5   7
ATOM      7  C   UNL A   1      37.856  30.340  30.267  1.00  0.00     0.039 A 
ATOM      8  C   UNL A   1      38.076  30.053  28.919  1.00  0.00     0.014 A 
ATOM      9  C   UNL A   1      38.929  30.357  31.164  1.00  0.00     0.014 A 
ATOM     10  C   UNL A   1      39.328  29.620  28.502  1.00  0.00     0.010 A 
ATOM     11  C   UNL A   1      40.211  30.022  30.718  1.00  0.00     0.010 A 
ATOM     12  C   UNL A   1      40.417  29.617  29.390  1.00  0.00    -0.014 A 
BRANCH  12  13
ATOM     13  C   UNL A   1      41.764  29.254  28.877  1.00  0.00     0.031 A 
ATOM     14  C   UNL A   1      42.880  30.262  28.818  1.00  0.00     0.074 A 
ATOM     15  C   UNL A   1      41.982  27.979  28.499  1.00  0.00     0.049 A 
ATOM     16  N   UNL A   1      44.115  30.097  28.414  1.00  0.00    -0.248 NA
ATOM     17  C   UNL A   1      42.576  31.631  29.261  1.00  0.00     0.031 C 
ATOM     18  C   UNL A   1      40.971  26.917  28.502  1.00  0.00     0.029 A 
ATOM     19  N   UNL A   1      43.116  27.349  28.058  1.00  0.00    -0.354 N 
ATOM     20  C   UNL A   1      44.734  31.335  28.550  1.00  0.00     0.074 A 
ATOM     21  C   UNL A   1      43.726  32.253  29.037  1.00  0.00     0.031 C 
ATOM     22  C   UNL A   1      41.540  25.762  28.128  1.00  0.00     0.029 A 
ATOM     23  C   UNL A   1      42.935  26.013  27.789  1.00  0.00     0.049 A 
ATOM     24  H   UNL A   1      43.980  27.810  27.944  1.00  0.00     0.167 HD
ATOM     25  C   UNL A   1      46.025  31.668  28.304  1.00  0.00     0.037 A 
ATOM     26  C   UNL A   1      43.786  25.093  27.297  1.00  0.00     0.037 A 
ATOM     27  C   UNL A   1      47.020  30.744  27.817  1.00  0.00     0.049 A 
ATOM     28  C   UNL A   1      45.197  25.503  26.990  1.00  0.00     0.074 A 
ATOM     29  C   UNL A   1      48.355  30.981  27.541  1.00  0.00     0.029 A 
ATOM     30  N   UNL A   1      46.789  29.405  27.527  1.00  0.00    -0.354 N 
ATOM     31  N   UNL A   1      45.768  26.674  27.146  1.00  0.00    -0.248 NA
ATOM     32  C   UNL A   1      46.081  24.469  26.438  1.00  0.00     0.031 C 
ATOM     33  C   UNL A   1      48.920  29.803  27.043  1.00  0.00     0.029 A 
ATOM     34  C   UNL A   1      47.952  28.812  27.062  1.00  0.00     0.049 A 
ATOM     35  H   UNL A   1      45.926  28.945  27.638  1.00  0.00     0.167 HD
ATOM     36  C   UNL A   1      47.085  26.510  26.734  1.00  0.00     0.074 A 
ATOM     37  C   UNL A   1      47.229  25.123  26.341  1.00  0.00     0.031 C 
ATOM     38  C   UNL A   1      48.082  27.426  26.680  1.00  0.00     0.037 A 
BRANCH  25  39
ATOM     39  C   UNL A   1      46.443  33.094  28.551  1.00  0.00     0.058 A 
ATOM     40  C   UNL A   1      46.383  34.065  27.538  1.00  0.00     0.135 A 
ATOM     41  C   UNL A   1      46.857  33.511  29.828  1.00  0.00     0.135 A 
ATOM     42  F   UNL A   1      46.008  33.723  26.295  1.00  0.00    -0.206 F 
ATOM     43  C   UNL A   1      46.737  35.390  27.775  1.00  0.00     0.059 A 
ATOM     44  C   UNL A   1      47.190  34.837  30.095  1.00  0.00     0.059 A 
ATOM     45  F   UNL A   1      46.932  32.627  30.836  1.00  0.00    -0.206 F 
ATOM     46  C   UNL A   1      47.139  35.767  29.058  1.00  0.00     0.060 A 
BRANCH  46  47
ATOM     47  S   UNL A   1      47.591  37.492  29.347  1.00  0.00     0.124 S 
ATOM     48  O   UNL A   1      49.041  37.442  29.185  1.00  0.00    -0.237 OA
ATOM     49  O   UNL A   1      46.860  38.186  28.292  1.00  0.00    -0.237 OA
ATOM     50  O   UNL A   1      47.120  37.745  30.705  1.00  0.00    -0.744 OA
ENDBRANCH  46  47
ENDBRANCH  25  39
BRANCH  26  51
ATOM     51  C   UNL A   1      43.315  23.706  27.048  1.00  0.00     0.058 A 
ATOM     52  C   UNL A   1      43.139  22.795  28.100  1.00  0.00     0.135 A 
ATOM     53  C   UNL A   1      43.028  23.263  25.745  1.00  0.00     0.135 A 
ATOM     54  F   UNL A   1      43.400  23.169  29.361  1.00  0.00    -0.206 F 
ATOM     55  C   UNL A   1      42.724  21.487  27.868  1.00  0.00     0.059 A 
ATOM     56  C   UNL A   1      42.580  21.972  25.493  1.00  0.00     0.059 A 
ATOM     57  F   UNL A   1      43.158  24.101  24.705  1.00  0.00    -0.206 F 
ATOM     58  C   UNL A   1      42.449  21.085  26.561  1.00  0.00     0.060 A 
BRANCH  58  59
ATOM     59  S   UNL A   1      41.892  19.393  26.272  1.00  0.00     0.124 S 
ATOM     60  O   UNL A   1      40.460  19.587  26.075  1.00  0.00    -0.237 OA
ATOM     61  O   UNL A   1      42.656  19.016  25.087  1.00  0.00    -0.237 OA
ATOM     62  O   UNL A   1      42.272  18.700  27.500  1.00  0.00    -0.744 OA
ENDBRANCH  58  59
ENDBRANCH  26  51
BRANCH  38  63
ATOM     63  C   UNL A   1      49.430  26.946  26.217  1.00  0.00     0.058 A 
ATOM     64  C   UNL A   1      49.856  27.103  24.888  1.00  0.00     0.135 A 
ATOM     65  C   UNL A   1      50.318  26.342  27.122  1.00  0.00     0.135 A 
ATOM     66  F   UNL A   1      49.043  27.665  23.979  1.00  0.00    -0.206 F 
ATOM     67  C   UNL A   1      51.103  26.650  24.467  1.00  0.00     0.059 A 
ATOM     68  C   UNL A   1      51.581  25.911  26.730  1.00  0.00     0.059 A 
ATOM     69  F   UNL A   1      49.965  26.175  28.406  1.00  0.00    -0.206 F 
ATOM     70  C   UNL A   1      51.958  26.056  25.396  1.00  0.00     0.060 A 
BRANCH  70  71
ATOM     71  S   UNL A   1      53.581  25.495  24.839  1.00  0.00     0.124 S 
ATOM     72  O   UNL A   1      53.541  24.081  25.196  1.00  0.00    -0.237 OA
ATOM     73  O   UNL A   1      53.540  25.791  23.411  1.00  0.00    -0.237 OA
ATOM     74  O   UNL A   1      54.508  26.312  25.617  1.00  0.00    -0.744 OA
ENDBRANCH  70  71
ENDBRANCH  38  63
ENDBRANCH  12  13
ENDBRANCH   5   7
ENDBRANCH   2   3
ENDBRANCH   1   2
BRANCH   1  75
ATOM     75  C   UNL A   1      34.134  31.758  28.002  1.00  0.00     0.023 C 
BRANCH  75  76
ATOM     76  C   UNL A   1      33.955  30.458  27.221  1.00  0.00     0.116 C 
BRANCH  76  77
ATOM     77  N   UNL A   1      32.925  29.605  27.790  1.00  0.00    -0.356 N 
ATOM     78  C   UNL A   1      32.369  28.464  27.285  1.00  0.00     0.225 C 
ATOM     79  H   UNL A   1      32.578  29.891  28.666  1.00  0.00     0.163 HD
ATOM     80  O   UNL A   1      31.578  27.832  27.980  1.00  0.00    -0.275 OA
BRANCH  78  81
ATOM     81  C   UNL A   1      32.729  28.050  25.879  1.00  0.00     0.107 C 
ATOM     82  C   UNL A   1      32.845  26.541  25.664  1.00  0.00     0.115 C 
ATOM     83  C   UNL A   1      31.605  28.445  24.939  1.00  0.00     0.133 C 
ATOM     84  C   UNL A   1      32.428  26.377  24.222  1.00  0.00     0.223 C 
ATOM     85  N   UNL A   1      31.720  27.508  23.854  1.00  0.00    -0.338 N 
ATOM     86  O   UNL A   1      32.673  25.410  23.520  1.00  0.00    -0.275 OA
BRANCH  85  87
ATOM     87  C   UNL A   1      31.122  27.724  22.549  1.00  0.00     0.155 C 
BRANCH  87  88
ATOM     88  C   UNL A   1      29.841  28.525  22.591  1.00  0.00    -0.027 A 
ATOM     89  C   UNL A   1      28.663  27.987  23.134  1.00  0.00     0.005 A 
ATOM     90  C   UNL A   1      29.814  29.843  22.108  1.00  0.00     0.026 A 
ATOM     91  C   UNL A   1      27.481  28.729  23.165  1.00  0.00     0.002 A 
ATOM     92  C   UNL A   1      28.636  30.591  22.166  1.00  0.00     0.041 A 
ATOM     93  C   UNL A   1      27.469  30.036  22.685  1.00  0.00     0.020 A 
ATOM     94  Cl  UNL A   1      28.630  32.219  21.608  1.00  0.00    -0.084 Cl
ENDBRANCH  87  88
ENDBRANCH  85  87
ENDBRANCH  78  81
ENDBRANCH  76  77
ENDBRANCH  75  76
ENDBRANCH   1  75
TORSDOF 16
ENDMDL
MODEL 2
REMARK VINA RESULT:     -11.9      5.621     12.108
REMARK SMILES O=C(NCCCCNC(=O)[C@H]1CC(=O)N(Cc2cccc(Cl)c2)C1)c1ccc(-c2c3nc(c(-c4c(F)cc(S(=O)(=O)[O-])cc4F)c4ccc([nH]4)c(-c4c(F)cc(S(=O)(=O)[O-])cc4F)c4nc(c(-c5c(F)cc(S(=O)(=O)[O-])cc5F)c5ccc2[nH]5)C=C4)C=C3)cc1
REMARK SMILES IDX 5 1 4 2 3 3 1 4 2 5 25 7 26 8 90 9 27 10 89 11 28 12 29 13
REMARK SMILES IDX 30 14 83 15 31 16 88 17 82 18 84 19 32 20 87 21 81 22 80 23
REMARK SMILES IDX 33 25 67 26 46 27 66 28 47 29 50 30 65 31 85 32 48 33 49 34
REMARK SMILES IDX 64 36 86 37 51 38 34 39 35 40 44 41 36 42 37 43 43 44 45 45
REMARK SMILES IDX 38 46 39 47 40 48 41 49 42 50 68 51 69 52 78 53 70 54 71 55
REMARK SMILES IDX 77 56 79 57 72 58 73 59 74 60 75 61 76 62 52 63 53 64 62 65
REMARK SMILES IDX 54 66 55 67 61 68 63 69 56 70 57 71 58 72 59 73 60 74 6 75
REMARK SMILES IDX 7 76 8 77 9 78 10 80 11 81 12 82 24 83 13 84 15 85 14 86
REMARK SMILES IDX 16 87 17 88 18 89 23 90 19 91 21 92 20 93 22 94
REMARK H PARENT 3 6 84 24 50 35 8 79
REMARK Flexibility Score: inf
ROOT
ATOM      1  C   UNL A   1      40.544  20.103  26.354  1.00  0.00     0.023 C 
ENDROOT
BRANCH   1   2
ATOM      2  C   UNL A   1      40.126  21.524  26.711  1.00  0.00     0.116 C 
BRANCH   2   3
ATOM      3  N   UNL A   1      39.006  22.005  25.916  1.00  0.00    -0.352 N 
ATOM      4  O   UNL A   1      37.380  23.435  25.284  1.00  0.00    -0.269 OA
ATOM      5  C   UNL A   1      38.410  23.247  25.922  1.00  0.00     0.251 C 
ATOM      6  H   UNL A   1      38.621  21.354  25.286  1.00  0.00     0.163 HD
BRANCH   5   7
ATOM      7  C   UNL A   1      39.004  24.336  26.728  1.00  0.00     0.039 A 
ATOM      8  C   UNL A   1      38.683  24.470  28.080  1.00  0.00     0.014 A 
ATOM      9  C   UNL A   1      39.872  25.249  26.120  1.00  0.00     0.014 A 
ATOM     10  C   UNL A   1      39.089  25.600  28.776  1.00  0.00     0.010 A 
ATOM     11  C   UNL A   1      40.364  26.333  26.855  1.00  0.00     0.010 A 
ATOM     12  C   UNL A   1      39.951  26.537  28.180  1.00  0.00    -0.014 A 
BRANCH  12  13
ATOM     13  C   UNL A   1      40.452  27.675  28.995  1.00  0.00     0.031 A 
ATOM     14  C   UNL A   1      41.839  27.673  29.578  1.00  0.00     0.074 A 
ATOM     15  C   UNL A   1      39.645  28.741  29.169  1.00  0.00     0.049 A 
ATOM     16  N   UNL A   1      42.431  28.596  30.295  1.00  0.00    -0.248 NA
ATOM     17  C   UNL A   1      42.671  26.484  29.335  1.00  0.00     0.031 C 
ATOM     18  C   UNL A   1      38.275  28.850  28.659  1.00  0.00     0.029 A 
ATOM     19  N   UNL A   1      39.856  29.938  29.801  1.00  0.00    -0.354 N 
ATOM     20  C   UNL A   1      43.696  28.103  30.591  1.00  0.00     0.074 A 
ATOM     21  C   UNL A   1      43.774  26.779  30.010  1.00  0.00     0.031 C 
ATOM     22  C   UNL A   1      37.787  30.062  28.958  1.00  0.00     0.029 A 
ATOM     23  C   UNL A   1      38.777  30.789  29.742  1.00  0.00     0.049 A 
ATOM     24  H   UNL A   1      40.700  30.168  30.255  1.00  0.00     0.167 HD
ATOM     25  C   UNL A   1      44.702  28.705  31.272  1.00  0.00     0.037 A 
ATOM     26  C   UNL A   1      38.590  32.008  30.281  1.00  0.00     0.037 A 
ATOM     27  C   UNL A   1      44.611  30.024  31.850  1.00  0.00     0.049 A 
ATOM     28  C   UNL A   1      39.705  32.630  31.071  1.00  0.00     0.074 A 
ATOM     29  C   UNL A   1      45.575  30.725  32.554  1.00  0.00     0.029 A 
ATOM     30  N   UNL A   1      43.490  30.842  31.795  1.00  0.00    -0.354 N 
ATOM     31  N   UNL A   1      40.902  32.156  31.320  1.00  0.00    -0.248 NA
ATOM     32  C   UNL A   1      39.445  33.952  31.654  1.00  0.00     0.031 C 
ATOM     33  C   UNL A   1      45.024  31.943  32.963  1.00  0.00     0.029 A 
ATOM     34  C   UNL A   1      43.734  32.030  32.465  1.00  0.00     0.049 A 
ATOM     35  H   UNL A   1      42.646  30.612  31.343  1.00  0.00     0.167 HD
ATOM     36  C   UNL A   1      41.547  33.132  32.070  1.00  0.00     0.074 A 
ATOM     37  C   UNL A   1      40.613  34.230  32.215  1.00  0.00     0.031 C 
ATOM     38  C   UNL A   1      42.796  33.119  32.595  1.00  0.00     0.037 A 
BRANCH  25  39
ATOM     39  C   UNL A   1      45.992  27.945  31.441  1.00  0.00     0.058 A 
ATOM     40  C   UNL A   1      46.158  26.992  32.459  1.00  0.00     0.135 A 
ATOM     41  C   UNL A   1      47.057  28.129  30.542  1.00  0.00     0.135 A 
ATOM     42  F   UNL A   1      45.181  26.783  33.355  1.00  0.00    -0.206 F 
ATOM     43  C   UNL A   1      47.338  26.266  32.594  1.00  0.00     0.059 A 
ATOM     44  C   UNL A   1      48.236  27.394  30.641  1.00  0.00     0.059 A 
ATOM     45  F   UNL A   1      46.955  29.025  29.547  1.00  0.00    -0.206 F 
ATOM     46  C   UNL A   1      48.371  26.473  31.679  1.00  0.00     0.060 A 
BRANCH  46  47
ATOM     47  S   UNL A   1      49.893  25.519  31.867  1.00  0.00     0.124 S 
ATOM     48  O   UNL A   1      49.507  24.559  32.897  1.00  0.00    -0.237 OA
ATOM     49  O   UNL A   1      50.083  24.969  30.529  1.00  0.00    -0.237 OA
ATOM     50  O   UNL A   1      50.874  26.518  32.279  1.00  0.00    -0.744 OA
ENDBRANCH  46  47
ENDBRANCH  25  39
BRANCH  26  51
ATOM     51  C   UNL A   1      37.287  32.703  30.107  1.00  0.00     0.058 A 
ATOM     52  C   UNL A   1      37.051  33.544  29.009  1.00  0.00     0.135 A 
ATOM     53  C   UNL A   1      36.249  32.538  31.039  1.00  0.00     0.135 A 
ATOM     54  F   UNL A   1      38.011  33.735  28.092  1.00  0.00    -0.206 F 
ATOM     55  C   UNL A   1      35.844  34.219  28.857  1.00  0.00     0.059 A 
ATOM     56  C   UNL A   1      35.023  33.174  30.889  1.00  0.00     0.059 A 
ATOM     57  F   UNL A   1      36.415  31.727  32.096  1.00  0.00    -0.206 F 
ATOM     58  C   UNL A   1      34.836  34.028  29.803  1.00  0.00     0.060 A 
BRANCH  58  59
ATOM     59  S   UNL A   1      33.266  34.892  29.586  1.00  0.00     0.124 S 
ATOM     60  O   UNL A   1      32.773  34.947  30.957  1.00  0.00    -0.237 OA
ATOM     61  O   UNL A   1      33.693  36.161  29.007  1.00  0.00    -0.237 OA
ATOM     62  O   UNL A   1      32.525  34.017  28.683  1.00  0.00    -0.744 OA
ENDBRANCH  58  59
ENDBRANCH  26  51
BRANCH  38  63
ATOM     63  C   UNL A   1      43.240  34.347  33.342  1.00  0.00     0.058 A 
ATOM     64  C   UNL A   1      43.903  35.405  32.700  1.00  0.00     0.135 A 
ATOM     65  C   UNL A   1      42.975  34.477  34.715  1.00  0.00     0.135 A 
ATOM     66  F   UNL A   1      44.191  35.327  31.391  1.00  0.00    -0.206 F 
ATOM     67  C   UNL A   1      44.316  36.534  33.400  1.00  0.00     0.059 A 
ATOM     68  C   UNL A   1      43.349  35.611  35.427  1.00  0.00     0.059 A 
ATOM     69  F   UNL A   1      42.335  33.499  35.376  1.00  0.00    -0.206 F 
ATOM     70  C   UNL A   1      44.033  36.628  34.764  1.00  0.00     0.060 A 
BRANCH  70  71
ATOM     71  S   UNL A   1      44.554  38.110  35.653  1.00  0.00     0.124 S 
ATOM     72  O   UNL A   1      43.797  39.149  34.963  1.00  0.00    -0.237 OA
ATOM     73  O   UNL A   1      44.132  37.818  37.019  1.00  0.00    -0.237 OA
ATOM     74  O   UNL A   1      45.998  38.141  35.443  1.00  0.00    -0.744 OA
ENDBRANCH  70  71
ENDBRANCH  38  63
ENDBRANCH  12  13
ENDBRANCH   5   7
ENDBRANCH   2   3
ENDBRANCH   1   2
BRANCH   1  75
ATOM     75  C   UNL A   1      42.044  19.900  26.149  1.00  0.00     0.023 C 
BRANCH  75  76
ATOM     76  C   UNL A   1      42.876  21.179  26.183  1.00  0.00     0.116 C 
BRANCH  76  77
ATOM     77  N   UNL A   1      44.223  20.980  25.675  1.00  0.00    -0.356 N 
ATOM     78  C   UNL A   1      45.299  21.819  25.723  1.00  0.00     0.225 C 
ATOM     79  H   UNL A   1      44.382  20.115  25.232  1.00  0.00     0.163 HD
ATOM     80  O   UNL A   1      46.387  21.413  25.320  1.00  0.00    -0.275 OA
BRANCH  78  81
ATOM     81  C   UNL A   1      45.095  23.222  26.239  1.00  0.00     0.107 C 
ATOM     82  C   UNL A   1      46.011  23.621  27.396  1.00  0.00     0.115 C 
ATOM     83  C   UNL A   1      45.467  24.214  25.151  1.00  0.00     0.133 C 
ATOM     84  C   UNL A   1      46.180  25.107  27.191  1.00  0.00     0.223 C 
ATOM     85  N   UNL A   1      45.848  25.394  25.878  1.00  0.00    -0.338 N 
ATOM     86  O   UNL A   1      46.552  25.902  28.039  1.00  0.00    -0.275 OA
BRANCH  85  87
ATOM     87  C   UNL A   1      45.907  26.715  25.277  1.00  0.00     0.155 C 
BRANCH  87  88
ATOM     88  C   UNL A   1      44.814  27.647  25.747  1.00  0.00    -0.027 A 
ATOM     89  C   UNL A   1      43.481  27.467  25.344  1.00  0.00     0.005 A 
ATOM     90  C   UNL A   1      45.112  28.703  26.622  1.00  0.00     0.026 A 
ATOM     91  C   UNL A   1      42.476  28.334  25.776  1.00  0.00     0.002 A 
ATOM     92  C   UNL A   1      44.099  29.552  27.073  1.00  0.00     0.041 A 
ATOM     93  C   UNL A   1      42.785  29.376  26.646  1.00  0.00     0.020 A 
ATOM     94  Cl  UNL A   1      44.473  30.816  28.180  1.00  0.00    -0.084 Cl
ENDBRANCH  87  88
ENDBRANCH  85  87
ENDBRANCH  78  81
ENDBRANCH  76  77
ENDBRANCH  75  76
ENDBRANCH   1  75
TORSDOF 16
ENDMDL
MODEL 3
REMARK VINA RESULT:     -11.8      6.686     12.138
REMARK SMILES O=C(NCCCCNC(=O)[C@H]1CC(=O)N(Cc2cccc(Cl)c2)C1)c1ccc(-c2c3nc(c(-c4c(F)cc(S(=O)(=O)[O-])cc4F)c4ccc([nH]4)c(-c4c(F)cc(S(=O)(=O)[O-])cc4F)c4nc(c(-c5c(F)cc(S(=O)(=O)[O-])cc5F)c5ccc2[nH]5)C=C4)C=C3)cc1
REMARK SMILES IDX 5 1 4 2 3 3 1 4 2 5 25 7 26 8 90 9 27 10 89 11 28 12 29 13
REMARK SMILES IDX 30 14 83 15 31 16 88 17 82 18 84 19 32 20 87 21 81 22 80 23
REMARK SMILES IDX 33 25 67 26 46 27 66 28 47 29 50 30 65 31 85 32 48 33 49 34
REMARK SMILES IDX 64 36 86 37 51 38 34 39 35 40 44 41 36 42 37 43 43 44 45 45
REMARK SMILES IDX 38 46 39 47 40 48 41 49 42 50 68 51 69 52 78 53 70 54 71 55
REMARK SMILES IDX 77 56 79 57 72 58 73 59 74 60 75 61 76 62 52 63 53 64 62 65
REMARK SMILES IDX 54 66 55 67 61 68 63 69 56 70 57 71 58 72 59 73 60 74 6 75
REMARK SMILES IDX 7 76 8 77 9 78 10 80 11 81 12 82 24 83 13 84 15 85 14 86
REMARK SMILES IDX 16 87 17 88 18 89 23 90 19 91 21 92 20 93 22 94
REMARK H PARENT 3 6 84 24 50 35 8 79
REMARK Flexibility Score: inf
ROOT
ATOM      1  C   UNL A   1      40.242  22.683  27.524  1.00  0.00     0.023 C 
ENDROOT
BRANCH   1   2
ATOM      2  C   UNL A   1      41.650  23.257  27.435  1.00  0.00     0.116 C 
BRANCH   2   3
ATOM      3  N   UNL A   1      41.882  24.010  26.211  1.00  0.00    -0.352 N 
ATOM      4  O   UNL A   1      41.856  25.811  24.853  1.00  0.00    -0.269 OA
ATOM      5  C   UNL A   1      41.758  25.364  25.991  1.00  0.00     0.251 C 
ATOM      6  H   UNL A   1      42.168  23.479  25.433  1.00  0.00     0.163 HD
BRANCH   5   7
ATOM      7  C   UNL A   1      41.473  26.264  27.130  1.00  0.00     0.039 A 
ATOM      8  C   UNL A   1      42.330  27.326  27.422  1.00  0.00     0.014 A 
ATOM      9  C   UNL A   1      40.350  26.031  27.930  1.00  0.00     0.014 A 
ATOM     10  C   UNL A   1      42.163  28.044  28.599  1.00  0.00     0.010 A 
ATOM     11  C   UNL A   1      40.125  26.824  29.060  1.00  0.00     0.010 A 
ATOM     12  C   UNL A   1      41.049  27.816  29.423  1.00  0.00    -0.014 A 
BRANCH  12  13
ATOM     13  C   UNL A   1      40.846  28.680  30.616  1.00  0.00     0.031 A 
ATOM     14  C   UNL A   1      41.711  28.545  31.840  1.00  0.00     0.074 A 
ATOM     15  C   UNL A   1      39.887  29.626  30.565  1.00  0.00     0.049 A 
ATOM     16  N   UNL A   1      41.673  29.235  32.953  1.00  0.00    -0.248 NA
ATOM     17  C   UNL A   1      42.748  27.502  31.821  1.00  0.00     0.031 C 
ATOM     18  C   UNL A   1      38.979  29.843  29.434  1.00  0.00     0.029 A 
ATOM     19  N   UNL A   1      39.523  30.593  31.466  1.00  0.00    -0.354 N 
ATOM     20  C   UNL A   1      42.672  28.711  33.766  1.00  0.00     0.074 A 
ATOM     21  C   UNL A   1      43.275  27.618  33.033  1.00  0.00     0.031 C 
ATOM     22  C   UNL A   1      38.198  30.901  29.690  1.00  0.00     0.029 A 
ATOM     23  C   UNL A   1      38.495  31.394  31.029  1.00  0.00     0.049 A 
ATOM     24  H   UNL A   1      39.957  30.702  32.344  1.00  0.00     0.167 HD
ATOM     25  C   UNL A   1      43.058  29.116  35.001  1.00  0.00     0.037 A 
ATOM     26  C   UNL A   1      37.842  32.397  31.643  1.00  0.00     0.037 A 
ATOM     27  C   UNL A   1      42.448  30.206  35.722  1.00  0.00     0.049 A 
ATOM     28  C   UNL A   1      38.259  32.791  33.030  1.00  0.00     0.074 A 
ATOM     29  C   UNL A   1      42.769  30.697  36.976  1.00  0.00     0.029 A 
ATOM     30  N   UNL A   1      41.388  30.973  35.258  1.00  0.00    -0.354 N 
ATOM     31  N   UNL A   1      39.222  32.297  33.772  1.00  0.00    -0.248 NA
ATOM     32  C   UNL A   1      37.504  33.878  33.665  1.00  0.00     0.031 C 
ATOM     33  C   UNL A   1      41.876  31.727  37.289  1.00  0.00     0.029 A 
ATOM     34  C   UNL A   1      41.034  31.920  36.206  1.00  0.00     0.049 A 
ATOM     35  H   UNL A   1      40.952  30.862  34.382  1.00  0.00     0.167 HD
ATOM     36  C   UNL A   1      39.202  33.030  34.953  1.00  0.00     0.074 A 
ATOM     37  C   UNL A   1      38.146  34.012  34.816  1.00  0.00     0.031 C 
ATOM     38  C   UNL A   1      39.983  32.898  36.053  1.00  0.00     0.037 A 
BRANCH  25  39
ATOM     39  C   UNL A   1      44.191  28.375  35.662  1.00  0.00     0.058 A 
ATOM     40  C   UNL A   1      45.529  28.766  35.487  1.00  0.00     0.135 A 
ATOM     41  C   UNL A   1      43.937  27.297  36.528  1.00  0.00     0.135 A 
ATOM     42  F   UNL A   1      45.834  29.780  34.662  1.00  0.00    -0.206 F 
ATOM     43  C   UNL A   1      46.573  28.102  36.125  1.00  0.00     0.059 A 
ATOM     44  C   UNL A   1      44.963  26.636  37.198  1.00  0.00     0.059 A 
ATOM     45  F   UNL A   1      42.677  26.881  36.736  1.00  0.00    -0.206 F 
ATOM     46  C   UNL A   1      46.280  27.039  36.980  1.00  0.00     0.060 A 
BRANCH  46  47
ATOM     47  S   UNL A   1      47.648  26.193  37.803  1.00  0.00     0.124 S 
ATOM     48  O   UNL A   1      46.957  25.526  38.903  1.00  0.00    -0.237 OA
ATOM     49  O   UNL A   1      48.151  25.318  36.749  1.00  0.00    -0.237 OA
ATOM     50  O   UNL A   1      48.538  27.282  38.191  1.00  0.00    -0.744 OA
ENDBRANCH  46  47
ENDBRANCH  25  39
BRANCH  26  51
ATOM     51  C   UNL A   1      36.712  33.077  30.956  1.00  0.00     0.058 A 
ATOM     52  C   UNL A   1      36.936  33.989  29.915  1.00  0.00     0.135 A 
ATOM     53  C   UNL A   1      35.382  32.825  31.329  1.00  0.00     0.135 A 
ATOM     54  F   UNL A   1      38.189  34.265  29.522  1.00  0.00    -0.206 F 
ATOM     55  C   UNL A   1      35.885  34.649  29.287  1.00  0.00     0.059 A 
ATOM     56  C   UNL A   1      34.313  33.446  30.694  1.00  0.00     0.059 A 
ATOM     57  F   UNL A   1      35.111  31.944  32.305  1.00  0.00    -0.206 F 
ATOM     58  C   UNL A   1      34.576  34.372  29.685  1.00  0.00     0.060 A 
BRANCH  58  59
ATOM     59  S   UNL A   1      33.217  35.217  28.851  1.00  0.00     0.124 S 
ATOM     60  O   UNL A   1      32.630  34.130  28.076  1.00  0.00    -0.237 OA
ATOM     61  O   UNL A   1      32.423  35.703  29.975  1.00  0.00    -0.237 OA
ATOM     62  O   UNL A   1      33.892  36.253  28.075  1.00  0.00    -0.744 OA
ENDBRANCH  58  59
ENDBRANCH  26  51
BRANCH  38  63
ATOM     63  C   UNL A   1      39.751  33.866  37.180  1.00  0.00     0.058 A 
ATOM     64  C   UNL A   1      40.378  35.122  37.219  1.00  0.00     0.135 A 
ATOM     65  C   UNL A   1      38.869  33.541  38.224  1.00  0.00     0.135 A 
ATOM     66  F   UNL A   1      41.239  35.478  36.252  1.00  0.00    -0.206 F 
ATOM     67  C   UNL A   1      40.162  36.009  38.269  1.00  0.00     0.059 A 
ATOM     68  C   UNL A   1      38.614  34.426  39.266  1.00  0.00     0.059 A 
ATOM     69  F   UNL A   1      38.236  32.358  38.231  1.00  0.00    -0.206 F 
ATOM     70  C   UNL A   1      39.277  35.651  39.288  1.00  0.00     0.060 A 
BRANCH  70  71
ATOM     71  S   UNL A   1      38.990  36.822  40.631  1.00  0.00     0.124 S 
ATOM     72  O   UNL A   1      38.178  36.027  41.546  1.00  0.00    -0.237 OA
ATOM     73  O   UNL A   1      40.346  37.120  41.081  1.00  0.00    -0.237 OA
ATOM     74  O   UNL A   1      38.296  37.927  39.976  1.00  0.00    -0.744 OA
ENDBRANCH  70  71
ENDBRANCH  38  63
ENDBRANCH  12  13
ENDBRANCH   5   7
ENDBRANCH   2   3
ENDBRANCH   1   2
BRANCH   1  75
ATOM     75  C   UNL A   1      39.599  22.330  26.183  1.00  0.00     0.023 C 
BRANCH  75  76
ATOM     76  C   UNL A   1      38.260  23.011  25.914  1.00  0.00     0.116 C 
BRANCH  76  77
ATOM     77  N   UNL A   1      37.128  22.159  26.237  1.00  0.00    -0.356 N 
ATOM     78  C   UNL A   1      35.806  22.325  25.936  1.00  0.00     0.225 C 
ATOM     79  H   UNL A   1      37.345  21.345  26.746  1.00  0.00     0.163 HD
ATOM     80  O   UNL A   1      35.017  21.426  26.217  1.00  0.00    -0.275 OA
BRANCH  78  81
ATOM     81  C   UNL A   1      35.370  23.622  25.301  1.00  0.00     0.107 C 
ATOM     82  C   UNL A   1      35.298  23.597  23.774  1.00  0.00     0.115 C 
ATOM     83  C   UNL A   1      33.937  23.920  25.706  1.00  0.00     0.133 C 
ATOM     84  C   UNL A   1      34.189  24.578  23.477  1.00  0.00     0.223 C 
ATOM     85  N   UNL A   1      33.437  24.730  24.628  1.00  0.00    -0.338 N 
ATOM     86  O   UNL A   1      33.997  25.126  22.403  1.00  0.00    -0.275 OA
BRANCH  85  87
ATOM     87  C   UNL A   1      32.259  25.571  24.745  1.00  0.00     0.155 C 
BRANCH  87  88
ATOM     88  C   UNL A   1      32.411  26.697  25.742  1.00  0.00    -0.027 A 
ATOM     89  C   UNL A   1      31.347  27.081  26.574  1.00  0.00     0.005 A 
ATOM     90  C   UNL A   1      33.638  27.367  25.870  1.00  0.00     0.026 A 
ATOM     91  C   UNL A   1      31.491  28.126  27.489  1.00  0.00     0.002 A 
ATOM     92  C   UNL A   1      33.785  28.393  26.806  1.00  0.00     0.041 A 
ATOM     93  C   UNL A   1      32.715  28.780  27.609  1.00  0.00     0.020 A 
ATOM     94  Cl  UNL A   1      35.308  29.177  26.982  1.00  0.00    -0.084 Cl
ENDBRANCH  87  88
ENDBRANCH  85  87
ENDBRANCH  78  81
ENDBRANCH  76  77
ENDBRANCH  75  76
ENDBRANCH   1  75
TORSDOF 16
ENDMDL
