MODEL 1
REMARK VINA RESULT:     -10.2      0.000      0.000
REMARK SMILES CSc1ccc(C[C@H]([NH3+])C(=O)NCCCCNC(=O)c2ccc(-c3c4nc(c(-c5c(F)cc(S(=O)(=O)[O-])cc5F)c5ccc([nH]5)c(-c5c(F)cc(S(=O)(=O)[O-])cc5F)c5nc(c(-c6c(F)cc(S(=O)(=O)[O-])cc6F)c6ccc3[nH]6)C=C5)C=C4)cc2)cc1
REMARK SMILES IDX 14 1 13 2 12 3 10 4 11 5 8 7 7 8 6 9 3 10 4 11 87 12 5 13
REMARK SMILES IDX 86 14 2 15 1 16 9 17 15 21 16 22 17 23 18 24 19 26 20 27
REMARK SMILES IDX 21 28 85 29 22 30 84 31 23 32 24 33 25 34 78 35 26 36 83 37
REMARK SMILES IDX 77 38 79 39 27 40 82 41 76 42 75 43 28 45 62 46 41 47 61 48
REMARK SMILES IDX 42 49 45 50 60 51 80 52 43 53 44 54 59 56 81 57 46 58 29 59
REMARK SMILES IDX 30 60 39 61 31 62 32 63 38 64 40 65 33 66 34 67 35 68 36 69
REMARK SMILES IDX 37 70 63 71 64 72 73 73 65 74 66 75 72 76 74 77 67 78 68 79
REMARK SMILES IDX 69 80 70 81 71 82 47 83 48 84 57 85 49 86 50 87 56 88 58 89
REMARK SMILES IDX 51 90 52 91 53 92 54 93 55 94
REMARK H PARENT 12 6 9 18 9 19 9 20 17 25 79 44 45 55
REMARK Flexibility Score: inf
ROOT
ATOM      1  C   UNL A   1      34.287  35.238  28.565  1.00  0.00     0.023 C 
ENDROOT
BRANCH   1   2
ATOM      2  C   UNL A   1      33.278  35.176  29.715  1.00  0.00     0.116 C 
BRANCH   2   3
ATOM      3  N   UNL A   1      32.985  36.479  30.287  1.00  0.00    -0.351 N 
ATOM      4  C   UNL A   1      33.290  37.012  31.503  1.00  0.00     0.278 C 
ATOM      5  O   UNL A   1      32.901  38.167  31.718  1.00  0.00    -0.268 OA
ATOM      6  H   UNL A   1      32.481  37.081  29.693  1.00  0.00     0.163 HD
BRANCH   4   7
ATOM      7  C   UNL A   1      34.054  36.247  32.605  1.00  0.00     0.275 C 
BRANCH   7   8
ATOM      8  C   UNL A   1      34.027  34.706  32.550  1.00  0.00     0.111 C 
BRANCH   8   9
ATOM      9  C   UNL A   1      35.330  33.951  32.672  1.00  0.00    -0.041 A 
ATOM     10  C   UNL A   1      37.679  32.424  33.093  1.00  0.00     0.007 A 
ATOM     11  C   UNL A   1      36.458  31.799  32.878  1.00  0.00     0.015 A 
ATOM     12  C   UNL A   1      37.729  33.823  33.052  1.00  0.00     0.015 A 
ATOM     13  C   UNL A   1      35.305  32.555  32.705  1.00  0.00     0.005 A 
ATOM     14  C   UNL A   1      36.566  34.583  32.837  1.00  0.00     0.005 A 
BRANCH  10  15
ATOM     15  S   UNL A   1      39.161  31.477  33.391  1.00  0.00    -0.130 SA
ATOM     16  C   UNL A   1      38.784  30.729  35.009  1.00  0.00     0.091 C 
ENDBRANCH  10  15
ENDBRANCH   8   9
ENDBRANCH   7   8
BRANCH   7  17
ATOM     17  N   UNL A   1      33.656  36.730  33.952  1.00  0.00    -0.347 N 
ATOM     18  H   UNL A   1      34.439  37.223  34.382  1.00  0.00     0.345 HD
ATOM     19  H   UNL A   1      33.393  35.936  34.535  1.00  0.00     0.345 HD
ATOM     20  H   UNL A   1      32.862  37.366  33.865  1.00  0.00     0.345 HD
ENDBRANCH   7  17
ENDBRANCH   4   7
ENDBRANCH   2   3
ENDBRANCH   1   2
BRANCH   1  21
ATOM     21  C   UNL A   1      35.018  33.938  28.201  1.00  0.00     0.023 C 
BRANCH  21  22
ATOM     22  C   UNL A   1      34.809  32.746  29.129  1.00  0.00     0.116 C 
BRANCH  22  23
ATOM     23  N   UNL A   1      34.016  31.684  28.532  1.00  0.00    -0.352 N 
ATOM     24  C   UNL A   1      34.391  30.436  28.089  1.00  0.00     0.251 C 
ATOM     25  H   UNL A   1      33.060  31.891  28.426  1.00  0.00     0.163 HD
ATOM     26  O   UNL A   1      33.579  29.743  27.484  1.00  0.00    -0.269 OA
BRANCH  24  27
ATOM     27  C   UNL A   1      35.769  29.932  28.308  1.00  0.00     0.039 A 
ATOM     28  C   UNL A   1      36.680  29.994  27.249  1.00  0.00     0.014 A 
ATOM     29  C   UNL A   1      36.164  29.386  29.531  1.00  0.00     0.014 A 
ATOM     30  C   UNL A   1      38.005  29.590  27.444  1.00  0.00     0.010 A 
ATOM     31  C   UNL A   1      37.502  29.047  29.744  1.00  0.00     0.010 A 
ATOM     32  C   UNL A   1      38.442  29.158  28.708  1.00  0.00    -0.014 A 
BRANCH  32  33
ATOM     33  C   UNL A   1      39.880  28.865  28.962  1.00  0.00     0.031 A 
ATOM     34  C   UNL A   1      40.801  29.925  29.506  1.00  0.00     0.074 A 
ATOM     35  C   UNL A   1      40.374  27.650  28.644  1.00  0.00     0.049 A 
ATOM     36  N   UNL A   1      42.085  29.856  29.751  1.00  0.00    -0.248 NA
ATOM     37  C   UNL A   1      40.208  31.239  29.796  1.00  0.00     0.031 C 
ATOM     38  C   UNL A   1      39.601  26.551  28.060  1.00  0.00     0.029 A 
ATOM     39  N   UNL A   1      41.644  27.135  28.755  1.00  0.00    -0.354 N 
ATOM     40  C   UNL A   1      42.456  31.114  30.212  1.00  0.00     0.074 A 
ATOM     41  C   UNL A   1      41.269  31.941  30.169  1.00  0.00     0.031 C 
ATOM     42  C   UNL A   1      40.404  25.490  27.885  1.00  0.00     0.029 A 
ATOM     43  C   UNL A   1      41.757  25.840  28.303  1.00  0.00     0.049 A 
ATOM     44  H   UNL A   1      42.400  27.645  29.124  1.00  0.00     0.167 HD
ATOM     45  C   UNL A   1      43.667  31.536  30.650  1.00  0.00     0.037 A 
ATOM     46  C   UNL A   1      42.830  25.027  28.222  1.00  0.00     0.037 A 
ATOM     47  C   UNL A   1      44.843  30.703  30.705  1.00  0.00     0.049 A 
ATOM     48  C   UNL A   1      44.167  25.522  28.706  1.00  0.00     0.074 A 
ATOM     49  C   UNL A   1      46.100  31.023  31.193  1.00  0.00     0.029 A 
ATOM     50  N   UNL A   1      44.916  29.394  30.251  1.00  0.00    -0.354 N 
ATOM     51  N   UNL A   1      44.478  26.691  29.213  1.00  0.00    -0.248 NA
ATOM     52  C   UNL A   1      45.295  24.586  28.617  1.00  0.00     0.031 C 
ATOM     53  C   UNL A   1      46.944  29.928  30.982  1.00  0.00     0.029 A 
ATOM     54  C   UNL A   1      46.200  28.904  30.421  1.00  0.00     0.049 A 
ATOM     55  H   UNL A   1      44.164  28.889  29.865  1.00  0.00     0.167 HD
ATOM     56  C   UNL A   1      45.831  26.621  29.527  1.00  0.00     0.074 A 
ATOM     57  C   UNL A   1      46.274  25.291  29.167  1.00  0.00     0.031 C 
ATOM     58  C   UNL A   1      46.633  27.574  30.064  1.00  0.00     0.037 A 
BRANCH  45  59
ATOM     59  C   UNL A   1      43.791  32.964  31.110  1.00  0.00     0.058 A 
ATOM     60  C   UNL A   1      43.540  33.337  32.440  1.00  0.00     0.135 A 
ATOM     61  C   UNL A   1      44.218  33.966  30.222  1.00  0.00     0.135 A 
ATOM     62  F   UNL A   1      43.119  32.425  33.330  1.00  0.00    -0.206 F 
ATOM     63  C   UNL A   1      43.685  34.653  32.868  1.00  0.00     0.059 A 
ATOM     64  C   UNL A   1      44.398  35.284  30.634  1.00  0.00     0.059 A 
ATOM     65  F   UNL A   1      44.474  33.667  28.938  1.00  0.00    -0.206 F 
ATOM     66  C   UNL A   1      44.116  35.619  31.957  1.00  0.00     0.060 A 
BRANCH  66  67
ATOM     67  S   UNL A   1      44.310  37.319  32.535  1.00  0.00     0.124 S 
ATOM     68  O   UNL A   1      43.833  38.075  31.380  1.00  0.00    -0.237 OA
ATOM     69  O   UNL A   1      43.446  37.348  33.711  1.00  0.00    -0.237 OA
ATOM     70  O   UNL A   1      45.740  37.426  32.807  1.00  0.00    -0.744 OA
ENDBRANCH  66  67
ENDBRANCH  45  59
BRANCH  46  71
ATOM     71  C   UNL A   1      42.682  23.653  27.669  1.00  0.00     0.058 A 
ATOM     72  C   UNL A   1      42.821  23.406  26.295  1.00  0.00     0.135 A 
ATOM     73  C   UNL A   1      42.405  22.558  28.503  1.00  0.00     0.135 A 
ATOM     74  F   UNL A   1      43.078  24.419  25.453  1.00  0.00    -0.206 F 
ATOM     75  C   UNL A   1      42.672  22.128  25.765  1.00  0.00     0.059 A 
ATOM     76  C   UNL A   1      42.281  21.268  28.001  1.00  0.00     0.059 A 
ATOM     77  F   UNL A   1      42.279  22.737  29.827  1.00  0.00    -0.206 F 
ATOM     78  C   UNL A   1      42.405  21.064  26.627  1.00  0.00     0.060 A 
BRANCH  78  79
ATOM     79  S   UNL A   1      42.260  19.403  25.934  1.00  0.00     0.124 S 
ATOM     80  O   UNL A   1      40.820  19.291  25.735  1.00  0.00    -0.237 OA
ATOM     81  O   UNL A   1      43.067  19.506  24.722  1.00  0.00    -0.237 OA
ATOM     82  O   UNL A   1      42.822  18.552  26.980  1.00  0.00    -0.744 OA
ENDBRANCH  78  79
ENDBRANCH  46  71
BRANCH  58  83
ATOM     83  C   UNL A   1      48.068  27.206  30.333  1.00  0.00     0.058 A 
ATOM     84  C   UNL A   1      49.079  27.423  29.384  1.00  0.00     0.135 A 
ATOM     85  C   UNL A   1      48.443  26.671  31.577  1.00  0.00     0.135 A 
ATOM     86  F   UNL A   1      48.777  27.925  28.176  1.00  0.00    -0.206 F 
ATOM     87  C   UNL A   1      50.406  27.098  29.648  1.00  0.00     0.059 A 
ATOM     88  C   UNL A   1      49.768  26.369  31.874  1.00  0.00     0.059 A 
ATOM     89  F   UNL A   1      47.518  26.452  32.526  1.00  0.00    -0.206 F 
ATOM     90  C   UNL A   1      50.742  26.575  30.898  1.00  0.00     0.060 A 
BRANCH  90  91
ATOM     91  S   UNL A   1      52.472  26.186  31.238  1.00  0.00     0.124 S 
ATOM     92  O   UNL A   1      53.065  26.295  29.911  1.00  0.00    -0.237 OA
ATOM     93  O   UNL A   1      52.845  27.230  32.188  1.00  0.00    -0.237 OA
ATOM     94  O   UNL A   1      52.415  24.836  31.791  1.00  0.00    -0.744 OA
ENDBRANCH  90  91
ENDBRANCH  58  83
ENDBRANCH  32  33
ENDBRANCH  24  27
ENDBRANCH  22  23
ENDBRANCH  21  22
ENDBRANCH   1  21
TORSDOF 18
ENDMDL
MODEL 2
REMARK VINA RESULT:     -10.1      2.877      3.833
REMARK SMILES CSc1ccc(C[C@H]([NH3+])C(=O)NCCCCNC(=O)c2ccc(-c3c4nc(c(-c5c(F)cc(S(=O)(=O)[O-])cc5F)c5ccc([nH]5)c(-c5c(F)cc(S(=O)(=O)[O-])cc5F)c5nc(c(-c6c(F)cc(S(=O)(=O)[O-])cc6F)c6ccc3[nH]6)C=C5)C=C4)cc2)cc1
REMARK SMILES IDX 14 1 13 2 12 3 10 4 11 5 8 7 7 8 6 9 3 10 4 11 87 12 5 13
REMARK SMILES IDX 86 14 2 15 1 16 9 17 15 21 16 22 17 23 18 24 19 26 20 27
REMARK SMILES IDX 21 28 85 29 22 30 84 31 23 32 24 33 25 34 78 35 26 36 83 37
REMARK SMILES IDX 77 38 79 39 27 40 82 41 76 42 75 43 28 45 62 46 41 47 61 48
REMARK SMILES IDX 42 49 45 50 60 51 80 52 43 53 44 54 59 56 81 57 46 58 29 59
REMARK SMILES IDX 30 60 39 61 31 62 32 63 38 64 40 65 33 66 34 67 35 68 36 69
REMARK SMILES IDX 37 70 63 71 64 72 73 73 65 74 66 75 72 76 74 77 67 78 68 79
REMARK SMILES IDX 69 80 70 81 71 82 47 83 48 84 57 85 49 86 50 87 56 88 58 89
REMARK SMILES IDX 51 90 52 91 53 92 54 93 55 94
REMARK H PARENT 12 6 9 18 9 19 9 20 17 25 79 44 45 55
REMARK Flexibility Score: inf
ROOT
ATOM      1  C   UNL A   1      34.291  34.948  28.694  1.00  0.00     0.023 C 
ENDROOT
BRANCH   1   2
ATOM      2  C   UNL A   1      33.369  34.964  29.918  1.00  0.00     0.116 C 
BRANCH   2   3
ATOM      3  N   UNL A   1      33.846  35.835  30.978  1.00  0.00    -0.351 N 
ATOM      4  C   UNL A   1      34.425  35.550  32.178  1.00  0.00     0.278 C 
ATOM      5  O   UNL A   1      34.730  36.514  32.892  1.00  0.00    -0.268 OA
ATOM      6  H   UNL A   1      33.731  36.796  30.799  1.00  0.00     0.163 HD
BRANCH   4   7
ATOM      7  C   UNL A   1      34.684  34.114  32.684  1.00  0.00     0.275 C 
BRANCH   7   8
ATOM      8  C   UNL A   1      35.357  33.128  31.708  1.00  0.00     0.111 C 
BRANCH   8   9
ATOM      9  C   UNL A   1      36.744  33.440  31.199  1.00  0.00    -0.041 A 
ATOM     10  C   UNL A   1      39.296  34.261  30.282  1.00  0.00     0.007 A 
ATOM     11  C   UNL A   1      38.873  34.570  31.568  1.00  0.00     0.015 A 
ATOM     12  C   UNL A   1      38.452  33.496  29.467  1.00  0.00     0.015 A 
ATOM     13  C   UNL A   1      37.607  34.192  31.998  1.00  0.00     0.005 A 
ATOM     14  C   UNL A   1      37.187  33.082  29.922  1.00  0.00     0.005 A 
BRANCH  10  15
ATOM     15  S   UNL A   1      40.887  34.796  29.680  1.00  0.00    -0.130 SA
ATOM     16  C   UNL A   1      41.919  34.579  31.165  1.00  0.00     0.091 C 
ENDBRANCH  10  15
ENDBRANCH   8   9
ENDBRANCH   7   8
BRANCH   7  17
ATOM     17  N   UNL A   1      33.444  33.527  33.251  1.00  0.00    -0.347 N 
ATOM     18  H   UNL A   1      33.023  32.896  32.568  1.00  0.00     0.345 HD
ATOM     19  H   UNL A   1      32.786  34.272  33.476  1.00  0.00     0.345 HD
ATOM     20  H   UNL A   1      33.670  33.006  34.099  1.00  0.00     0.345 HD
ENDBRANCH   7  17
ENDBRANCH   4   7
ENDBRANCH   2   3
ENDBRANCH   1   2
BRANCH   1  21
ATOM     21  C   UNL A   1      34.306  33.672  27.842  1.00  0.00     0.023 C 
BRANCH  21  22
ATOM     22  C   UNL A   1      34.014  32.359  28.562  1.00  0.00     0.116 C 
BRANCH  22  23
ATOM     23  N   UNL A   1      33.829  31.237  27.657  1.00  0.00    -0.352 N 
ATOM     24  C   UNL A   1      34.672  30.192  27.351  1.00  0.00     0.251 C 
ATOM     25  H   UNL A   1      32.964  31.221  27.188  1.00  0.00     0.163 HD
ATOM     26  O   UNL A   1      34.369  29.421  26.446  1.00  0.00    -0.269 OA
BRANCH  24  27
ATOM     27  C   UNL A   1      35.951  30.007  28.078  1.00  0.00     0.039 A 
ATOM     28  C   UNL A   1      35.907  29.575  29.407  1.00  0.00     0.014 A 
ATOM     29  C   UNL A   1      37.182  30.270  27.474  1.00  0.00     0.014 A 
ATOM     30  C   UNL A   1      37.098  29.325  30.100  1.00  0.00     0.010 A 
ATOM     31  C   UNL A   1      38.368  29.956  28.142  1.00  0.00     0.010 A 
ATOM     32  C   UNL A   1      38.340  29.467  29.458  1.00  0.00    -0.014 A 
BRANCH  32  33
ATOM     33  C   UNL A   1      39.603  29.065  30.138  1.00  0.00     0.031 A 
ATOM     34  C   UNL A   1      40.075  29.778  31.377  1.00  0.00     0.074 A 
ATOM     35  C   UNL A   1      40.361  28.087  29.599  1.00  0.00     0.049 A 
ATOM     36  N   UNL A   1      41.167  29.586  32.074  1.00  0.00    -0.248 NA
ATOM     37  C   UNL A   1      39.222  30.860  31.891  1.00  0.00     0.031 C 
ATOM     38  C   UNL A   1      40.045  27.352  28.372  1.00  0.00     0.029 A 
ATOM     39  N   UNL A   1      41.558  27.547  30.005  1.00  0.00    -0.354 N 
ATOM     40  C   UNL A   1      41.138  30.524  33.099  1.00  0.00     0.074 A 
ATOM     41  C   UNL A   1      39.942  31.318  32.905  1.00  0.00     0.031 C 
ATOM     42  C   UNL A   1      41.007  26.447  28.138  1.00  0.00     0.029 A 
ATOM     43  C   UNL A   1      42.032  26.561  29.170  1.00  0.00     0.049 A 
ATOM     44  H   UNL A   1      42.032  27.839  30.817  1.00  0.00     0.167 HD
ATOM     45  C   UNL A   1      42.014  30.697  34.118  1.00  0.00     0.037 A 
ATOM     46  C   UNL A   1      43.168  25.835  29.220  1.00  0.00     0.037 A 
ATOM     47  C   UNL A   1      43.196  29.895  34.315  1.00  0.00     0.049 A 
ATOM     48  C   UNL A   1      44.130  26.052  30.358  1.00  0.00     0.074 A 
ATOM     49  C   UNL A   1      44.111  29.954  35.353  1.00  0.00     0.029 A 
ATOM     50  N   UNL A   1      43.635  28.898  33.456  1.00  0.00    -0.354 N 
ATOM     51  N   UNL A   1      44.044  26.893  31.361  1.00  0.00    -0.248 NA
ATOM     52  C   UNL A   1      45.338  25.218  30.375  1.00  0.00     0.031 C 
ATOM     53  C   UNL A   1      45.131  29.032  35.093  1.00  0.00     0.029 A 
ATOM     54  C   UNL A   1      44.820  28.355  33.926  1.00  0.00     0.049 A 
ATOM     55  H   UNL A   1      43.172  28.618  32.634  1.00  0.00     0.167 HD
ATOM     56  C   UNL A   1      45.171  26.669  32.142  1.00  0.00     0.074 A 
ATOM     57  C   UNL A   1      45.917  25.605  31.504  1.00  0.00     0.031 C 
ATOM     58  C   UNL A   1      45.554  27.291  33.285  1.00  0.00     0.037 A 
BRANCH  45  59
ATOM     59  C   UNL A   1      41.734  31.797  35.108  1.00  0.00     0.058 A 
ATOM     60  C   UNL A   1      42.373  33.045  35.026  1.00  0.00     0.135 A 
ATOM     61  C   UNL A   1      40.774  31.622  36.119  1.00  0.00     0.135 A 
ATOM     62  F   UNL A   1      43.308  33.266  34.088  1.00  0.00    -0.206 F 
ATOM     63  C   UNL A   1      42.090  34.069  35.924  1.00  0.00     0.059 A 
ATOM     64  C   UNL A   1      40.453  32.642  37.010  1.00  0.00     0.059 A 
ATOM     65  F   UNL A   1      40.130  30.450  36.244  1.00  0.00    -0.206 F 
ATOM     66  C   UNL A   1      41.126  33.858  36.912  1.00  0.00     0.060 A 
BRANCH  66  67
ATOM     67  S   UNL A   1      40.764  35.204  38.060  1.00  0.00     0.124 S 
ATOM     68  O   UNL A   1      39.577  34.694  38.741  1.00  0.00    -0.237 OA
ATOM     69  O   UNL A   1      41.980  35.262  38.865  1.00  0.00    -0.237 OA
ATOM     70  O   UNL A   1      40.541  36.350  37.184  1.00  0.00    -0.744 OA
ENDBRANCH  66  67
ENDBRANCH  45  59
BRANCH  46  71
ATOM     71  C   UNL A   1      43.452  24.825  28.165  1.00  0.00     0.058 A 
ATOM     72  C   UNL A   1      42.969  23.513  28.267  1.00  0.00     0.135 A 
ATOM     73  C   UNL A   1      44.208  25.154  27.028  1.00  0.00     0.135 A 
ATOM     74  F   UNL A   1      42.247  23.145  29.338  1.00  0.00    -0.206 F 
ATOM     75  C   UNL A   1      43.239  22.557  27.293  1.00  0.00     0.059 A 
ATOM     76  C   UNL A   1      44.467  24.224  26.027  1.00  0.00     0.059 A 
ATOM     77  F   UNL A   1      44.681  26.401  26.872  1.00  0.00    -0.206 F 
ATOM     78  C   UNL A   1      43.987  22.924  26.174  1.00  0.00     0.060 A 
BRANCH  78  79
ATOM     79  S   UNL A   1      44.292  21.688  24.894  1.00  0.00     0.124 S 
ATOM     80  O   UNL A   1      43.375  20.624  25.286  1.00  0.00    -0.237 OA
ATOM     81  O   UNL A   1      43.945  22.415  23.677  1.00  0.00    -0.237 OA
ATOM     82  O   UNL A   1      45.713  21.386  25.050  1.00  0.00    -0.744 OA
ENDBRANCH  78  79
ENDBRANCH  46  71
BRANCH  58  83
ATOM     83  C   UNL A   1      46.821  26.814  33.947  1.00  0.00     0.058 A 
ATOM     84  C   UNL A   1      48.066  27.401  33.672  1.00  0.00     0.135 A 
ATOM     85  C   UNL A   1      46.779  25.785  34.902  1.00  0.00     0.135 A 
ATOM     86  F   UNL A   1      48.166  28.383  32.762  1.00  0.00    -0.206 F 
ATOM     87  C   UNL A   1      49.229  26.967  34.303  1.00  0.00     0.059 A 
ATOM     88  C   UNL A   1      47.924  25.358  35.568  1.00  0.00     0.059 A 
ATOM     89  F   UNL A   1      45.613  25.195  35.211  1.00  0.00    -0.206 F 
ATOM     90  C   UNL A   1      49.147  25.947  35.252  1.00  0.00     0.060 A 
BRANCH  90  91
ATOM     91  S   UNL A   1      50.658  25.415  36.084  1.00  0.00     0.124 S 
ATOM     92  O   UNL A   1      50.674  23.988  35.782  1.00  0.00    -0.237 OA
ATOM     93  O   UNL A   1      51.681  26.216  35.416  1.00  0.00    -0.237 OA
ATOM     94  O   UNL A   1      50.417  25.758  37.482  1.00  0.00    -0.744 OA
ENDBRANCH  90  91
ENDBRANCH  58  83
ENDBRANCH  32  33
ENDBRANCH  24  27
ENDBRANCH  22  23
ENDBRANCH  21  22
ENDBRANCH   1  21
TORSDOF 18
ENDMDL
MODEL 3
REMARK VINA RESULT:     -10.0      2.802      8.631
REMARK SMILES CSc1ccc(C[C@H]([NH3+])C(=O)NCCCCNC(=O)c2ccc(-c3c4nc(c(-c5c(F)cc(S(=O)(=O)[O-])cc5F)c5ccc([nH]5)c(-c5c(F)cc(S(=O)(=O)[O-])cc5F)c5nc(c(-c6c(F)cc(S(=O)(=O)[O-])cc6F)c6ccc3[nH]6)C=C5)C=C4)cc2)cc1
REMARK SMILES IDX 14 1 13 2 12 3 10 4 11 5 8 7 7 8 6 9 3 10 4 11 87 12 5 13
REMARK SMILES IDX 86 14 2 15 1 16 9 17 15 21 16 22 17 23 18 24 19 26 20 27
REMARK SMILES IDX 21 28 85 29 22 30 84 31 23 32 24 33 25 34 78 35 26 36 83 37
REMARK SMILES IDX 77 38 79 39 27 40 82 41 76 42 75 43 28 45 62 46 41 47 61 48
REMARK SMILES IDX 42 49 45 50 60 51 80 52 43 53 44 54 59 56 81 57 46 58 29 59
REMARK SMILES IDX 30 60 39 61 31 62 32 63 38 64 40 65 33 66 34 67 35 68 36 69
REMARK SMILES IDX 37 70 63 71 64 72 73 73 65 74 66 75 72 76 74 77 67 78 68 79
REMARK SMILES IDX 69 80 70 81 71 82 47 83 48 84 57 85 49 86 50 87 56 88 58 89
REMARK SMILES IDX 51 90 52 91 53 92 54 93 55 94
REMARK H PARENT 12 6 9 18 9 19 9 20 17 25 79 44 45 55
REMARK Flexibility Score: inf
ROOT
ATOM      1  C   UNL A   1      34.170  35.258  28.898  1.00  0.00     0.023 C 
ENDROOT
BRANCH   1   2
ATOM      2  C   UNL A   1      33.319  35.152  30.167  1.00  0.00     0.116 C 
BRANCH   2   3
ATOM      3  N   UNL A   1      33.843  35.939  31.270  1.00  0.00    -0.351 N 
ATOM      4  C   UNL A   1      34.406  35.561  32.452  1.00  0.00     0.278 C 
ATOM      5  O   UNL A   1      34.763  36.467  33.214  1.00  0.00    -0.268 OA
ATOM      6  H   UNL A   1      33.779  36.913  31.142  1.00  0.00     0.163 HD
BRANCH   4   7
ATOM      7  C   UNL A   1      34.589  34.088  32.880  1.00  0.00     0.275 C 
BRANCH   7   8
ATOM      8  C   UNL A   1      35.365  33.160  31.923  1.00  0.00     0.111 C 
BRANCH   8   9
ATOM      9  C   UNL A   1      36.706  33.616  31.397  1.00  0.00    -0.041 A 
ATOM     10  C   UNL A   1      39.264  34.241  30.353  1.00  0.00     0.007 A 
ATOM     11  C   UNL A   1      38.304  33.634  29.555  1.00  0.00     0.015 A 
ATOM     12  C   UNL A   1      38.924  34.578  31.670  1.00  0.00     0.015 A 
ATOM     13  C   UNL A   1      37.063  33.301  30.085  1.00  0.00     0.005 A 
ATOM     14  C   UNL A   1      37.653  34.274  32.189  1.00  0.00     0.005 A 
BRANCH  10  15
ATOM     15  S   UNL A   1      40.890  34.612  29.720  1.00  0.00    -0.130 SA
ATOM     16  C   UNL A   1      41.825  33.146  30.264  1.00  0.00     0.091 C 
ENDBRANCH  10  15
ENDBRANCH   8   9
ENDBRANCH   7   8
BRANCH   7  17
ATOM     17  N   UNL A   1      33.283  33.485  33.250  1.00  0.00    -0.347 N 
ATOM     18  H   UNL A   1      33.382  32.973  34.128  1.00  0.00     0.345 HD
ATOM     19  H   UNL A   1      32.983  32.845  32.515  1.00  0.00     0.345 HD
ATOM     20  H   UNL A   1      32.587  34.222  33.364  1.00  0.00     0.345 HD
ENDBRANCH   7  17
ENDBRANCH   4   7
ENDBRANCH   2   3
ENDBRANCH   1   2
BRANCH   1  21
ATOM     21  C   UNL A   1      34.123  34.076  27.920  1.00  0.00     0.023 C 
BRANCH  21  22
ATOM     22  C   UNL A   1      34.383  32.689  28.501  1.00  0.00     0.116 C 
BRANCH  22  23
ATOM     23  N   UNL A   1      33.861  31.613  27.675  1.00  0.00    -0.352 N 
ATOM     24  C   UNL A   1      34.411  30.393  27.352  1.00  0.00     0.251 C 
ATOM     25  H   UNL A   1      32.975  31.785  27.283  1.00  0.00     0.163 HD
ATOM     26  O   UNL A   1      33.855  29.686  26.518  1.00  0.00    -0.269 OA
BRANCH  24  27
ATOM     27  C   UNL A   1      35.677  29.939  27.976  1.00  0.00     0.039 A 
ATOM     28  C   UNL A   1      36.866  30.077  27.253  1.00  0.00     0.014 A 
ATOM     29  C   UNL A   1      35.702  29.365  29.249  1.00  0.00     0.014 A 
ATOM     30  C   UNL A   1      38.085  29.721  27.840  1.00  0.00     0.010 A 
ATOM     31  C   UNL A   1      36.924  29.074  29.859  1.00  0.00     0.010 A 
ATOM     32  C   UNL A   1      38.131  29.261  29.167  1.00  0.00    -0.014 A 
BRANCH  32  33
ATOM     33  C   UNL A   1      39.434  29.018  29.849  1.00  0.00     0.031 A 
ATOM     34  C   UNL A   1      40.380  27.957  29.353  1.00  0.00     0.074 A 
ATOM     35  C   UNL A   1      39.740  29.720  30.960  1.00  0.00     0.049 A 
ATOM     36  N   UNL A   1      41.534  27.585  29.847  1.00  0.00    -0.248 NA
ATOM     37  C   UNL A   1      39.970  27.201  28.160  1.00  0.00     0.031 C 
ATOM     38  C   UNL A   1      38.887  30.740  31.575  1.00  0.00     0.029 A 
ATOM     39  N   UNL A   1      40.844  29.680  31.776  1.00  0.00    -0.354 N 
ATOM     40  C   UNL A   1      41.983  26.550  29.034  1.00  0.00     0.074 A 
ATOM     41  C   UNL A   1      40.953  26.320  28.043  1.00  0.00     0.031 C 
ATOM     42  C   UNL A   1      39.506  31.241  32.655  1.00  0.00     0.029 A 
ATOM     43  C   UNL A   1      40.780  30.554  32.838  1.00  0.00     0.049 A 
ATOM     44  H   UNL A   1      41.609  29.082  31.617  1.00  0.00     0.167 HD
ATOM     45  C   UNL A   1      43.153  25.868  29.096  1.00  0.00     0.037 A 
ATOM     46  C   UNL A   1      41.642  30.773  33.851  1.00  0.00     0.037 A 
ATOM     47  C   UNL A   1      44.182  26.110  30.076  1.00  0.00     0.049 A 
ATOM     48  C   UNL A   1      42.930  29.996  33.903  1.00  0.00     0.074 A 
ATOM     49  C   UNL A   1      45.427  25.513  30.180  1.00  0.00     0.029 A 
ATOM     50  N   UNL A   1      44.086  27.012  31.126  1.00  0.00    -0.354 N 
ATOM     51  N   UNL A   1      43.370  29.075  33.078  1.00  0.00    -0.248 NA
ATOM     52  C   UNL A   1      43.843  30.292  35.015  1.00  0.00     0.031 C 
ATOM     53  C   UNL A   1      46.060  26.013  31.323  1.00  0.00     0.029 A 
ATOM     54  C   UNL A   1      45.236  26.967  31.897  1.00  0.00     0.049 A 
ATOM     55  H   UNL A   1      43.313  27.598  31.297  1.00  0.00     0.167 HD
ATOM     56  C   UNL A   1      44.621  28.702  33.558  1.00  0.00     0.074 A 
ATOM     57  C   UNL A   1      44.873  29.506  34.734  1.00  0.00     0.031 C 
ATOM     58  C   UNL A   1      45.482  27.776  33.066  1.00  0.00     0.037 A 
BRANCH  45  59
ATOM     59  C   UNL A   1      43.392  24.788  28.073  1.00  0.00     0.058 A 
ATOM     60  C   UNL A   1      44.069  25.046  26.870  1.00  0.00     0.135 A 
ATOM     61  C   UNL A   1      42.987  23.465  28.323  1.00  0.00     0.135 A 
ATOM     62  F   UNL A   1      44.469  26.293  26.574  1.00  0.00    -0.206 F 
ATOM     63  C   UNL A   1      44.315  24.040  25.942  1.00  0.00     0.059 A 
ATOM     64  C   UNL A   1      43.248  22.437  27.421  1.00  0.00     0.059 A 
ATOM     65  F   UNL A   1      42.337  23.160  29.457  1.00  0.00    -0.206 F 
ATOM     66  C   UNL A   1      43.902  22.737  26.228  1.00  0.00     0.060 A 
BRANCH  66  67
ATOM     67  S   UNL A   1      44.240  21.443  25.015  1.00  0.00     0.124 S 
ATOM     68  O   UNL A   1      43.160  20.500  25.286  1.00  0.00    -0.237 OA
ATOM     69  O   UNL A   1      44.146  22.168  23.752  1.00  0.00    -0.237 OA
ATOM     70  O   UNL A   1      45.579  20.983  25.372  1.00  0.00    -0.744 OA
ENDBRANCH  66  67
ENDBRANCH  45  59
BRANCH  46  71
ATOM     71  C   UNL A   1      41.320  31.782  34.897  1.00  0.00     0.058 A 
ATOM     72  C   UNL A   1      41.770  33.106  34.790  1.00  0.00     0.135 A 
ATOM     73  C   UNL A   1      40.550  31.444  36.022  1.00  0.00     0.135 A 
ATOM     74  F   UNL A   1      42.516  33.478  33.738  1.00  0.00    -0.206 F 
ATOM     75  C   UNL A   1      41.485  34.055  35.767  1.00  0.00     0.059 A 
ATOM     76  C   UNL A   1      40.228  32.382  36.997  1.00  0.00     0.059 A 
ATOM     77  F   UNL A   1      40.080  30.195  36.165  1.00  0.00    -0.206 F 
ATOM     78  C   UNL A   1      40.710  33.683  36.867  1.00  0.00     0.060 A 
BRANCH  78  79
ATOM     79  S   UNL A   1      40.309  34.934  38.105  1.00  0.00     0.124 S 
ATOM     80  O   UNL A   1      38.897  34.664  38.350  1.00  0.00    -0.237 OA
ATOM     81  O   UNL A   1      41.223  34.594  39.191  1.00  0.00    -0.237 OA
ATOM     82  O   UNL A   1      40.602  36.191  37.421  1.00  0.00    -0.744 OA
ENDBRANCH  78  79
ENDBRANCH  46  71
BRANCH  58  83
ATOM     83  C   UNL A   1      46.799  27.603  33.777  1.00  0.00     0.058 A 
ATOM     84  C   UNL A   1      47.941  28.331  33.407  1.00  0.00     0.135 A 
ATOM     85  C   UNL A   1      46.906  26.731  34.872  1.00  0.00     0.135 A 
ATOM     86  F   UNL A   1      47.898  29.173  32.362  1.00  0.00    -0.206 F 
ATOM     87  C   UNL A   1      49.149  28.180  34.081  1.00  0.00     0.059 A 
ATOM     88  C   UNL A   1      48.095  26.588  35.581  1.00  0.00     0.059 A 
ATOM     89  F   UNL A   1      45.842  26.018  35.276  1.00  0.00    -0.206 F 
ATOM     90  C   UNL A   1      49.215  27.308  35.170  1.00  0.00     0.060 A 
BRANCH  90  91
ATOM     91  S   UNL A   1      50.780  27.144  36.054  1.00  0.00     0.124 S 
ATOM     92  O   UNL A   1      50.325  26.935  37.423  1.00  0.00    -0.237 OA
ATOM     93  O   UNL A   1      51.387  25.986  35.403  1.00  0.00    -0.237 OA
ATOM     94  O   UNL A   1      51.449  28.418  35.803  1.00  0.00    -0.744 OA
ENDBRANCH  90  91
ENDBRANCH  58  83
ENDBRANCH  32  33
ENDBRANCH  24  27
ENDBRANCH  22  23
ENDBRANCH  21  22
ENDBRANCH   1  21
TORSDOF 18
ENDMDL
