MODEL 1
REMARK VINA RESULT:     -12.2      0.000      0.000
REMARK SMILES O=C(NCCCCNC(=O)c1cccc(Nc2ccc([N+](=O)[O-])cc2)c1)c1ccc(-c2c3nc(c(-c4c(F)cc(S(=O)(=O)[O-])cc4F)c4ccc([nH]4)c(-c4c(F)cc(S(=O)(=O)[O-])cc4F)c4nc(c(-c5c(F)cc(S(=O)(=O)[O-])cc5F)c5ccc2[nH]5)C=C4)C=C3)cc1
REMARK SMILES IDX 5 1 4 2 3 3 1 4 2 5 27 7 28 8 92 9 29 10 91 11 30 12 31 13
REMARK SMILES IDX 32 14 85 15 33 16 90 17 84 18 86 19 34 20 89 21 83 22 82 23
REMARK SMILES IDX 35 25 69 26 48 27 68 28 49 29 52 30 67 31 87 32 50 33 51 34
REMARK SMILES IDX 66 36 88 37 53 38 36 39 37 40 46 41 38 42 39 43 45 44 47 45
REMARK SMILES IDX 40 46 41 47 42 48 43 49 44 50 70 51 71 52 80 53 72 54 73 55
REMARK SMILES IDX 79 56 81 57 74 58 75 59 76 60 77 61 78 62 54 63 55 64 64 65
REMARK SMILES IDX 56 66 57 67 63 68 65 69 58 70 59 71 60 72 61 73 62 74 6 75
REMARK SMILES IDX 7 76 8 77 9 78 10 80 11 81 12 82 26 83 13 84 15 85 14 86
REMARK SMILES IDX 16 87 17 89 18 90 25 91 19 92 24 93 20 94 21 95 22 96 23 97
REMARK H PARENT 3 6 86 24 52 35 8 79 16 88
REMARK Flexibility Score: inf
ROOT
ATOM      1  C   UNL A   1      38.147  19.531  25.197  1.00  0.00     0.023 C 
ENDROOT
BRANCH   1   2
ATOM      2  C   UNL A   1      39.389  20.165  25.805  1.00  0.00     0.116 C 
BRANCH   2   3
ATOM      3  N   UNL A   1      40.478  19.222  26.017  1.00  0.00    -0.352 N 
ATOM      4  O   UNL A   1      42.605  18.570  26.412  1.00  0.00    -0.269 OA
ATOM      5  C   UNL A   1      41.783  19.482  26.373  1.00  0.00     0.251 C 
ATOM      6  H   UNL A   1      40.251  18.273  25.891  1.00  0.00     0.163 HD
BRANCH   5   7
ATOM      7  C   UNL A   1      42.192  20.873  26.670  1.00  0.00     0.039 A 
ATOM      8  C   UNL A   1      42.494  21.755  25.633  1.00  0.00     0.014 A 
ATOM      9  C   UNL A   1      42.316  21.285  28.001  1.00  0.00     0.014 A 
ATOM     10  C   UNL A   1      43.078  22.982  25.923  1.00  0.00     0.010 A 
ATOM     11  C   UNL A   1      42.816  22.559  28.291  1.00  0.00     0.010 A 
ATOM     12  C   UNL A   1      43.238  23.404  27.255  1.00  0.00    -0.014 A 
BRANCH  12  13
ATOM     13  C   UNL A   1      43.797  24.758  27.506  1.00  0.00     0.031 A 
ATOM     14  C   UNL A   1      45.237  25.085  27.213  1.00  0.00     0.074 A 
ATOM     15  C   UNL A   1      42.958  25.723  27.932  1.00  0.00     0.049 A 
ATOM     16  N   UNL A   1      45.848  26.240  27.294  1.00  0.00    -0.248 NA
ATOM     17  C   UNL A   1      46.107  23.979  26.783  1.00  0.00     0.031 C 
ATOM     18  C   UNL A   1      41.548  25.515  28.278  1.00  0.00     0.029 A 
ATOM     19  N   UNL A   1      43.146  27.068  28.110  1.00  0.00    -0.354 N 
ATOM     20  C   UNL A   1      47.171  26.002  26.938  1.00  0.00     0.074 A 
ATOM     21  C   UNL A   1      47.282  24.585  26.665  1.00  0.00     0.031 C 
ATOM     22  C   UNL A   1      40.985  26.698  28.562  1.00  0.00     0.029 A 
ATOM     23  C   UNL A   1      42.002  27.738  28.471  1.00  0.00     0.049 A 
ATOM     24  H   UNL A   1      44.017  27.511  27.991  1.00  0.00     0.167 HD
ATOM     25  C   UNL A   1      48.194  26.887  26.841  1.00  0.00     0.037 A 
ATOM     26  C   UNL A   1      41.790  29.046  28.707  1.00  0.00     0.037 A 
ATOM     27  C   UNL A   1      48.072  28.300  27.100  1.00  0.00     0.049 A 
ATOM     28  C   UNL A   1      42.932  30.006  28.556  1.00  0.00     0.074 A 
ATOM     29  C   UNL A   1      49.050  29.277  27.027  1.00  0.00     0.029 A 
ATOM     30  N   UNL A   1      46.899  28.940  27.473  1.00  0.00    -0.354 N 
ATOM     31  N   UNL A   1      44.174  29.759  28.215  1.00  0.00    -0.248 NA
ATOM     32  C   UNL A   1      42.647  31.422  28.825  1.00  0.00     0.031 C 
ATOM     33  C   UNL A   1      48.475  30.504  27.379  1.00  0.00     0.029 A 
ATOM     34  C   UNL A   1      47.130  30.296  27.639  1.00  0.00     0.049 A 
ATOM     35  H   UNL A   1      46.030  28.495  27.602  1.00  0.00     0.167 HD
ATOM     36  C   UNL A   1      44.822  30.986  28.237  1.00  0.00     0.074 A 
ATOM     37  C   UNL A   1      43.825  31.979  28.587  1.00  0.00     0.031 C 
ATOM     38  C   UNL A   1      46.128  31.266  28.004  1.00  0.00     0.037 A 
BRANCH  25  39
ATOM     39  C   UNL A   1      49.543  26.357  26.436  1.00  0.00     0.058 A 
ATOM     40  C   UNL A   1      49.981  26.408  25.104  1.00  0.00     0.135 A 
ATOM     41  C   UNL A   1      50.433  25.853  27.399  1.00  0.00     0.135 A 
ATOM     42  F   UNL A   1      49.166  26.867  24.141  1.00  0.00    -0.206 F 
ATOM     43  C   UNL A   1      51.249  25.965  24.738  1.00  0.00     0.059 A 
ATOM     44  C   UNL A   1      51.712  25.423  27.058  1.00  0.00     0.059 A 
ATOM     45  F   UNL A   1      50.064  25.782  28.687  1.00  0.00    -0.206 F 
ATOM     46  C   UNL A   1      52.108  25.474  25.722  1.00  0.00     0.060 A 
BRANCH  46  47
ATOM     47  S   UNL A   1      53.757  24.922  25.235  1.00  0.00     0.124 S 
ATOM     48  O   UNL A   1      53.528  23.499  24.998  1.00  0.00    -0.237 OA
ATOM     49  O   UNL A   1      54.020  25.727  24.047  1.00  0.00    -0.237 OA
ATOM     50  O   UNL A   1      54.580  25.240  26.398  1.00  0.00    -0.744 OA
ENDBRANCH  46  47
ENDBRANCH  25  39
BRANCH  26  51
ATOM     51  C   UNL A   1      40.440  29.509  29.116  1.00  0.00     0.058 A 
ATOM     52  C   UNL A   1      40.160  29.851  30.446  1.00  0.00     0.135 A 
ATOM     53  C   UNL A   1      39.413  29.651  28.170  1.00  0.00     0.135 A 
ATOM     54  F   UNL A   1      41.111  29.730  31.384  1.00  0.00    -0.206 F 
ATOM     55  C   UNL A   1      38.902  30.305  30.829  1.00  0.00     0.059 A 
ATOM     56  C   UNL A   1      38.157  30.128  28.524  1.00  0.00     0.059 A 
ATOM     57  F   UNL A   1      39.641  29.358  26.880  1.00  0.00    -0.206 F 
ATOM     58  C   UNL A   1      37.906  30.441  29.859  1.00  0.00     0.060 A 
BRANCH  58  59
ATOM     59  S   UNL A   1      36.292  31.087  30.345  1.00  0.00     0.124 S 
ATOM     60  O   UNL A   1      35.912  30.156  31.401  1.00  0.00    -0.237 OA
ATOM     61  O   UNL A   1      36.615  32.444  30.774  1.00  0.00    -0.237 OA
ATOM     62  O   UNL A   1      35.516  30.998  29.111  1.00  0.00    -0.744 OA
ENDBRANCH  58  59
ENDBRANCH  26  51
BRANCH  38  63
ATOM     63  C   UNL A   1      46.541  32.703  28.130  1.00  0.00     0.058 A 
ATOM     64  C   UNL A   1      46.437  33.587  27.044  1.00  0.00     0.135 A 
ATOM     65  C   UNL A   1      47.050  33.200  29.339  1.00  0.00     0.135 A 
ATOM     66  F   UNL A   1      45.963  33.155  25.864  1.00  0.00    -0.206 F 
ATOM     67  C   UNL A   1      46.858  34.909  27.142  1.00  0.00     0.059 A 
ATOM     68  C   UNL A   1      47.457  34.524  29.467  1.00  0.00     0.059 A 
ATOM     69  F   UNL A   1      47.161  32.395  30.408  1.00  0.00    -0.206 F 
ATOM     70  C   UNL A   1      47.375  35.366  28.356  1.00  0.00     0.060 A 
BRANCH  70  71
ATOM     71  S   UNL A   1      47.927  37.080  28.474  1.00  0.00     0.124 S 
ATOM     72  O   UNL A   1      49.309  36.975  28.020  1.00  0.00    -0.237 OA
ATOM     73  O   UNL A   1      47.013  37.771  27.570  1.00  0.00    -0.237 OA
ATOM     74  O   UNL A   1      47.752  37.392  29.890  1.00  0.00    -0.744 OA
ENDBRANCH  70  71
ENDBRANCH  38  63
ENDBRANCH  12  13
ENDBRANCH   5   7
ENDBRANCH   2   3
ENDBRANCH   1   2
BRANCH   1  75
ATOM     75  C   UNL A   1      37.134  20.509  24.607  1.00  0.00     0.023 C 
BRANCH  75  76
ATOM     76  C   UNL A   1      37.374  21.977  24.946  1.00  0.00     0.116 C 
BRANCH  76  77
ATOM     77  N   UNL A   1      36.597  22.422  26.092  1.00  0.00    -0.352 N 
ATOM     78  C   UNL A   1      35.293  22.842  26.152  1.00  0.00     0.251 C 
ATOM     79  H   UNL A   1      37.078  22.421  26.952  1.00  0.00     0.163 HD
ATOM     80  O   UNL A   1      34.838  23.330  27.180  1.00  0.00    -0.269 OA
BRANCH  78  81
ATOM     81  C   UNL A   1      34.430  22.721  24.963  1.00  0.00     0.041 A 
ATOM     82  C   UNL A   1      34.327  23.809  24.097  1.00  0.00     0.014 A 
ATOM     83  C   UNL A   1      33.710  21.545  24.724  1.00  0.00     0.039 A 
ATOM     84  C   UNL A   1      33.545  23.694  22.954  1.00  0.00     0.003 A 
ATOM     85  C   UNL A   1      32.929  21.411  23.572  1.00  0.00     0.039 A 
ATOM     86  C   UNL A   1      32.867  22.499  22.689  1.00  0.00     0.026 A 
BRANCH  85  87
ATOM     87  N   UNL A   1      32.276  20.188  23.333  1.00  0.00    -0.356 N 
ATOM     88  H   UNL A   1      31.479  20.246  22.760  1.00  0.00     0.167 HD
BRANCH  87  89
ATOM     89  C   UNL A   1      32.589  18.898  23.789  1.00  0.00     0.039 A 
ATOM     90  C   UNL A   1      33.208  18.002  22.910  1.00  0.00     0.033 A 
ATOM     91  C   UNL A   1      32.404  18.516  25.125  1.00  0.00     0.033 A 
ATOM     92  C   UNL A   1      33.674  16.764  23.359  1.00  0.00     0.088 A 
ATOM     93  C   UNL A   1      32.854  17.277  25.587  1.00  0.00     0.088 A 
ATOM     94  C   UNL A   1      33.507  16.413  24.703  1.00  0.00     0.269 A 
BRANCH  94  95
ATOM     95  N   UNL A   1      34.050  15.140  25.195  1.00  0.00     0.062 N 
ATOM     96  O   UNL A   1      33.254  14.211  25.390  1.00  0.00    -0.258 OA
ATOM     97  O   UNL A   1      35.274  15.066  25.376  1.00  0.00    -0.258 OA
ENDBRANCH  94  95
ENDBRANCH  87  89
ENDBRANCH  85  87
ENDBRANCH  78  81
ENDBRANCH  76  77
ENDBRANCH  75  76
ENDBRANCH   1  75
TORSDOF 17
ENDMDL
MODEL 2
REMARK VINA RESULT:     -12.2      3.271      7.668
REMARK SMILES O=C(NCCCCNC(=O)c1cccc(Nc2ccc([N+](=O)[O-])cc2)c1)c1ccc(-c2c3nc(c(-c4c(F)cc(S(=O)(=O)[O-])cc4F)c4ccc([nH]4)c(-c4c(F)cc(S(=O)(=O)[O-])cc4F)c4nc(c(-c5c(F)cc(S(=O)(=O)[O-])cc5F)c5ccc2[nH]5)C=C4)C=C3)cc1
REMARK SMILES IDX 5 1 4 2 3 3 1 4 2 5 27 7 28 8 92 9 29 10 91 11 30 12 31 13
REMARK SMILES IDX 32 14 85 15 33 16 90 17 84 18 86 19 34 20 89 21 83 22 82 23
REMARK SMILES IDX 35 25 69 26 48 27 68 28 49 29 52 30 67 31 87 32 50 33 51 34
REMARK SMILES IDX 66 36 88 37 53 38 36 39 37 40 46 41 38 42 39 43 45 44 47 45
REMARK SMILES IDX 40 46 41 47 42 48 43 49 44 50 70 51 71 52 80 53 72 54 73 55
REMARK SMILES IDX 79 56 81 57 74 58 75 59 76 60 77 61 78 62 54 63 55 64 64 65
REMARK SMILES IDX 56 66 57 67 63 68 65 69 58 70 59 71 60 72 61 73 62 74 6 75
REMARK SMILES IDX 7 76 8 77 9 78 10 80 11 81 12 82 26 83 13 84 15 85 14 86
REMARK SMILES IDX 16 87 17 89 18 90 25 91 19 92 24 93 20 94 21 95 22 96 23 97
REMARK H PARENT 3 6 86 24 52 35 8 79 16 88
REMARK Flexibility Score: inf
ROOT
ATOM      1  C   UNL A   1      32.408  27.563  26.953  1.00  0.00     0.023 C 
ENDROOT
BRANCH   1   2
ATOM      2  C   UNL A   1      33.720  28.320  27.102  1.00  0.00     0.116 C 
BRANCH   2   3
ATOM      3  N   UNL A   1      33.552  29.691  27.560  1.00  0.00    -0.352 N 
ATOM      4  O   UNL A   1      34.133  31.616  28.589  1.00  0.00    -0.269 OA
ATOM      5  C   UNL A   1      34.473  30.512  28.172  1.00  0.00     0.251 C 
ATOM      6  H   UNL A   1      32.661  30.084  27.412  1.00  0.00     0.163 HD
BRANCH   5   7
ATOM      7  C   UNL A   1      35.862  30.036  28.355  1.00  0.00     0.039 A 
ATOM      8  C   UNL A   1      36.296  29.594  29.605  1.00  0.00     0.014 A 
ATOM      9  C   UNL A   1      36.751  30.074  27.276  1.00  0.00     0.014 A 
ATOM     10  C   UNL A   1      37.647  29.353  29.816  1.00  0.00     0.010 A 
ATOM     11  C   UNL A   1      38.095  29.739  27.470  1.00  0.00     0.010 A 
ATOM     12  C   UNL A   1      38.563  29.413  28.751  1.00  0.00    -0.014 A 
BRANCH  12  13
ATOM     13  C   UNL A   1      39.985  29.070  29.019  1.00  0.00     0.031 A 
ATOM     14  C   UNL A   1      40.557  27.729  28.647  1.00  0.00     0.074 A 
ATOM     15  C   UNL A   1      40.781  30.026  29.537  1.00  0.00     0.049 A 
ATOM     16  N   UNL A   1      41.797  27.314  28.735  1.00  0.00    -0.248 NA
ATOM     17  C   UNL A   1      39.627  26.719  28.119  1.00  0.00     0.031 C 
ATOM     18  C   UNL A   1      40.329  31.354  29.964  1.00  0.00     0.029 A 
ATOM     19  N   UNL A   1      42.133  30.052  29.756  1.00  0.00    -0.354 N 
ATOM     20  C   UNL A   1      41.795  25.998  28.286  1.00  0.00     0.074 A 
ATOM     21  C   UNL A   1      40.425  25.672  27.949  1.00  0.00     0.031 C 
ATOM     22  C   UNL A   1      41.391  32.084  30.331  1.00  0.00     0.029 A 
ATOM     23  C   UNL A   1      42.590  31.263  30.217  1.00  0.00     0.049 A 
ATOM     24  H   UNL A   1      42.720  29.277  29.599  1.00  0.00     0.167 HD
ATOM     25  C   UNL A   1      42.842  25.146  28.159  1.00  0.00     0.037 A 
ATOM     26  C   UNL A   1      43.837  31.672  30.517  1.00  0.00     0.037 A 
ATOM     27  C   UNL A   1      44.207  25.483  28.481  1.00  0.00     0.049 A 
ATOM     28  C   UNL A   1      44.979  30.720  30.332  1.00  0.00     0.074 A 
ATOM     29  C   UNL A   1      45.336  24.688  28.384  1.00  0.00     0.029 A 
ATOM     30  N   UNL A   1      44.629  26.716  28.954  1.00  0.00    -0.354 N 
ATOM     31  N   UNL A   1      44.954  29.481  29.902  1.00  0.00    -0.248 NA
ATOM     32  C   UNL A   1      46.318  31.217  30.675  1.00  0.00     0.031 C 
ATOM     33  C   UNL A   1      46.438  25.433  28.822  1.00  0.00     0.029 A 
ATOM     34  C   UNL A   1      45.999  26.703  29.160  1.00  0.00     0.049 A 
ATOM     35  H   UNL A   1      44.040  27.488  29.121  1.00  0.00     0.167 HD
ATOM     36  C   UNL A   1      46.273  29.046  29.932  1.00  0.00     0.074 A 
ATOM     37  C   UNL A   1      47.073  30.167  30.384  1.00  0.00     0.031 C 
ATOM     38  C   UNL A   1      46.775  27.824  29.627  1.00  0.00     0.037 A 
BRANCH  25  39
ATOM     39  C   UNL A   1      42.559  23.760  27.647  1.00  0.00     0.058 A 
ATOM     40  C   UNL A   1      42.474  23.489  26.273  1.00  0.00     0.135 A 
ATOM     41  C   UNL A   1      42.437  22.679  28.537  1.00  0.00     0.135 A 
ATOM     42  F   UNL A   1      42.569  24.485  25.379  1.00  0.00    -0.206 F 
ATOM     43  C   UNL A   1      42.263  22.197  25.798  1.00  0.00     0.059 A 
ATOM     44  C   UNL A   1      42.245  21.377  28.083  1.00  0.00     0.059 A 
ATOM     45  F   UNL A   1      42.511  22.884  29.861  1.00  0.00    -0.206 F 
ATOM     46  C   UNL A   1      42.150  21.146  26.711  1.00  0.00     0.060 A 
BRANCH  46  47
ATOM     47  S   UNL A   1      41.897  19.474  26.080  1.00  0.00     0.124 S 
ATOM     48  O   UNL A   1      42.765  19.472  24.906  1.00  0.00    -0.237 OA
ATOM     49  O   UNL A   1      42.341  18.645  27.196  1.00  0.00    -0.237 OA
ATOM     50  O   UNL A   1      40.465  19.429  25.801  1.00  0.00    -0.744 OA
ENDBRANCH  46  47
ENDBRANCH  25  39
BRANCH  26  51
ATOM     51  C   UNL A   1      44.054  33.049  31.030  1.00  0.00     0.058 A 
ATOM     52  C   UNL A   1      44.305  34.119  30.160  1.00  0.00     0.135 A 
ATOM     53  C   UNL A   1      43.979  33.322  32.405  1.00  0.00     0.135 A 
ATOM     54  F   UNL A   1      44.386  33.905  28.839  1.00  0.00    -0.206 F 
ATOM     55  C   UNL A   1      44.488  35.414  30.636  1.00  0.00     0.059 A 
ATOM     56  C   UNL A   1      44.132  34.611  32.901  1.00  0.00     0.059 A 
ATOM     57  F   UNL A   1      43.718  32.334  33.275  1.00  0.00    -0.206 F 
ATOM     58  C   UNL A   1      44.398  35.649  32.010  1.00  0.00     0.060 A 
BRANCH  58  59
ATOM     59  S   UNL A   1      44.575  37.338  32.622  1.00  0.00     0.124 S 
ATOM     60  O   UNL A   1      45.985  37.366  32.996  1.00  0.00    -0.237 OA
ATOM     61  O   UNL A   1      44.208  38.135  31.455  1.00  0.00    -0.237 OA
ATOM     62  O   UNL A   1      43.625  37.390  33.729  1.00  0.00    -0.744 OA
ENDBRANCH  58  59
ENDBRANCH  26  51
BRANCH  38  63
ATOM     63  C   UNL A   1      48.257  27.648  29.783  1.00  0.00     0.058 A 
ATOM     64  C   UNL A   1      49.134  27.887  28.713  1.00  0.00     0.135 A 
ATOM     65  C   UNL A   1      48.805  27.232  31.005  1.00  0.00     0.135 A 
ATOM     66  F   UNL A   1      48.656  28.280  27.522  1.00  0.00    -0.206 F 
ATOM     67  C   UNL A   1      50.504  27.684  28.840  1.00  0.00     0.059 A 
ATOM     68  C   UNL A   1      50.174  27.043  31.161  1.00  0.00     0.059 A 
ATOM     69  F   UNL A   1      48.007  26.997  32.060  1.00  0.00    -0.206 F 
ATOM     70  C   UNL A   1      51.014  27.254  30.066  1.00  0.00     0.060 A 
BRANCH  70  71
ATOM     71  S   UNL A   1      52.792  26.985  30.221  1.00  0.00     0.124 S 
ATOM     72  O   UNL A   1      53.267  28.333  30.515  1.00  0.00    -0.237 OA
ATOM     73  O   UNL A   1      52.874  26.031  31.322  1.00  0.00    -0.237 OA
ATOM     74  O   UNL A   1      53.168  26.457  28.913  1.00  0.00    -0.744 OA
ENDBRANCH  70  71
ENDBRANCH  38  63
ENDBRANCH  12  13
ENDBRANCH   5   7
ENDBRANCH   2   3
ENDBRANCH   1   2
BRANCH   1  75
ATOM     75  C   UNL A   1      32.246  26.781  25.653  1.00  0.00     0.023 C 
BRANCH  75  76
ATOM     76  C   UNL A   1      33.546  26.446  24.929  1.00  0.00     0.116 C 
BRANCH  76  77
ATOM     77  N   UNL A   1      33.374  26.334  23.490  1.00  0.00    -0.352 N 
ATOM     78  C   UNL A   1      33.639  25.276  22.659  1.00  0.00     0.251 C 
ATOM     79  H   UNL A   1      33.015  27.137  23.046  1.00  0.00     0.163 HD
ATOM     80  O   UNL A   1      33.579  25.403  21.441  1.00  0.00    -0.269 OA
BRANCH  78  81
ATOM     81  C   UNL A   1      34.015  23.971  23.234  1.00  0.00     0.041 A 
ATOM     82  C   UNL A   1      35.280  23.828  23.800  1.00  0.00     0.014 A 
ATOM     83  C   UNL A   1      33.125  22.891  23.187  1.00  0.00     0.039 A 
ATOM     84  C   UNL A   1      35.632  22.614  24.377  1.00  0.00     0.003 A 
ATOM     85  C   UNL A   1      33.462  21.667  23.774  1.00  0.00     0.039 A 
ATOM     86  C   UNL A   1      34.723  21.551  24.376  1.00  0.00     0.026 A 
BRANCH  85  87
ATOM     87  N   UNL A   1      32.513  20.628  23.767  1.00  0.00    -0.356 N 
ATOM     88  H   UNL A   1      31.609  20.890  23.481  1.00  0.00     0.167 HD
BRANCH  87  89
ATOM     89  C   UNL A   1      32.660  19.275  24.108  1.00  0.00     0.039 A 
ATOM     90  C   UNL A   1      33.062  18.368  23.119  1.00  0.00     0.033 A 
ATOM     91  C   UNL A   1      32.526  18.821  25.427  1.00  0.00     0.033 A 
ATOM     92  C   UNL A   1      33.367  17.044  23.442  1.00  0.00     0.088 A 
ATOM     93  C   UNL A   1      32.816  17.497  25.765  1.00  0.00     0.088 A 
ATOM     94  C   UNL A   1      33.257  16.617  24.771  1.00  0.00     0.269 A 
BRANCH  94  95
ATOM     95  N   UNL A   1      33.636  15.244  25.127  1.00  0.00     0.062 N 
ATOM     96  O   UNL A   1      34.845  14.985  25.216  1.00  0.00    -0.258 OA
ATOM     97  O   UNL A   1      32.726  14.427  25.327  1.00  0.00    -0.258 OA
ENDBRANCH  94  95
ENDBRANCH  87  89
ENDBRANCH  85  87
ENDBRANCH  78  81
ENDBRANCH  76  77
ENDBRANCH  75  76
ENDBRANCH   1  75
TORSDOF 17
ENDMDL
MODEL 3
REMARK VINA RESULT:     -12.0      6.763     10.287
REMARK SMILES O=C(NCCCCNC(=O)c1cccc(Nc2ccc([N+](=O)[O-])cc2)c1)c1ccc(-c2c3nc(c(-c4c(F)cc(S(=O)(=O)[O-])cc4F)c4ccc([nH]4)c(-c4c(F)cc(S(=O)(=O)[O-])cc4F)c4nc(c(-c5c(F)cc(S(=O)(=O)[O-])cc5F)c5ccc2[nH]5)C=C4)C=C3)cc1
REMARK SMILES IDX 5 1 4 2 3 3 1 4 2 5 27 7 28 8 92 9 29 10 91 11 30 12 31 13
REMARK SMILES IDX 32 14 85 15 33 16 90 17 84 18 86 19 34 20 89 21 83 22 82 23
REMARK SMILES IDX 35 25 69 26 48 27 68 28 49 29 52 30 67 31 87 32 50 33 51 34
REMARK SMILES IDX 66 36 88 37 53 38 36 39 37 40 46 41 38 42 39 43 45 44 47 45
REMARK SMILES IDX 40 46 41 47 42 48 43 49 44 50 70 51 71 52 80 53 72 54 73 55
REMARK SMILES IDX 79 56 81 57 74 58 75 59 76 60 77 61 78 62 54 63 55 64 64 65
REMARK SMILES IDX 56 66 57 67 63 68 65 69 58 70 59 71 60 72 61 73 62 74 6 75
REMARK SMILES IDX 7 76 8 77 9 78 10 80 11 81 12 82 26 83 13 84 15 85 14 86
REMARK SMILES IDX 16 87 17 89 18 90 25 91 19 92 24 93 20 94 21 95 22 96 23 97
REMARK H PARENT 3 6 86 24 52 35 8 79 16 88
REMARK Flexibility Score: inf
ROOT
ATOM      1  C   UNL A   1      42.978  22.764  28.526  1.00  0.00     0.023 C 
ENDROOT
BRANCH   1   2
ATOM      2  C   UNL A   1      41.610  23.197  28.018  1.00  0.00     0.116 C 
BRANCH   2   3
ATOM      3  N   UNL A   1      41.655  23.865  26.725  1.00  0.00    -0.352 N 
ATOM      4  O   UNL A   1      41.374  25.561  25.260  1.00  0.00    -0.269 OA
ATOM      5  C   UNL A   1      41.387  25.182  26.429  1.00  0.00     0.251 C 
ATOM      6  H   UNL A   1      41.913  23.299  25.962  1.00  0.00     0.163 HD
BRANCH   5   7
ATOM      7  C   UNL A   1      41.078  26.127  27.526  1.00  0.00     0.039 A 
ATOM      8  C   UNL A   1      41.898  27.231  27.756  1.00  0.00     0.014 A 
ATOM      9  C   UNL A   1      39.981  25.880  28.358  1.00  0.00     0.014 A 
ATOM     10  C   UNL A   1      41.725  27.986  28.908  1.00  0.00     0.010 A 
ATOM     11  C   UNL A   1      39.753  26.702  29.468  1.00  0.00     0.010 A 
ATOM     12  C   UNL A   1      40.645  27.738  29.775  1.00  0.00    -0.014 A 
BRANCH  12  13
ATOM     13  C   UNL A   1      40.463  28.626  30.953  1.00  0.00     0.031 A 
ATOM     14  C   UNL A   1      41.366  28.538  32.155  1.00  0.00     0.074 A 
ATOM     15  C   UNL A   1      39.511  29.578  30.890  1.00  0.00     0.049 A 
ATOM     16  N   UNL A   1      41.390  29.302  33.218  1.00  0.00    -0.248 NA
ATOM     17  C   UNL A   1      42.362  27.456  32.174  1.00  0.00     0.031 C 
ATOM     18  C   UNL A   1      38.557  29.738  29.788  1.00  0.00     0.029 A 
ATOM     19  N   UNL A   1      39.210  30.609  31.739  1.00  0.00    -0.354 N 
ATOM     20  C   UNL A   1      42.390  28.790  34.037  1.00  0.00     0.074 A 
ATOM     21  C   UNL A   1      42.934  27.632  33.359  1.00  0.00     0.031 C 
ATOM     22  C   UNL A   1      37.823  30.839  29.997  1.00  0.00     0.029 A 
ATOM     23  C   UNL A   1      38.215  31.433  31.269  1.00  0.00     0.049 A 
ATOM     24  H   UNL A   1      39.661  30.747  32.603  1.00  0.00     0.167 HD
ATOM     25  C   UNL A   1      42.819  29.249  35.238  1.00  0.00     0.037 A 
ATOM     26  C   UNL A   1      37.674  32.545  31.801  1.00  0.00     0.037 A 
ATOM     27  C   UNL A   1      42.283  30.413  35.901  1.00  0.00     0.049 A 
ATOM     28  C   UNL A   1      38.193  33.050  33.113  1.00  0.00     0.074 A 
ATOM     29  C   UNL A   1      42.652  30.958  37.119  1.00  0.00     0.029 A 
ATOM     30  N   UNL A   1      41.269  31.215  35.398  1.00  0.00    -0.354 N 
ATOM     31  N   UNL A   1      39.142  32.551  33.868  1.00  0.00    -0.248 NA
ATOM     32  C   UNL A   1      37.567  34.266  33.649  1.00  0.00     0.031 C 
ATOM     33  C   UNL A   1      41.845  32.076  37.363  1.00  0.00     0.029 A 
ATOM     34  C   UNL A   1      40.997  32.247  36.282  1.00  0.00     0.049 A 
ATOM     35  H   UNL A   1      40.810  31.072  34.538  1.00  0.00     0.167 HD
ATOM     36  C   UNL A   1      39.222  33.386  34.974  1.00  0.00     0.074 A 
ATOM     37  C   UNL A   1      38.252  34.444  34.769  1.00  0.00     0.031 C 
ATOM     38  C   UNL A   1      40.015  33.280  36.068  1.00  0.00     0.037 A 
BRANCH  25  39
ATOM     39  C   UNL A   1      43.926  28.495  35.923  1.00  0.00     0.058 A 
ATOM     40  C   UNL A   1      43.659  27.401  36.760  1.00  0.00     0.135 A 
ATOM     41  C   UNL A   1      45.271  28.829  35.690  1.00  0.00     0.135 A 
ATOM     42  F   UNL A   1      42.393  27.048  37.030  1.00  0.00    -0.206 F 
ATOM     43  C   UNL A   1      44.686  26.672  37.353  1.00  0.00     0.059 A 
ATOM     44  C   UNL A   1      46.314  28.101  36.257  1.00  0.00     0.059 A 
ATOM     45  F   UNL A   1      45.581  29.866  34.897  1.00  0.00    -0.206 F 
ATOM     46  C   UNL A   1      46.011  27.029  37.095  1.00  0.00     0.060 A 
BRANCH  46  47
ATOM     47  S   UNL A   1      47.333  26.061  37.856  1.00  0.00     0.124 S 
ATOM     48  O   UNL A   1      46.660  25.531  39.039  1.00  0.00    -0.237 OA
ATOM     49  O   UNL A   1      47.647  25.086  36.816  1.00  0.00    -0.237 OA
ATOM     50  O   UNL A   1      48.373  27.052  38.116  1.00  0.00    -0.744 OA
ENDBRANCH  46  47
ENDBRANCH  25  39
BRANCH  26  51
ATOM     51  C   UNL A   1      36.574  33.240  31.085  1.00  0.00     0.058 A 
ATOM     52  C   UNL A   1      35.249  33.159  31.533  1.00  0.00     0.135 A 
ATOM     53  C   UNL A   1      36.839  34.029  29.955  1.00  0.00     0.135 A 
ATOM     54  F   UNL A   1      34.948  32.416  32.608  1.00  0.00    -0.206 F 
ATOM     55  C   UNL A   1      34.218  33.826  30.878  1.00  0.00     0.059 A 
ATOM     56  C   UNL A   1      35.831  34.726  29.300  1.00  0.00     0.059 A 
ATOM     57  F   UNL A   1      38.097  34.155  29.502  1.00  0.00    -0.206 F 
ATOM     58  C   UNL A   1      34.522  34.609  29.761  1.00  0.00     0.060 A 
BRANCH  58  59
ATOM     59  S   UNL A   1      33.195  35.523  28.947  1.00  0.00     0.124 S 
ATOM     60  O   UNL A   1      32.544  36.165  30.083  1.00  0.00    -0.237 OA
ATOM     61  O   UNL A   1      33.930  36.407  28.048  1.00  0.00    -0.237 OA
ATOM     62  O   UNL A   1      32.426  34.472  28.287  1.00  0.00    -0.744 OA
ENDBRANCH  58  59
ENDBRANCH  26  51
BRANCH  38  63
ATOM     63  C   UNL A   1      39.853  34.336  37.122  1.00  0.00     0.058 A 
ATOM     64  C   UNL A   1      39.065  34.109  38.262  1.00  0.00     0.135 A 
ATOM     65  C   UNL A   1      40.481  35.583  36.992  1.00  0.00     0.135 A 
ATOM     66  F   UNL A   1      38.437  32.934  38.428  1.00  0.00    -0.206 F 
ATOM     67  C   UNL A   1      38.876  35.099  39.221  1.00  0.00     0.059 A 
ATOM     68  C   UNL A   1      40.324  36.580  37.949  1.00  0.00     0.059 A 
ATOM     69  F   UNL A   1      41.251  35.844  35.923  1.00  0.00    -0.206 F 
ATOM     70  C   UNL A   1      39.504  36.334  39.051  1.00  0.00     0.060 A 
BRANCH  70  71
ATOM     71  S   UNL A   1      39.248  37.617  40.295  1.00  0.00     0.124 S 
ATOM     72  O   UNL A   1      38.677  36.848  41.396  1.00  0.00    -0.237 OA
ATOM     73  O   UNL A   1      40.599  38.124  40.510  1.00  0.00    -0.237 OA
ATOM     74  O   UNL A   1      38.335  38.546  39.637  1.00  0.00    -0.744 OA
ENDBRANCH  70  71
ENDBRANCH  38  63
ENDBRANCH  12  13
ENDBRANCH   5   7
ENDBRANCH   2   3
ENDBRANCH   1   2
BRANCH   1  75
ATOM     75  C   UNL A   1      43.382  23.327  29.886  1.00  0.00     0.023 C 
BRANCH  75  76
ATOM     76  C   UNL A   1      43.697  24.819  29.903  1.00  0.00     0.116 C 
BRANCH  76  77
ATOM     77  N   UNL A   1      45.111  25.091  30.106  1.00  0.00    -0.352 N 
ATOM     78  C   UNL A   1      46.051  25.537  29.212  1.00  0.00     0.251 C 
ATOM     79  H   UNL A   1      45.443  24.931  31.019  1.00  0.00     0.163 HD
ATOM     80  O   UNL A   1      47.239  25.569  29.514  1.00  0.00    -0.269 OA
BRANCH  78  81
ATOM     81  C   UNL A   1      45.633  25.972  27.867  1.00  0.00     0.041 A 
ATOM     82  C   UNL A   1      45.533  27.338  27.606  1.00  0.00     0.014 A 
ATOM     83  C   UNL A   1      45.317  25.030  26.881  1.00  0.00     0.039 A 
ATOM     84  C   UNL A   1      45.175  27.760  26.331  1.00  0.00     0.003 A 
ATOM     85  C   UNL A   1      44.966  25.440  25.592  1.00  0.00     0.039 A 
ATOM     86  C   UNL A   1      44.911  26.818  25.331  1.00  0.00     0.026 A 
BRANCH  85  87
ATOM     87  N   UNL A   1      44.724  24.461  24.610  1.00  0.00    -0.356 N 
ATOM     88  H   UNL A   1      44.380  24.805  23.755  1.00  0.00     0.167 HD
BRANCH  87  89
ATOM     89  C   UNL A   1      44.898  23.070  24.667  1.00  0.00     0.039 A 
ATOM     90  C   UNL A   1      46.135  22.528  24.297  1.00  0.00     0.033 A 
ATOM     91  C   UNL A   1      43.915  22.218  25.185  1.00  0.00     0.033 A 
ATOM     92  C   UNL A   1      46.406  21.170  24.479  1.00  0.00     0.088 A 
ATOM     93  C   UNL A   1      44.165  20.855  25.363  1.00  0.00     0.088 A 
ATOM     94  C   UNL A   1      45.421  20.340  25.027  1.00  0.00     0.269 A 
BRANCH  94  95
ATOM     95  N   UNL A   1      45.721  18.925  25.279  1.00  0.00     0.062 N 
ATOM     96  O   UNL A   1      44.836  18.094  25.025  1.00  0.00    -0.258 OA
ATOM     97  O   UNL A   1      46.844  18.642  25.720  1.00  0.00    -0.258 OA
ENDBRANCH  94  95
ENDBRANCH  87  89
ENDBRANCH  85  87
ENDBRANCH  78  81
ENDBRANCH  76  77
ENDBRANCH  75  76
ENDBRANCH   1  75
TORSDOF 17
ENDMDL
