MODEL 1
REMARK VINA RESULT:     -10.9      0.000      0.000
REMARK SMILES C[C@@H](C(=O)NCCCCNC(=O)c1ccc(-c2c3nc(c(-c4c(F)cc(S(=O)(=O)[O-])cc4F)c4ccc([nH]4)c(-c4c(F)cc(S(=O)(=O)[O-])cc4F)c4nc(c(-c5c(F)cc(S(=O)(=O)[O-])cc5F)c5ccc2[nH]5)C=C4)C=C3)cc1)c1ccc(-c2ccccc2)cc1
REMARK SMILES IDX 8 1 7 2 6 3 5 4 3 5 4 6 2 8 1 9 79 10 80 11 90 12 81 13
REMARK SMILES IDX 89 14 82 15 83 16 84 17 88 18 85 19 87 20 86 21 9 22 10 23
REMARK SMILES IDX 11 24 12 26 13 27 14 28 78 29 15 30 77 31 16 32 17 33 18 34
REMARK SMILES IDX 71 35 19 36 76 37 70 38 72 39 20 40 75 41 69 42 68 43 21 45
REMARK SMILES IDX 55 46 34 47 54 48 35 49 38 50 53 51 73 52 36 53 37 54 52 56
REMARK SMILES IDX 74 57 39 58 22 59 23 60 32 61 24 62 25 63 31 64 33 65 26 66
REMARK SMILES IDX 27 67 28 68 29 69 30 70 56 71 57 72 66 73 58 74 59 75 65 76
REMARK SMILES IDX 67 77 60 78 61 79 62 80 63 81 64 82 40 83 41 84 50 85 42 86
REMARK SMILES IDX 43 87 49 88 51 89 44 90 45 91 46 92 47 93 48 94
REMARK H PARENT 5 7 10 25 72 44 38 55
REMARK Flexibility Score: inf
ROOT
ATOM      1  C   UNL A   1      40.674  21.552  26.935  1.00  0.00     0.023 C 
ENDROOT
BRANCH   1   2
ATOM      2  C   UNL A   1      42.080  20.968  26.785  1.00  0.00     0.023 C 
BRANCH   2   3
ATOM      3  C   UNL A   1      42.845  21.441  25.545  1.00  0.00     0.116 C 
BRANCH   3   4
ATOM      4  N   UNL A   1      44.272  21.455  25.798  1.00  0.00    -0.356 N 
ATOM      5  C   UNL A   1      45.092  22.489  26.153  1.00  0.00     0.227 C 
ATOM      6  O   UNL A   1      46.304  22.283  26.058  1.00  0.00    -0.274 OA
ATOM      7  H   UNL A   1      44.720  20.583  25.699  1.00  0.00     0.163 HD
BRANCH   5   8
ATOM      8  C   UNL A   1      44.490  23.812  26.678  1.00  0.00     0.105 C 
ATOM      9  C   UNL A   1      45.263  24.999  26.081  1.00  0.00     0.023 C 
BRANCH   8  10
ATOM     10  C   UNL A   1      44.410  23.888  28.212  1.00  0.00    -0.036 A 
ATOM     11  C   UNL A   1      45.154  24.828  28.945  1.00  0.00     0.005 A 
ATOM     12  C   UNL A   1      43.564  23.034  28.939  1.00  0.00     0.005 A 
ATOM     13  C   UNL A   1      45.121  24.854  30.339  1.00  0.00     0.009 A 
ATOM     14  C   UNL A   1      43.542  23.050  30.341  1.00  0.00     0.009 A 
ATOM     15  C   UNL A   1      44.334  23.951  31.062  1.00  0.00    -0.018 A 
BRANCH  15  16
ATOM     16  C   UNL A   1      44.388  23.950  32.528  1.00  0.00    -0.018 A 
ATOM     17  C   UNL A   1      43.401  23.294  33.283  1.00  0.00     0.009 A 
ATOM     18  C   UNL A   1      45.380  24.670  33.213  1.00  0.00     0.009 A 
ATOM     19  C   UNL A   1      43.397  23.367  34.677  1.00  0.00     0.001 A 
ATOM     20  C   UNL A   1      45.375  24.745  34.608  1.00  0.00     0.001 A 
ATOM     21  C   UNL A   1      44.381  24.098  35.339  1.00  0.00     0.000 A 
ENDBRANCH  15  16
ENDBRANCH   8  10
ENDBRANCH   5   8
ENDBRANCH   3   4
ENDBRANCH   2   3
ENDBRANCH   1   2
BRANCH   1  22
ATOM     22  C   UNL A   1      40.625  23.035  27.274  1.00  0.00     0.116 C 
BRANCH  22  23
ATOM     23  N   UNL A   1      41.152  23.868  26.205  1.00  0.00    -0.352 N 
ATOM     24  C   UNL A   1      41.365  25.223  26.181  1.00  0.00     0.251 C 
ATOM     25  H   UNL A   1      41.390  23.391  25.378  1.00  0.00     0.163 HD
ATOM     26  O   UNL A   1      41.676  25.764  25.121  1.00  0.00    -0.269 OA
BRANCH  24  27
ATOM     27  C   UNL A   1      41.194  26.030  27.408  1.00  0.00     0.039 A 
ATOM     28  C   UNL A   1      42.170  26.979  27.720  1.00  0.00     0.014 A 
ATOM     29  C   UNL A   1      40.092  25.858  28.252  1.00  0.00     0.014 A 
ATOM     30  C   UNL A   1      42.015  27.786  28.847  1.00  0.00     0.010 A 
ATOM     31  C   UNL A   1      39.899  26.719  29.332  1.00  0.00     0.010 A 
ATOM     32  C   UNL A   1      40.860  27.689  29.643  1.00  0.00    -0.014 A 
BRANCH  32  33
ATOM     33  C   UNL A   1      40.657  28.617  30.785  1.00  0.00     0.031 A 
ATOM     34  C   UNL A   1      41.485  28.494  32.036  1.00  0.00     0.074 A 
ATOM     35  C   UNL A   1      39.706  29.568  30.695  1.00  0.00     0.049 A 
ATOM     36  N   UNL A   1      41.465  29.238  33.113  1.00  0.00    -0.248 NA
ATOM     37  C   UNL A   1      42.445  27.379  32.098  1.00  0.00     0.031 C 
ATOM     38  C   UNL A   1      38.790  29.740  29.563  1.00  0.00     0.029 A 
ATOM     39  N   UNL A   1      39.351  30.571  31.561  1.00  0.00    -0.354 N 
ATOM     40  C   UNL A   1      42.411  28.691  33.972  1.00  0.00     0.074 A 
ATOM     41  C   UNL A   1      42.938  27.511  33.322  1.00  0.00     0.031 C 
ATOM     42  C   UNL A   1      38.003  30.804  29.791  1.00  0.00     0.029 A 
ATOM     43  C   UNL A   1      38.335  31.370  31.094  1.00  0.00     0.049 A 
ATOM     44  H   UNL A   1      39.783  30.704  32.436  1.00  0.00     0.167 HD
ATOM     45  C   UNL A   1      42.827  29.148  35.178  1.00  0.00     0.037 A 
ATOM     46  C   UNL A   1      37.736  32.440  31.651  1.00  0.00     0.037 A 
ATOM     47  C   UNL A   1      42.302  30.328  35.818  1.00  0.00     0.049 A 
ATOM     48  C   UNL A   1      38.223  32.933  32.987  1.00  0.00     0.074 A 
ATOM     49  C   UNL A   1      42.680  30.896  37.023  1.00  0.00     0.029 A 
ATOM     50  N   UNL A   1      41.287  31.124  35.307  1.00  0.00    -0.354 N 
ATOM     51  N   UNL A   1      39.169  32.443  33.752  1.00  0.00    -0.248 NA
ATOM     52  C   UNL A   1      37.574  34.135  33.526  1.00  0.00     0.031 C 
ATOM     53  C   UNL A   1      41.865  32.007  37.260  1.00  0.00     0.029 A 
ATOM     54  C   UNL A   1      41.014  32.166  36.178  1.00  0.00     0.049 A 
ATOM     55  H   UNL A   1      40.825  30.969  34.451  1.00  0.00     0.167 HD
ATOM     56  C   UNL A   1      39.238  33.285  34.857  1.00  0.00     0.074 A 
ATOM     57  C   UNL A   1      38.262  34.334  34.641  1.00  0.00     0.031 C 
ATOM     58  C   UNL A   1      40.031  33.196  35.954  1.00  0.00     0.037 A 
BRANCH  45  59
ATOM     59  C   UNL A   1      43.920  28.385  35.877  1.00  0.00     0.058 A 
ATOM     60  C   UNL A   1      45.275  28.635  35.605  1.00  0.00     0.135 A 
ATOM     61  C   UNL A   1      43.617  27.436  36.867  1.00  0.00     0.135 A 
ATOM     62  F   UNL A   1      45.624  29.519  34.657  1.00  0.00    -0.206 F 
ATOM     63  C   UNL A   1      46.291  27.960  36.276  1.00  0.00     0.059 A 
ATOM     64  C   UNL A   1      44.617  26.769  37.571  1.00  0.00     0.059 A 
ATOM     65  F   UNL A   1      42.340  27.156  37.166  1.00  0.00    -0.206 F 
ATOM     66  C   UNL A   1      45.951  27.032  37.261  1.00  0.00     0.060 A 
BRANCH  66  67
ATOM     67  S   UNL A   1      47.283  26.186  38.138  1.00  0.00     0.124 S 
ATOM     68  O   UNL A   1      47.029  26.591  39.518  1.00  0.00    -0.237 OA
ATOM     69  O   UNL A   1      47.017  24.785  37.831  1.00  0.00    -0.237 OA
ATOM     70  O   UNL A   1      48.493  26.737  37.535  1.00  0.00    -0.744 OA
ENDBRANCH  66  67
ENDBRANCH  45  59
BRANCH  46  71
ATOM     71  C   UNL A   1      36.621  33.124  30.943  1.00  0.00     0.058 A 
ATOM     72  C   UNL A   1      36.851  33.909  29.804  1.00  0.00     0.135 A 
ATOM     73  C   UNL A   1      35.298  33.007  31.397  1.00  0.00     0.135 A 
ATOM     74  F   UNL A   1      38.099  34.055  29.331  1.00  0.00    -0.206 F 
ATOM     75  C   UNL A   1      35.818  34.579  29.157  1.00  0.00     0.059 A 
ATOM     76  C   UNL A   1      34.243  33.641  30.749  1.00  0.00     0.059 A 
ATOM     77  F   UNL A   1      35.018  32.251  32.470  1.00  0.00    -0.206 F 
ATOM     78  C   UNL A   1      34.515  34.438  29.640  1.00  0.00     0.060 A 
BRANCH  78  79
ATOM     79  S   UNL A   1      33.174  35.286  28.776  1.00  0.00     0.124 S 
ATOM     80  O   UNL A   1      32.598  34.199  27.992  1.00  0.00    -0.237 OA
ATOM     81  O   UNL A   1      32.359  35.780  29.881  1.00  0.00    -0.237 OA
ATOM     82  O   UNL A   1      33.870  36.317  28.010  1.00  0.00    -0.744 OA
ENDBRANCH  78  79
ENDBRANCH  46  71
BRANCH  58  83
ATOM     83  C   UNL A   1      39.881  34.276  36.993  1.00  0.00     0.058 A 
ATOM     84  C   UNL A   1      40.605  35.478  36.916  1.00  0.00     0.135 A 
ATOM     85  C   UNL A   1      39.003  34.108  38.076  1.00  0.00     0.135 A 
ATOM     86  F   UNL A   1      41.459  35.688  35.903  1.00  0.00    -0.206 F 
ATOM     87  C   UNL A   1      40.502  36.452  37.903  1.00  0.00     0.059 A 
ATOM     88  C   UNL A   1      38.859  35.085  39.057  1.00  0.00     0.059 A 
ATOM     89  F   UNL A   1      38.275  32.987  38.191  1.00  0.00    -0.206 F 
ATOM     90  C   UNL A   1      39.630  36.243  38.974  1.00  0.00     0.060 A 
BRANCH  90  91
ATOM     91  S   UNL A   1      39.518  37.508  40.257  1.00  0.00     0.124 S 
ATOM     92  O   UNL A   1      40.920  37.877  40.429  1.00  0.00    -0.237 OA
ATOM     93  O   UNL A   1      38.669  38.516  39.629  1.00  0.00    -0.237 OA
ATOM     94  O   UNL A   1      38.913  36.798  41.380  1.00  0.00    -0.744 OA
ENDBRANCH  90  91
ENDBRANCH  58  83
ENDBRANCH  32  33
ENDBRANCH  24  27
ENDBRANCH  22  23
ENDBRANCH   1  22
TORSDOF 16
ENDMDL
MODEL 2
REMARK VINA RESULT:     -10.9      4.550     11.519
REMARK SMILES C[C@@H](C(=O)NCCCCNC(=O)c1ccc(-c2c3nc(c(-c4c(F)cc(S(=O)(=O)[O-])cc4F)c4ccc([nH]4)c(-c4c(F)cc(S(=O)(=O)[O-])cc4F)c4nc(c(-c5c(F)cc(S(=O)(=O)[O-])cc5F)c5ccc2[nH]5)C=C4)C=C3)cc1)c1ccc(-c2ccccc2)cc1
REMARK SMILES IDX 8 1 7 2 6 3 5 4 3 5 4 6 2 8 1 9 79 10 80 11 90 12 81 13
REMARK SMILES IDX 89 14 82 15 83 16 84 17 88 18 85 19 87 20 86 21 9 22 10 23
REMARK SMILES IDX 11 24 12 26 13 27 14 28 78 29 15 30 77 31 16 32 17 33 18 34
REMARK SMILES IDX 71 35 19 36 76 37 70 38 72 39 20 40 75 41 69 42 68 43 21 45
REMARK SMILES IDX 55 46 34 47 54 48 35 49 38 50 53 51 73 52 36 53 37 54 52 56
REMARK SMILES IDX 74 57 39 58 22 59 23 60 32 61 24 62 25 63 31 64 33 65 26 66
REMARK SMILES IDX 27 67 28 68 29 69 30 70 56 71 57 72 66 73 58 74 59 75 65 76
REMARK SMILES IDX 67 77 60 78 61 79 62 80 63 81 64 82 40 83 41 84 50 85 42 86
REMARK SMILES IDX 43 87 49 88 51 89 44 90 45 91 46 92 47 93 48 94
REMARK H PARENT 5 7 10 25 72 44 38 55
REMARK Flexibility Score: inf
ROOT
ATOM      1  C   UNL A   1      33.807  34.166  27.918  1.00  0.00     0.023 C 
ENDROOT
BRANCH   1   2
ATOM      2  C   UNL A   1      34.273  35.413  28.672  1.00  0.00     0.023 C 
BRANCH   2   3
ATOM      3  C   UNL A   1      33.220  36.520  28.797  1.00  0.00     0.116 C 
BRANCH   3   4
ATOM      4  N   UNL A   1      33.465  37.327  29.976  1.00  0.00    -0.356 N 
ATOM      5  C   UNL A   1      33.183  37.074  31.289  1.00  0.00     0.227 C 
ATOM      6  O   UNL A   1      33.264  38.033  32.059  1.00  0.00    -0.274 OA
ATOM      7  H   UNL A   1      33.902  38.192  29.803  1.00  0.00     0.163 HD
BRANCH   5   8
ATOM      8  C   UNL A   1      32.827  35.641  31.744  1.00  0.00     0.105 C 
ATOM      9  C   UNL A   1      31.808  35.706  32.892  1.00  0.00     0.023 C 
BRANCH   8  10
ATOM     10  C   UNL A   1      34.052  34.785  32.107  1.00  0.00    -0.036 A 
ATOM     11  C   UNL A   1      34.123  33.420  31.784  1.00  0.00     0.005 A 
ATOM     12  C   UNL A   1      35.164  35.347  32.757  1.00  0.00     0.005 A 
ATOM     13  C   UNL A   1      35.211  32.637  32.168  1.00  0.00     0.009 A 
ATOM     14  C   UNL A   1      36.252  34.556  33.156  1.00  0.00     0.009 A 
ATOM     15  C   UNL A   1      36.282  33.185  32.881  1.00  0.00    -0.018 A 
BRANCH  15  16
ATOM     16  C   UNL A   1      37.370  32.315  33.342  1.00  0.00    -0.018 A 
ATOM     17  C   UNL A   1      38.482  32.851  34.014  1.00  0.00     0.009 A 
ATOM     18  C   UNL A   1      37.365  30.941  33.056  1.00  0.00     0.009 A 
ATOM     19  C   UNL A   1      39.562  32.042  34.375  1.00  0.00     0.001 A 
ATOM     20  C   UNL A   1      38.446  30.131  33.415  1.00  0.00     0.001 A 
ATOM     21  C   UNL A   1      39.545  30.683  34.069  1.00  0.00     0.000 A 
ENDBRANCH  15  16
ENDBRANCH   8  10
ENDBRANCH   5   8
ENDBRANCH   3   4
ENDBRANCH   2   3
ENDBRANCH   1   2
BRANCH   1  22
ATOM     22  C   UNL A   1      34.555  32.886  28.263  1.00  0.00     0.116 C 
BRANCH  22  23
ATOM     23  N   UNL A   1      33.799  31.691  27.923  1.00  0.00    -0.352 N 
ATOM     24  C   UNL A   1      34.229  30.395  27.801  1.00  0.00     0.251 C 
ATOM     25  H   UNL A   1      32.840  31.833  27.755  1.00  0.00     0.163 HD
ATOM     26  O   UNL A   1      33.460  29.546  27.352  1.00  0.00    -0.269 OA
BRANCH  24  27
ATOM     27  C   UNL A   1      35.610  30.024  28.176  1.00  0.00     0.039 A 
ATOM     28  C   UNL A   1      36.603  30.084  27.196  1.00  0.00     0.014 A 
ATOM     29  C   UNL A   1      35.933  29.614  29.474  1.00  0.00     0.014 A 
ATOM     30  C   UNL A   1      37.924  29.783  27.530  1.00  0.00     0.010 A 
ATOM     31  C   UNL A   1      37.264  29.391  29.824  1.00  0.00     0.010 A 
ATOM     32  C   UNL A   1      38.273  29.469  28.855  1.00  0.00    -0.014 A 
BRANCH  32  33
ATOM     33  C   UNL A   1      39.694  29.243  29.222  1.00  0.00     0.031 A 
ATOM     34  C   UNL A   1      40.370  27.932  28.924  1.00  0.00     0.074 A 
ATOM     35  C   UNL A   1      40.374  30.228  29.843  1.00  0.00     0.049 A 
ATOM     36  N   UNL A   1      41.610  27.576  29.143  1.00  0.00    -0.248 NA
ATOM     37  C   UNL A   1      39.542  26.873  28.322  1.00  0.00     0.031 C 
ATOM     38  C   UNL A   1      39.808  31.517  30.252  1.00  0.00     0.029 A 
ATOM     39  N   UNL A   1      41.686  30.305  30.237  1.00  0.00    -0.354 N 
ATOM     40  C   UNL A   1      41.715  26.263  28.698  1.00  0.00     0.074 A 
ATOM     41  C   UNL A   1      40.396  25.860  28.262  1.00  0.00     0.031 C 
ATOM     42  C   UNL A   1      40.773  32.266  30.807  1.00  0.00     0.029 A 
ATOM     43  C   UNL A   1      42.017  31.504  30.823  1.00  0.00     0.049 A 
ATOM     44  H   UNL A   1      42.329  29.571  30.113  1.00  0.00     0.167 HD
ATOM     45  C   UNL A   1      42.815  25.476  28.629  1.00  0.00     0.037 A 
ATOM     46  C   UNL A   1      43.190  31.943  31.318  1.00  0.00     0.037 A 
ATOM     47  C   UNL A   1      44.129  25.886  29.061  1.00  0.00     0.049 A 
ATOM     48  C   UNL A   1      44.399  31.053  31.220  1.00  0.00     0.074 A 
ATOM     49  C   UNL A   1      45.316  25.176  29.001  1.00  0.00     0.029 A 
ATOM     50  N   UNL A   1      44.429  27.114  29.632  1.00  0.00    -0.354 N 
ATOM     51  N   UNL A   1      44.493  29.839  30.731  1.00  0.00    -0.248 NA
ATOM     52  C   UNL A   1      45.666  31.598  31.726  1.00  0.00     0.031 C 
ATOM     53  C   UNL A   1      46.324  25.957  29.574  1.00  0.00     0.029 A 
ATOM     54  C   UNL A   1      45.779  27.176  29.944  1.00  0.00     0.049 A 
ATOM     55  H   UNL A   1      43.780  27.836  29.794  1.00  0.00     0.167 HD
ATOM     56  C   UNL A   1      45.831  29.481  30.857  1.00  0.00     0.074 A 
ATOM     57  C   UNL A   1      46.512  30.621  31.435  1.00  0.00     0.031 C 
ATOM     58  C   UNL A   1      46.441  28.314  30.530  1.00  0.00     0.037 A 
BRANCH  45  59
ATOM     59  C   UNL A   1      42.655  24.098  28.045  1.00  0.00     0.058 A 
ATOM     60  C   UNL A   1      42.547  22.963  28.867  1.00  0.00     0.135 A 
ATOM     61  C   UNL A   1      42.551  23.910  26.658  1.00  0.00     0.135 A 
ATOM     62  F   UNL A   1      42.656  23.080  30.200  1.00  0.00    -0.206 F 
ATOM     63  C   UNL A   1      42.360  21.691  28.334  1.00  0.00     0.059 A 
ATOM     64  C   UNL A   1      42.336  22.651  26.104  1.00  0.00     0.059 A 
ATOM     65  F   UNL A   1      42.650  24.958  25.825  1.00  0.00    -0.206 F 
ATOM     66  C   UNL A   1      42.252  21.546  26.951  1.00  0.00     0.060 A 
BRANCH  66  67
ATOM     67  S   UNL A   1      41.983  19.891  26.281  1.00  0.00     0.124 S 
ATOM     68  O   UNL A   1      42.356  19.052  27.416  1.00  0.00    -0.237 OA
ATOM     69  O   UNL A   1      40.563  19.915  25.951  1.00  0.00    -0.237 OA
ATOM     70  O   UNL A   1      42.888  19.836  25.136  1.00  0.00    -0.744 OA
ENDBRANCH  66  67
ENDBRANCH  45  59
BRANCH  46  71
ATOM     71  C   UNL A   1      43.281  33.292  31.938  1.00  0.00     0.058 A 
ATOM     72  C   UNL A   1      43.042  33.486  33.306  1.00  0.00     0.135 A 
ATOM     73  C   UNL A   1      43.606  34.420  31.166  1.00  0.00     0.135 A 
ATOM     74  F   UNL A   1      42.726  32.441  34.086  1.00  0.00    -0.206 F 
ATOM     75  C   UNL A   1      43.092  34.750  33.884  1.00  0.00     0.059 A 
ATOM     76  C   UNL A   1      43.692  35.690  31.727  1.00  0.00     0.059 A 
ATOM     77  F   UNL A   1      43.864  34.288  29.856  1.00  0.00    -0.206 F 
ATOM     78  C   UNL A   1      43.418  35.848  33.084  1.00  0.00     0.060 A 
BRANCH  78  79
ATOM     79  S   UNL A   1      43.511  37.481  33.848  1.00  0.00     0.124 S 
ATOM     80  O   UNL A   1      43.666  38.342  32.681  1.00  0.00    -0.237 OA
ATOM     81  O   UNL A   1      42.231  37.570  34.543  1.00  0.00    -0.237 OA
ATOM     82  O   UNL A   1      44.681  37.377  34.717  1.00  0.00    -0.744 OA
ENDBRANCH  78  79
ENDBRANCH  46  71
BRANCH  58  83
ATOM     83  C   UNL A   1      47.923  28.226  30.779  1.00  0.00     0.058 A 
ATOM     84  C   UNL A   1      48.857  28.576  29.790  1.00  0.00     0.135 A 
ATOM     85  C   UNL A   1      48.414  27.788  32.019  1.00  0.00     0.135 A 
ATOM     86  F   UNL A   1      48.442  28.999  28.587  1.00  0.00    -0.206 F 
ATOM     87  C   UNL A   1      50.225  28.447  30.006  1.00  0.00     0.059 A 
ATOM     88  C   UNL A   1      49.779  27.683  32.267  1.00  0.00     0.059 A 
ATOM     89  F   UNL A   1      47.566  27.455  33.005  1.00  0.00    -0.206 F 
ATOM     90  C   UNL A   1      50.677  27.992  31.247  1.00  0.00     0.060 A 
BRANCH  90  91
ATOM     91  S   UNL A   1      52.453  27.813  31.508  1.00  0.00     0.124 S 
ATOM     92  O   UNL A   1      52.866  29.202  31.681  1.00  0.00    -0.237 OA
ATOM     93  O   UNL A   1      52.512  26.980  32.705  1.00  0.00    -0.237 OA
ATOM     94  O   UNL A   1      52.913  27.169  30.281  1.00  0.00    -0.744 OA
ENDBRANCH  90  91
ENDBRANCH  58  83
ENDBRANCH  32  33
ENDBRANCH  24  27
ENDBRANCH  22  23
ENDBRANCH   1  22
TORSDOF 16
ENDMDL
MODEL 3
REMARK VINA RESULT:     -10.9      5.917     12.020
REMARK SMILES C[C@@H](C(=O)NCCCCNC(=O)c1ccc(-c2c3nc(c(-c4c(F)cc(S(=O)(=O)[O-])cc4F)c4ccc([nH]4)c(-c4c(F)cc(S(=O)(=O)[O-])cc4F)c4nc(c(-c5c(F)cc(S(=O)(=O)[O-])cc5F)c5ccc2[nH]5)C=C4)C=C3)cc1)c1ccc(-c2ccccc2)cc1
REMARK SMILES IDX 8 1 7 2 6 3 5 4 3 5 4 6 2 8 1 9 79 10 80 11 90 12 81 13
REMARK SMILES IDX 89 14 82 15 83 16 84 17 88 18 85 19 87 20 86 21 9 22 10 23
REMARK SMILES IDX 11 24 12 26 13 27 14 28 78 29 15 30 77 31 16 32 17 33 18 34
REMARK SMILES IDX 71 35 19 36 76 37 70 38 72 39 20 40 75 41 69 42 68 43 21 45
REMARK SMILES IDX 55 46 34 47 54 48 35 49 38 50 53 51 73 52 36 53 37 54 52 56
REMARK SMILES IDX 74 57 39 58 22 59 23 60 32 61 24 62 25 63 31 64 33 65 26 66
REMARK SMILES IDX 27 67 28 68 29 69 30 70 56 71 57 72 66 73 58 74 59 75 65 76
REMARK SMILES IDX 67 77 60 78 61 79 62 80 63 81 64 82 40 83 41 84 50 85 42 86
REMARK SMILES IDX 43 87 49 88 51 89 44 90 45 91 46 92 47 93 48 94
REMARK H PARENT 5 7 10 25 72 44 38 55
REMARK Flexibility Score: inf
ROOT
ATOM      1  C   UNL A   1      33.571  28.089  25.614  1.00  0.00     0.023 C 
ENDROOT
BRANCH   1   2
ATOM      2  C   UNL A   1      32.889  29.249  24.886  1.00  0.00     0.023 C 
BRANCH   2   3
ATOM      3  C   UNL A   1      31.358  29.182  24.862  1.00  0.00     0.116 C 
BRANCH   3   4
ATOM      4  N   UNL A   1      30.845  29.684  23.603  1.00  0.00    -0.356 N 
ATOM      5  C   UNL A   1      30.381  29.007  22.510  1.00  0.00     0.227 C 
ATOM      6  O   UNL A   1      30.242  29.667  21.477  1.00  0.00    -0.274 OA
ATOM      7  H   UNL A   1      30.828  30.666  23.523  1.00  0.00     0.163 HD
BRANCH   5   8
ATOM      8  C   UNL A   1      30.024  27.508  22.619  1.00  0.00     0.105 C 
ATOM      9  C   UNL A   1      28.881  27.326  23.631  1.00  0.00     0.023 C 
BRANCH   8  10
ATOM     10  C   UNL A   1      31.229  26.608  22.942  1.00  0.00    -0.036 A 
ATOM     11  C   UNL A   1      31.180  25.648  23.966  1.00  0.00     0.005 A 
ATOM     12  C   UNL A   1      32.420  26.695  22.202  1.00  0.00     0.005 A 
ATOM     13  C   UNL A   1      32.295  24.875  24.291  1.00  0.00     0.009 A 
ATOM     14  C   UNL A   1      33.545  25.928  22.539  1.00  0.00     0.009 A 
ATOM     15  C   UNL A   1      33.502  25.018  23.601  1.00  0.00    -0.018 A 
BRANCH  15  16
ATOM     16  C   UNL A   1      34.679  24.250  24.025  1.00  0.00    -0.018 A 
ATOM     17  C   UNL A   1      35.260  24.465  25.286  1.00  0.00     0.009 A 
ATOM     18  C   UNL A   1      35.299  23.341  23.154  1.00  0.00     0.009 A 
ATOM     19  C   UNL A   1      36.432  23.804  25.659  1.00  0.00     0.001 A 
ATOM     20  C   UNL A   1      36.472  22.680  23.526  1.00  0.00     0.001 A 
ATOM     21  C   UNL A   1      37.040  22.916  24.776  1.00  0.00     0.000 A 
ENDBRANCH  15  16
ENDBRANCH   8  10
ENDBRANCH   5   8
ENDBRANCH   3   4
ENDBRANCH   2   3
ENDBRANCH   1   2
BRANCH   1  22
ATOM     22  C   UNL A   1      33.758  28.288  27.112  1.00  0.00     0.116 C 
BRANCH  22  23
ATOM     23  N   UNL A   1      33.612  29.678  27.511  1.00  0.00    -0.352 N 
ATOM     24  C   UNL A   1      34.508  30.500  28.146  1.00  0.00     0.251 C 
ATOM     25  H   UNL A   1      32.745  30.091  27.294  1.00  0.00     0.163 HD
ATOM     26  O   UNL A   1      34.137  31.606  28.537  1.00  0.00    -0.269 OA
BRANCH  24  27
ATOM     27  C   UNL A   1      35.896  30.051  28.388  1.00  0.00     0.039 A 
ATOM     28  C   UNL A   1      36.814  30.139  27.339  1.00  0.00     0.014 A 
ATOM     29  C   UNL A   1      36.297  29.541  29.627  1.00  0.00     0.014 A 
ATOM     30  C   UNL A   1      38.142  29.765  27.549  1.00  0.00     0.010 A 
ATOM     31  C   UNL A   1      37.640  29.244  29.858  1.00  0.00     0.010 A 
ATOM     32  C   UNL A   1      38.575  29.349  28.820  1.00  0.00    -0.014 A 
BRANCH  32  33
ATOM     33  C   UNL A   1      40.009  29.043  29.059  1.00  0.00     0.031 A 
ATOM     34  C   UNL A   1      40.924  30.065  29.677  1.00  0.00     0.074 A 
ATOM     35  C   UNL A   1      40.489  27.835  28.701  1.00  0.00     0.049 A 
ATOM     36  N   UNL A   1      42.190  29.956  29.988  1.00  0.00    -0.248 NA
ATOM     37  C   UNL A   1      40.351  31.392  29.963  1.00  0.00     0.031 C 
ATOM     38  C   UNL A   1      39.718  26.786  28.027  1.00  0.00     0.029 A 
ATOM     39  N   UNL A   1      41.735  27.280  28.855  1.00  0.00    -0.354 N 
ATOM     40  C   UNL A   1      42.562  31.188  30.514  1.00  0.00     0.074 A 
ATOM     41  C   UNL A   1      41.407  32.053  30.416  1.00  0.00     0.031 C 
ATOM     42  C   UNL A   1      40.497  25.707  27.857  1.00  0.00     0.029 A 
ATOM     43  C   UNL A   1      41.828  25.994  28.379  1.00  0.00     0.049 A 
ATOM     44  H   UNL A   1      42.489  27.759  29.267  1.00  0.00     0.167 HD
ATOM     45  C   UNL A   1      43.747  31.555  31.059  1.00  0.00     0.037 A 
ATOM     46  C   UNL A   1      42.870  25.140  28.363  1.00  0.00     0.037 A 
ATOM     47  C   UNL A   1      44.892  30.686  31.160  1.00  0.00     0.049 A 
ATOM     48  C   UNL A   1      44.172  25.569  28.984  1.00  0.00     0.074 A 
ATOM     49  C   UNL A   1      46.128  30.950  31.727  1.00  0.00     0.029 A 
ATOM     50  N   UNL A   1      44.945  29.384  30.684  1.00  0.00    -0.354 N 
ATOM     51  N   UNL A   1      44.482  26.716  29.541  1.00  0.00    -0.248 NA
ATOM     52  C   UNL A   1      45.259  24.582  28.991  1.00  0.00     0.031 C 
ATOM     53  C   UNL A   1      46.940  29.825  31.554  1.00  0.00     0.029 A 
ATOM     54  C   UNL A   1      46.196  28.838  30.928  1.00  0.00     0.049 A 
ATOM     55  H   UNL A   1      44.204  28.916  30.236  1.00  0.00     0.167 HD
ATOM     56  C   UNL A   1      45.796  26.584  29.977  1.00  0.00     0.074 A 
ATOM     57  C   UNL A   1      46.207  25.233  29.649  1.00  0.00     0.031 C 
ATOM     58  C   UNL A   1      46.594  27.496  30.586  1.00  0.00     0.037 A 
BRANCH  45  59
ATOM     59  C   UNL A   1      43.861  32.951  31.612  1.00  0.00     0.058 A 
ATOM     60  C   UNL A   1      44.288  34.022  30.810  1.00  0.00     0.135 A 
ATOM     61  C   UNL A   1      43.487  33.235  32.935  1.00  0.00     0.135 A 
ATOM     62  F   UNL A   1      44.674  33.807  29.542  1.00  0.00    -0.206 F 
ATOM     63  C   UNL A   1      44.359  35.321  31.305  1.00  0.00     0.059 A 
ATOM     64  C   UNL A   1      43.523  34.531  33.443  1.00  0.00     0.059 A 
ATOM     65  F   UNL A   1      43.074  32.250  33.747  1.00  0.00    -0.206 F 
ATOM     66  C   UNL A   1      43.970  35.566  32.622  1.00  0.00     0.060 A 
BRANCH  66  67
ATOM     67  S   UNL A   1      44.044  37.262  33.237  1.00  0.00     0.124 S 
ATOM     68  O   UNL A   1      43.937  38.027  31.998  1.00  0.00    -0.237 OA
ATOM     69  O   UNL A   1      42.885  37.324  34.121  1.00  0.00    -0.237 OA
ATOM     70  O   UNL A   1      45.341  37.327  33.904  1.00  0.00    -0.744 OA
ENDBRANCH  66  67
ENDBRANCH  45  59
BRANCH  46  71
ATOM     71  C   UNL A   1      42.720  23.792  27.753  1.00  0.00     0.058 A 
ATOM     72  C   UNL A   1      42.432  22.663  28.534  1.00  0.00     0.135 A 
ATOM     73  C   UNL A   1      42.868  23.607  26.368  1.00  0.00     0.135 A 
ATOM     74  F   UNL A   1      42.284  22.788  29.862  1.00  0.00    -0.206 F 
ATOM     75  C   UNL A   1      42.325  21.395  27.974  1.00  0.00     0.059 A 
ATOM     76  C   UNL A   1      42.734  22.353  25.780  1.00  0.00     0.059 A 
ATOM     77  F   UNL A   1      43.123  24.656  25.572  1.00  0.00    -0.206 F 
ATOM     78  C   UNL A   1      42.479  21.251  26.593  1.00  0.00     0.060 A 
BRANCH  78  79
ATOM     79  S   UNL A   1      42.308  19.605  25.869  1.00  0.00     0.124 S 
ATOM     80  O   UNL A   1      42.666  18.751  26.995  1.00  0.00    -0.237 OA
ATOM     81  O   UNL A   1      40.904  19.587  25.473  1.00  0.00    -0.237 OA
ATOM     82  O   UNL A   1      43.262  19.626  24.763  1.00  0.00    -0.744 OA
ENDBRANCH  78  79
ENDBRANCH  46  71
BRANCH  58  83
ATOM     83  C   UNL A   1      47.985  27.050  30.950  1.00  0.00     0.058 A 
ATOM     84  C   UNL A   1      49.057  27.174  30.051  1.00  0.00     0.135 A 
ATOM     85  C   UNL A   1      48.249  26.494  32.213  1.00  0.00     0.135 A 
ATOM     86  F   UNL A   1      48.860  27.696  28.831  1.00  0.00    -0.206 F 
ATOM     87  C   UNL A   1      50.331  26.716  30.373  1.00  0.00     0.059 A 
ATOM     88  C   UNL A   1      49.523  26.061  32.567  1.00  0.00     0.059 A 
ATOM     89  F   UNL A   1      47.265  26.366  33.116  1.00  0.00    -0.206 F 
ATOM     90  C   UNL A   1      50.552  26.154  31.631  1.00  0.00     0.060 A 
BRANCH  90  91
ATOM     91  S   UNL A   1      52.205  25.549  32.030  1.00  0.00     0.124 S 
ATOM     92  O   UNL A   1      52.500  26.285  33.255  1.00  0.00    -0.237 OA
ATOM     93  O   UNL A   1      51.984  24.115  32.188  1.00  0.00    -0.237 OA
ATOM     94  O   UNL A   1      52.995  25.930  30.863  1.00  0.00    -0.744 OA
ENDBRANCH  90  91
ENDBRANCH  58  83
ENDBRANCH  32  33
ENDBRANCH  24  27
ENDBRANCH  22  23
ENDBRANCH   1  22
TORSDOF 16
ENDMDL
