MODEL 1
REMARK VINA RESULT:     -11.6      0.000      0.000
REMARK SMILES N#Cc1cccc(C(=O)N2CCCC[C@@H]2C(=O)NCCCCNC(=O)c2ccc(-c3c4nc(c(-c5c(F)cc(S(=O)(=O)[O-])cc5F)c5ccc([nH]5)c(-c5c(F)cc(S(=O)(=O)[O-])cc5F)c5nc(c(-c6c(F)cc(S(=O)(=O)[O-])cc6F)c6ccc3[nH]6)C=C5)C=C4)cc2)c1
REMARK SMILES IDX 20 1 19 2 18 3 16 4 17 5 15 7 10 8 11 9 12 10 14 11 13 12
REMARK SMILES IDX 8 13 9 14 7 15 3 16 4 17 92 18 5 19 6 20 2 21 1 22 21 23
REMARK SMILES IDX 22 24 23 25 24 26 25 28 26 29 27 30 91 31 28 32 90 33 29 34
REMARK SMILES IDX 30 35 31 36 84 37 32 38 89 39 83 40 85 41 33 42 88 43 82 44
REMARK SMILES IDX 81 45 34 47 68 48 47 49 67 50 48 51 51 52 66 53 86 54 49 55
REMARK SMILES IDX 50 56 65 58 87 59 52 60 35 61 36 62 45 63 37 64 38 65 44 66
REMARK SMILES IDX 46 67 39 68 40 69 41 70 42 71 43 72 69 73 70 74 79 75 71 76
REMARK SMILES IDX 72 77 78 78 80 79 73 80 74 81 75 82 76 83 77 84 53 85 54 86
REMARK SMILES IDX 63 87 55 88 56 89 62 90 64 91 57 92 58 93 59 94 60 95 61 96
REMARK H PARENT 18 6 23 27 85 46 51 57
REMARK Flexibility Score: inf
ROOT
ATOM      1  C   UNL A   1      34.428  30.244  27.146  1.00  0.00     0.023 C 
ENDROOT
BRANCH   1   2
ATOM      2  C   UNL A   1      33.132  30.093  26.350  1.00  0.00     0.116 C 
BRANCH   2   3
ATOM      3  N   UNL A   1      33.404  29.802  24.954  1.00  0.00    -0.354 N 
ATOM      4  C   UNL A   1      32.718  29.013  24.080  1.00  0.00     0.242 C 
ATOM      5  O   UNL A   1      33.200  28.827  22.960  1.00  0.00    -0.273 OA
ATOM      6  H   UNL A   1      34.203  30.241  24.583  1.00  0.00     0.163 HD
BRANCH   4   7
ATOM      7  C   UNL A   1      31.404  28.308  24.484  1.00  0.00     0.174 C 
ATOM      8  N   UNL A   1      31.590  26.945  25.029  1.00  0.00    -0.327 N 
ATOM      9  C   UNL A   1      30.395  26.131  25.187  1.00  0.00     0.120 C 
ATOM     10  C   UNL A   1      29.608  26.033  23.898  1.00  0.00     0.022 C 
ATOM     11  C   UNL A   1      30.453  28.315  23.258  1.00  0.00     0.035 C 
ATOM     12  C   UNL A   1      29.223  27.426  23.418  1.00  0.00     0.004 C 
BRANCH   8  13
ATOM     13  C   UNL A   1      32.745  26.424  25.608  1.00  0.00     0.254 C 
ATOM     14  O   UNL A   1      33.098  26.817  26.722  1.00  0.00    -0.269 OA
BRANCH  13  15
ATOM     15  C   UNL A   1      33.662  25.510  24.866  1.00  0.00     0.041 A 
ATOM     16  C   UNL A   1      35.549  23.986  24.741  1.00  0.00     0.053 A 
ATOM     17  C   UNL A   1      35.096  23.510  23.506  1.00  0.00     0.019 A 
ATOM     18  C   UNL A   1      34.826  24.974  25.423  1.00  0.00     0.033 A 
ATOM     19  C   UNL A   1      33.932  24.030  22.946  1.00  0.00     0.002 A 
ATOM     20  C   UNL A   1      33.225  25.028  23.620  1.00  0.00     0.014 A 
BRANCH  16  21
ATOM     21  C   UNL A   1      36.730  23.429  25.337  1.00  0.00     0.099 C 
ATOM     22  N   UNL A   1      37.676  22.992  25.845  1.00  0.00    -0.192 NA
ENDBRANCH  16  21
ENDBRANCH  13  15
ENDBRANCH   8  13
ENDBRANCH   4   7
ENDBRANCH   2   3
ENDBRANCH   1   2
BRANCH   1  23
ATOM     23  C   UNL A   1      34.534  31.549  27.932  1.00  0.00     0.023 C 
BRANCH  23  24
ATOM     24  C   UNL A   1      35.799  31.679  28.767  1.00  0.00     0.116 C 
BRANCH  24  25
ATOM     25  N   UNL A   1      35.623  31.196  30.129  1.00  0.00    -0.352 N 
ATOM     26  C   UNL A   1      36.504  30.478  30.901  1.00  0.00     0.251 C 
ATOM     27  H   UNL A   1      34.761  31.412  30.552  1.00  0.00     0.163 HD
ATOM     28  O   UNL A   1      36.142  29.991  31.967  1.00  0.00    -0.269 OA
BRANCH  26  29
ATOM     29  C   UNL A   1      37.882  30.275  30.411  1.00  0.00     0.039 A 
ATOM     30  C   UNL A   1      38.926  30.191  31.332  1.00  0.00     0.014 A 
ATOM     31  C   UNL A   1      38.127  30.109  29.044  1.00  0.00     0.014 A 
ATOM     32  C   UNL A   1      40.209  29.873  30.886  1.00  0.00     0.010 A 
ATOM     33  C   UNL A   1      39.383  29.697  28.616  1.00  0.00     0.010 A 
ATOM     34  C   UNL A   1      40.441  29.582  29.530  1.00  0.00    -0.014 A 
BRANCH  34  35
ATOM     35  C   UNL A   1      41.779  29.148  29.054  1.00  0.00     0.031 A 
ATOM     36  C   UNL A   1      42.893  30.149  28.915  1.00  0.00     0.074 A 
ATOM     37  C   UNL A   1      41.972  27.866  28.685  1.00  0.00     0.049 A 
ATOM     38  N   UNL A   1      44.112  29.972  28.473  1.00  0.00    -0.248 NA
ATOM     39  C   UNL A   1      42.591  31.539  29.293  1.00  0.00     0.031 C 
ATOM     40  C   UNL A   1      40.951  26.815  28.716  1.00  0.00     0.029 A 
ATOM     41  N   UNL A   1      43.086  27.229  28.199  1.00  0.00    -0.354 N 
ATOM     42  C   UNL A   1      44.712  31.224  28.502  1.00  0.00     0.074 A 
ATOM     43  C   UNL A   1      43.707  32.163  28.950  1.00  0.00     0.031 C 
ATOM     44  C   UNL A   1      41.493  25.664  28.289  1.00  0.00     0.029 A 
ATOM     45  C   UNL A   1      42.881  25.901  27.906  1.00  0.00     0.049 A 
ATOM     46  H   UNL A   1      43.952  27.681  28.071  1.00  0.00     0.167 HD
ATOM     47  C   UNL A   1      45.990  31.558  28.201  1.00  0.00     0.037 A 
ATOM     48  C   UNL A   1      43.706  24.981  27.371  1.00  0.00     0.037 A 
ATOM     49  C   UNL A   1      46.984  30.612  27.765  1.00  0.00     0.049 A 
ATOM     50  C   UNL A   1      45.120  25.372  27.041  1.00  0.00     0.074 A 
ATOM     51  C   UNL A   1      48.324  30.833  27.507  1.00  0.00     0.029 A 
ATOM     52  N   UNL A   1      46.742  29.270  27.500  1.00  0.00    -0.354 N 
ATOM     53  N   UNL A   1      45.701  26.542  27.161  1.00  0.00    -0.248 NA
ATOM     54  C   UNL A   1      45.997  24.318  26.512  1.00  0.00     0.031 C 
ATOM     55  C   UNL A   1      48.874  29.648  27.009  1.00  0.00     0.029 A 
ATOM     56  C   UNL A   1      47.899  28.663  27.040  1.00  0.00     0.049 A 
ATOM     57  H   UNL A   1      45.876  28.817  27.621  1.00  0.00     0.167 HD
ATOM     58  C   UNL A   1      47.016  26.362  26.746  1.00  0.00     0.074 A 
ATOM     59  C   UNL A   1      47.148  24.965  26.386  1.00  0.00     0.031 C 
ATOM     60  C   UNL A   1      48.022  27.270  26.677  1.00  0.00     0.037 A 
BRANCH  47  61
ATOM     61  C   UNL A   1      46.377  33.012  28.307  1.00  0.00     0.058 A 
ATOM     62  C   UNL A   1      46.278  33.895  27.220  1.00  0.00     0.135 A 
ATOM     63  C   UNL A   1      46.841  33.532  29.527  1.00  0.00     0.135 A 
ATOM     64  F   UNL A   1      45.852  33.455  26.024  1.00  0.00    -0.206 F 
ATOM     65  C   UNL A   1      46.667  35.227  27.324  1.00  0.00     0.059 A 
ATOM     66  C   UNL A   1      47.198  34.870  29.665  1.00  0.00     0.059 A 
ATOM     67  F   UNL A   1      46.955  32.737  30.602  1.00  0.00    -0.206 F 
ATOM     68  C   UNL A   1      47.127  35.704  28.553  1.00  0.00     0.060 A 
BRANCH  68  69
ATOM     69  S   UNL A   1      47.642  37.431  28.668  1.00  0.00     0.124 S 
ATOM     70  O   UNL A   1      47.288  37.749  30.047  1.00  0.00    -0.237 OA
ATOM     71  O   UNL A   1      49.071  37.348  28.384  1.00  0.00    -0.237 OA
ATOM     72  O   UNL A   1      46.839  38.095  27.646  1.00  0.00    -0.744 OA
ENDBRANCH  68  69
ENDBRANCH  47  61
BRANCH  48  73
ATOM     73  C   UNL A   1      43.203  23.604  27.117  1.00  0.00     0.058 A 
ATOM     74  C   UNL A   1      42.791  23.198  25.840  1.00  0.00     0.135 A 
ATOM     75  C   UNL A   1      43.171  22.649  28.146  1.00  0.00     0.135 A 
ATOM     76  F   UNL A   1      42.793  24.074  24.823  1.00  0.00    -0.206 F 
ATOM     77  C   UNL A   1      42.364  21.896  25.590  1.00  0.00     0.059 A 
ATOM     78  C   UNL A   1      42.778  21.334  27.915  1.00  0.00     0.059 A 
ATOM     79  F   UNL A   1      43.568  22.981  29.384  1.00  0.00    -0.206 F 
ATOM     80  C   UNL A   1      42.374  20.968  26.633  1.00  0.00     0.060 A 
BRANCH  80  81
ATOM     81  S   UNL A   1      41.899  19.262  26.279  1.00  0.00     0.124 S 
ATOM     82  O   UNL A   1      42.856  18.898  25.241  1.00  0.00    -0.237 OA
ATOM     83  O   UNL A   1      42.086  18.620  27.577  1.00  0.00    -0.237 OA
ATOM     84  O   UNL A   1      40.511  19.383  25.842  1.00  0.00    -0.744 OA
ENDBRANCH  80  81
ENDBRANCH  48  73
BRANCH  60  85
ATOM     85  C   UNL A   1      49.374  26.782  26.227  1.00  0.00     0.058 A 
ATOM     86  C   UNL A   1      49.796  26.873  24.892  1.00  0.00     0.135 A 
ATOM     87  C   UNL A   1      50.287  26.268  27.166  1.00  0.00     0.135 A 
ATOM     88  F   UNL A   1      48.964  27.350  23.951  1.00  0.00    -0.206 F 
ATOM     89  C   UNL A   1      51.061  26.450  24.498  1.00  0.00     0.059 A 
ATOM     90  C   UNL A   1      51.570  25.874  26.800  1.00  0.00     0.059 A 
ATOM     91  F   UNL A   1      49.942  26.167  28.459  1.00  0.00    -0.206 F 
ATOM     92  C   UNL A   1      51.944  25.957  25.461  1.00  0.00     0.060 A 
BRANCH  92  93
ATOM     93  S   UNL A   1      53.595  25.446  24.941  1.00  0.00     0.124 S 
ATOM     94  O   UNL A   1      54.437  26.144  25.906  1.00  0.00    -0.237 OA
ATOM     95  O   UNL A   1      53.531  23.994  25.088  1.00  0.00    -0.237 OA
ATOM     96  O   UNL A   1      53.684  25.927  23.566  1.00  0.00    -0.744 OA
ENDBRANCH  92  93
ENDBRANCH  60  85
ENDBRANCH  34  35
ENDBRANCH  26  29
ENDBRANCH  24  25
ENDBRANCH  23  24
ENDBRANCH   1  23
TORSDOF 17
ENDMDL
MODEL 2
REMARK VINA RESULT:     -11.4      0.725      1.570
REMARK SMILES N#Cc1cccc(C(=O)N2CCCC[C@@H]2C(=O)NCCCCNC(=O)c2ccc(-c3c4nc(c(-c5c(F)cc(S(=O)(=O)[O-])cc5F)c5ccc([nH]5)c(-c5c(F)cc(S(=O)(=O)[O-])cc5F)c5nc(c(-c6c(F)cc(S(=O)(=O)[O-])cc6F)c6ccc3[nH]6)C=C5)C=C4)cc2)c1
REMARK SMILES IDX 20 1 19 2 18 3 16 4 17 5 15 7 10 8 11 9 12 10 14 11 13 12
REMARK SMILES IDX 8 13 9 14 7 15 3 16 4 17 92 18 5 19 6 20 2 21 1 22 21 23
REMARK SMILES IDX 22 24 23 25 24 26 25 28 26 29 27 30 91 31 28 32 90 33 29 34
REMARK SMILES IDX 30 35 31 36 84 37 32 38 89 39 83 40 85 41 33 42 88 43 82 44
REMARK SMILES IDX 81 45 34 47 68 48 47 49 67 50 48 51 51 52 66 53 86 54 49 55
REMARK SMILES IDX 50 56 65 58 87 59 52 60 35 61 36 62 45 63 37 64 38 65 44 66
REMARK SMILES IDX 46 67 39 68 40 69 41 70 42 71 43 72 69 73 70 74 79 75 71 76
REMARK SMILES IDX 72 77 78 78 80 79 73 80 74 81 75 82 76 83 77 84 53 85 54 86
REMARK SMILES IDX 63 87 55 88 56 89 62 90 64 91 57 92 58 93 59 94 60 95 61 96
REMARK H PARENT 18 6 23 27 85 46 51 57
REMARK Flexibility Score: inf
ROOT
ATOM      1  C   UNL A   1      33.720  31.510  27.630  1.00  0.00     0.023 C 
ENDROOT
BRANCH   1   2
ATOM      2  C   UNL A   1      32.892  30.453  26.900  1.00  0.00     0.116 C 
BRANCH   2   3
ATOM      3  N   UNL A   1      33.669  29.806  25.857  1.00  0.00    -0.354 N 
ATOM      4  C   UNL A   1      33.254  29.025  24.820  1.00  0.00     0.242 C 
ATOM      5  O   UNL A   1      34.112  28.491  24.112  1.00  0.00    -0.273 OA
ATOM      6  H   UNL A   1      34.641  29.955  25.906  1.00  0.00     0.163 HD
BRANCH   4   7
ATOM      7  C   UNL A   1      31.756  28.752  24.560  1.00  0.00     0.174 C 
ATOM      8  N   UNL A   1      31.252  27.503  25.174  1.00  0.00    -0.327 N 
ATOM      9  C   UNL A   1      29.933  27.053  24.761  1.00  0.00     0.120 C 
ATOM     10  C   UNL A   1      29.827  26.929  23.256  1.00  0.00     0.022 C 
ATOM     11  C   UNL A   1      31.516  28.780  23.028  1.00  0.00     0.035 C 
ATOM     12  C   UNL A   1      30.143  28.267  22.602  1.00  0.00     0.004 C 
BRANCH   8  13
ATOM     13  C   UNL A   1      31.801  26.822  26.258  1.00  0.00     0.254 C 
ATOM     14  O   UNL A   1      31.847  27.370  27.361  1.00  0.00    -0.269 OA
BRANCH  13  15
ATOM     15  C   UNL A   1      32.475  25.499  26.105  1.00  0.00     0.041 A 
ATOM     16  C   UNL A   1      34.446  24.096  25.900  1.00  0.00     0.053 A 
ATOM     17  C   UNL A   1      33.687  22.965  26.217  1.00  0.00     0.019 A 
ATOM     18  C   UNL A   1      33.844  25.360  25.858  1.00  0.00     0.033 A 
ATOM     19  C   UNL A   1      32.325  23.093  26.474  1.00  0.00     0.002 A 
ATOM     20  C   UNL A   1      31.723  24.351  26.412  1.00  0.00     0.014 A 
BRANCH  16  21
ATOM     21  C   UNL A   1      35.858  23.972  25.667  1.00  0.00     0.099 C 
ATOM     22  N   UNL A   1      36.993  23.883  25.451  1.00  0.00    -0.192 NA
ENDBRANCH  16  21
ENDBRANCH  13  15
ENDBRANCH   8  13
ENDBRANCH   4   7
ENDBRANCH   2   3
ENDBRANCH   1   2
BRANCH   1  23
ATOM     23  C   UNL A   1      35.224  31.244  27.623  1.00  0.00     0.023 C 
BRANCH  23  24
ATOM     24  C   UNL A   1      35.979  31.877  28.782  1.00  0.00     0.116 C 
BRANCH  24  25
ATOM     25  N   UNL A   1      35.745  31.189  30.044  1.00  0.00    -0.352 N 
ATOM     26  C   UNL A   1      36.581  30.330  30.717  1.00  0.00     0.251 C 
ATOM     27  H   UNL A   1      34.875  31.363  30.472  1.00  0.00     0.163 HD
ATOM     28  O   UNL A   1      36.171  29.692  31.680  1.00  0.00    -0.269 OA
BRANCH  26  29
ATOM     29  C   UNL A   1      37.968  30.163  30.239  1.00  0.00     0.039 A 
ATOM     30  C   UNL A   1      39.016  30.227  31.158  1.00  0.00     0.014 A 
ATOM     31  C   UNL A   1      38.221  29.884  28.892  1.00  0.00     0.014 A 
ATOM     32  C   UNL A   1      40.315  29.945  30.735  1.00  0.00     0.010 A 
ATOM     33  C   UNL A   1      39.500  29.508  28.498  1.00  0.00     0.010 A 
ATOM     34  C   UNL A   1      40.563  29.542  29.412  1.00  0.00    -0.014 A 
BRANCH  34  35
ATOM     35  C   UNL A   1      41.924  29.145  28.971  1.00  0.00     0.031 A 
ATOM     36  C   UNL A   1      43.014  30.176  28.862  1.00  0.00     0.074 A 
ATOM     37  C   UNL A   1      42.161  27.869  28.606  1.00  0.00     0.049 A 
ATOM     38  N   UNL A   1      44.248  30.032  28.451  1.00  0.00    -0.248 NA
ATOM     39  C   UNL A   1      42.665  31.556  29.233  1.00  0.00     0.031 C 
ATOM     40  C   UNL A   1      41.168  26.791  28.610  1.00  0.00     0.029 A 
ATOM     41  N   UNL A   1      43.304  27.263  28.149  1.00  0.00    -0.354 N 
ATOM     42  C   UNL A   1      44.813  31.300  28.497  1.00  0.00     0.074 A 
ATOM     43  C   UNL A   1      43.772  32.211  28.919  1.00  0.00     0.031 C 
ATOM     44  C   UNL A   1      41.752  25.656  28.197  1.00  0.00     0.029 A 
ATOM     45  C   UNL A   1      43.142  25.930  27.850  1.00  0.00     0.049 A 
ATOM     46  H   UNL A   1      44.161  27.738  28.044  1.00  0.00     0.167 HD
ATOM     47  C   UNL A   1      46.089  31.669  28.229  1.00  0.00     0.037 A 
ATOM     48  C   UNL A   1      44.006  25.033  27.335  1.00  0.00     0.037 A 
ATOM     49  C   UNL A   1      47.119  30.750  27.819  1.00  0.00     0.049 A 
ATOM     50  C   UNL A   1      45.417  25.462  27.043  1.00  0.00     0.074 A 
ATOM     51  C   UNL A   1      48.460  31.007  27.596  1.00  0.00     0.029 A 
ATOM     52  N   UNL A   1      46.921  29.402  27.546  1.00  0.00    -0.354 N 
ATOM     53  N   UNL A   1      45.962  26.648  27.179  1.00  0.00    -0.248 NA
ATOM     54  C   UNL A   1      46.335  24.434  26.537  1.00  0.00     0.031 C 
ATOM     55  C   UNL A   1      49.054  29.838  27.112  1.00  0.00     0.029 A 
ATOM     56  C   UNL A   1      48.106  28.827  27.116  1.00  0.00     0.049 A 
ATOM     57  H   UNL A   1      46.065  28.926  27.645  1.00  0.00     0.167 HD
ATOM     58  C   UNL A   1      47.293  26.504  26.798  1.00  0.00     0.074 A 
ATOM     59  C   UNL A   1      47.472  25.111  26.440  1.00  0.00     0.031 C 
ATOM     60  C   UNL A   1      48.275  27.438  26.757  1.00  0.00     0.037 A 
BRANCH  47  61
ATOM     61  C   UNL A   1      46.434  33.132  28.347  1.00  0.00     0.058 A 
ATOM     62  C   UNL A   1      46.339  34.014  27.258  1.00  0.00     0.135 A 
ATOM     63  C   UNL A   1      46.853  33.662  29.578  1.00  0.00     0.135 A 
ATOM     64  F   UNL A   1      45.955  33.564  26.051  1.00  0.00    -0.206 F 
ATOM     65  C   UNL A   1      46.690  35.356  27.374  1.00  0.00     0.059 A 
ATOM     66  C   UNL A   1      47.170  35.009  29.727  1.00  0.00     0.059 A 
ATOM     67  F   UNL A   1      46.962  32.869  30.655  1.00  0.00    -0.206 F 
ATOM     68  C   UNL A   1      47.105  35.843  28.613  1.00  0.00     0.060 A 
BRANCH  68  69
ATOM     69  S   UNL A   1      47.570  37.583  28.743  1.00  0.00     0.124 S 
ATOM     70  O   UNL A   1      47.069  38.113  27.479  1.00  0.00    -0.237 OA
ATOM     71  O   UNL A   1      46.851  38.009  29.938  1.00  0.00    -0.237 OA
ATOM     72  O   UNL A   1      49.024  37.539  28.871  1.00  0.00    -0.744 OA
ENDBRANCH  68  69
ENDBRANCH  47  61
BRANCH  48  73
ATOM     73  C   UNL A   1      43.547  23.643  27.068  1.00  0.00     0.058 A 
ATOM     74  C   UNL A   1      43.414  22.704  28.100  1.00  0.00     0.135 A 
ATOM     75  C   UNL A   1      43.184  23.243  25.772  1.00  0.00     0.135 A 
ATOM     76  F   UNL A   1      43.757  23.033  29.356  1.00  0.00    -0.206 F 
ATOM     77  C   UNL A   1      42.940  21.417  27.859  1.00  0.00     0.059 A 
ATOM     78  C   UNL A   1      42.679  21.973  25.510  1.00  0.00     0.059 A 
ATOM     79  F   UNL A   1      43.278  24.108  24.750  1.00  0.00    -0.206 F 
ATOM     80  C   UNL A   1      42.563  21.066  26.561  1.00  0.00     0.060 A 
BRANCH  80  81
ATOM     81  S   UNL A   1      41.871  19.423  26.276  1.00  0.00     0.124 S 
ATOM     82  O   UNL A   1      42.548  19.026  25.047  1.00  0.00    -0.237 OA
ATOM     83  O   UNL A   1      42.271  18.711  27.487  1.00  0.00    -0.237 OA
ATOM     84  O   UNL A   1      40.438  19.679  26.153  1.00  0.00    -0.744 OA
ENDBRANCH  80  81
ENDBRANCH  48  73
BRANCH  60  85
ATOM     85  C   UNL A   1      49.651  26.988  26.341  1.00  0.00     0.058 A 
ATOM     86  C   UNL A   1      50.616  26.575  27.273  1.00  0.00     0.135 A 
ATOM     87  C   UNL A   1      49.988  26.914  24.978  1.00  0.00     0.135 A 
ATOM     88  F   UNL A   1      50.352  26.630  28.590  1.00  0.00    -0.206 F 
ATOM     89  C   UNL A   1      51.871  26.128  26.872  1.00  0.00     0.059 A 
ATOM     90  C   UNL A   1      51.223  26.436  24.553  1.00  0.00     0.059 A 
ATOM     91  F   UNL A   1      49.102  27.287  24.042  1.00  0.00    -0.206 F 
ATOM     92  C   UNL A   1      52.164  26.057  25.509  1.00  0.00     0.060 A 
BRANCH  92  93
ATOM     93  S   UNL A   1      53.783  25.442  25.002  1.00  0.00     0.124 S 
ATOM     94  O   UNL A   1      54.571  25.655  26.210  1.00  0.00    -0.237 OA
ATOM     95  O   UNL A   1      53.495  24.049  24.669  1.00  0.00    -0.237 OA
ATOM     96  O   UNL A   1      54.132  26.292  23.868  1.00  0.00    -0.744 OA
ENDBRANCH  92  93
ENDBRANCH  60  85
ENDBRANCH  34  35
ENDBRANCH  26  29
ENDBRANCH  24  25
ENDBRANCH  23  24
ENDBRANCH   1  23
TORSDOF 17
ENDMDL
MODEL 3
REMARK VINA RESULT:     -11.1      0.610      8.301
REMARK SMILES N#Cc1cccc(C(=O)N2CCCC[C@@H]2C(=O)NCCCCNC(=O)c2ccc(-c3c4nc(c(-c5c(F)cc(S(=O)(=O)[O-])cc5F)c5ccc([nH]5)c(-c5c(F)cc(S(=O)(=O)[O-])cc5F)c5nc(c(-c6c(F)cc(S(=O)(=O)[O-])cc6F)c6ccc3[nH]6)C=C5)C=C4)cc2)c1
REMARK SMILES IDX 20 1 19 2 18 3 16 4 17 5 15 7 10 8 11 9 12 10 14 11 13 12
REMARK SMILES IDX 8 13 9 14 7 15 3 16 4 17 92 18 5 19 6 20 2 21 1 22 21 23
REMARK SMILES IDX 22 24 23 25 24 26 25 28 26 29 27 30 91 31 28 32 90 33 29 34
REMARK SMILES IDX 30 35 31 36 84 37 32 38 89 39 83 40 85 41 33 42 88 43 82 44
REMARK SMILES IDX 81 45 34 47 68 48 47 49 67 50 48 51 51 52 66 53 86 54 49 55
REMARK SMILES IDX 50 56 65 58 87 59 52 60 35 61 36 62 45 63 37 64 38 65 44 66
REMARK SMILES IDX 46 67 39 68 40 69 41 70 42 71 43 72 69 73 70 74 79 75 71 76
REMARK SMILES IDX 72 77 78 78 80 79 73 80 74 81 75 82 76 83 77 84 53 85 54 86
REMARK SMILES IDX 63 87 55 88 56 89 62 90 64 91 57 92 58 93 59 94 60 95 61 96
REMARK H PARENT 18 6 23 27 85 46 51 57
REMARK Flexibility Score: inf
ROOT
ATOM      1  C   UNL A   1      33.888  30.070  27.241  1.00  0.00     0.023 C 
ENDROOT
BRANCH   1   2
ATOM      2  C   UNL A   1      32.739  30.301  26.260  1.00  0.00     0.116 C 
BRANCH   2   3
ATOM      3  N   UNL A   1      33.105  29.887  24.916  1.00  0.00    -0.354 N 
ATOM      4  C   UNL A   1      32.466  29.039  24.062  1.00  0.00     0.242 C 
ATOM      5  O   UNL A   1      33.024  28.752  23.000  1.00  0.00    -0.273 OA
ATOM      6  H   UNL A   1      33.940  30.280  24.571  1.00  0.00     0.163 HD
BRANCH   4   7
ATOM      7  C   UNL A   1      31.110  28.395  24.423  1.00  0.00     0.174 C 
ATOM      8  N   UNL A   1      31.218  27.036  25.001  1.00  0.00    -0.327 N 
ATOM      9  C   UNL A   1      29.986  26.274  25.123  1.00  0.00     0.120 C 
ATOM     10  C   UNL A   1      29.249  26.181  23.804  1.00  0.00     0.022 C 
ATOM     11  C   UNL A   1      30.211  28.415  23.159  1.00  0.00     0.035 C 
ATOM     12  C   UNL A   1      28.940  27.578  23.284  1.00  0.00     0.004 C 
BRANCH   8  13
ATOM     13  C   UNL A   1      32.327  26.483  25.636  1.00  0.00     0.254 C 
ATOM     14  O   UNL A   1      32.572  26.785  26.806  1.00  0.00    -0.269 OA
BRANCH  13  15
ATOM     15  C   UNL A   1      33.322  25.643  24.907  1.00  0.00     0.041 A 
ATOM     16  C   UNL A   1      35.316  24.259  24.812  1.00  0.00     0.053 A 
ATOM     17  C   UNL A   1      34.925  23.764  23.564  1.00  0.00     0.019 A 
ATOM     18  C   UNL A   1      34.510  25.186  25.486  1.00  0.00     0.033 A 
ATOM     19  C   UNL A   1      33.739  24.205  22.982  1.00  0.00     0.002 A 
ATOM     20  C   UNL A   1      32.948  25.143  23.648  1.00  0.00     0.014 A 
BRANCH  16  21
ATOM     21  C   UNL A   1      36.521  23.781  25.430  1.00  0.00     0.099 C 
ATOM     22  N   UNL A   1      37.509  23.409  25.907  1.00  0.00    -0.192 NA
ENDBRANCH  16  21
ENDBRANCH  13  15
ENDBRANCH   8  13
ENDBRANCH   4   7
ENDBRANCH   2   3
ENDBRANCH   1   2
BRANCH   1  23
ATOM     23  C   UNL A   1      34.418  31.344  27.895  1.00  0.00     0.023 C 
BRANCH  23  24
ATOM     24  C   UNL A   1      35.789  31.195  28.539  1.00  0.00     0.116 C 
BRANCH  24  25
ATOM     25  N   UNL A   1      35.711  30.978  29.977  1.00  0.00    -0.352 N 
ATOM     26  C   UNL A   1      36.568  30.267  30.781  1.00  0.00     0.251 C 
ATOM     27  H   UNL A   1      34.945  31.397  30.432  1.00  0.00     0.163 HD
ATOM     28  O   UNL A   1      36.272  30.027  31.947  1.00  0.00    -0.269 OA
BRANCH  26  29
ATOM     29  C   UNL A   1      37.835  29.767  30.209  1.00  0.00     0.039 A 
ATOM     30  C   UNL A   1      38.072  29.921  28.843  1.00  0.00     0.014 A 
ATOM     31  C   UNL A   1      38.809  29.202  31.039  1.00  0.00     0.014 A 
ATOM     32  C   UNL A   1      39.315  29.567  28.320  1.00  0.00     0.010 A 
ATOM     33  C   UNL A   1      40.077  28.944  30.532  1.00  0.00     0.010 A 
ATOM     34  C   UNL A   1      40.343  29.116  29.166  1.00  0.00    -0.014 A 
BRANCH  34  35
ATOM     35  C   UNL A   1      41.702  28.827  28.640  1.00  0.00     0.031 A 
ATOM     36  C   UNL A   1      42.053  27.440  28.176  1.00  0.00     0.074 A 
ATOM     37  C   UNL A   1      42.637  29.797  28.642  1.00  0.00     0.049 A 
ATOM     38  N   UNL A   1      43.197  26.984  27.732  1.00  0.00    -0.248 NA
ATOM     39  C   UNL A   1      40.992  26.423  28.250  1.00  0.00     0.031 C 
ATOM     40  C   UNL A   1      42.434  31.166  29.123  1.00  0.00     0.029 A 
ATOM     41  N   UNL A   1      43.949  29.781  28.238  1.00  0.00    -0.354 N 
ATOM     42  C   UNL A   1      42.997  25.630  27.492  1.00  0.00     0.074 A 
ATOM     43  C   UNL A   1      41.642  25.325  27.895  1.00  0.00     0.031 C 
ATOM     44  C   UNL A   1      43.571  31.860  28.967  1.00  0.00     0.029 A 
ATOM     45  C   UNL A   1      44.599  30.979  28.424  1.00  0.00     0.049 A 
ATOM     46  H   UNL A   1      44.384  28.986  27.852  1.00  0.00     0.167 HD
ATOM     47  C   UNL A   1      43.859  24.726  26.967  1.00  0.00     0.037 A 
ATOM     48  C   UNL A   1      45.882  31.326  28.203  1.00  0.00     0.037 A 
ATOM     49  C   UNL A   1      45.204  25.045  26.561  1.00  0.00     0.049 A 
ATOM     50  C   UNL A   1      46.825  30.308  27.621  1.00  0.00     0.074 A 
ATOM     51  C   UNL A   1      46.132  24.223  25.949  1.00  0.00     0.029 A 
ATOM     52  N   UNL A   1      45.820  26.275  26.747  1.00  0.00    -0.354 N 
ATOM     53  N   UNL A   1      46.594  29.053  27.314  1.00  0.00    -0.248 NA
ATOM     54  C   UNL A   1      48.198  30.752  27.346  1.00  0.00     0.031 C 
ATOM     55  C   UNL A   1      47.334  24.929  25.838  1.00  0.00     0.029 A 
ATOM     56  C   UNL A   1      47.131  26.220  26.300  1.00  0.00     0.049 A 
ATOM     57  H   UNL A   1      45.390  27.070  27.138  1.00  0.00     0.167 HD
ATOM     58  C   UNL A   1      47.785  28.564  26.787  1.00  0.00     0.074 A 
ATOM     59  C   UNL A   1      48.729  29.664  26.805  1.00  0.00     0.031 C 
ATOM     60  C   UNL A   1      48.067  27.320  26.326  1.00  0.00     0.037 A 
BRANCH  47  61
ATOM     61  C   UNL A   1      43.382  23.303  26.827  1.00  0.00     0.058 A 
ATOM     62  C   UNL A   1      43.253  22.444  27.930  1.00  0.00     0.135 A 
ATOM     63  C   UNL A   1      43.034  22.796  25.564  1.00  0.00     0.135 A 
ATOM     64  F   UNL A   1      43.581  22.867  29.162  1.00  0.00    -0.206 F 
ATOM     65  C   UNL A   1      42.840  21.123  27.782  1.00  0.00     0.059 A 
ATOM     66  C   UNL A   1      42.580  21.491  25.397  1.00  0.00     0.059 A 
ATOM     67  F   UNL A   1      43.135  23.570  24.472  1.00  0.00    -0.206 F 
ATOM     68  C   UNL A   1      42.507  20.656  26.510  1.00  0.00     0.060 A 
BRANCH  68  69
ATOM     69  S   UNL A   1      41.988  18.936  26.332  1.00  0.00     0.124 S 
ATOM     70  O   UNL A   1      41.986  18.488  27.721  1.00  0.00    -0.237 OA
ATOM     71  O   UNL A   1      40.675  19.071  25.708  1.00  0.00    -0.237 OA
ATOM     72  O   UNL A   1      43.025  18.352  25.487  1.00  0.00    -0.744 OA
ENDBRANCH  68  69
ENDBRANCH  47  61
BRANCH  48  73
ATOM     73  C   UNL A   1      46.338  32.702  28.539  1.00  0.00     0.058 A 
ATOM     74  C   UNL A   1      46.924  32.997  29.778  1.00  0.00     0.135 A 
ATOM     75  C   UNL A   1      46.238  33.741  27.601  1.00  0.00     0.135 A 
ATOM     76  F   UNL A   1      47.035  32.042  30.714  1.00  0.00    -0.206 F 
ATOM     77  C   UNL A   1      47.394  34.274  30.077  1.00  0.00     0.059 A 
ATOM     78  C   UNL A   1      46.727  35.017  27.864  1.00  0.00     0.059 A 
ATOM     79  F   UNL A   1      45.697  33.509  26.394  1.00  0.00    -0.206 F 
ATOM     80  C   UNL A   1      47.301  35.274  29.107  1.00  0.00     0.060 A 
BRANCH  80  81
ATOM     81  S   UNL A   1      47.990  36.902  29.474  1.00  0.00     0.124 S 
ATOM     82  O   UNL A   1      47.276  37.747  28.525  1.00  0.00    -0.237 OA
ATOM     83  O   UNL A   1      47.631  37.073  30.879  1.00  0.00    -0.237 OA
ATOM     84  O   UNL A   1      49.417  36.729  29.216  1.00  0.00    -0.744 OA
ENDBRANCH  80  81
ENDBRANCH  48  73
BRANCH  60  85
ATOM     85  C   UNL A   1      49.444  27.077  25.764  1.00  0.00     0.058 A 
ATOM     86  C   UNL A   1      49.738  27.253  24.403  1.00  0.00     0.135 A 
ATOM     87  C   UNL A   1      50.501  26.719  26.619  1.00  0.00     0.135 A 
ATOM     88  F   UNL A   1      48.766  27.589  23.539  1.00  0.00    -0.206 F 
ATOM     89  C   UNL A   1      51.023  27.059  23.906  1.00  0.00     0.059 A 
ATOM     90  C   UNL A   1      51.800  26.556  26.150  1.00  0.00     0.059 A 
ATOM     91  F   UNL A   1      50.280  26.547  27.932  1.00  0.00    -0.206 F 
ATOM     92  C   UNL A   1      52.049  26.716  24.788  1.00  0.00     0.060 A 
BRANCH  92  93
ATOM     93  S   UNL A   1      53.718  26.502  24.134  1.00  0.00     0.124 S 
ATOM     94  O   UNL A   1      53.487  26.606  22.698  1.00  0.00    -0.237 OA
ATOM     95  O   UNL A   1      54.435  27.620  24.744  1.00  0.00    -0.237 OA
ATOM     96  O   UNL A   1      54.106  25.180  24.614  1.00  0.00    -0.744 OA
ENDBRANCH  92  93
ENDBRANCH  60  85
ENDBRANCH  34  35
ENDBRANCH  26  29
ENDBRANCH  24  25
ENDBRANCH  23  24
ENDBRANCH   1  23
TORSDOF 17
ENDMDL
