MODEL 1
REMARK VINA RESULT:     -13.3      0.000      0.000
REMARK SMILES Cc1cc(C)n(C)c(=O)c1C(=O)N1CCC2(CC1)C[NH2+][C@@H](C(=O)NCCCCNC(=O)c1ccc(-c3c4nc(c(-c5c(F)cc(S(=O)(=O)[O-])cc5F)c5ccc([nH]5)c(-c5c(F)cc(S(=O)(=O)[O-])cc5F)c5nc(c(-c6c(F)cc(S(=O)(=O)[O-])cc6F)c6ccc3[nH]6)C=C5)C=C4)cc1)C2
REMARK SMILES IDX 27 1 26 2 25 3 24 4 22 5 23 6 21 8 11 9 12 10 13 11 14 12
REMARK SMILES IDX 18 13 15 14 17 15 16 16 19 17 98 18 20 19 10 22 1 23 2 24
REMARK SMILES IDX 3 25 4 26 8 27 5 28 6 29 9 30 7 31 28 32 29 33 30 34 31 36
REMARK SMILES IDX 32 37 33 38 97 39 34 40 96 41 35 42 36 43 37 44 90 45 38 46
REMARK SMILES IDX 95 47 89 48 91 49 39 50 94 51 88 52 87 53 40 55 74 56 53 57
REMARK SMILES IDX 73 58 54 59 57 60 72 61 92 62 55 63 56 64 71 66 93 67 58 68
REMARK SMILES IDX 41 69 42 70 51 71 43 72 44 73 50 74 52 75 45 76 46 77 47 78
REMARK SMILES IDX 48 79 49 80 75 81 76 82 85 83 77 84 78 85 84 86 86 87 79 88
REMARK SMILES IDX 80 89 81 90 82 91 83 92 59 93 60 94 69 95 61 96 62 97 68 98
REMARK SMILES IDX 70 99 63 100 64 101 65 102 66 103 67 104
REMARK H PARENT 24 7 20 20 20 21 29 35 91 54 57 65
REMARK Flexibility Score: inf
ROOT
ATOM      1  C   UNL A   1      40.418  21.992  27.295  1.00  0.00     0.023 C 
ENDROOT
BRANCH   1   2
ATOM      2  C   UNL A   1      39.749  21.245  26.145  1.00  0.00     0.023 C 
BRANCH   2   3
ATOM      3  C   UNL A   1      38.394  21.810  25.729  1.00  0.00     0.116 C 
BRANCH   3   4
ATOM      4  N   UNL A   1      37.500  20.779  25.237  1.00  0.00    -0.351 N 
ATOM      5  C   UNL A   1      36.137  20.734  25.236  1.00  0.00     0.278 C 
ATOM      6  O   UNL A   1      35.590  19.754  24.721  1.00  0.00    -0.268 OA
ATOM      7  H   UNL A   1      37.945  19.992  24.844  1.00  0.00     0.163 HD
BRANCH   5   8
ATOM      8  C   UNL A   1      35.291  21.843  25.875  1.00  0.00     0.273 C 
ATOM      9  C   UNL A   1      32.401  27.511  24.267  1.00  0.00     0.259 C 
ATOM     10  O   UNL A   1      32.796  28.503  24.891  1.00  0.00    -0.269 OA
ATOM     11  N   UNL A   1      33.171  26.355  24.227  1.00  0.00    -0.338 N 
ATOM     12  C   UNL A   1      34.244  26.228  25.202  1.00  0.00     0.120 C 
ATOM     13  C   UNL A   1      33.102  25.247  23.283  1.00  0.00     0.120 C 
ATOM     14  C   UNL A   1      33.916  25.049  26.103  1.00  0.00     0.034 C 
ATOM     15  C   UNL A   1      33.046  23.869  23.975  1.00  0.00     0.034 C 
ATOM     16  C   UNL A   1      33.825  23.721  25.322  1.00  0.00     0.029 C 
ATOM     17  C   UNL A   1      33.154  22.671  26.245  1.00  0.00     0.268 C 
ATOM     18  C   UNL A   1      35.240  23.140  25.075  1.00  0.00     0.088 C 
ATOM     19  N   UNL A   1      33.885  21.434  26.035  1.00  0.00    -0.336 N 
ATOM     20  H   UNL A   1      33.552  20.959  25.197  1.00  0.00     0.346 HD
ATOM     21  H   UNL A   1      33.762  20.781  26.809  1.00  0.00     0.346 HD
BRANCH   9  22
ATOM     22  C   UNL A   1      31.013  27.572  23.693  1.00  0.00     0.108 A 
ATOM     23  C   UNL A   1      29.989  25.872  25.311  1.00  0.00     0.045 C 
ATOM     24  C   UNL A   1      29.968  26.887  24.212  1.00  0.00    -0.031 A 
ATOM     25  C   UNL A   1      28.610  27.209  23.820  1.00  0.00     0.026 A 
ATOM     26  C   UNL A   1      28.316  28.330  23.149  1.00  0.00     0.018 A 
ATOM     27  C   UNL A   1      30.698  28.717  22.754  1.00  0.00     0.263 A 
ATOM     28  C   UNL A   1      26.869  28.691  22.950  1.00  0.00     0.064 C 
ATOM     29  N   UNL A   1      29.351  29.117  22.658  1.00  0.00    -0.315 N 
ATOM     30  O   UNL A   1      31.597  29.273  22.121  1.00  0.00    -0.268 OA
ATOM     31  C   UNL A   1      29.066  30.376  21.981  1.00  0.00     0.153 C 
ENDBRANCH   9  22
ENDBRANCH   5   8
ENDBRANCH   3   4
ENDBRANCH   2   3
ENDBRANCH   1   2
BRANCH   1  32
ATOM     32  C   UNL A   1      40.206  23.500  27.283  1.00  0.00     0.116 C 
BRANCH  32  33
ATOM     33  N   UNL A   1      40.908  24.160  26.194  1.00  0.00    -0.352 N 
ATOM     34  C   UNL A   1      41.235  25.492  26.065  1.00  0.00     0.251 C 
ATOM     35  H   UNL A   1      41.185  23.578  25.450  1.00  0.00     0.163 HD
ATOM     36  O   UNL A   1      41.699  25.917  25.022  1.00  0.00    -0.269 OA
BRANCH  34  37
ATOM     37  C   UNL A   1      40.985  26.398  27.207  1.00  0.00     0.039 A 
ATOM     38  C   UNL A   1      39.960  26.091  28.104  1.00  0.00     0.014 A 
ATOM     39  C   UNL A   1      41.788  27.525  27.406  1.00  0.00     0.014 A 
ATOM     40  C   UNL A   1      39.779  26.884  29.239  1.00  0.00     0.010 A 
ATOM     41  C   UNL A   1      41.651  28.272  28.571  1.00  0.00     0.010 A 
ATOM     42  C   UNL A   1      40.643  27.960  29.496  1.00  0.00    -0.014 A 
BRANCH  42  43
ATOM     43  C   UNL A   1      40.495  28.805  30.707  1.00  0.00     0.031 A 
ATOM     44  C   UNL A   1      39.486  29.922  30.707  1.00  0.00     0.074 A 
ATOM     45  C   UNL A   1      41.294  28.606  31.774  1.00  0.00     0.049 A 
ATOM     46  N   UNL A   1      39.287  30.855  31.599  1.00  0.00    -0.248 NA
ATOM     47  C   UNL A   1      38.594  30.008  29.537  1.00  0.00     0.031 C 
ATOM     48  C   UNL A   1      42.311  27.559  31.892  1.00  0.00     0.029 A 
ATOM     49  N   UNL A   1      41.378  29.284  32.965  1.00  0.00    -0.354 N 
ATOM     50  C   UNL A   1      38.251  31.636  31.102  1.00  0.00     0.074 A 
ATOM     51  C   UNL A   1      37.902  31.106  29.804  1.00  0.00     0.031 C 
ATOM     52  C   UNL A   1      42.898  27.649  33.097  1.00  0.00     0.029 A 
ATOM     53  C   UNL A   1      42.336  28.785  33.818  1.00  0.00     0.049 A 
ATOM     54  H   UNL A   1      40.808  30.054  33.188  1.00  0.00     0.167 HD
ATOM     55  C   UNL A   1      37.626  32.684  31.689  1.00  0.00     0.037 A 
ATOM     56  C   UNL A   1      42.721  29.209  35.039  1.00  0.00     0.037 A 
ATOM     57  C   UNL A   1      37.964  33.197  32.991  1.00  0.00     0.049 A 
ATOM     58  C   UNL A   1      42.051  30.419  35.638  1.00  0.00     0.074 A 
ATOM     59  C   UNL A   1      37.391  34.257  33.672  1.00  0.00     0.029 A 
ATOM     60  N   UNL A   1      38.951  32.678  33.815  1.00  0.00    -0.354 N 
ATOM     61  N   UNL A   1      41.077  31.151  35.151  1.00  0.00    -0.248 NA
ATOM     62  C   UNL A   1      42.537  30.864  36.952  1.00  0.00     0.031 C 
ATOM     63  C   UNL A   1      38.051  34.397  34.896  1.00  0.00     0.029 A 
ATOM     64  C   UNL A   1      39.006  33.398  34.996  1.00  0.00     0.049 A 
ATOM     65  H   UNL A   1      39.527  31.911  33.593  1.00  0.00     0.167 HD
ATOM     66  C   UNL A   1      40.813  32.120  36.114  1.00  0.00     0.074 A 
ATOM     67  C   UNL A   1      41.720  31.873  37.215  1.00  0.00     0.031 C 
ATOM     68  C   UNL A   1      39.904  33.125  36.088  1.00  0.00     0.037 A 
BRANCH  55  69
ATOM     69  C   UNL A   1      36.490  33.328  30.948  1.00  0.00     0.058 A 
ATOM     70  C   UNL A   1      35.161  33.163  31.371  1.00  0.00     0.135 A 
ATOM     71  C   UNL A   1      36.731  34.181  29.858  1.00  0.00     0.135 A 
ATOM     72  F   UNL A   1      34.875  32.339  32.392  1.00  0.00    -0.206 F 
ATOM     73  C   UNL A   1      34.112  33.820  30.741  1.00  0.00     0.059 A 
ATOM     74  C   UNL A   1      35.698  34.869  29.229  1.00  0.00     0.059 A 
ATOM     75  F   UNL A   1      37.983  34.367  29.409  1.00  0.00    -0.206 F 
ATOM     76  C   UNL A   1      34.391  34.680  29.677  1.00  0.00     0.060 A 
BRANCH  76  77
ATOM     77  S   UNL A   1      33.018  35.565  28.911  1.00  0.00     0.124 S 
ATOM     78  O   UNL A   1      32.382  34.504  28.134  1.00  0.00    -0.237 OA
ATOM     79  O   UNL A   1      32.269  36.038  30.070  1.00  0.00    -0.237 OA
ATOM     80  O   UNL A   1      33.677  36.605  28.125  1.00  0.00    -0.744 OA
ENDBRANCH  76  77
ENDBRANCH  55  69
BRANCH  56  81
ATOM     81  C   UNL A   1      43.781  28.488  35.794  1.00  0.00     0.058 A 
ATOM     82  C   UNL A   1      45.134  28.813  35.614  1.00  0.00     0.135 A 
ATOM     83  C   UNL A   1      43.474  27.441  36.677  1.00  0.00     0.135 A 
ATOM     84  F   UNL A   1      45.479  29.801  34.774  1.00  0.00    -0.206 F 
ATOM     85  C   UNL A   1      46.147  28.106  36.253  1.00  0.00     0.059 A 
ATOM     86  C   UNL A   1      44.469  26.736  37.350  1.00  0.00     0.059 A 
ATOM     87  F   UNL A   1      42.196  27.098  36.897  1.00  0.00    -0.206 F 
ATOM     88  C   UNL A   1      45.804  27.065  37.116  1.00  0.00     0.060 A 
BRANCH  88  89
ATOM     89  S   UNL A   1      47.127  26.158  37.943  1.00  0.00     0.124 S 
ATOM     90  O   UNL A   1      46.401  25.501  39.024  1.00  0.00    -0.237 OA
ATOM     91  O   UNL A   1      47.614  25.286  36.878  1.00  0.00    -0.237 OA
ATOM     92  O   UNL A   1      48.051  27.211  38.354  1.00  0.00    -0.744 OA
ENDBRANCH  88  89
ENDBRANCH  56  81
BRANCH  68  93
ATOM     93  C   UNL A   1      39.814  34.008  37.302  1.00  0.00     0.058 A 
ATOM     94  C   UNL A   1      40.495  35.233  37.374  1.00  0.00     0.135 A 
ATOM     95  C   UNL A   1      38.998  33.646  38.386  1.00  0.00     0.135 A 
ATOM     96  F   UNL A   1      41.292  35.623  36.365  1.00  0.00    -0.206 F 
ATOM     97  C   UNL A   1      40.392  36.056  38.489  1.00  0.00     0.059 A 
ATOM     98  C   UNL A   1      38.857  34.467  39.500  1.00  0.00     0.059 A 
ATOM     99  F   UNL A   1      38.315  32.490  38.361  1.00  0.00    -0.206 F 
ATOM    100  C   UNL A   1      39.569  35.665  39.548  1.00  0.00     0.060 A 
BRANCH 100 101
ATOM    101  S   UNL A   1      39.427  36.756  40.978  1.00  0.00     0.124 S 
ATOM    102  O   UNL A   1      38.715  37.896  40.410  1.00  0.00    -0.237 OA
ATOM    103  O   UNL A   1      38.667  35.939  41.919  1.00  0.00    -0.237 OA
ATOM    104  O   UNL A   1      40.815  37.007  41.354  1.00  0.00    -0.744 OA
ENDBRANCH 100 101
ENDBRANCH  68  93
ENDBRANCH  42  43
ENDBRANCH  34  37
ENDBRANCH  32  33
ENDBRANCH   1  32
TORSDOF 15
ENDMDL
MODEL 2
REMARK VINA RESULT:     -12.9      1.976      3.105
REMARK SMILES Cc1cc(C)n(C)c(=O)c1C(=O)N1CCC2(CC1)C[NH2+][C@@H](C(=O)NCCCCNC(=O)c1ccc(-c3c4nc(c(-c5c(F)cc(S(=O)(=O)[O-])cc5F)c5ccc([nH]5)c(-c5c(F)cc(S(=O)(=O)[O-])cc5F)c5nc(c(-c6c(F)cc(S(=O)(=O)[O-])cc6F)c6ccc3[nH]6)C=C5)C=C4)cc1)C2
REMARK SMILES IDX 27 1 26 2 25 3 24 4 22 5 23 6 21 8 11 9 12 10 13 11 14 12
REMARK SMILES IDX 18 13 15 14 17 15 16 16 19 17 98 18 20 19 10 22 1 23 2 24
REMARK SMILES IDX 3 25 4 26 8 27 5 28 6 29 9 30 7 31 28 32 29 33 30 34 31 36
REMARK SMILES IDX 32 37 33 38 97 39 34 40 96 41 35 42 36 43 37 44 90 45 38 46
REMARK SMILES IDX 95 47 89 48 91 49 39 50 94 51 88 52 87 53 40 55 74 56 53 57
REMARK SMILES IDX 73 58 54 59 57 60 72 61 92 62 55 63 56 64 71 66 93 67 58 68
REMARK SMILES IDX 41 69 42 70 51 71 43 72 44 73 50 74 52 75 45 76 46 77 47 78
REMARK SMILES IDX 48 79 49 80 75 81 76 82 85 83 77 84 78 85 84 86 86 87 79 88
REMARK SMILES IDX 80 89 81 90 82 91 83 92 59 93 60 94 69 95 61 96 62 97 68 98
REMARK SMILES IDX 70 99 63 100 64 101 65 102 66 103 67 104
REMARK H PARENT 24 7 20 20 20 21 29 35 91 54 57 65
REMARK Flexibility Score: inf
ROOT
ATOM      1  C   UNL A   1      44.656  24.088  27.636  1.00  0.00     0.023 C 
ENDROOT
BRANCH   1   2
ATOM      2  C   UNL A   1      43.634  23.055  27.173  1.00  0.00     0.023 C 
BRANCH   2   3
ATOM      3  C   UNL A   1      42.509  22.790  28.169  1.00  0.00     0.116 C 
BRANCH   3   4
ATOM      4  N   UNL A   1      41.873  21.505  27.946  1.00  0.00    -0.351 N 
ATOM      5  C   UNL A   1      40.765  21.196  27.212  1.00  0.00     0.278 C 
ATOM      6  O   UNL A   1      40.431  20.010  27.139  1.00  0.00    -0.268 OA
ATOM      7  H   UNL A   1      42.305  20.741  28.393  1.00  0.00     0.163 HD
BRANCH   5   8
ATOM      8  C   UNL A   1      39.931  22.278  26.514  1.00  0.00     0.273 C 
ATOM      9  C   UNL A   1      34.304  22.912  23.195  1.00  0.00     0.259 C 
ATOM     10  O   UNL A   1      34.416  23.328  22.036  1.00  0.00    -0.269 OA
ATOM     11  N   UNL A   1      35.402  22.376  23.858  1.00  0.00    -0.338 N 
ATOM     12  C   UNL A   1      36.720  22.640  23.298  1.00  0.00     0.120 C 
ATOM     13  C   UNL A   1      35.424  21.509  25.029  1.00  0.00     0.120 C 
ATOM     14  C   UNL A   1      37.495  23.471  24.307  1.00  0.00     0.034 C 
ATOM     15  C   UNL A   1      36.390  22.004  26.125  1.00  0.00     0.034 C 
ATOM     16  C   UNL A   1      37.688  22.734  25.649  1.00  0.00     0.029 C 
ATOM     17  C   UNL A   1      38.163  23.772  26.698  1.00  0.00     0.268 C 
ATOM     18  C   UNL A   1      38.873  21.740  25.556  1.00  0.00     0.088 C 
ATOM     19  N   UNL A   1      39.188  23.105  27.481  1.00  0.00    -0.336 N 
ATOM     20  H   UNL A   1      38.765  22.521  28.202  1.00  0.00     0.346 HD
ATOM     21  H   UNL A   1      39.795  23.768  27.962  1.00  0.00     0.346 HD
BRANCH   9  22
ATOM     22  C   UNL A   1      32.988  23.148  23.881  1.00  0.00     0.108 A 
ATOM     23  C   UNL A   1      32.222  20.705  23.821  1.00  0.00     0.045 C 
ATOM     24  C   UNL A   1      32.127  22.152  24.194  1.00  0.00    -0.031 A 
ATOM     25  C   UNL A   1      31.031  22.388  25.112  1.00  0.00     0.026 A 
ATOM     26  C   UNL A   1      30.970  23.489  25.871  1.00  0.00     0.018 A 
ATOM     27  C   UNL A   1      32.796  24.478  24.579  1.00  0.00     0.263 A 
ATOM     28  C   UNL A   1      29.911  23.571  26.936  1.00  0.00     0.064 C 
ATOM     29  N   UNL A   1      31.879  24.517  25.648  1.00  0.00    -0.315 N 
ATOM     30  O   UNL A   1      33.434  25.469  24.223  1.00  0.00    -0.268 OA
ATOM     31  C   UNL A   1      31.882  25.701  26.498  1.00  0.00     0.153 C 
ENDBRANCH   9  22
ENDBRANCH   5   8
ENDBRANCH   3   4
ENDBRANCH   2   3
ENDBRANCH   1   2
BRANCH   1  32
ATOM     32  C   UNL A   1      44.597  25.418  26.897  1.00  0.00     0.116 C 
BRANCH  32  33
ATOM     33  N   UNL A   1      43.577  25.442  25.860  1.00  0.00    -0.352 N 
ATOM     34  C   UNL A   1      42.316  25.994  25.907  1.00  0.00     0.251 C 
ATOM     35  H   UNL A   1      43.821  25.005  25.012  1.00  0.00     0.163 HD
ATOM     36  O   UNL A   1      41.523  25.804  25.002  1.00  0.00    -0.269 OA
BRANCH  34  37
ATOM     37  C   UNL A   1      41.936  26.796  27.091  1.00  0.00     0.039 A 
ATOM     38  C   UNL A   1      41.083  26.235  28.044  1.00  0.00     0.014 A 
ATOM     39  C   UNL A   1      42.453  28.082  27.270  1.00  0.00     0.014 A 
ATOM     40  C   UNL A   1      40.796  26.944  29.212  1.00  0.00     0.010 A 
ATOM     41  C   UNL A   1      42.222  28.757  28.463  1.00  0.00     0.010 A 
ATOM     42  C   UNL A   1      41.389  28.196  29.444  1.00  0.00    -0.014 A 
BRANCH  42  43
ATOM     43  C   UNL A   1      41.127  28.963  30.687  1.00  0.00     0.031 A 
ATOM     44  C   UNL A   1      40.025  29.987  30.701  1.00  0.00     0.074 A 
ATOM     45  C   UNL A   1      41.903  28.779  31.773  1.00  0.00     0.049 A 
ATOM     46  N   UNL A   1      39.715  30.854  31.629  1.00  0.00    -0.248 NA
ATOM     47  C   UNL A   1      39.168  30.056  29.504  1.00  0.00     0.031 C 
ATOM     48  C   UNL A   1      43.003  27.817  31.880  1.00  0.00     0.029 A 
ATOM     49  N   UNL A   1      41.888  29.399  32.997  1.00  0.00    -0.354 N 
ATOM     50  C   UNL A   1      38.632  31.567  31.130  1.00  0.00     0.074 A 
ATOM     51  C   UNL A   1      38.374  31.075  29.796  1.00  0.00     0.031 C 
ATOM     52  C   UNL A   1      43.539  27.895  33.109  1.00  0.00     0.029 A 
ATOM     53  C   UNL A   1      42.856  28.942  33.862  1.00  0.00     0.049 A 
ATOM     54  H   UNL A   1      41.244  30.106  33.235  1.00  0.00     0.167 HD
ATOM     55  C   UNL A   1      37.898  32.526  31.743  1.00  0.00     0.037 A 
ATOM     56  C   UNL A   1      43.160  29.334  35.115  1.00  0.00     0.037 A 
ATOM     57  C   UNL A   1      38.146  33.000  33.079  1.00  0.00     0.049 A 
ATOM     58  C   UNL A   1      42.368  30.451  35.745  1.00  0.00     0.074 A 
ATOM     59  C   UNL A   1      37.460  33.971  33.788  1.00  0.00     0.029 A 
ATOM     60  N   UNL A   1      39.145  32.525  33.915  1.00  0.00    -0.354 N 
ATOM     61  N   UNL A   1      41.350  31.120  35.257  1.00  0.00    -0.248 NA
ATOM     62  C   UNL A   1      42.768  30.868  37.096  1.00  0.00     0.031 C 
ATOM     63  C   UNL A   1      38.063  34.105  35.042  1.00  0.00     0.029 A 
ATOM     64  C   UNL A   1      39.098  33.187  35.130  1.00  0.00     0.049 A 
ATOM     65  H   UNL A   1      39.794  31.823  33.678  1.00  0.00     0.167 HD
ATOM     66  C   UNL A   1      40.970  32.013  36.254  1.00  0.00     0.074 A 
ATOM     67  C   UNL A   1      41.857  31.789  37.376  1.00  0.00     0.031 C 
ATOM     68  C   UNL A   1      39.978  32.937  36.242  1.00  0.00     0.037 A 
BRANCH  55  69
ATOM     69  C   UNL A   1      36.736  33.108  30.990  1.00  0.00     0.058 A 
ATOM     70  C   UNL A   1      35.413  32.813  31.357  1.00  0.00     0.135 A 
ATOM     71  C   UNL A   1      36.939  34.029  29.949  1.00  0.00     0.135 A 
ATOM     72  F   UNL A   1      35.165  31.921  32.330  1.00  0.00    -0.206 F 
ATOM     73  C   UNL A   1      34.332  33.409  30.719  1.00  0.00     0.059 A 
ATOM     74  C   UNL A   1      35.872  34.657  29.313  1.00  0.00     0.059 A 
ATOM     75  F   UNL A   1      38.184  34.339  29.554  1.00  0.00    -0.206 F 
ATOM     76  C   UNL A   1      34.572  34.339  29.706  1.00  0.00     0.060 A 
BRANCH  76  77
ATOM     77  S   UNL A   1      33.154  35.142  28.930  1.00  0.00     0.124 S 
ATOM     78  O   UNL A   1      33.772  36.329  28.347  1.00  0.00    -0.237 OA
ATOM     79  O   UNL A   1      32.707  34.129  27.981  1.00  0.00    -0.237 OA
ATOM     80  O   UNL A   1      32.249  35.393  30.049  1.00  0.00    -0.744 OA
ENDBRANCH  76  77
ENDBRANCH  55  69
BRANCH  56  81
ATOM     81  C   UNL A   1      44.253  28.669  35.875  1.00  0.00     0.058 A 
ATOM     82  C   UNL A   1      43.999  27.514  36.629  1.00  0.00     0.135 A 
ATOM     83  C   UNL A   1      45.558  29.188  35.896  1.00  0.00     0.135 A 
ATOM     84  F   UNL A   1      42.766  26.984  36.648  1.00  0.00    -0.206 F 
ATOM     85  C   UNL A   1      44.986  26.916  37.406  1.00  0.00     0.059 A 
ATOM     86  C   UNL A   1      46.570  28.591  36.643  1.00  0.00     0.059 A 
ATOM     87  F   UNL A   1      45.859  30.282  35.181  1.00  0.00    -0.206 F 
ATOM     88  C   UNL A   1      46.269  27.466  37.409  1.00  0.00     0.060 A 
BRANCH  88  89
ATOM     89  S   UNL A   1      47.543  26.678  38.416  1.00  0.00     0.124 S 
ATOM     90  O   UNL A   1      48.646  27.622  38.285  1.00  0.00    -0.237 OA
ATOM     91  O   UNL A   1      46.905  26.619  39.728  1.00  0.00    -0.237 OA
ATOM     92  O   UNL A   1      47.737  25.387  37.762  1.00  0.00    -0.744 OA
ENDBRANCH  88  89
ENDBRANCH  56  81
BRANCH  68  93
ATOM     93  C   UNL A   1      39.771  33.746  37.492  1.00  0.00     0.058 A 
ATOM     94  C   UNL A   1      40.404  34.984  37.682  1.00  0.00     0.135 A 
ATOM     95  C   UNL A   1      38.890  33.299  38.489  1.00  0.00     0.135 A 
ATOM     96  F   UNL A   1      41.259  35.454  36.759  1.00  0.00    -0.206 F 
ATOM     97  C   UNL A   1      40.192  35.738  38.830  1.00  0.00     0.059 A 
ATOM     98  C   UNL A   1      38.641  34.051  39.633  1.00  0.00     0.059 A 
ATOM     99  F   UNL A   1      38.248  32.128  38.350  1.00  0.00    -0.206 F 
ATOM    100  C   UNL A   1      39.307  35.264  39.800  1.00  0.00     0.060 A 
BRANCH 100 101
ATOM    101  S   UNL A   1      39.024  36.267  41.274  1.00  0.00     0.124 S 
ATOM    102  O   UNL A   1      37.797  35.678  41.800  1.00  0.00    -0.237 OA
ATOM    103  O   UNL A   1      40.232  36.020  42.054  1.00  0.00    -0.237 OA
ATOM    104  O   UNL A   1      38.893  37.621  40.743  1.00  0.00    -0.744 OA
ENDBRANCH 100 101
ENDBRANCH  68  93
ENDBRANCH  42  43
ENDBRANCH  34  37
ENDBRANCH  32  33
ENDBRANCH   1  32
TORSDOF 15
ENDMDL
MODEL 3
REMARK VINA RESULT:     -12.8      0.665      7.998
REMARK SMILES Cc1cc(C)n(C)c(=O)c1C(=O)N1CCC2(CC1)C[NH2+][C@@H](C(=O)NCCCCNC(=O)c1ccc(-c3c4nc(c(-c5c(F)cc(S(=O)(=O)[O-])cc5F)c5ccc([nH]5)c(-c5c(F)cc(S(=O)(=O)[O-])cc5F)c5nc(c(-c6c(F)cc(S(=O)(=O)[O-])cc6F)c6ccc3[nH]6)C=C5)C=C4)cc1)C2
REMARK SMILES IDX 27 1 26 2 25 3 24 4 22 5 23 6 21 8 11 9 12 10 13 11 14 12
REMARK SMILES IDX 18 13 15 14 17 15 16 16 19 17 98 18 20 19 10 22 1 23 2 24
REMARK SMILES IDX 3 25 4 26 8 27 5 28 6 29 9 30 7 31 28 32 29 33 30 34 31 36
REMARK SMILES IDX 32 37 33 38 97 39 34 40 96 41 35 42 36 43 37 44 90 45 38 46
REMARK SMILES IDX 95 47 89 48 91 49 39 50 94 51 88 52 87 53 40 55 74 56 53 57
REMARK SMILES IDX 73 58 54 59 57 60 72 61 92 62 55 63 56 64 71 66 93 67 58 68
REMARK SMILES IDX 41 69 42 70 51 71 43 72 44 73 50 74 52 75 45 76 46 77 47 78
REMARK SMILES IDX 48 79 49 80 75 81 76 82 85 83 77 84 78 85 84 86 86 87 79 88
REMARK SMILES IDX 80 89 81 90 82 91 83 92 59 93 60 94 69 95 61 96 62 97 68 98
REMARK SMILES IDX 70 99 63 100 64 101 65 102 66 103 67 104
REMARK H PARENT 24 7 20 20 20 21 29 35 91 54 57 65
REMARK Flexibility Score: inf
ROOT
ATOM      1  C   UNL A   1      40.685  21.723  27.181  1.00  0.00     0.023 C 
ENDROOT
BRANCH   1   2
ATOM      2  C   UNL A   1      39.907  20.882  26.173  1.00  0.00     0.023 C 
BRANCH   2   3
ATOM      3  C   UNL A   1      38.579  21.491  25.734  1.00  0.00     0.116 C 
BRANCH   3   4
ATOM      4  N   UNL A   1      37.688  20.502  25.158  1.00  0.00    -0.351 N 
ATOM      5  C   UNL A   1      36.325  20.475  25.115  1.00  0.00     0.278 C 
ATOM      6  O   UNL A   1      35.782  19.534  24.530  1.00  0.00    -0.268 OA
ATOM      7  H   UNL A   1      38.134  19.733  24.734  1.00  0.00     0.163 HD
BRANCH   5   8
ATOM      8  C   UNL A   1      35.473  21.556  25.793  1.00  0.00     0.273 C 
ATOM      9  C   UNL A   1      32.623  27.303  24.405  1.00  0.00     0.259 C 
ATOM     10  O   UNL A   1      33.012  28.264  25.079  1.00  0.00    -0.269 OA
ATOM     11  N   UNL A   1      33.390  26.147  24.323  1.00  0.00    -0.338 N 
ATOM     12  C   UNL A   1      34.449  25.971  25.306  1.00  0.00     0.120 C 
ATOM     13  C   UNL A   1      33.331  25.083  23.329  1.00  0.00     0.120 C 
ATOM     14  C   UNL A   1      34.105  24.754  26.148  1.00  0.00     0.034 C 
ATOM     15  C   UNL A   1      33.261  23.676  23.956  1.00  0.00     0.034 C 
ATOM     16  C   UNL A   1      34.021  23.464  25.306  1.00  0.00     0.029 C 
ATOM     17  C   UNL A   1      33.334  22.375  26.170  1.00  0.00     0.268 C 
ATOM     18  C   UNL A   1      35.437  22.889  25.052  1.00  0.00     0.088 C 
ATOM     19  N   UNL A   1      34.064  21.146  25.915  1.00  0.00    -0.336 N 
ATOM     20  H   UNL A   1      33.741  20.711  25.051  1.00  0.00     0.346 HD
ATOM     21  H   UNL A   1      33.928  20.459  26.656  1.00  0.00     0.346 HD
BRANCH   9  22
ATOM     22  C   UNL A   1      31.243  27.394  23.816  1.00  0.00     0.108 A 
ATOM     23  C   UNL A   1      30.153  25.752  25.450  1.00  0.00     0.045 C 
ATOM     24  C   UNL A   1      30.173  26.749  24.334  1.00  0.00    -0.031 A 
ATOM     25  C   UNL A   1      28.830  27.104  23.922  1.00  0.00     0.026 A 
ATOM     26  C   UNL A   1      28.575  28.222  23.231  1.00  0.00     0.018 A 
ATOM     27  C   UNL A   1      30.971  28.533  22.855  1.00  0.00     0.263 A 
ATOM     28  C   UNL A   1      27.141  28.621  23.010  1.00  0.00     0.064 C 
ATOM     29  N   UNL A   1      29.638  28.971  22.738  1.00  0.00    -0.315 N 
ATOM     30  O   UNL A   1      31.893  29.052  22.223  1.00  0.00    -0.268 OA
ATOM     31  C   UNL A   1      29.397  30.226  22.037  1.00  0.00     0.153 C 
ENDBRANCH   9  22
ENDBRANCH   5   8
ENDBRANCH   3   4
ENDBRANCH   2   3
ENDBRANCH   1   2
BRANCH   1  32
ATOM     32  C   UNL A   1      40.455  23.224  27.068  1.00  0.00     0.116 C 
BRANCH  32  33
ATOM     33  N   UNL A   1      41.241  23.838  26.009  1.00  0.00    -0.352 N 
ATOM     34  C   UNL A   1      41.760  25.112  25.952  1.00  0.00     0.251 C 
ATOM     35  H   UNL A   1      41.427  23.266  25.229  1.00  0.00     0.163 HD
ATOM     36  O   UNL A   1      42.277  25.525  24.929  1.00  0.00    -0.269 OA
BRANCH  34  37
ATOM     37  C   UNL A   1      41.651  25.977  27.148  1.00  0.00     0.039 A 
ATOM     38  C   UNL A   1      42.583  27.001  27.331  1.00  0.00     0.014 A 
ATOM     39  C   UNL A   1      40.608  25.796  28.060  1.00  0.00     0.014 A 
ATOM     40  C   UNL A   1      42.433  27.885  28.401  1.00  0.00     0.010 A 
ATOM     41  C   UNL A   1      40.420  26.717  29.084  1.00  0.00     0.010 A 
ATOM     42  C   UNL A   1      41.333  27.768  29.266  1.00  0.00    -0.014 A 
BRANCH  42  43
ATOM     43  C   UNL A   1      41.129  28.708  30.397  1.00  0.00     0.031 A 
ATOM     44  C   UNL A   1      42.028  28.618  31.600  1.00  0.00     0.074 A 
ATOM     45  C   UNL A   1      40.115  29.596  30.365  1.00  0.00     0.049 A 
ATOM     46  N   UNL A   1      41.942  29.245  32.743  1.00  0.00    -0.248 NA
ATOM     47  C   UNL A   1      43.164  27.684  31.509  1.00  0.00     0.031 C 
ATOM     48  C   UNL A   1      39.176  29.776  29.256  1.00  0.00     0.029 A 
ATOM     49  N   UNL A   1      39.703  30.512  31.299  1.00  0.00    -0.354 N 
ATOM     50  C   UNL A   1      43.010  28.785  33.505  1.00  0.00     0.074 A 
ATOM     51  C   UNL A   1      43.694  27.783  32.720  1.00  0.00     0.031 C 
ATOM     52  C   UNL A   1      38.314  30.760  29.564  1.00  0.00     0.029 A 
ATOM     53  C   UNL A   1      38.607  31.247  30.907  1.00  0.00     0.049 A 
ATOM     54  H   UNL A   1      40.148  30.634  32.168  1.00  0.00     0.167 HD
ATOM     55  C   UNL A   1      43.401  29.184  34.738  1.00  0.00     0.037 A 
ATOM     56  C   UNL A   1      37.915  32.198  31.566  1.00  0.00     0.037 A 
ATOM     57  C   UNL A   1      42.728  30.197  35.509  1.00  0.00     0.049 A 
ATOM     58  C   UNL A   1      38.336  32.574  32.963  1.00  0.00     0.074 A 
ATOM     59  C   UNL A   1      43.047  30.670  36.769  1.00  0.00     0.029 A 
ATOM     60  N   UNL A   1      41.613  30.904  35.085  1.00  0.00    -0.354 N 
ATOM     61  N   UNL A   1      39.344  32.124  33.672  1.00  0.00    -0.248 NA
ATOM     62  C   UNL A   1      37.521  33.586  33.652  1.00  0.00     0.031 C 
ATOM     63  C   UNL A   1      42.106  31.643  37.121  1.00  0.00     0.029 A 
ATOM     64  C   UNL A   1      41.228  31.806  36.062  1.00  0.00     0.049 A 
ATOM     65  H   UNL A   1      41.162  30.781  34.218  1.00  0.00     0.167 HD
ATOM     66  C   UNL A   1      39.302  32.822  34.875  1.00  0.00     0.074 A 
ATOM     67  C   UNL A   1      38.179  33.732  34.792  1.00  0.00     0.031 C 
ATOM     68  C   UNL A   1      40.118  32.717  35.953  1.00  0.00     0.037 A 
BRANCH  55  69
ATOM     69  C   UNL A   1      44.633  28.553  35.322  1.00  0.00     0.058 A 
ATOM     70  C   UNL A   1      45.901  29.125  35.131  1.00  0.00     0.135 A 
ATOM     71  C   UNL A   1      44.541  27.417  36.143  1.00  0.00     0.135 A 
ATOM     72  F   UNL A   1      46.046  30.196  34.336  1.00  0.00    -0.206 F 
ATOM     73  C   UNL A   1      47.035  28.594  35.734  1.00  0.00     0.059 A 
ATOM     74  C   UNL A   1      45.659  26.884  36.777  1.00  0.00     0.059 A 
ATOM     75  F   UNL A   1      43.352  26.827  36.350  1.00  0.00    -0.206 F 
ATOM     76  C   UNL A   1      46.902  27.480  36.565  1.00  0.00     0.060 A 
BRANCH  76  77
ATOM     77  S   UNL A   1      48.380  26.842  37.381  1.00  0.00     0.124 S 
ATOM     78  O   UNL A   1      49.131  28.069  37.628  1.00  0.00    -0.237 OA
ATOM     79  O   UNL A   1      47.824  26.190  38.561  1.00  0.00    -0.237 OA
ATOM     80  O   UNL A   1      48.959  25.944  36.385  1.00  0.00    -0.744 OA
ENDBRANCH  76  77
ENDBRANCH  55  69
BRANCH  56  81
ATOM     81  C   UNL A   1      36.759  32.880  30.921  1.00  0.00     0.058 A 
ATOM     82  C   UNL A   1      36.963  33.849  29.929  1.00  0.00     0.135 A 
ATOM     83  C   UNL A   1      35.436  32.608  31.306  1.00  0.00     0.135 A 
ATOM     84  F   UNL A   1      38.209  34.150  29.533  1.00  0.00    -0.206 F 
ATOM     85  C   UNL A   1      35.903  34.552  29.364  1.00  0.00     0.059 A 
ATOM     86  C   UNL A   1      34.357  33.277  30.735  1.00  0.00     0.059 A 
ATOM     87  F   UNL A   1      35.183  31.679  32.240  1.00  0.00    -0.206 F 
ATOM     88  C   UNL A   1      34.603  34.261  29.778  1.00  0.00     0.060 A 
BRANCH  88  89
ATOM     89  S   UNL A   1      33.236  35.175  29.034  1.00  0.00     0.124 S 
ATOM     90  O   UNL A   1      32.740  34.215  28.055  1.00  0.00    -0.237 OA
ATOM     91  O   UNL A   1      32.370  35.421  30.183  1.00  0.00    -0.237 OA
ATOM     92  O   UNL A   1      33.885  36.360  28.481  1.00  0.00    -0.744 OA
ENDBRANCH  88  89
ENDBRANCH  56  81
BRANCH  68  93
ATOM     93  C   UNL A   1      39.854  33.637  37.113  1.00  0.00     0.058 A 
ATOM     94  C   UNL A   1      40.490  34.883  37.224  1.00  0.00     0.135 A 
ATOM     95  C   UNL A   1      38.918  33.287  38.098  1.00  0.00     0.135 A 
ATOM     96  F   UNL A   1      41.397  35.263  36.309  1.00  0.00    -0.206 F 
ATOM     97  C   UNL A   1      40.227  35.739  38.287  1.00  0.00     0.059 A 
ATOM     98  C   UNL A   1      38.618  34.140  39.156  1.00  0.00     0.059 A 
ATOM     99  F   UNL A   1      38.272  32.111  38.031  1.00  0.00    -0.206 F 
ATOM    100  C   UNL A   1      39.287  35.359  39.248  1.00  0.00     0.060 A 
BRANCH 100 101
ATOM    101  S   UNL A   1      38.940  36.492  40.609  1.00  0.00     0.124 S 
ATOM    102  O   UNL A   1      40.242  36.577  41.262  1.00  0.00    -0.237 OA
ATOM    103  O   UNL A   1      38.502  37.695  39.908  1.00  0.00    -0.237 OA
ATOM    104  O   UNL A   1      37.901  35.803  41.369  1.00  0.00    -0.744 OA
ENDBRANCH 100 101
ENDBRANCH  68  93
ENDBRANCH  42  43
ENDBRANCH  34  37
ENDBRANCH  32  33
ENDBRANCH   1  32
TORSDOF 15
ENDMDL
