MODEL 1
REMARK VINA RESULT:     -10.4      0.000      0.000
REMARK SMILES CCC(CC)(CC(=O)NNC(=O)C1CC1)C(=O)NCCCCNC(=O)c1ccc(-c2c3nc(c(-c4c(F)cc(S(=O)(=O)[O-])cc4F)c4ccc([nH]4)c(-c4c(F)cc(S(=O)(=O)[O-])cc4F)c4nc(c(-c5c(F)cc(S(=O)(=O)[O-])cc5F)c5ccc2[nH]5)C=C4)C=C3)cc1
REMARK SMILES IDX 20 1 19 2 18 3 16 4 17 5 3 7 2 8 1 9 4 10 5 11 6 12 7 13
REMARK SMILES IDX 8 14 9 15 10 17 11 18 12 20 13 21 14 22 15 23 21 24 22 25
REMARK SMILES IDX 23 26 24 27 25 29 26 30 27 31 91 32 28 33 90 34 29 35 30 36
REMARK SMILES IDX 31 37 84 38 32 39 89 40 83 41 85 42 33 43 88 44 82 45 81 46
REMARK SMILES IDX 34 48 68 49 47 50 67 51 48 52 51 53 66 54 86 55 49 56 50 57
REMARK SMILES IDX 65 59 87 60 52 61 35 62 36 63 45 64 37 65 38 66 44 67 46 68
REMARK SMILES IDX 39 69 40 70 41 71 42 72 43 73 69 74 70 75 79 76 71 77 72 78
REMARK SMILES IDX 78 79 80 80 73 81 74 82 75 83 76 84 77 85 53 86 54 87 63 88
REMARK SMILES IDX 55 89 56 90 62 91 64 92 57 93 58 94 59 95 60 96 61 97
REMARK H PARENT 18 6 9 16 10 19 23 28 85 47 51 58
REMARK Flexibility Score: inf
ROOT
ATOM      1  C   UNL A   1      34.258  23.756  26.078  1.00  0.00     0.023 C 
ENDROOT
BRANCH   1   2
ATOM      2  C   UNL A   1      33.821  25.100  25.504  1.00  0.00     0.116 C 
BRANCH   2   3
ATOM      3  N   UNL A   1      32.751  25.713  26.269  1.00  0.00    -0.356 N 
ATOM      4  C   UNL A   1      31.554  26.260  25.930  1.00  0.00     0.226 C 
ATOM      5  O   UNL A   1      30.897  26.735  26.862  1.00  0.00    -0.274 OA
ATOM      6  H   UNL A   1      32.930  25.740  27.237  1.00  0.00     0.163 HD
BRANCH   4   7
ATOM      7  C   UNL A   1      31.024  26.304  24.474  1.00  0.00     0.057 C 
BRANCH   7   8
ATOM      8  C   UNL A   1      29.670  27.104  24.449  1.00  0.00     0.014 C 
ATOM      9  C   UNL A   1      28.445  26.380  23.894  1.00  0.00     0.005 C 
ENDBRANCH   7   8
BRANCH   7  10
ATOM     10  C   UNL A   1      30.776  24.854  23.953  1.00  0.00     0.014 C 
ATOM     11  C   UNL A   1      31.622  24.433  22.757  1.00  0.00     0.005 C 
ENDBRANCH   7  10
BRANCH   7  12
ATOM     12  C   UNL A   1      32.037  27.075  23.581  1.00  0.00     0.118 C 
BRANCH  12  13
ATOM     13  C   UNL A   1      32.386  28.478  24.065  1.00  0.00     0.239 C 
ATOM     14  O   UNL A   1      33.135  28.650  25.026  1.00  0.00    -0.273 OA
ATOM     15  N   UNL A   1      31.893  29.571  23.397  1.00  0.00    -0.268 N 
ATOM     16  H   UNL A   1      32.143  30.461  23.733  1.00  0.00     0.191 HD
BRANCH  15  17
ATOM     17  N   UNL A   1      31.066  29.513  22.282  1.00  0.00    -0.267 N 
ATOM     18  C   UNL A   1      29.744  29.892  22.275  1.00  0.00     0.241 C 
ATOM     19  H   UNL A   1      31.452  29.179  21.441  1.00  0.00     0.191 HD
ATOM     20  O   UNL A   1      29.035  29.667  21.296  1.00  0.00    -0.273 OA
BRANCH  18  21
ATOM     21  C   UNL A   1      29.212  30.618  23.458  1.00  0.00     0.080 C 
ATOM     22  C   UNL A   1      28.828  32.077  23.332  1.00  0.00     0.014 C 
ATOM     23  C   UNL A   1      27.765  31.039  23.531  1.00  0.00     0.014 C 
ENDBRANCH  18  21
ENDBRANCH  15  17
ENDBRANCH  12  13
ENDBRANCH   7  12
ENDBRANCH   4   7
ENDBRANCH   2   3
ENDBRANCH   1   2
BRANCH   1  24
ATOM     24  C   UNL A   1      35.345  23.030  25.286  1.00  0.00     0.023 C 
BRANCH  24  25
ATOM     25  C   UNL A   1      36.760  23.567  25.467  1.00  0.00     0.116 C 
BRANCH  25  26
ATOM     26  N   UNL A   1      37.715  22.547  25.875  1.00  0.00    -0.352 N 
ATOM     27  C   UNL A   1      38.945  22.697  26.470  1.00  0.00     0.251 C 
ATOM     28  H   UNL A   1      37.440  21.617  25.702  1.00  0.00     0.163 HD
ATOM     29  O   UNL A   1      39.666  21.720  26.641  1.00  0.00    -0.269 OA
BRANCH  27  30
ATOM     30  C   UNL A   1      39.409  24.045  26.864  1.00  0.00     0.039 A 
ATOM     31  C   UNL A   1      39.238  24.457  28.188  1.00  0.00     0.014 A 
ATOM     32  C   UNL A   1      40.032  24.888  25.939  1.00  0.00     0.014 A 
ATOM     33  C   UNL A   1      39.761  25.683  28.603  1.00  0.00     0.010 A 
ATOM     34  C   UNL A   1      40.612  26.078  26.370  1.00  0.00     0.010 A 
ATOM     35  C   UNL A   1      40.487  26.485  27.708  1.00  0.00    -0.014 A 
BRANCH  35  36
ATOM     36  C   UNL A   1      41.134  27.747  28.152  1.00  0.00     0.031 A 
ATOM     37  C   UNL A   1      42.630  27.889  28.091  1.00  0.00     0.074 A 
ATOM     38  C   UNL A   1      40.381  28.732  28.678  1.00  0.00     0.049 A 
ATOM     39  N   UNL A   1      43.383  28.874  28.507  1.00  0.00    -0.248 NA
ATOM     40  C   UNL A   1      43.382  26.763  27.512  1.00  0.00     0.031 C 
ATOM     41  C   UNL A   1      38.926  28.692  28.838  1.00  0.00     0.029 A 
ATOM     42  N   UNL A   1      40.736  29.955  29.190  1.00  0.00    -0.354 N 
ATOM     43  C   UNL A   1      44.693  28.480  28.262  1.00  0.00     0.074 A 
ATOM     44  C   UNL A   1      44.635  27.148  27.700  1.00  0.00     0.031 C 
ATOM     45  C   UNL A   1      38.512  29.846  29.390  1.00  0.00     0.029 A 
ATOM     46  C   UNL A   1      39.671  30.691  29.654  1.00  0.00     0.049 A 
ATOM     47  H   UNL A   1      41.666  30.276  29.221  1.00  0.00     0.167 HD
ATOM     48  C   UNL A   1      45.839  29.173  28.470  1.00  0.00     0.037 A 
ATOM     49  C   UNL A   1      39.634  31.908  30.230  1.00  0.00     0.037 A 
ATOM     50  C   UNL A   1      45.888  30.513  28.994  1.00  0.00     0.049 A 
ATOM     51  C   UNL A   1      40.918  32.666  30.432  1.00  0.00     0.074 A 
ATOM     52  C   UNL A   1      46.994  31.326  29.173  1.00  0.00     0.029 A 
ATOM     53  N   UNL A   1      44.785  31.236  29.423  1.00  0.00    -0.354 N 
ATOM     54  N   UNL A   1      42.142  32.303  30.134  1.00  0.00    -0.248 NA
ATOM     55  C   UNL A   1      40.816  33.998  31.044  1.00  0.00     0.031 C 
ATOM     56  C   UNL A   1      46.563  32.530  29.742  1.00  0.00     0.029 A 
ATOM     57  C   UNL A   1      45.185  32.480  29.881  1.00  0.00     0.049 A 
ATOM     58  H   UNL A   1      43.856  30.913  29.405  1.00  0.00     0.167 HD
ATOM     59  C   UNL A   1      42.954  33.373  30.497  1.00  0.00     0.074 A 
ATOM     60  C   UNL A   1      42.080  34.398  31.028  1.00  0.00     0.031 C 
ATOM     61  C   UNL A   1      44.301  33.494  30.397  1.00  0.00     0.037 A 
BRANCH  48  62
ATOM     62  C   UNL A   1      47.134  28.496  28.118  1.00  0.00     0.058 A 
ATOM     63  C   UNL A   1      47.779  27.630  29.014  1.00  0.00     0.135 A 
ATOM     64  C   UNL A   1      47.722  28.690  26.858  1.00  0.00     0.135 A 
ATOM     65  F   UNL A   1      47.268  27.421  30.239  1.00  0.00    -0.206 F 
ATOM     66  C   UNL A   1      48.976  27.002  28.687  1.00  0.00     0.059 A 
ATOM     67  C   UNL A   1      48.907  28.053  26.498  1.00  0.00     0.059 A 
ATOM     68  F   UNL A   1      47.148  29.508  25.963  1.00  0.00    -0.206 F 
ATOM     69  C   UNL A   1      49.534  27.222  27.426  1.00  0.00     0.060 A 
BRANCH  69  70
ATOM     70  S   UNL A   1      51.086  26.399  27.013  1.00  0.00     0.124 S 
ATOM     71  O   UNL A   1      51.175  26.653  25.577  1.00  0.00    -0.237 OA
ATOM     72  O   UNL A   1      52.051  27.113  27.843  1.00  0.00    -0.237 OA
ATOM     73  O   UNL A   1      50.846  25.010  27.389  1.00  0.00    -0.744 OA
ENDBRANCH  69  70
ENDBRANCH  48  62
BRANCH  49  74
ATOM     74  C   UNL A   1      38.331  32.500  30.634  1.00  0.00     0.058 A 
ATOM     75  C   UNL A   1      37.597  33.294  29.739  1.00  0.00     0.135 A 
ATOM     76  C   UNL A   1      37.790  32.279  31.909  1.00  0.00     0.135 A 
ATOM     77  F   UNL A   1      38.078  33.539  28.511  1.00  0.00    -0.206 F 
ATOM     78  C   UNL A   1      36.380  33.863  30.099  1.00  0.00     0.059 A 
ATOM     79  C   UNL A   1      36.563  32.820  32.285  1.00  0.00     0.059 A 
ATOM     80  F   UNL A   1      38.445  31.514  32.794  1.00  0.00    -0.206 F 
ATOM     81  C   UNL A   1      35.871  33.619  31.376  1.00  0.00     0.060 A 
BRANCH  81  82
ATOM     82  S   UNL A   1      34.269  34.325  31.819  1.00  0.00     0.124 S 
ATOM     83  O   UNL A   1      33.716  33.284  32.677  1.00  0.00    -0.237 OA
ATOM     84  O   UNL A   1      34.652  35.566  32.485  1.00  0.00    -0.237 OA
ATOM     85  O   UNL A   1      33.609  34.496  30.527  1.00  0.00    -0.744 OA
ENDBRANCH  81  82
ENDBRANCH  49  74
BRANCH  61  86
ATOM     86  C   UNL A   1      44.911  34.795  30.839  1.00  0.00     0.058 A 
ATOM     87  C   UNL A   1      45.390  34.976  32.145  1.00  0.00     0.135 A 
ATOM     88  C   UNL A   1      45.065  35.851  29.928  1.00  0.00     0.135 A 
ATOM     89  F   UNL A   1      45.259  33.998  33.055  1.00  0.00    -0.206 F 
ATOM     90  C   UNL A   1      45.985  36.171  32.539  1.00  0.00     0.059 A 
ATOM     91  C   UNL A   1      45.678  37.046  30.293  1.00  0.00     0.059 A 
ATOM     92  F   UNL A   1      44.631  35.724  28.664  1.00  0.00    -0.206 F 
ATOM     93  C   UNL A   1      46.125  37.199  31.605  1.00  0.00     0.060 A 
BRANCH  93  94
ATOM     94  S   UNL A   1      46.932  38.731  32.117  1.00  0.00     0.124 S 
ATOM     95  O   UNL A   1      47.317  38.416  33.488  1.00  0.00    -0.237 OA
ATOM     96  O   UNL A   1      48.028  38.844  31.160  1.00  0.00    -0.237 OA
ATOM     97  O   UNL A   1      45.880  39.733  31.975  1.00  0.00    -0.744 OA
ENDBRANCH  93  94
ENDBRANCH  61  86
ENDBRANCH  35  36
ENDBRANCH  27  30
ENDBRANCH  25  26
ENDBRANCH  24  25
ENDBRANCH   1  24
TORSDOF 20
ENDMDL
MODEL 2
REMARK VINA RESULT:     -10.4      3.553      8.820
REMARK SMILES CCC(CC)(CC(=O)NNC(=O)C1CC1)C(=O)NCCCCNC(=O)c1ccc(-c2c3nc(c(-c4c(F)cc(S(=O)(=O)[O-])cc4F)c4ccc([nH]4)c(-c4c(F)cc(S(=O)(=O)[O-])cc4F)c4nc(c(-c5c(F)cc(S(=O)(=O)[O-])cc5F)c5ccc2[nH]5)C=C4)C=C3)cc1
REMARK SMILES IDX 20 1 19 2 18 3 16 4 17 5 3 7 2 8 1 9 4 10 5 11 6 12 7 13
REMARK SMILES IDX 8 14 9 15 10 17 11 18 12 20 13 21 14 22 15 23 21 24 22 25
REMARK SMILES IDX 23 26 24 27 25 29 26 30 27 31 91 32 28 33 90 34 29 35 30 36
REMARK SMILES IDX 31 37 84 38 32 39 89 40 83 41 85 42 33 43 88 44 82 45 81 46
REMARK SMILES IDX 34 48 68 49 47 50 67 51 48 52 51 53 66 54 86 55 49 56 50 57
REMARK SMILES IDX 65 59 87 60 52 61 35 62 36 63 45 64 37 65 38 66 44 67 46 68
REMARK SMILES IDX 39 69 40 70 41 71 42 72 43 73 69 74 70 75 79 76 71 77 72 78
REMARK SMILES IDX 78 79 80 80 73 81 74 82 75 83 76 84 77 85 53 86 54 87 63 88
REMARK SMILES IDX 55 89 56 90 62 91 64 92 57 93 58 94 59 95 60 96 61 97
REMARK H PARENT 18 6 9 16 10 19 23 28 85 47 51 58
REMARK Flexibility Score: inf
ROOT
ATOM      1  C   UNL A   1      33.995  29.508  26.745  1.00  0.00     0.023 C 
ENDROOT
BRANCH   1   2
ATOM      2  C   UNL A   1      32.852  29.635  25.742  1.00  0.00     0.116 C 
BRANCH   2   3
ATOM      3  N   UNL A   1      33.302  29.527  24.367  1.00  0.00    -0.356 N 
ATOM      4  C   UNL A   1      33.218  28.546  23.430  1.00  0.00     0.226 C 
ATOM      5  O   UNL A   1      33.760  28.789  22.347  1.00  0.00    -0.274 OA
ATOM      6  H   UNL A   1      33.766  30.334  24.044  1.00  0.00     0.163 HD
BRANCH   4   7
ATOM      7  C   UNL A   1      32.502  27.194  23.680  1.00  0.00     0.057 C 
BRANCH   7   8
ATOM      8  C   UNL A   1      33.546  26.160  24.239  1.00  0.00     0.014 C 
ATOM      9  C   UNL A   1      33.823  26.191  25.740  1.00  0.00     0.005 C 
ENDBRANCH   7   8
BRANCH   7  10
ATOM     10  C   UNL A   1      31.903  26.652  22.345  1.00  0.00     0.014 C 
ATOM     11  C   UNL A   1      32.527  25.364  21.821  1.00  0.00     0.005 C 
ENDBRANCH   7  10
BRANCH   7  12
ATOM     12  C   UNL A   1      31.408  27.384  24.770  1.00  0.00     0.118 C 
BRANCH  12  13
ATOM     13  C   UNL A   1      30.118  26.607  24.531  1.00  0.00     0.239 C 
ATOM     14  O   UNL A   1      29.376  26.882  23.590  1.00  0.00    -0.273 OA
ATOM     15  N   UNL A   1      29.795  25.556  25.353  1.00  0.00    -0.268 N 
ATOM     16  H   UNL A   1      28.959  25.072  25.167  1.00  0.00     0.191 HD
BRANCH  15  17
ATOM     17  N   UNL A   1      30.563  25.124  26.428  1.00  0.00    -0.267 N 
ATOM     18  C   UNL A   1      31.048  23.846  26.572  1.00  0.00     0.241 C 
ATOM     19  H   UNL A   1      30.774  25.777  27.133  1.00  0.00     0.191 HD
ATOM     20  O   UNL A   1      31.585  23.496  27.622  1.00  0.00    -0.273 OA
BRANCH  18  21
ATOM     21  C   UNL A   1      30.946  22.918  25.415  1.00  0.00     0.080 C 
ATOM     22  C   UNL A   1      32.098  22.809  24.438  1.00  0.00     0.014 C 
ATOM     23  C   UNL A   1      31.778  21.660  25.347  1.00  0.00     0.014 C 
ENDBRANCH  18  21
ENDBRANCH  15  17
ENDBRANCH  12  13
ENDBRANCH   7  12
ENDBRANCH   4   7
ENDBRANCH   2   3
ENDBRANCH   1   2
BRANCH   1  24
ATOM     24  C   UNL A   1      34.228  30.734  27.629  1.00  0.00     0.023 C 
BRANCH  24  25
ATOM     25  C   UNL A   1      35.587  30.800  28.316  1.00  0.00     0.116 C 
BRANCH  25  26
ATOM     26  N   UNL A   1      35.535  30.450  29.728  1.00  0.00    -0.352 N 
ATOM     27  C   UNL A   1      36.540  29.991  30.546  1.00  0.00     0.251 C 
ATOM     28  H   UNL A   1      34.655  30.558  30.158  1.00  0.00     0.163 HD
ATOM     29  O   UNL A   1      36.283  29.638  31.692  1.00  0.00    -0.269 OA
BRANCH  27  30
ATOM     30  C   UNL A   1      37.920  29.889  30.025  1.00  0.00     0.039 A 
ATOM     31  C   UNL A   1      38.973  29.732  30.929  1.00  0.00     0.014 A 
ATOM     32  C   UNL A   1      38.171  29.920  28.650  1.00  0.00     0.014 A 
ATOM     33  C   UNL A   1      40.270  29.531  30.453  1.00  0.00     0.010 A 
ATOM     34  C   UNL A   1      39.453  29.652  28.176  1.00  0.00     0.010 A 
ATOM     35  C   UNL A   1      40.513  29.449  29.072  1.00  0.00    -0.014 A 
BRANCH  35  36
ATOM     36  C   UNL A   1      41.868  29.139  28.544  1.00  0.00     0.031 A 
ATOM     37  C   UNL A   1      42.202  27.743  28.095  1.00  0.00     0.074 A 
ATOM     38  C   UNL A   1      42.815  30.097  28.540  1.00  0.00     0.049 A 
ATOM     39  N   UNL A   1      43.345  27.260  27.685  1.00  0.00    -0.248 NA
ATOM     40  C   UNL A   1      41.114  26.753  28.141  1.00  0.00     0.031 C 
ATOM     41  C   UNL A   1      42.629  31.476  28.998  1.00  0.00     0.029 A 
ATOM     42  N   UNL A   1      44.131  30.055  28.149  1.00  0.00    -0.354 N 
ATOM     43  C   UNL A   1      43.122  25.909  27.445  1.00  0.00     0.074 A 
ATOM     44  C   UNL A   1      41.744  25.640  27.796  1.00  0.00     0.031 C 
ATOM     45  C   UNL A   1      43.780  32.151  28.843  1.00  0.00     0.029 A 
ATOM     46  C   UNL A   1      44.794  31.248  28.308  1.00  0.00     0.049 A 
ATOM     47  H   UNL A   1      44.559  29.245  27.789  1.00  0.00     0.167 HD
ATOM     48  C   UNL A   1      43.982  24.982  26.959  1.00  0.00     0.037 A 
ATOM     49  C   UNL A   1      46.076  31.577  28.056  1.00  0.00     0.037 A 
ATOM     50  C   UNL A   1      45.341  25.264  26.576  1.00  0.00     0.049 A 
ATOM     51  C   UNL A   1      47.006  30.535  27.499  1.00  0.00     0.074 A 
ATOM     52  C   UNL A   1      46.268  24.409  26.005  1.00  0.00     0.029 A 
ATOM     53  N   UNL A   1      45.967  26.493  26.723  1.00  0.00    -0.354 N 
ATOM     54  N   UNL A   1      46.759  29.278  27.217  1.00  0.00    -0.248 NA
ATOM     55  C   UNL A   1      48.386  30.955  27.220  1.00  0.00     0.031 C 
ATOM     56  C   UNL A   1      47.466  25.113  25.838  1.00  0.00     0.029 A 
ATOM     57  C   UNL A   1      47.272  26.416  26.268  1.00  0.00     0.049 A 
ATOM     58  H   UNL A   1      45.545  27.300  27.095  1.00  0.00     0.167 HD
ATOM     59  C   UNL A   1      47.945  28.764  26.703  1.00  0.00     0.074 A 
ATOM     60  C   UNL A   1      48.905  29.848  26.705  1.00  0.00     0.031 C 
ATOM     61  C   UNL A   1      48.212  27.508  26.268  1.00  0.00     0.037 A 
BRANCH  48  62
ATOM     62  C   UNL A   1      43.474  23.576  26.804  1.00  0.00     0.058 A 
ATOM     63  C   UNL A   1      43.280  22.737  27.912  1.00  0.00     0.135 A 
ATOM     64  C   UNL A   1      43.146  23.071  25.536  1.00  0.00     0.135 A 
ATOM     65  F   UNL A   1      43.593  23.164  29.147  1.00  0.00    -0.206 F 
ATOM     66  C   UNL A   1      42.807  21.437  27.768  1.00  0.00     0.059 A 
ATOM     67  C   UNL A   1      42.647  21.781  25.369  1.00  0.00     0.059 A 
ATOM     68  F   UNL A   1      43.312  23.830  24.442  1.00  0.00    -0.206 F 
ATOM     69  C   UNL A   1      42.496  20.967  26.491  1.00  0.00     0.060 A 
BRANCH  69  70
ATOM     70  S   UNL A   1      41.880  19.279  26.318  1.00  0.00     0.124 S 
ATOM     71  O   UNL A   1      42.609  18.825  25.137  1.00  0.00    -0.237 OA
ATOM     72  O   UNL A   1      42.279  18.668  27.582  1.00  0.00    -0.237 OA
ATOM     73  O   UNL A   1      40.443  19.458  26.138  1.00  0.00    -0.744 OA
ENDBRANCH  69  70
ENDBRANCH  48  62
BRANCH  49  74
ATOM     74  C   UNL A   1      46.550  32.965  28.303  1.00  0.00     0.058 A 
ATOM     75  C   UNL A   1      47.069  33.333  29.553  1.00  0.00     0.135 A 
ATOM     76  C   UNL A   1      46.503  33.944  27.300  1.00  0.00     0.135 A 
ATOM     77  F   UNL A   1      47.128  32.432  30.546  1.00  0.00    -0.206 F 
ATOM     78  C   UNL A   1      47.511  34.627  29.807  1.00  0.00     0.059 A 
ATOM     79  C   UNL A   1      46.959  35.240  27.523  1.00  0.00     0.059 A 
ATOM     80  F   UNL A   1      46.030  33.637  26.082  1.00  0.00    -0.206 F 
ATOM     81  C   UNL A   1      47.452  35.574  28.784  1.00  0.00     0.060 A 
BRANCH  81  82
ATOM     82  S   UNL A   1      48.069  37.240  29.109  1.00  0.00     0.124 S 
ATOM     83  O   UNL A   1      47.096  37.731  30.077  1.00  0.00    -0.237 OA
ATOM     84  O   UNL A   1      49.408  36.977  29.626  1.00  0.00    -0.237 OA
ATOM     85  O   UNL A   1      48.028  37.874  27.794  1.00  0.00    -0.744 OA
ENDBRANCH  81  82
ENDBRANCH  49  74
BRANCH  61  86
ATOM     86  C   UNL A   1      49.588  27.245  25.723  1.00  0.00     0.058 A 
ATOM     87  C   UNL A   1      50.633  26.799  26.547  1.00  0.00     0.135 A 
ATOM     88  C   UNL A   1      49.848  27.390  24.351  1.00  0.00     0.135 A 
ATOM     89  F   UNL A   1      50.436  26.652  27.867  1.00  0.00    -0.206 F 
ATOM     90  C   UNL A   1      51.896  26.525  26.031  1.00  0.00     0.059 A 
ATOM     91  C   UNL A   1      51.096  27.098  23.810  1.00  0.00     0.059 A 
ATOM     92  F   UNL A   1      48.879  27.804  23.519  1.00  0.00    -0.206 F 
ATOM     93  C   UNL A   1      52.117  26.677  24.662  1.00  0.00     0.060 A 
BRANCH  93  94
ATOM     94  S   UNL A   1      53.749  26.282  23.997  1.00  0.00     0.124 S 
ATOM     95  O   UNL A   1      53.441  26.025  22.595  1.00  0.00    -0.237 OA
ATOM     96  O   UNL A   1      54.503  27.502  24.268  1.00  0.00    -0.237 OA
ATOM     97  O   UNL A   1      54.158  25.116  24.774  1.00  0.00    -0.744 OA
ENDBRANCH  93  94
ENDBRANCH  61  86
ENDBRANCH  35  36
ENDBRANCH  27  30
ENDBRANCH  25  26
ENDBRANCH  24  25
ENDBRANCH   1  24
TORSDOF 20
ENDMDL
MODEL 3
REMARK VINA RESULT:     -10.2      4.693     10.220
REMARK SMILES CCC(CC)(CC(=O)NNC(=O)C1CC1)C(=O)NCCCCNC(=O)c1ccc(-c2c3nc(c(-c4c(F)cc(S(=O)(=O)[O-])cc4F)c4ccc([nH]4)c(-c4c(F)cc(S(=O)(=O)[O-])cc4F)c4nc(c(-c5c(F)cc(S(=O)(=O)[O-])cc5F)c5ccc2[nH]5)C=C4)C=C3)cc1
REMARK SMILES IDX 20 1 19 2 18 3 16 4 17 5 3 7 2 8 1 9 4 10 5 11 6 12 7 13
REMARK SMILES IDX 8 14 9 15 10 17 11 18 12 20 13 21 14 22 15 23 21 24 22 25
REMARK SMILES IDX 23 26 24 27 25 29 26 30 27 31 91 32 28 33 90 34 29 35 30 36
REMARK SMILES IDX 31 37 84 38 32 39 89 40 83 41 85 42 33 43 88 44 82 45 81 46
REMARK SMILES IDX 34 48 68 49 47 50 67 51 48 52 51 53 66 54 86 55 49 56 50 57
REMARK SMILES IDX 65 59 87 60 52 61 35 62 36 63 45 64 37 65 38 66 44 67 46 68
REMARK SMILES IDX 39 69 40 70 41 71 42 72 43 73 69 74 70 75 79 76 71 77 72 78
REMARK SMILES IDX 78 79 80 80 73 81 74 82 75 83 76 84 77 85 53 86 54 87 63 88
REMARK SMILES IDX 55 89 56 90 62 91 64 92 57 93 58 94 59 95 60 96 61 97
REMARK H PARENT 18 6 9 16 10 19 23 28 85 47 51 58
REMARK Flexibility Score: inf
ROOT
ATOM      1  C   UNL A   1      31.795  26.989  26.421  1.00  0.00     0.023 C 
ENDROOT
BRANCH   1   2
ATOM      2  C   UNL A   1      32.443  25.611  26.318  1.00  0.00     0.116 C 
BRANCH   2   3
ATOM      3  N   UNL A   1      33.171  25.427  25.076  1.00  0.00    -0.356 N 
ATOM      4  C   UNL A   1      33.328  24.373  24.233  1.00  0.00     0.226 C 
ATOM      5  O   UNL A   1      34.068  24.567  23.263  1.00  0.00    -0.274 OA
ATOM      6  H   UNL A   1      33.651  26.235  24.783  1.00  0.00     0.163 HD
BRANCH   4   7
ATOM      7  C   UNL A   1      32.641  23.001  24.453  1.00  0.00     0.057 C 
BRANCH   7   8
ATOM      8  C   UNL A   1      33.094  22.016  23.314  1.00  0.00     0.014 C 
ATOM      9  C   UNL A   1      32.047  21.038  22.783  1.00  0.00     0.005 C 
ENDBRANCH   7   8
BRANCH   7  10
ATOM     10  C   UNL A   1      31.090  23.167  24.405  1.00  0.00     0.014 C 
ATOM     11  C   UNL A   1      30.569  24.171  23.384  1.00  0.00     0.005 C 
ENDBRANCH   7  10
BRANCH   7  12
ATOM     12  C   UNL A   1      33.117  22.398  25.806  1.00  0.00     0.118 C 
BRANCH  12  13
ATOM     13  C   UNL A   1      34.414  21.599  25.735  1.00  0.00     0.239 C 
ATOM     14  O   UNL A   1      35.505  22.163  25.667  1.00  0.00    -0.273 OA
ATOM     15  N   UNL A   1      34.372  20.227  25.788  1.00  0.00    -0.268 N 
ATOM     16  H   UNL A   1      35.228  19.744  25.745  1.00  0.00     0.191 HD
BRANCH  15  17
ATOM     17  N   UNL A   1      33.210  19.473  25.896  1.00  0.00    -0.267 N 
ATOM     18  C   UNL A   1      32.982  18.297  25.220  1.00  0.00     0.241 C 
ATOM     19  H   UNL A   1      32.504  19.801  26.497  1.00  0.00     0.191 HD
ATOM     20  O   UNL A   1      31.872  17.767  25.245  1.00  0.00    -0.273 OA
BRANCH  18  21
ATOM     21  C   UNL A   1      34.119  17.665  24.500  1.00  0.00     0.080 C 
ATOM     22  C   UNL A   1      34.087  16.180  24.206  1.00  0.00     0.014 C 
ATOM     23  C   UNL A   1      33.968  17.167  23.083  1.00  0.00     0.014 C 
ENDBRANCH  18  21
ENDBRANCH  15  17
ENDBRANCH  12  13
ENDBRANCH   7  12
ENDBRANCH   4   7
ENDBRANCH   2   3
ENDBRANCH   1   2
BRANCH   1  24
ATOM     24  C   UNL A   1      32.632  28.146  25.875  1.00  0.00     0.023 C 
BRANCH  24  25
ATOM     25  C   UNL A   1      33.728  28.660  26.802  1.00  0.00     0.116 C 
BRANCH  25  26
ATOM     26  N   UNL A   1      33.715  30.106  26.961  1.00  0.00    -0.352 N 
ATOM     27  C   UNL A   1      34.611  30.915  27.619  1.00  0.00     0.251 C 
ATOM     28  H   UNL A   1      32.958  30.572  26.535  1.00  0.00     0.163 HD
ATOM     29  O   UNL A   1      34.376  32.113  27.745  1.00  0.00    -0.269 OA
BRANCH  27  30
ATOM     30  C   UNL A   1      35.835  30.328  28.206  1.00  0.00     0.039 A 
ATOM     31  C   UNL A   1      37.038  30.437  27.504  1.00  0.00     0.014 A 
ATOM     32  C   UNL A   1      35.801  29.698  29.453  1.00  0.00     0.014 A 
ATOM     33  C   UNL A   1      38.221  29.981  28.088  1.00  0.00     0.010 A 
ATOM     34  C   UNL A   1      36.990  29.306  30.061  1.00  0.00     0.010 A 
ATOM     35  C   UNL A   1      38.212  29.448  29.388  1.00  0.00    -0.014 A 
BRANCH  35  36
ATOM     36  C   UNL A   1      39.472  29.046  30.066  1.00  0.00     0.031 A 
ATOM     37  C   UNL A   1      39.934  29.779  31.295  1.00  0.00     0.074 A 
ATOM     38  C   UNL A   1      40.235  28.073  29.531  1.00  0.00     0.049 A 
ATOM     39  N   UNL A   1      41.041  29.631  31.977  1.00  0.00    -0.248 NA
ATOM     40  C   UNL A   1      39.049  30.836  31.811  1.00  0.00     0.031 C 
ATOM     41  C   UNL A   1      39.920  27.323  28.312  1.00  0.00     0.029 A 
ATOM     42  N   UNL A   1      41.440  27.555  29.934  1.00  0.00    -0.354 N 
ATOM     43  C   UNL A   1      40.996  30.588  32.984  1.00  0.00     0.074 A 
ATOM     44  C   UNL A   1      39.773  31.338  32.800  1.00  0.00     0.031 C 
ATOM     45  C   UNL A   1      40.896  26.430  28.080  1.00  0.00     0.029 A 
ATOM     46  C   UNL A   1      41.921  26.565  29.110  1.00  0.00     0.049 A 
ATOM     47  H   UNL A   1      41.916  27.864  30.739  1.00  0.00     0.167 HD
ATOM     48  C   UNL A   1      41.885  30.807  33.983  1.00  0.00     0.037 A 
ATOM     49  C   UNL A   1      43.061  25.849  29.175  1.00  0.00     0.037 A 
ATOM     50  C   UNL A   1      43.081  30.032  34.184  1.00  0.00     0.049 A 
ATOM     51  C   UNL A   1      44.022  26.099  30.304  1.00  0.00     0.074 A 
ATOM     52  C   UNL A   1      44.007  30.130  35.209  1.00  0.00     0.029 A 
ATOM     53  N   UNL A   1      43.518  29.017  33.346  1.00  0.00    -0.354 N 
ATOM     54  N   UNL A   1      43.931  26.964  31.286  1.00  0.00    -0.248 NA
ATOM     55  C   UNL A   1      45.237  25.274  30.339  1.00  0.00     0.031 C 
ATOM     56  C   UNL A   1      45.021  29.196  34.971  1.00  0.00     0.029 A 
ATOM     57  C   UNL A   1      44.707  28.490  33.820  1.00  0.00     0.049 A 
ATOM     58  H   UNL A   1      43.051  28.716  32.534  1.00  0.00     0.167 HD
ATOM     59  C   UNL A   1      45.063  26.769  32.070  1.00  0.00     0.074 A 
ATOM     60  C   UNL A   1      45.819  25.698  31.453  1.00  0.00     0.031 C 
ATOM     61  C   UNL A   1      45.441  27.417  33.199  1.00  0.00     0.037 A 
BRANCH  48  62
ATOM     62  C   UNL A   1      41.589  31.926  34.943  1.00  0.00     0.058 A 
ATOM     63  C   UNL A   1      40.765  31.737  36.063  1.00  0.00     0.135 A 
ATOM     64  C   UNL A   1      42.162  33.194  34.758  1.00  0.00     0.135 A 
ATOM     65  F   UNL A   1      40.179  30.548  36.279  1.00  0.00    -0.206 F 
ATOM     66  C   UNL A   1      40.495  32.773  36.951  1.00  0.00     0.059 A 
ATOM     67  C   UNL A   1      41.927  34.239  35.648  1.00  0.00     0.059 A 
ATOM     68  F   UNL A   1      42.958  33.430  33.703  1.00  0.00    -0.206 F 
ATOM     69  C   UNL A   1      41.079  34.022  36.733  1.00  0.00     0.060 A 
BRANCH  69  70
ATOM     70  S   UNL A   1      40.722  35.356  37.895  1.00  0.00     0.124 S 
ATOM     71  O   UNL A   1      41.177  36.524  37.144  1.00  0.00    -0.237 OA
ATOM     72  O   UNL A   1      39.278  35.241  38.072  1.00  0.00    -0.237 OA
ATOM     73  O   UNL A   1      41.524  35.013  39.065  1.00  0.00    -0.744 OA
ENDBRANCH  69  70
ENDBRANCH  48  62
BRANCH  49  74
ATOM     74  C   UNL A   1      43.343  24.807  28.153  1.00  0.00     0.058 A 
ATOM     75  C   UNL A   1      43.001  23.466  28.383  1.00  0.00     0.135 A 
ATOM     76  C   UNL A   1      43.949  25.127  26.929  1.00  0.00     0.135 A 
ATOM     77  F   UNL A   1      42.426  23.111  29.542  1.00  0.00    -0.206 F 
ATOM     78  C   UNL A   1      43.264  22.475  27.443  1.00  0.00     0.059 A 
ATOM     79  C   UNL A   1      44.202  24.157  25.963  1.00  0.00     0.059 A 
ATOM     80  F   UNL A   1      44.281  26.398  26.655  1.00  0.00    -0.206 F 
ATOM     81  C   UNL A   1      43.865  22.831  26.235  1.00  0.00     0.060 A 
BRANCH  81  82
ATOM     82  S   UNL A   1      44.161  21.545  25.002  1.00  0.00     0.124 S 
ATOM     83  O   UNL A   1      44.109  22.309  23.762  1.00  0.00    -0.237 OA
ATOM     84  O   UNL A   1      45.476  21.044  25.389  1.00  0.00    -0.237 OA
ATOM     85  O   UNL A   1      43.057  20.614  25.219  1.00  0.00    -0.744 OA
ENDBRANCH  81  82
ENDBRANCH  49  74
BRANCH  61  86
ATOM     86  C   UNL A   1      46.711  26.964  33.863  1.00  0.00     0.058 A 
ATOM     87  C   UNL A   1      47.955  27.522  33.530  1.00  0.00     0.135 A 
ATOM     88  C   UNL A   1      46.674  25.999  34.882  1.00  0.00     0.135 A 
ATOM     89  F   UNL A   1      48.043  28.443  32.558  1.00  0.00    -0.206 F 
ATOM     90  C   UNL A   1      49.123  27.123  34.172  1.00  0.00     0.059 A 
ATOM     91  C   UNL A   1      47.826  25.602  35.553  1.00  0.00     0.059 A 
ATOM     92  F   UNL A   1      45.507  25.442  35.243  1.00  0.00    -0.206 F 
ATOM     93  C   UNL A   1      49.048  26.162  35.182  1.00  0.00     0.060 A 
BRANCH  93  94
ATOM     94  S   UNL A   1      50.565  25.679  36.034  1.00  0.00     0.124 S 
ATOM     95  O   UNL A   1      51.338  26.916  35.982  1.00  0.00    -0.237 OA
ATOM     96  O   UNL A   1      50.076  25.292  37.353  1.00  0.00    -0.237 OA
ATOM     97  O   UNL A   1      51.078  24.583  35.217  1.00  0.00    -0.744 OA
ENDBRANCH  93  94
ENDBRANCH  61  86
ENDBRANCH  35  36
ENDBRANCH  27  30
ENDBRANCH  25  26
ENDBRANCH  24  25
ENDBRANCH   1  24
TORSDOF 20
ENDMDL
