MODEL 1
REMARK VINA RESULT:     -13.3      0.000      0.000
REMARK SMILES Cc1ccc(-c2cn3c(n2)sc2cc(C(=O)NCCCCNC(=O)c4ccc(-c5c6nc(c(-c7c(F)cc(S(=O)(=O)[O-])cc7F)c7ccc([nH]7)c(-c7c(F)cc(S(=O)(=O)[O-])cc7F)c7nc(c(-c8c(F)cc(S(=O)(=O)[O-])cc8F)c8ccc5[nH]8)C=C7)C=C6)cc4)ccc23)cc1
REMARK SMILES IDX 20 1 19 2 18 3 17 4 15 5 16 6 14 8 6 9 7 10 10 11 8 12 9 13
REMARK SMILES IDX 93 14 11 15 12 16 92 17 13 18 91 19 5 20 1 21 2 22 3 23
REMARK SMILES IDX 95 24 4 25 94 26 21 27 22 28 23 29 24 31 25 32 26 33 90 34
REMARK SMILES IDX 27 35 89 36 28 37 29 38 30 39 83 40 31 41 88 42 82 43 84 44
REMARK SMILES IDX 32 45 87 46 81 47 80 48 33 50 67 51 46 52 66 53 47 54 50 55
REMARK SMILES IDX 65 56 85 57 48 58 49 59 64 61 86 62 51 63 34 64 35 65 44 66
REMARK SMILES IDX 36 67 37 68 43 69 45 70 38 71 39 72 40 73 41 74 42 75 68 76
REMARK SMILES IDX 69 77 78 78 70 79 71 80 77 81 79 82 72 83 73 84 74 85 75 86
REMARK SMILES IDX 76 87 52 88 53 89 62 90 54 91 55 92 61 93 63 94 56 95 57 96
REMARK SMILES IDX 58 97 59 98 60 99
REMARK H PARENT 17 7 22 30 84 49 50 60
REMARK Flexibility Score: inf
ROOT
ATOM      1  C   UNL A   1      37.440  21.148  24.406  1.00  0.00     0.023 C 
ENDROOT
BRANCH   1   2
ATOM      2  C   UNL A   1      36.580  20.101  25.119  1.00  0.00     0.023 C 
BRANCH   2   3
ATOM      3  C   UNL A   1      35.058  20.302  25.003  1.00  0.00     0.116 C 
BRANCH   3   4
ATOM      4  N   UNL A   1      34.483  20.999  26.159  1.00  0.00    -0.352 N 
ATOM      5  C   UNL A   1      33.738  22.160  26.218  1.00  0.00     0.251 C 
ATOM      6  O   UNL A   1      33.188  22.503  27.260  1.00  0.00    -0.269 OA
ATOM      7  H   UNL A   1      34.656  20.572  27.029  1.00  0.00     0.163 HD
BRANCH   5   8
ATOM      8  C   UNL A   1      33.519  22.955  24.985  1.00  0.00     0.041 A 
ATOM      9  C   UNL A   1      32.004  28.101  24.417  1.00  0.00     0.090 A 
ATOM     10  C   UNL A   1      32.920  27.571  23.513  1.00  0.00     0.123 A 
ATOM     11  N   UNL A   1      30.790  27.436  24.353  1.00  0.00    -0.219 NA
ATOM     12  N   UNL A   1      32.369  26.346  23.264  1.00  0.00    -0.290 N 
ATOM     13  C   UNL A   1      31.032  26.415  23.562  1.00  0.00     0.195 A 
ATOM     14  C   UNL A   1      32.946  25.074  23.377  1.00  0.00     0.065 A 
ATOM     15  S   UNL A   1      30.280  24.835  23.540  1.00  0.00    -0.096 S 
ATOM     16  C   UNL A   1      31.942  24.135  23.659  1.00  0.00     0.056 A 
ATOM     17  C   UNL A   1      34.280  24.879  23.715  1.00  0.00     0.029 A 
ATOM     18  C   UNL A   1      32.247  23.017  24.408  1.00  0.00     0.035 A 
ATOM     19  C   UNL A   1      34.557  23.812  24.567  1.00  0.00     0.016 A 
BRANCH   9  20
ATOM     20  C   UNL A   1      32.487  28.844  25.568  1.00  0.00     0.002 A 
ATOM     21  C   UNL A   1      34.487  31.564  28.253  1.00  0.00     0.044 C 
ATOM     22  C   UNL A   1      33.788  30.601  27.338  1.00  0.00    -0.051 A 
ATOM     23  C   UNL A   1      32.503  30.891  26.865  1.00  0.00     0.004 A 
ATOM     24  C   UNL A   1      34.402  29.405  26.947  1.00  0.00     0.004 A 
ATOM     25  C   UNL A   1      31.859  30.023  25.977  1.00  0.00     0.010 A 
ATOM     26  C   UNL A   1      33.749  28.521  26.086  1.00  0.00     0.010 A 
ENDBRANCH   9  20
ENDBRANCH   5   8
ENDBRANCH   3   4
ENDBRANCH   2   3
ENDBRANCH   1   2
BRANCH   1  27
ATOM     27  C   UNL A   1      37.545  22.464  25.152  1.00  0.00     0.116 C 
BRANCH  27  28
ATOM     28  N   UNL A   1      38.158  22.401  26.471  1.00  0.00    -0.352 N 
ATOM     29  C   UNL A   1      39.503  22.757  26.574  1.00  0.00     0.251 C 
ATOM     30  H   UNL A   1      37.643  22.117  27.261  1.00  0.00     0.163 HD
ATOM     31  O   UNL A   1      40.447  22.030  26.293  1.00  0.00    -0.269 OA
BRANCH  29  32
ATOM     32  C   UNL A   1      39.681  24.214  26.755  1.00  0.00     0.039 A 
ATOM     33  C   UNL A   1      40.425  25.024  25.898  1.00  0.00     0.014 A 
ATOM     34  C   UNL A   1      39.209  24.703  27.972  1.00  0.00     0.014 A 
ATOM     35  C   UNL A   1      40.778  26.314  26.320  1.00  0.00     0.010 A 
ATOM     36  C   UNL A   1      39.668  25.907  28.434  1.00  0.00     0.010 A 
ATOM     37  C   UNL A   1      40.441  26.731  27.609  1.00  0.00    -0.014 A 
BRANCH  37  38
ATOM     38  C   UNL A   1      40.834  27.972  28.270  1.00  0.00     0.031 A 
ATOM     39  C   UNL A   1      39.826  29.058  28.450  1.00  0.00     0.074 A 
ATOM     40  C   UNL A   1      41.930  27.945  29.058  1.00  0.00     0.049 A 
ATOM     41  N   UNL A   1      40.030  30.154  29.097  1.00  0.00    -0.248 NA
ATOM     42  C   UNL A   1      38.467  28.972  27.914  1.00  0.00     0.031 C 
ATOM     43  C   UNL A   1      42.153  28.734  30.265  1.00  0.00     0.029 A 
ATOM     44  N   UNL A   1      43.154  27.323  28.822  1.00  0.00    -0.354 N 
ATOM     45  C   UNL A   1      38.815  30.767  29.307  1.00  0.00     0.074 A 
ATOM     46  C   UNL A   1      37.871  29.998  28.531  1.00  0.00     0.031 C 
ATOM     47  C   UNL A   1      43.462  28.745  30.546  1.00  0.00     0.029 A 
ATOM     48  C   UNL A   1      44.141  28.110  29.439  1.00  0.00     0.049 A 
ATOM     49  H   UNL A   1      43.300  26.490  28.317  1.00  0.00     0.167 HD
ATOM     50  C   UNL A   1      38.730  31.791  30.206  1.00  0.00     0.037 A 
ATOM     51  C   UNL A   1      45.123  28.736  28.726  1.00  0.00     0.037 A 
ATOM     52  C   UNL A   1      40.043  32.111  30.763  1.00  0.00     0.049 A 
ATOM     53  C   UNL A   1      45.098  30.235  28.903  1.00  0.00     0.074 A 
ATOM     54  C   UNL A   1      40.664  31.795  31.960  1.00  0.00     0.029 A 
ATOM     55  N   UNL A   1      41.038  32.612  29.925  1.00  0.00    -0.354 N 
ATOM     56  N   UNL A   1      44.016  30.920  29.169  1.00  0.00    -0.248 NA
ATOM     57  C   UNL A   1      46.300  31.061  28.914  1.00  0.00     0.031 C 
ATOM     58  C   UNL A   1      42.047  32.073  31.827  1.00  0.00     0.029 A 
ATOM     59  C   UNL A   1      42.267  32.576  30.554  1.00  0.00     0.049 A 
ATOM     60  H   UNL A   1      40.886  32.945  29.012  1.00  0.00     0.167 HD
ATOM     61  C   UNL A   1      44.359  32.214  29.470  1.00  0.00     0.074 A 
ATOM     62  C   UNL A   1      45.797  32.258  29.264  1.00  0.00     0.031 C 
ATOM     63  C   UNL A   1      43.458  33.133  29.931  1.00  0.00     0.037 A 
BRANCH  50  64
ATOM     64  C   UNL A   1      37.421  32.335  30.749  1.00  0.00     0.058 A 
ATOM     65  C   UNL A   1      36.848  33.521  30.237  1.00  0.00     0.135 A 
ATOM     66  C   UNL A   1      36.690  31.739  31.797  1.00  0.00     0.135 A 
ATOM     67  F   UNL A   1      37.383  34.166  29.192  1.00  0.00    -0.206 F 
ATOM     68  C   UNL A   1      35.705  34.116  30.781  1.00  0.00     0.059 A 
ATOM     69  C   UNL A   1      35.579  32.343  32.397  1.00  0.00     0.059 A 
ATOM     70  F   UNL A   1      37.003  30.518  32.252  1.00  0.00    -0.206 F 
ATOM     71  C   UNL A   1      35.093  33.538  31.884  1.00  0.00     0.060 A 
BRANCH  71  72
ATOM     72  S   UNL A   1      33.672  34.365  32.626  1.00  0.00     0.124 S 
ATOM     73  O   UNL A   1      32.961  33.256  33.254  1.00  0.00    -0.237 OA
ATOM     74  O   UNL A   1      34.311  35.307  33.537  1.00  0.00    -0.237 OA
ATOM     75  O   UNL A   1      32.992  34.963  31.480  1.00  0.00    -0.744 OA
ENDBRANCH  71  72
ENDBRANCH  50  64
BRANCH  51  76
ATOM     76  C   UNL A   1      45.556  27.954  27.536  1.00  0.00     0.058 A 
ATOM     77  C   UNL A   1      46.468  26.910  27.790  1.00  0.00     0.135 A 
ATOM     78  C   UNL A   1      44.703  27.817  26.430  1.00  0.00     0.135 A 
ATOM     79  F   UNL A   1      47.334  27.017  28.813  1.00  0.00    -0.206 F 
ATOM     80  C   UNL A   1      46.369  25.685  27.142  1.00  0.00     0.059 A 
ATOM     81  C   UNL A   1      44.603  26.600  25.749  1.00  0.00     0.059 A 
ATOM     82  F   UNL A   1      43.829  28.787  26.124  1.00  0.00    -0.206 F 
ATOM     83  C   UNL A   1      45.368  25.516  26.188  1.00  0.00     0.060 A 
BRANCH  83  84
ATOM     84  S   UNL A   1      44.928  23.826  25.710  1.00  0.00     0.124 S 
ATOM     85  O   UNL A   1      44.781  23.938  24.262  1.00  0.00    -0.237 OA
ATOM     86  O   UNL A   1      46.095  23.077  26.173  1.00  0.00    -0.237 OA
ATOM     87  O   UNL A   1      43.697  23.574  26.450  1.00  0.00    -0.744 OA
ENDBRANCH  83  84
ENDBRANCH  51  76
BRANCH  63  88
ATOM     88  C   UNL A   1      43.659  34.635  29.986  1.00  0.00     0.058 A 
ATOM     89  C   UNL A   1      43.385  35.499  28.912  1.00  0.00     0.135 A 
ATOM     90  C   UNL A   1      43.970  35.281  31.212  1.00  0.00     0.135 A 
ATOM     91  F   UNL A   1      42.965  35.035  27.727  1.00  0.00    -0.206 F 
ATOM     92  C   UNL A   1      43.473  36.888  29.023  1.00  0.00     0.059 A 
ATOM     93  C   UNL A   1      44.009  36.665  31.358  1.00  0.00     0.059 A 
ATOM     94  F   UNL A   1      44.220  34.589  32.334  1.00  0.00    -0.206 F 
ATOM     95  C   UNL A   1      43.778  37.464  30.251  1.00  0.00     0.060 A 
BRANCH  95  96
ATOM     96  S   UNL A   1      43.778  39.256  30.427  1.00  0.00     0.124 S 
ATOM     97  O   UNL A   1      45.149  39.585  30.048  1.00  0.00    -0.237 OA
ATOM     98  O   UNL A   1      42.746  39.674  29.483  1.00  0.00    -0.237 OA
ATOM     99  O   UNL A   1      43.444  39.451  31.833  1.00  0.00    -0.744 OA
ENDBRANCH  95  96
ENDBRANCH  63  88
ENDBRANCH  37  38
ENDBRANCH  29  32
ENDBRANCH  27  28
ENDBRANCH   1  27
TORSDOF 15
ENDMDL
MODEL 2
REMARK VINA RESULT:     -13.0      3.616      9.754
REMARK SMILES Cc1ccc(-c2cn3c(n2)sc2cc(C(=O)NCCCCNC(=O)c4ccc(-c5c6nc(c(-c7c(F)cc(S(=O)(=O)[O-])cc7F)c7ccc([nH]7)c(-c7c(F)cc(S(=O)(=O)[O-])cc7F)c7nc(c(-c8c(F)cc(S(=O)(=O)[O-])cc8F)c8ccc5[nH]8)C=C7)C=C6)cc4)ccc23)cc1
REMARK SMILES IDX 20 1 19 2 18 3 17 4 15 5 16 6 14 8 6 9 7 10 10 11 8 12 9 13
REMARK SMILES IDX 93 14 11 15 12 16 92 17 13 18 91 19 5 20 1 21 2 22 3 23
REMARK SMILES IDX 95 24 4 25 94 26 21 27 22 28 23 29 24 31 25 32 26 33 90 34
REMARK SMILES IDX 27 35 89 36 28 37 29 38 30 39 83 40 31 41 88 42 82 43 84 44
REMARK SMILES IDX 32 45 87 46 81 47 80 48 33 50 67 51 46 52 66 53 47 54 50 55
REMARK SMILES IDX 65 56 85 57 48 58 49 59 64 61 86 62 51 63 34 64 35 65 44 66
REMARK SMILES IDX 36 67 37 68 43 69 45 70 38 71 39 72 40 73 41 74 42 75 68 76
REMARK SMILES IDX 69 77 78 78 70 79 71 80 77 81 79 82 72 83 73 84 74 85 75 86
REMARK SMILES IDX 76 87 52 88 53 89 62 90 54 91 55 92 61 93 63 94 56 95 57 96
REMARK SMILES IDX 58 97 59 98 60 99
REMARK H PARENT 17 7 22 30 84 49 50 60
REMARK Flexibility Score: inf
ROOT
ATOM      1  C   UNL A   1      31.632  29.058  25.763  1.00  0.00     0.023 C 
ENDROOT
BRANCH   1   2
ATOM      2  C   UNL A   1      31.970  29.477  24.329  1.00  0.00     0.023 C 
BRANCH   2   3
ATOM      3  C   UNL A   1      31.438  28.547  23.224  1.00  0.00     0.116 C 
BRANCH   3   4
ATOM      4  N   UNL A   1      32.500  28.001  22.373  1.00  0.00    -0.352 N 
ATOM      5  C   UNL A   1      33.050  26.734  22.338  1.00  0.00     0.251 C 
ATOM      6  O   UNL A   1      33.813  26.404  21.435  1.00  0.00    -0.269 OA
ATOM      7  H   UNL A   1      32.881  28.637  21.725  1.00  0.00     0.163 HD
BRANCH   5   8
ATOM      8  C   UNL A   1      32.641  25.728  23.348  1.00  0.00     0.041 A 
ATOM      9  C   UNL A   1      35.487  21.733  25.591  1.00  0.00     0.090 A 
ATOM     10  C   UNL A   1      34.553  22.407  26.372  1.00  0.00     0.123 A 
ATOM     11  N   UNL A   1      34.882  21.089  24.523  1.00  0.00    -0.219 NA
ATOM     12  N   UNL A   1      33.503  22.505  25.503  1.00  0.00    -0.290 N 
ATOM     13  C   UNL A   1      33.642  21.520  24.559  1.00  0.00     0.195 A 
ATOM     14  C   UNL A   1      32.799  23.643  25.088  1.00  0.00     0.065 A 
ATOM     15  S   UNL A   1      32.505  21.719  23.244  1.00  0.00    -0.096 S 
ATOM     16  C   UNL A   1      32.288  23.425  23.799  1.00  0.00     0.056 A 
ATOM     17  C   UNL A   1      33.048  24.912  25.598  1.00  0.00     0.029 A 
ATOM     18  C   UNL A   1      32.132  24.492  22.939  1.00  0.00     0.035 A 
ATOM     19  C   UNL A   1      32.999  25.968  24.690  1.00  0.00     0.016 A 
BRANCH   9  20
ATOM     20  C   UNL A   1      36.881  22.141  25.636  1.00  0.00     0.002 A 
ATOM     21  C   UNL A   1      40.904  23.170  26.807  1.00  0.00     0.044 C 
ATOM     22  C   UNL A   1      39.505  22.827  26.379  1.00  0.00    -0.051 A 
ATOM     23  C   UNL A   1      39.215  21.545  25.898  1.00  0.00     0.004 A 
ATOM     24  C   UNL A   1      38.478  23.775  26.449  1.00  0.00     0.004 A 
ATOM     25  C   UNL A   1      37.909  21.200  25.538  1.00  0.00     0.010 A 
ATOM     26  C   UNL A   1      37.179  23.444  26.060  1.00  0.00     0.010 A 
ENDBRANCH   9  20
ENDBRANCH   5   8
ENDBRANCH   3   4
ENDBRANCH   2   3
ENDBRANCH   1   2
BRANCH   1  27
ATOM     27  C   UNL A   1      32.805  29.152  26.720  1.00  0.00     0.116 C 
BRANCH  27  28
ATOM     28  N   UNL A   1      33.859  30.083  26.345  1.00  0.00    -0.352 N 
ATOM     29  C   UNL A   1      34.430  30.853  27.359  1.00  0.00     0.251 C 
ATOM     30  H   UNL A   1      34.159  30.166  25.411  1.00  0.00     0.163 HD
ATOM     31  O   UNL A   1      33.940  31.871  27.829  1.00  0.00    -0.269 OA
BRANCH  29  32
ATOM     32  C   UNL A   1      35.537  30.147  28.039  1.00  0.00     0.039 A 
ATOM     33  C   UNL A   1      35.483  29.690  29.355  1.00  0.00     0.014 A 
ATOM     34  C   UNL A   1      36.736  30.140  27.328  1.00  0.00     0.014 A 
ATOM     35  C   UNL A   1      36.674  29.312  29.992  1.00  0.00     0.010 A 
ATOM     36  C   UNL A   1      37.908  29.900  27.992  1.00  0.00     0.010 A 
ATOM     37  C   UNL A   1      37.889  29.468  29.323  1.00  0.00    -0.014 A 
BRANCH  37  38
ATOM     38  C   UNL A   1      39.231  29.261  29.862  1.00  0.00     0.031 A 
ATOM     39  C   UNL A   1      39.978  28.017  29.510  1.00  0.00     0.074 A 
ATOM     40  C   UNL A   1      39.910  30.345  30.293  1.00  0.00     0.049 A 
ATOM     41  N   UNL A   1      41.197  27.769  29.848  1.00  0.00    -0.248 NA
ATOM     42  C   UNL A   1      39.392  26.943  28.708  1.00  0.00     0.031 C 
ATOM     43  C   UNL A   1      41.353  30.546  30.237  1.00  0.00     0.029 A 
ATOM     44  N   UNL A   1      39.441  31.421  31.044  1.00  0.00    -0.354 N 
ATOM     45  C   UNL A   1      41.641  26.694  29.112  1.00  0.00     0.074 A 
ATOM     46  C   UNL A   1      40.468  26.200  28.429  1.00  0.00     0.031 C 
ATOM     47  C   UNL A   1      41.694  31.520  31.089  1.00  0.00     0.029 A 
ATOM     48  C   UNL A   1      40.509  31.860  31.845  1.00  0.00     0.049 A 
ATOM     49  H   UNL A   1      38.532  31.801  31.020  1.00  0.00     0.167 HD
ATOM     50  C   UNL A   1      42.975  26.411  29.079  1.00  0.00     0.037 A 
ATOM     51  C   UNL A   1      40.467  31.802  33.208  1.00  0.00     0.037 A 
ATOM     52  C   UNL A   1      43.726  27.323  29.942  1.00  0.00     0.049 A 
ATOM     53  C   UNL A   1      41.572  30.948  33.782  1.00  0.00     0.074 A 
ATOM     54  C   UNL A   1      44.483  28.455  29.689  1.00  0.00     0.029 A 
ATOM     55  N   UNL A   1      43.511  27.294  31.319  1.00  0.00    -0.354 N 
ATOM     56  N   UNL A   1      42.117  29.940  33.152  1.00  0.00    -0.248 NA
ATOM     57  C   UNL A   1      42.227  31.234  35.054  1.00  0.00     0.031 C 
ATOM     58  C   UNL A   1      44.690  29.131  30.917  1.00  0.00     0.029 A 
ATOM     59  C   UNL A   1      44.075  28.400  31.922  1.00  0.00     0.049 A 
ATOM     60  H   UNL A   1      43.023  26.584  31.795  1.00  0.00     0.167 HD
ATOM     61  C   UNL A   1      43.216  29.508  33.851  1.00  0.00     0.074 A 
ATOM     62  C   UNL A   1      43.222  30.329  35.050  1.00  0.00     0.031 C 
ATOM     63  C   UNL A   1      44.077  28.561  33.369  1.00  0.00     0.037 A 
BRANCH  50  64
ATOM     64  C   UNL A   1      43.618  25.465  28.082  1.00  0.00     0.058 A 
ATOM     65  C   UNL A   1      43.724  25.799  26.713  1.00  0.00     0.135 A 
ATOM     66  C   UNL A   1      44.132  24.195  28.414  1.00  0.00     0.135 A 
ATOM     67  F   UNL A   1      43.348  26.999  26.251  1.00  0.00    -0.206 F 
ATOM     68  C   UNL A   1      44.207  24.914  25.744  1.00  0.00     0.059 A 
ATOM     69  C   UNL A   1      44.565  23.269  27.457  1.00  0.00     0.059 A 
ATOM     70  F   UNL A   1      44.274  23.818  29.692  1.00  0.00    -0.206 F 
ATOM     71  C   UNL A   1      44.597  23.636  26.119  1.00  0.00     0.060 A 
BRANCH  71  72
ATOM     72  S   UNL A   1      45.135  22.479  24.844  1.00  0.00     0.124 S 
ATOM     73  O   UNL A   1      43.917  21.721  24.579  1.00  0.00    -0.237 OA
ATOM     74  O   UNL A   1      45.568  23.378  23.781  1.00  0.00    -0.237 OA
ATOM     75  O   UNL A   1      46.200  21.724  25.499  1.00  0.00    -0.744 OA
ENDBRANCH  71  72
ENDBRANCH  50  64
BRANCH  51  76
ATOM     76  C   UNL A   1      39.102  32.033  33.752  1.00  0.00     0.058 A 
ATOM     77  C   UNL A   1      38.707  33.382  33.857  1.00  0.00     0.135 A 
ATOM     78  C   UNL A   1      38.094  31.074  33.568  1.00  0.00     0.135 A 
ATOM     79  F   UNL A   1      39.632  34.332  34.077  1.00  0.00    -0.206 F 
ATOM     80  C   UNL A   1      37.415  33.788  33.542  1.00  0.00     0.059 A 
ATOM     81  C   UNL A   1      36.784  31.459  33.271  1.00  0.00     0.059 A 
ATOM     82  F   UNL A   1      38.406  29.772  33.483  1.00  0.00    -0.206 F 
ATOM     83  C   UNL A   1      36.489  32.820  33.160  1.00  0.00     0.060 A 
BRANCH  83  84
ATOM     84  S   UNL A   1      34.995  33.370  32.298  1.00  0.00     0.124 S 
ATOM     85  O   UNL A   1      34.713  32.247  31.411  1.00  0.00    -0.237 OA
ATOM     86  O   UNL A   1      34.063  33.550  33.411  1.00  0.00    -0.237 OA
ATOM     87  O   UNL A   1      35.417  34.601  31.640  1.00  0.00    -0.744 OA
ENDBRANCH  83  84
ENDBRANCH  51  76
BRANCH  63  88
ATOM     88  C   UNL A   1      45.112  27.798  34.173  1.00  0.00     0.058 A 
ATOM     89  C   UNL A   1      46.321  28.357  34.619  1.00  0.00     0.135 A 
ATOM     90  C   UNL A   1      44.824  26.504  34.682  1.00  0.00     0.135 A 
ATOM     91  F   UNL A   1      46.668  29.615  34.314  1.00  0.00    -0.206 F 
ATOM     92  C   UNL A   1      47.206  27.668  35.451  1.00  0.00     0.059 A 
ATOM     93  C   UNL A   1      45.667  25.822  35.557  1.00  0.00     0.059 A 
ATOM     94  F   UNL A   1      43.691  25.856  34.374  1.00  0.00    -0.206 F 
ATOM     95  C   UNL A   1      46.869  26.405  35.922  1.00  0.00     0.060 A 
BRANCH  95  96
ATOM     96  S   UNL A   1      47.952  25.562  37.087  1.00  0.00     0.124 S 
ATOM     97  O   UNL A   1      47.115  24.442  37.505  1.00  0.00    -0.237 OA
ATOM     98  O   UNL A   1      49.105  25.212  36.262  1.00  0.00    -0.237 OA
ATOM     99  O   UNL A   1      48.205  26.579  38.101  1.00  0.00    -0.744 OA
ENDBRANCH  95  96
ENDBRANCH  63  88
ENDBRANCH  37  38
ENDBRANCH  29  32
ENDBRANCH  27  28
ENDBRANCH   1  27
TORSDOF 15
ENDMDL
MODEL 3
REMARK VINA RESULT:     -12.9      3.730     10.026
REMARK SMILES Cc1ccc(-c2cn3c(n2)sc2cc(C(=O)NCCCCNC(=O)c4ccc(-c5c6nc(c(-c7c(F)cc(S(=O)(=O)[O-])cc7F)c7ccc([nH]7)c(-c7c(F)cc(S(=O)(=O)[O-])cc7F)c7nc(c(-c8c(F)cc(S(=O)(=O)[O-])cc8F)c8ccc5[nH]8)C=C7)C=C6)cc4)ccc23)cc1
REMARK SMILES IDX 20 1 19 2 18 3 17 4 15 5 16 6 14 8 6 9 7 10 10 11 8 12 9 13
REMARK SMILES IDX 93 14 11 15 12 16 92 17 13 18 91 19 5 20 1 21 2 22 3 23
REMARK SMILES IDX 95 24 4 25 94 26 21 27 22 28 23 29 24 31 25 32 26 33 90 34
REMARK SMILES IDX 27 35 89 36 28 37 29 38 30 39 83 40 31 41 88 42 82 43 84 44
REMARK SMILES IDX 32 45 87 46 81 47 80 48 33 50 67 51 46 52 66 53 47 54 50 55
REMARK SMILES IDX 65 56 85 57 48 58 49 59 64 61 86 62 51 63 34 64 35 65 44 66
REMARK SMILES IDX 36 67 37 68 43 69 45 70 38 71 39 72 40 73 41 74 42 75 68 76
REMARK SMILES IDX 69 77 78 78 70 79 71 80 77 81 79 82 72 83 73 84 74 85 75 86
REMARK SMILES IDX 76 87 52 88 53 89 62 90 54 91 55 92 61 93 63 94 56 95 57 96
REMARK SMILES IDX 58 97 59 98 60 99
REMARK H PARENT 17 7 22 30 84 49 50 60
REMARK Flexibility Score: inf
ROOT
ATOM      1  C   UNL A   1      34.710  29.130  27.190  1.00  0.00     0.023 C 
ENDROOT
BRANCH   1   2
ATOM      2  C   UNL A   1      33.984  28.059  26.370  1.00  0.00     0.023 C 
BRANCH   2   3
ATOM      3  C   UNL A   1      33.740  28.409  24.891  1.00  0.00     0.116 C 
BRANCH   3   4
ATOM      4  N   UNL A   1      32.631  29.350  24.700  1.00  0.00    -0.352 N 
ATOM      5  C   UNL A   1      31.341  29.128  24.260  1.00  0.00     0.251 C 
ATOM      6  O   UNL A   1      30.492  30.011  24.330  1.00  0.00    -0.269 OA
ATOM      7  H   UNL A   1      32.840  30.287  24.921  1.00  0.00     0.163 HD
BRANCH   5   8
ATOM      8  C   UNL A   1      30.950  27.779  23.783  1.00  0.00     0.041 A 
ATOM      9  C   UNL A   1      33.906  23.293  23.308  1.00  0.00     0.090 A 
ATOM     10  C   UNL A   1      32.574  23.177  23.696  1.00  0.00     0.123 A 
ATOM     11  N   UNL A   1      34.016  23.844  22.041  1.00  0.00    -0.219 NA
ATOM     12  N   UNL A   1      31.972  24.057  22.843  1.00  0.00    -0.290 N 
ATOM     13  C   UNL A   1      32.790  24.219  21.754  1.00  0.00     0.195 A 
ATOM     14  C   UNL A   1      31.136  25.144  23.135  1.00  0.00     0.065 A 
ATOM     15  S   UNL A   1      32.250  25.528  20.726  1.00  0.00    -0.096 S 
ATOM     16  C   UNL A   1      31.265  26.110  22.126  1.00  0.00     0.056 A 
ATOM     17  C   UNL A   1      30.719  25.449  24.425  1.00  0.00     0.029 A 
ATOM     18  C   UNL A   1      31.094  27.444  22.434  1.00  0.00     0.035 A 
ATOM     19  C   UNL A   1      30.661  26.802  24.757  1.00  0.00     0.016 A 
BRANCH   9  20
ATOM     20  C   UNL A   1      34.944  23.326  24.324  1.00  0.00     0.002 A 
ATOM     21  C   UNL A   1      38.538  24.001  26.613  1.00  0.00     0.044 C 
ATOM     22  C   UNL A   1      37.282  23.745  25.829  1.00  0.00    -0.051 A 
ATOM     23  C   UNL A   1      36.162  24.564  26.013  1.00  0.00     0.004 A 
ATOM     24  C   UNL A   1      37.209  22.691  24.912  1.00  0.00     0.004 A 
ATOM     25  C   UNL A   1      35.003  24.363  25.258  1.00  0.00     0.010 A 
ATOM     26  C   UNL A   1      36.043  22.467  24.180  1.00  0.00     0.010 A 
ENDBRANCH   9  20
ENDBRANCH   5   8
ENDBRANCH   3   4
ENDBRANCH   2   3
ENDBRANCH   1   2
BRANCH   1  27
ATOM     27  C   UNL A   1      33.842  30.322  27.544  1.00  0.00     0.116 C 
BRANCH  27  28
ATOM     28  N   UNL A   1      34.396  31.630  27.228  1.00  0.00    -0.352 N 
ATOM     29  C   UNL A   1      34.586  32.522  28.284  1.00  0.00     0.251 C 
ATOM     30  H   UNL A   1      34.628  31.876  26.304  1.00  0.00     0.163 HD
ATOM     31  O   UNL A   1      33.710  33.210  28.790  1.00  0.00    -0.269 OA
BRANCH  29  32
ATOM     32  C   UNL A   1      35.892  32.325  28.951  1.00  0.00     0.039 A 
ATOM     33  C   UNL A   1      37.104  32.799  28.453  1.00  0.00     0.014 A 
ATOM     34  C   UNL A   1      35.856  31.448  30.034  1.00  0.00     0.014 A 
ATOM     35  C   UNL A   1      38.300  32.305  28.995  1.00  0.00     0.010 A 
ATOM     36  C   UNL A   1      37.018  30.870  30.467  1.00  0.00     0.010 A 
ATOM     37  C   UNL A   1      38.251  31.303  29.966  1.00  0.00    -0.014 A 
BRANCH  37  38
ATOM     38  C   UNL A   1      39.376  30.574  30.545  1.00  0.00     0.031 A 
ATOM     39  C   UNL A   1      39.791  29.271  29.948  1.00  0.00     0.074 A 
ATOM     40  C   UNL A   1      40.253  31.269  31.301  1.00  0.00     0.049 A 
ATOM     41  N   UNL A   1      40.821  28.587  30.313  1.00  0.00    -0.248 NA
ATOM     42  C   UNL A   1      39.064  28.638  28.846  1.00  0.00     0.031 C 
ATOM     43  C   UNL A   1      41.685  31.018  31.423  1.00  0.00     0.029 A 
ATOM     44  N   UNL A   1      39.990  32.242  32.262  1.00  0.00    -0.354 N 
ATOM     45  C   UNL A   1      41.058  27.618  29.364  1.00  0.00     0.074 A 
ATOM     46  C   UNL A   1      39.920  27.680  28.478  1.00  0.00     0.031 C 
ATOM     47  C   UNL A   1      42.143  31.623  32.526  1.00  0.00     0.029 A 
ATOM     48  C   UNL A   1      40.996  32.138  33.239  1.00  0.00     0.049 A 
ATOM     49  H   UNL A   1      39.241  32.882  32.259  1.00  0.00     0.167 HD
ATOM     50  C   UNL A   1      42.247  26.949  29.374  1.00  0.00     0.037 A 
ATOM     51  C   UNL A   1      40.721  31.795  34.531  1.00  0.00     0.037 A 
ATOM     52  C   UNL A   1      43.074  27.366  30.506  1.00  0.00     0.049 A 
ATOM     53  C   UNL A   1      41.435  30.534  34.957  1.00  0.00     0.074 A 
ATOM     54  C   UNL A   1      44.148  28.233  30.623  1.00  0.00     0.029 A 
ATOM     55  N   UNL A   1      42.641  27.101  31.804  1.00  0.00    -0.354 N 
ATOM     56  N   UNL A   1      41.770  29.573  34.135  1.00  0.00    -0.248 NA
ATOM     57  C   UNL A   1      41.931  30.312  36.310  1.00  0.00     0.031 C 
ATOM     58  C   UNL A   1      44.336  28.520  31.997  1.00  0.00     0.029 A 
ATOM     59  C   UNL A   1      43.389  27.813  32.721  1.00  0.00     0.049 A 
ATOM     60  H   UNL A   1      41.904  26.491  32.035  1.00  0.00     0.167 HD
ATOM     61  C   UNL A   1      42.576  28.676  34.789  1.00  0.00     0.074 A 
ATOM     62  C   UNL A   1      42.619  29.167  36.156  1.00  0.00     0.031 C 
ATOM     63  C   UNL A   1      43.203  27.640  34.154  1.00  0.00     0.037 A 
BRANCH  50  64
ATOM     64  C   UNL A   1      42.750  26.096  28.224  1.00  0.00     0.058 A 
ATOM     65  C   UNL A   1      42.252  24.793  28.002  1.00  0.00     0.135 A 
ATOM     66  C   UNL A   1      43.745  26.503  27.313  1.00  0.00     0.135 A 
ATOM     67  F   UNL A   1      41.252  24.288  28.737  1.00  0.00    -0.206 F 
ATOM     68  C   UNL A   1      42.764  23.933  27.025  1.00  0.00     0.059 A 
ATOM     69  C   UNL A   1      44.315  25.644  26.365  1.00  0.00     0.059 A 
ATOM     70  F   UNL A   1      44.175  27.772  27.278  1.00  0.00    -0.206 F 
ATOM     71  C   UNL A   1      43.820  24.355  26.230  1.00  0.00     0.060 A 
BRANCH  71  72
ATOM     72  S   UNL A   1      44.525  23.203  25.034  1.00  0.00     0.124 S 
ATOM     73  O   UNL A   1      45.129  22.192  25.896  1.00  0.00    -0.237 OA
ATOM     74  O   UNL A   1      43.346  22.780  24.287  1.00  0.00    -0.237 OA
ATOM     75  O   UNL A   1      45.476  24.026  24.290  1.00  0.00    -0.744 OA
ENDBRANCH  71  72
ENDBRANCH  50  64
BRANCH  51  76
ATOM     76  C   UNL A   1      39.406  32.312  34.996  1.00  0.00     0.058 A 
ATOM     77  C   UNL A   1      39.264  33.715  34.985  1.00  0.00     0.135 A 
ATOM     78  C   UNL A   1      38.244  31.541  34.839  1.00  0.00     0.135 A 
ATOM     79  F   UNL A   1      40.342  34.495  35.176  1.00  0.00    -0.206 F 
ATOM     80  C   UNL A   1      38.080  34.322  34.586  1.00  0.00     0.059 A 
ATOM     81  C   UNL A   1      37.037  32.133  34.458  1.00  0.00     0.059 A 
ATOM     82  F   UNL A   1      38.313  30.202  34.863  1.00  0.00    -0.206 F 
ATOM     83  C   UNL A   1      37.002  33.512  34.235  1.00  0.00     0.060 A 
BRANCH  83  84
ATOM     84  S   UNL A   1      35.662  34.254  33.271  1.00  0.00     0.124 S 
ATOM     85  O   UNL A   1      34.582  33.287  33.438  1.00  0.00    -0.237 OA
ATOM     86  O   UNL A   1      35.480  35.533  33.956  1.00  0.00    -0.237 OA
ATOM     87  O   UNL A   1      36.221  34.346  31.927  1.00  0.00    -0.744 OA
ENDBRANCH  83  84
ENDBRANCH  51  76
BRANCH  63  88
ATOM     88  C   UNL A   1      43.839  26.435  34.818  1.00  0.00     0.058 A 
ATOM     89  C   UNL A   1      43.126  25.286  35.199  1.00  0.00     0.135 A 
ATOM     90  C   UNL A   1      45.251  26.328  34.928  1.00  0.00     0.135 A 
ATOM     91  F   UNL A   1      41.798  25.199  35.040  1.00  0.00    -0.206 F 
ATOM     92  C   UNL A   1      43.751  24.146  35.708  1.00  0.00     0.059 A 
ATOM     93  C   UNL A   1      45.898  25.181  35.381  1.00  0.00     0.059 A 
ATOM     94  F   UNL A   1      46.068  27.330  34.569  1.00  0.00    -0.206 F 
ATOM     95  C   UNL A   1      45.138  24.098  35.789  1.00  0.00     0.060 A 
BRANCH  95  96
ATOM     96  S   UNL A   1      45.955  22.589  36.334  1.00  0.00     0.124 S 
ATOM     97  O   UNL A   1      45.699  22.623  37.770  1.00  0.00    -0.237 OA
ATOM     98  O   UNL A   1      45.244  21.551  35.592  1.00  0.00    -0.237 OA
ATOM     99  O   UNL A   1      47.341  22.797  35.929  1.00  0.00    -0.744 OA
ENDBRANCH  95  96
ENDBRANCH  63  88
ENDBRANCH  37  38
ENDBRANCH  29  32
ENDBRANCH  27  28
ENDBRANCH   1  27
TORSDOF 15
ENDMDL
