MODEL 1
REMARK VINA RESULT:     -10.2      0.000      0.000
REMARK SMILES Cc1oc2c(C)c3oc(=O)c(CC(=O)N[C@@H](CC(C)C)C(=O)NCCCCNC(=O)c4ccc(-c5c6nc(c(-c7c(F)cc(S(=O)(=O)[O-])cc7F)c7ccc([nH]7)c(-c7c(F)cc(S(=O)(=O)[O-])cc7F)c7nc(c(-c8c(F)cc(S(=O)(=O)[O-])cc8F)c8ccc5[nH]8)C=C7)C=C6)cc4)c(C)c3cc2c1C
REMARK SMILES IDX 25 1 24 2 23 3 21 4 22 5 16 7 15 8 13 9 14 10 12 12 11 13
REMARK SMILES IDX 1 14 2 15 3 16 102 17 4 18 101 19 103 20 5 21 100 22 6 23
REMARK SMILES IDX 7 24 99 25 8 26 97 27 9 28 98 29 10 30 17 31 18 32 19 33
REMARK SMILES IDX 20 34 26 35 27 36 28 37 29 38 30 40 31 41 32 42 96 43 33 44
REMARK SMILES IDX 95 45 34 46 35 47 36 48 89 49 37 50 94 51 88 52 90 53 38 54
REMARK SMILES IDX 93 55 87 56 86 57 39 59 73 60 52 61 72 62 53 63 56 64 71 65
REMARK SMILES IDX 91 66 54 67 55 68 70 70 92 71 57 72 40 73 41 74 50 75 42 76
REMARK SMILES IDX 43 77 49 78 51 79 44 80 45 81 46 82 47 83 48 84 74 85 75 86
REMARK SMILES IDX 84 87 76 88 77 89 83 90 85 91 78 92 79 93 80 94 81 95 82 96
REMARK SMILES IDX 58 97 59 98 68 99 60 100 61 101 67 102 69 103 62 104 63 105
REMARK SMILES IDX 64 106 65 107 66 108
REMARK H PARENT 23 6 15 11 28 39 90 58 56 69
REMARK Flexibility Score: inf
ROOT
ATOM      1  C   UNL A   1      41.824  27.179  35.242  1.00  0.00     0.023 C 
ENDROOT
BRANCH   1   2
ATOM      2  C   UNL A   1      41.818  28.663  35.594  1.00  0.00     0.116 C 
BRANCH   2   3
ATOM      3  N   UNL A   1      40.531  29.135  36.074  1.00  0.00    -0.354 N 
ATOM      4  C   UNL A   1      39.974  30.379  36.129  1.00  0.00     0.242 C 
ATOM      5  O   UNL A   1      38.747  30.424  36.271  1.00  0.00    -0.273 OA
ATOM      6  H   UNL A   1      39.950  28.423  36.425  1.00  0.00     0.163 HD
BRANCH   4   7
ATOM      7  C   UNL A   1      40.773  31.694  35.986  1.00  0.00     0.171 C 
BRANCH   7   8
ATOM      8  N   UNL A   1      40.103  32.601  35.052  1.00  0.00    -0.344 N 
ATOM      9  C   UNL A   1      39.836  32.388  33.731  1.00  0.00     0.225 C 
ATOM     10  O   UNL A   1      38.939  33.054  33.210  1.00  0.00    -0.275 OA
ATOM     11  H   UNL A   1      39.812  33.466  35.421  1.00  0.00     0.164 HD
BRANCH   9  12
ATOM     12  C   UNL A   1      40.676  31.410  32.915  1.00  0.00     0.143 C 
BRANCH  12  13
ATOM     13  C   UNL A   1      41.760  32.138  32.146  1.00  0.00     0.051 A 
ATOM     14  C   UNL A   1      46.160  36.213  26.210  1.00  0.00     0.088 C 
ATOM     15  C   UNL A   1      45.245  35.672  27.236  1.00  0.00     0.105 A 
ATOM     16  O   UNL A   1      45.808  35.397  28.447  1.00  0.00    -0.461 OA
ATOM     17  C   UNL A   1      43.905  35.332  27.233  1.00  0.00    -0.002 A 
ATOM     18  C   UNL A   1      44.850  34.808  29.220  1.00  0.00     0.141 A 
ATOM     19  C   UNL A   1      43.662  34.743  28.508  1.00  0.00     0.025 A 
ATOM     20  C   UNL A   1      42.911  35.460  26.140  1.00  0.00     0.049 C 
ATOM     21  C   UNL A   1      45.025  34.312  30.516  1.00  0.00     0.036 A 
ATOM     22  C   UNL A   1      42.548  34.131  29.101  1.00  0.00     0.024 A 
ATOM     23  C   UNL A   1      46.312  34.462  31.264  1.00  0.00     0.052 C 
ATOM     24  C   UNL A   1      43.901  33.620  31.022  1.00  0.00     0.145 A 
ATOM     25  C   UNL A   1      42.683  33.502  30.346  1.00  0.00     0.022 A 
ATOM     26  O   UNL A   1      44.058  32.989  32.274  1.00  0.00    -0.422 OA
ATOM     27  C   UNL A   1      41.583  32.719  30.940  1.00  0.00    -0.029 A 
ATOM     28  C   UNL A   1      43.078  32.188  32.833  1.00  0.00     0.340 A 
ATOM     29  C   UNL A   1      40.307  32.604  30.140  1.00  0.00     0.046 C 
ATOM     30  O   UNL A   1      43.294  31.556  33.861  1.00  0.00    -0.246 OA
ENDBRANCH  12  13
ENDBRANCH   9  12
ENDBRANCH   7   8
BRANCH   7  31
ATOM     31  C   UNL A   1      41.312  32.402  37.248  1.00  0.00     0.038 C 
BRANCH  31  32
ATOM     32  C   UNL A   1      42.760  32.921  37.252  1.00  0.00    -0.015 C 
ATOM     33  C   UNL A   1      42.830  34.409  37.613  1.00  0.00     0.007 C 
ATOM     34  C   UNL A   1      43.618  32.148  38.261  1.00  0.00     0.007 C 
ENDBRANCH  31  32
ENDBRANCH   7  31
ENDBRANCH   4   7
ENDBRANCH   2   3
ENDBRANCH   1   2
BRANCH   1  35
ATOM     35  C   UNL A   1      41.717  26.220  36.441  1.00  0.00     0.023 C 
BRANCH  35  36
ATOM     36  C   UNL A   1      41.641  24.719  36.111  1.00  0.00     0.116 C 
BRANCH  36  37
ATOM     37  N   UNL A   1      42.885  24.044  36.431  1.00  0.00    -0.352 N 
ATOM     38  C   UNL A   1      44.021  23.847  35.691  1.00  0.00     0.251 C 
ATOM     39  H   UNL A   1      42.919  23.661  37.337  1.00  0.00     0.163 HD
ATOM     40  O   UNL A   1      44.805  22.973  36.064  1.00  0.00    -0.269 OA
BRANCH  38  41
ATOM     41  C   UNL A   1      44.342  24.638  34.482  1.00  0.00     0.039 A 
ATOM     42  C   UNL A   1      43.992  24.091  33.240  1.00  0.00     0.014 A 
ATOM     43  C   UNL A   1      45.109  25.806  34.529  1.00  0.00     0.014 A 
ATOM     44  C   UNL A   1      44.376  24.724  32.057  1.00  0.00     0.010 A 
ATOM     45  C   UNL A   1      45.492  26.441  33.339  1.00  0.00     0.010 A 
ATOM     46  C   UNL A   1      45.119  25.912  32.095  1.00  0.00    -0.014 A 
BRANCH  46  47
ATOM     47  C   UNL A   1      45.353  26.610  30.810  1.00  0.00     0.031 A 
ATOM     48  C   UNL A   1      45.261  25.751  29.588  1.00  0.00     0.074 A 
ATOM     49  C   UNL A   1      45.124  27.934  30.663  1.00  0.00     0.049 A 
ATOM     50  N   UNL A   1      44.133  25.441  29.019  1.00  0.00    -0.248 NA
ATOM     51  C   UNL A   1      46.400  24.978  29.091  1.00  0.00     0.031 C 
ATOM     52  C   UNL A   1      43.982  28.628  31.270  1.00  0.00     0.029 A 
ATOM     53  N   UNL A   1      45.656  28.854  29.786  1.00  0.00    -0.354 N 
ATOM     54  C   UNL A   1      44.389  24.421  28.116  1.00  0.00     0.074 A 
ATOM     55  C   UNL A   1      45.810  24.167  28.197  1.00  0.00     0.031 C 
ATOM     56  C   UNL A   1      43.804  29.804  30.631  1.00  0.00     0.029 A 
ATOM     57  C   UNL A   1      44.893  30.016  29.677  1.00  0.00     0.049 A 
ATOM     58  H   UNL A   1      46.492  28.706  29.286  1.00  0.00     0.167 HD
ATOM     59  C   UNL A   1      43.415  23.849  27.358  1.00  0.00     0.037 A 
ATOM     60  C   UNL A   1      44.794  30.783  28.554  1.00  0.00     0.037 A 
ATOM     61  C   UNL A   1      42.113  24.424  27.514  1.00  0.00     0.049 A 
ATOM     62  C   UNL A   1      43.934  29.903  27.684  1.00  0.00     0.074 A 
ATOM     63  C   UNL A   1      40.980  24.183  28.258  1.00  0.00     0.029 A 
ATOM     64  N   UNL A   1      41.846  25.583  26.823  1.00  0.00    -0.354 N 
ATOM     65  N   UNL A   1      42.638  29.775  27.787  1.00  0.00    -0.248 NA
ATOM     66  C   UNL A   1      44.593  28.836  26.927  1.00  0.00     0.031 C 
ATOM     67  C   UNL A   1      40.296  25.437  28.324  1.00  0.00     0.029 A 
ATOM     68  C   UNL A   1      41.077  26.369  27.643  1.00  0.00     0.049 A 
ATOM     69  H   UNL A   1      42.148  25.806  25.914  1.00  0.00     0.167 HD
ATOM     70  C   UNL A   1      42.364  28.468  27.379  1.00  0.00     0.074 A 
ATOM     71  C   UNL A   1      43.602  27.960  26.823  1.00  0.00     0.031 C 
ATOM     72  C   UNL A   1      41.217  27.806  27.702  1.00  0.00     0.037 A 
BRANCH  59  73
ATOM     73  C   UNL A   1      43.621  22.836  26.301  1.00  0.00     0.058 A 
ATOM     74  C   UNL A   1      43.152  21.533  26.536  1.00  0.00     0.135 A 
ATOM     75  C   UNL A   1      44.473  23.042  25.209  1.00  0.00     0.135 A 
ATOM     76  F   UNL A   1      42.338  21.293  27.579  1.00  0.00    -0.206 F 
ATOM     77  C   UNL A   1      43.559  20.458  25.759  1.00  0.00     0.059 A 
ATOM     78  C   UNL A   1      44.888  21.979  24.406  1.00  0.00     0.059 A 
ATOM     79  F   UNL A   1      44.956  24.267  24.951  1.00  0.00    -0.206 F 
ATOM     80  C   UNL A   1      44.447  20.687  24.708  1.00  0.00     0.060 A 
BRANCH  80  81
ATOM     81  S   UNL A   1      45.048  19.255  23.787  1.00  0.00     0.124 S 
ATOM     82  O   UNL A   1      44.473  18.147  24.542  1.00  0.00    -0.237 OA
ATOM     83  O   UNL A   1      44.477  19.488  22.464  1.00  0.00    -0.237 OA
ATOM     84  O   UNL A   1      46.501  19.383  23.869  1.00  0.00    -0.744 OA
ENDBRANCH  80  81
ENDBRANCH  59  73
BRANCH  60  85
ATOM     85  C   UNL A   1      46.056  31.452  28.107  1.00  0.00     0.058 A 
ATOM     86  C   UNL A   1      46.076  32.011  26.810  1.00  0.00     0.135 A 
ATOM     87  C   UNL A   1      47.237  31.592  28.851  1.00  0.00     0.135 A 
ATOM     88  F   UNL A   1      45.048  31.804  25.970  1.00  0.00    -0.206 F 
ATOM     89  C   UNL A   1      47.123  32.805  26.351  1.00  0.00     0.059 A 
ATOM     90  C   UNL A   1      48.293  32.403  28.424  1.00  0.00     0.059 A 
ATOM     91  F   UNL A   1      47.396  30.968  30.026  1.00  0.00    -0.206 F 
ATOM     92  C   UNL A   1      48.205  33.040  27.190  1.00  0.00     0.060 A 
BRANCH  92  93
ATOM     93  S   UNL A   1      49.442  34.250  26.677  1.00  0.00     0.124 S 
ATOM     94  O   UNL A   1      49.085  34.477  25.277  1.00  0.00    -0.237 OA
ATOM     95  O   UNL A   1      49.163  35.360  27.588  1.00  0.00    -0.237 OA
ATOM     96  O   UNL A   1      50.704  33.565  26.902  1.00  0.00    -0.744 OA
ENDBRANCH  92  93
ENDBRANCH  60  85
BRANCH  72  97
ATOM     97  C   UNL A   1      40.163  28.614  28.379  1.00  0.00     0.058 A 
ATOM     98  C   UNL A   1      39.266  29.378  27.622  1.00  0.00     0.135 A 
ATOM     99  C   UNL A   1      39.980  28.569  29.771  1.00  0.00     0.135 A 
ATOM    100  F   UNL A   1      39.396  29.451  26.288  1.00  0.00    -0.206 F 
ATOM    101  C   UNL A   1      38.194  30.033  28.218  1.00  0.00     0.059 A 
ATOM    102  C   UNL A   1      38.902  29.199  30.386  1.00  0.00     0.059 A 
ATOM    103  F   UNL A   1      40.822  27.870  30.552  1.00  0.00    -0.206 F 
ATOM    104  C   UNL A   1      38.005  29.918  29.597  1.00  0.00     0.060 A 
BRANCH 104 105
ATOM    105  S   UNL A   1      36.523  30.642  30.325  1.00  0.00     0.124 S 
ATOM    106  O   UNL A   1      35.595  30.639  29.198  1.00  0.00    -0.237 OA
ATOM    107  O   UNL A   1      36.217  29.703  31.399  1.00  0.00    -0.237 OA
ATOM    108  O   UNL A   1      36.965  31.962  30.766  1.00  0.00    -0.744 OA
ENDBRANCH 104 105
ENDBRANCH  72  97
ENDBRANCH  46  47
ENDBRANCH  38  41
ENDBRANCH  36  37
ENDBRANCH  35  36
ENDBRANCH   1  35
TORSDOF 19
ENDMDL
MODEL 2
REMARK VINA RESULT:      -9.5      4.208      9.805
REMARK SMILES Cc1oc2c(C)c3oc(=O)c(CC(=O)N[C@@H](CC(C)C)C(=O)NCCCCNC(=O)c4ccc(-c5c6nc(c(-c7c(F)cc(S(=O)(=O)[O-])cc7F)c7ccc([nH]7)c(-c7c(F)cc(S(=O)(=O)[O-])cc7F)c7nc(c(-c8c(F)cc(S(=O)(=O)[O-])cc8F)c8ccc5[nH]8)C=C7)C=C6)cc4)c(C)c3cc2c1C
REMARK SMILES IDX 25 1 24 2 23 3 21 4 22 5 16 7 15 8 13 9 14 10 12 12 11 13
REMARK SMILES IDX 1 14 2 15 3 16 102 17 4 18 101 19 103 20 5 21 100 22 6 23
REMARK SMILES IDX 7 24 99 25 8 26 97 27 9 28 98 29 10 30 17 31 18 32 19 33
REMARK SMILES IDX 20 34 26 35 27 36 28 37 29 38 30 40 31 41 32 42 96 43 33 44
REMARK SMILES IDX 95 45 34 46 35 47 36 48 89 49 37 50 94 51 88 52 90 53 38 54
REMARK SMILES IDX 93 55 87 56 86 57 39 59 73 60 52 61 72 62 53 63 56 64 71 65
REMARK SMILES IDX 91 66 54 67 55 68 70 70 92 71 57 72 40 73 41 74 50 75 42 76
REMARK SMILES IDX 43 77 49 78 51 79 44 80 45 81 46 82 47 83 48 84 74 85 75 86
REMARK SMILES IDX 84 87 76 88 77 89 83 90 85 91 78 92 79 93 80 94 81 95 82 96
REMARK SMILES IDX 58 97 59 98 68 99 60 100 61 101 67 102 69 103 62 104 63 105
REMARK SMILES IDX 64 106 65 107 66 108
REMARK H PARENT 23 6 15 11 28 39 90 58 56 69
REMARK Flexibility Score: inf
ROOT
ATOM      1  C   UNL A   1      47.715  24.915  35.582  1.00  0.00     0.023 C 
ENDROOT
BRANCH   1   2
ATOM      2  C   UNL A   1      48.973  24.062  35.710  1.00  0.00     0.116 C 
BRANCH   2   3
ATOM      3  N   UNL A   1      49.627  23.806  34.439  1.00  0.00    -0.354 N 
ATOM      4  C   UNL A   1      50.142  22.669  33.887  1.00  0.00     0.242 C 
ATOM      5  O   UNL A   1      50.325  22.689  32.664  1.00  0.00    -0.273 OA
ATOM      6  H   UNL A   1      49.715  24.602  33.868  1.00  0.00     0.163 HD
BRANCH   4   7
ATOM      7  C   UNL A   1      50.459  21.384  34.684  1.00  0.00     0.171 C 
BRANCH   7   8
ATOM      8  N   UNL A   1      49.732  20.242  34.124  1.00  0.00    -0.344 N 
ATOM      9  C   UNL A   1      48.382  20.086  34.017  1.00  0.00     0.225 C 
ATOM     10  O   UNL A   1      47.958  19.281  33.185  1.00  0.00    -0.275 OA
ATOM     11  H   UNL A   1      50.285  19.501  33.786  1.00  0.00     0.164 HD
BRANCH   9  12
ATOM     12  C   UNL A   1      47.436  20.831  34.955  1.00  0.00     0.143 C 
BRANCH  12  13
ATOM     13  C   UNL A   1      47.055  19.966  36.140  1.00  0.00     0.051 A 
ATOM     14  C   UNL A   1      46.904  16.028  43.601  1.00  0.00     0.088 C 
ATOM     15  C   UNL A   1      46.925  16.908  42.415  1.00  0.00     0.105 A 
ATOM     16  O   UNL A   1      45.936  16.695  41.500  1.00  0.00    -0.461 OA
ATOM     17  C   UNL A   1      47.776  17.910  41.987  1.00  0.00    -0.002 A 
ATOM     18  C   UNL A   1      46.180  17.512  40.435  1.00  0.00     0.141 A 
ATOM     19  C   UNL A   1      47.309  18.275  40.691  1.00  0.00     0.025 A 
ATOM     20  C   UNL A   1      48.974  18.467  42.659  1.00  0.00     0.049 C 
ATOM     21  C   UNL A   1      45.440  17.566  39.249  1.00  0.00     0.036 A 
ATOM     22  C   UNL A   1      47.768  19.159  39.704  1.00  0.00     0.024 A 
ATOM     23  C   UNL A   1      44.192  16.765  39.047  1.00  0.00     0.052 C 
ATOM     24  C   UNL A   1      46.005  18.397  38.257  1.00  0.00     0.145 A 
ATOM     25  C   UNL A   1      47.152  19.176  38.445  1.00  0.00     0.022 A 
ATOM     26  O   UNL A   1      45.374  18.396  36.994  1.00  0.00    -0.422 OA
ATOM     27  C   UNL A   1      47.690  19.978  37.331  1.00  0.00    -0.029 A 
ATOM     28  C   UNL A   1      45.886  19.077  35.905  1.00  0.00     0.340 A 
ATOM     29  C   UNL A   1      48.950  20.768  37.594  1.00  0.00     0.046 C 
ATOM     30  O   UNL A   1      45.381  18.954  34.795  1.00  0.00    -0.246 OA
ENDBRANCH  12  13
ENDBRANCH   9  12
ENDBRANCH   7   8
BRANCH   7  31
ATOM     31  C   UNL A   1      51.920  21.057  35.058  1.00  0.00     0.038 C 
BRANCH  31  32
ATOM     32  C   UNL A   1      52.671  19.979  34.259  1.00  0.00    -0.015 C 
ATOM     33  C   UNL A   1      53.310  20.552  32.989  1.00  0.00     0.007 C 
ATOM     34  C   UNL A   1      53.784  19.344  35.103  1.00  0.00     0.007 C 
ENDBRANCH  31  32
ENDBRANCH   7  31
ENDBRANCH   4   7
ENDBRANCH   2   3
ENDBRANCH   1   2
BRANCH   1  35
ATOM     35  C   UNL A   1      46.689  24.745  36.716  1.00  0.00     0.023 C 
BRANCH  35  36
ATOM     36  C   UNL A   1      45.966  23.389  36.787  1.00  0.00     0.116 C 
BRANCH  36  37
ATOM     37  N   UNL A   1      44.532  23.561  36.925  1.00  0.00    -0.352 N 
ATOM     38  C   UNL A   1      43.643  24.327  36.218  1.00  0.00     0.251 C 
ATOM     39  H   UNL A   1      44.127  23.035  37.652  1.00  0.00     0.163 HD
ATOM     40  O   UNL A   1      42.545  24.550  36.728  1.00  0.00    -0.269 OA
BRANCH  38  41
ATOM     41  C   UNL A   1      43.944  24.883  34.880  1.00  0.00     0.039 A 
ATOM     42  C   UNL A   1      43.852  26.272  34.721  1.00  0.00     0.014 A 
ATOM     43  C   UNL A   1      44.154  24.073  33.759  1.00  0.00     0.014 A 
ATOM     44  C   UNL A   1      44.000  26.849  33.459  1.00  0.00     0.010 A 
ATOM     45  C   UNL A   1      44.304  24.656  32.492  1.00  0.00     0.010 A 
ATOM     46  C   UNL A   1      44.241  26.049  32.334  1.00  0.00    -0.014 A 
BRANCH  46  47
ATOM     47  C   UNL A   1      44.545  26.739  31.060  1.00  0.00     0.031 A 
ATOM     48  C   UNL A   1      44.555  25.866  29.845  1.00  0.00     0.074 A 
ATOM     49  C   UNL A   1      44.296  28.056  30.884  1.00  0.00     0.049 A 
ATOM     50  N   UNL A   1      43.475  25.525  29.205  1.00  0.00    -0.248 NA
ATOM     51  C   UNL A   1      45.741  25.115  29.433  1.00  0.00     0.031 C 
ATOM     52  C   UNL A   1      43.101  28.730  31.405  1.00  0.00     0.029 A 
ATOM     53  N   UNL A   1      44.865  28.980  30.034  1.00  0.00    -0.354 N 
ATOM     54  C   UNL A   1      43.813  24.503  28.332  1.00  0.00     0.074 A 
ATOM     55  C   UNL A   1      45.230  24.283  28.511  1.00  0.00     0.031 C 
ATOM     56  C   UNL A   1      42.940  29.895  30.743  1.00  0.00     0.029 A 
ATOM     57  C   UNL A   1      44.085  30.123  29.862  1.00  0.00     0.049 A 
ATOM     58  H   UNL A   1      45.736  28.847  29.593  1.00  0.00     0.167 HD
ATOM     59  C   UNL A   1      42.905  23.901  27.517  1.00  0.00     0.037 A 
ATOM     60  C   UNL A   1      44.045  30.877  28.726  1.00  0.00     0.037 A 
ATOM     61  C   UNL A   1      41.582  24.447  27.580  1.00  0.00     0.049 A 
ATOM     62  C   UNL A   1      43.265  29.969  27.811  1.00  0.00     0.074 A 
ATOM     63  C   UNL A   1      40.408  24.187  28.250  1.00  0.00     0.029 A 
ATOM     64  N   UNL A   1      41.337  25.594  26.860  1.00  0.00    -0.354 N 
ATOM     65  N   UNL A   1      41.968  29.811  27.828  1.00  0.00    -0.248 NA
ATOM     66  C   UNL A   1      43.997  28.910  27.111  1.00  0.00     0.031 C 
ATOM     67  C   UNL A   1      39.693  25.426  28.256  1.00  0.00     0.029 A 
ATOM     68  C   UNL A   1      40.497  26.369  27.618  1.00  0.00     0.049 A 
ATOM     69  H   UNL A   1      41.694  25.815  25.970  1.00  0.00     0.167 HD
ATOM     70  C   UNL A   1      41.752  28.495  27.418  1.00  0.00     0.074 A 
ATOM     71  C   UNL A   1      43.035  28.010  26.951  1.00  0.00     0.031 C 
ATOM     72  C   UNL A   1      40.600  27.810  27.671  1.00  0.00     0.037 A 
BRANCH  59  73
ATOM     73  C   UNL A   1      43.204  22.883  26.488  1.00  0.00     0.058 A 
ATOM     74  C   UNL A   1      42.835  21.553  26.749  1.00  0.00     0.135 A 
ATOM     75  C   UNL A   1      44.051  23.130  25.402  1.00  0.00     0.135 A 
ATOM     76  F   UNL A   1      42.029  21.274  27.788  1.00  0.00    -0.206 F 
ATOM     77  C   UNL A   1      43.335  20.496  26.003  1.00  0.00     0.059 A 
ATOM     78  C   UNL A   1      44.559  22.084  24.629  1.00  0.00     0.059 A 
ATOM     79  F   UNL A   1      44.441  24.383  25.119  1.00  0.00    -0.206 F 
ATOM     80  C   UNL A   1      44.217  20.769  24.958  1.00  0.00     0.060 A 
BRANCH  80  81
ATOM     81  S   UNL A   1      44.941  19.368  24.078  1.00  0.00     0.124 S 
ATOM     82  O   UNL A   1      44.400  19.543  22.734  1.00  0.00    -0.237 OA
ATOM     83  O   UNL A   1      46.369  19.625  24.228  1.00  0.00    -0.237 OA
ATOM     84  O   UNL A   1      44.437  18.209  24.811  1.00  0.00    -0.744 OA
ENDBRANCH  80  81
ENDBRANCH  59  73
BRANCH  60  85
ATOM     85  C   UNL A   1      45.319  31.570  28.357  1.00  0.00     0.058 A 
ATOM     86  C   UNL A   1      46.183  31.953  29.407  1.00  0.00     0.135 A 
ATOM     87  C   UNL A   1      45.758  31.879  27.061  1.00  0.00     0.135 A 
ATOM     88  F   UNL A   1      45.787  31.831  30.686  1.00  0.00    -0.206 F 
ATOM     89  C   UNL A   1      47.466  32.444  29.183  1.00  0.00     0.059 A 
ATOM     90  C   UNL A   1      47.049  32.349  26.806  1.00  0.00     0.059 A 
ATOM     91  F   UNL A   1      44.959  31.712  25.999  1.00  0.00    -0.206 F 
ATOM     92  C   UNL A   1      47.910  32.586  27.874  1.00  0.00     0.060 A 
BRANCH  92  93
ATOM     93  S   UNL A   1      49.645  33.001  27.596  1.00  0.00     0.124 S 
ATOM     94  O   UNL A   1      49.806  32.702  26.174  1.00  0.00    -0.237 OA
ATOM     95  O   UNL A   1      49.667  34.420  27.950  1.00  0.00    -0.237 OA
ATOM     96  O   UNL A   1      50.357  32.122  28.509  1.00  0.00    -0.744 OA
ENDBRANCH  92  93
ENDBRANCH  60  85
BRANCH  72  97
ATOM     97  C   UNL A   1      39.486  28.600  28.266  1.00  0.00     0.058 A 
ATOM     98  C   UNL A   1      39.254  28.562  29.646  1.00  0.00     0.135 A 
ATOM     99  C   UNL A   1      38.698  29.464  27.487  1.00  0.00     0.135 A 
ATOM    100  F   UNL A   1      39.982  27.754  30.434  1.00  0.00    -0.206 F 
ATOM    101  C   UNL A   1      38.309  29.390  30.242  1.00  0.00     0.059 A 
ATOM    102  C   UNL A   1      37.762  30.317  28.066  1.00  0.00     0.059 A 
ATOM    103  F   UNL A   1      38.860  29.528  26.155  1.00  0.00    -0.206 F 
ATOM    104  C   UNL A   1      37.586  30.282  29.448  1.00  0.00     0.060 A 
BRANCH 104 105
ATOM    105  S   UNL A   1      36.482  31.455  30.260  1.00  0.00     0.124 S 
ATOM    106  O   UNL A   1      37.335  32.631  30.401  1.00  0.00    -0.237 OA
ATOM    107  O   UNL A   1      35.395  31.574  29.294  1.00  0.00    -0.237 OA
ATOM    108  O   UNL A   1      36.127  30.786  31.509  1.00  0.00    -0.744 OA
ENDBRANCH 104 105
ENDBRANCH  72  97
ENDBRANCH  46  47
ENDBRANCH  38  41
ENDBRANCH  36  37
ENDBRANCH  35  36
ENDBRANCH   1  35
TORSDOF 19
ENDMDL
MODEL 3
REMARK VINA RESULT:      -9.4      4.986     11.276
REMARK SMILES Cc1oc2c(C)c3oc(=O)c(CC(=O)N[C@@H](CC(C)C)C(=O)NCCCCNC(=O)c4ccc(-c5c6nc(c(-c7c(F)cc(S(=O)(=O)[O-])cc7F)c7ccc([nH]7)c(-c7c(F)cc(S(=O)(=O)[O-])cc7F)c7nc(c(-c8c(F)cc(S(=O)(=O)[O-])cc8F)c8ccc5[nH]8)C=C7)C=C6)cc4)c(C)c3cc2c1C
REMARK SMILES IDX 25 1 24 2 23 3 21 4 22 5 16 7 15 8 13 9 14 10 12 12 11 13
REMARK SMILES IDX 1 14 2 15 3 16 102 17 4 18 101 19 103 20 5 21 100 22 6 23
REMARK SMILES IDX 7 24 99 25 8 26 97 27 9 28 98 29 10 30 17 31 18 32 19 33
REMARK SMILES IDX 20 34 26 35 27 36 28 37 29 38 30 40 31 41 32 42 96 43 33 44
REMARK SMILES IDX 95 45 34 46 35 47 36 48 89 49 37 50 94 51 88 52 90 53 38 54
REMARK SMILES IDX 93 55 87 56 86 57 39 59 73 60 52 61 72 62 53 63 56 64 71 65
REMARK SMILES IDX 91 66 54 67 55 68 70 70 92 71 57 72 40 73 41 74 50 75 42 76
REMARK SMILES IDX 43 77 49 78 51 79 44 80 45 81 46 82 47 83 48 84 74 85 75 86
REMARK SMILES IDX 84 87 76 88 77 89 83 90 85 91 78 92 79 93 80 94 81 95 82 96
REMARK SMILES IDX 58 97 59 98 68 99 60 100 61 101 67 102 69 103 62 104 63 105
REMARK SMILES IDX 64 106 65 107 66 108
REMARK H PARENT 23 6 15 11 28 39 90 58 56 69
REMARK Flexibility Score: inf
ROOT
ATOM      1  C   UNL A   1      36.173  21.564  25.865  1.00  0.00     0.023 C 
ENDROOT
BRANCH   1   2
ATOM      2  C   UNL A   1      35.620  20.468  24.959  1.00  0.00     0.116 C 
BRANCH   2   3
ATOM      3  N   UNL A   1      34.466  19.787  25.519  1.00  0.00    -0.354 N 
ATOM      4  C   UNL A   1      33.128  20.047  25.454  1.00  0.00     0.242 C 
ATOM      5  O   UNL A   1      32.374  19.110  25.740  1.00  0.00    -0.273 OA
ATOM      6  H   UNL A   1      34.691  18.987  26.045  1.00  0.00     0.163 HD
BRANCH   4   7
ATOM      7  C   UNL A   1      32.529  21.401  25.014  1.00  0.00     0.171 C 
BRANCH   7   8
ATOM      8  N   UNL A   1      32.037  22.145  26.177  1.00  0.00    -0.344 N 
ATOM      9  C   UNL A   1      31.240  23.251  26.182  1.00  0.00     0.225 C 
ATOM     10  O   UNL A   1      30.608  23.502  27.211  1.00  0.00    -0.275 OA
ATOM     11  H   UNL A   1      32.317  21.806  27.058  1.00  0.00     0.164 HD
BRANCH   9  12
ATOM     12  C   UNL A   1      31.195  24.183  24.975  1.00  0.00     0.143 C 
BRANCH  12  13
ATOM     13  C   UNL A   1      31.572  25.598  25.370  1.00  0.00     0.051 A 
ATOM     14  C   UNL A   1      35.630  32.420  28.232  1.00  0.00     0.088 C 
ATOM     15  C   UNL A   1      35.091  31.206  27.586  1.00  0.00     0.105 A 
ATOM     16  O   UNL A   1      33.829  31.314  27.079  1.00  0.00    -0.461 OA
ATOM     17  C   UNL A   1      35.579  29.925  27.407  1.00  0.00    -0.002 A 
ATOM     18  C   UNL A   1      33.461  30.078  26.630  1.00  0.00     0.141 A 
ATOM     19  C   UNL A   1      34.509  29.191  26.818  1.00  0.00     0.025 A 
ATOM     20  C   UNL A   1      36.896  29.365  27.797  1.00  0.00     0.049 C 
ATOM     21  C   UNL A   1      32.218  29.734  26.090  1.00  0.00     0.036 A 
ATOM     22  C   UNL A   1      34.331  27.846  26.462  1.00  0.00     0.024 A 
ATOM     23  C   UNL A   1      31.140  30.744  25.851  1.00  0.00     0.052 C 
ATOM     24  C   UNL A   1      32.063  28.351  25.844  1.00  0.00     0.145 A 
ATOM     25  C   UNL A   1      33.073  27.402  26.032  1.00  0.00     0.022 A 
ATOM     26  O   UNL A   1      30.787  27.922  25.418  1.00  0.00    -0.422 OA
ATOM     27  C   UNL A   1      32.799  25.973  25.791  1.00  0.00    -0.029 A 
ATOM     28  C   UNL A   1      30.468  26.587  25.249  1.00  0.00     0.340 A 
ATOM     29  C   UNL A   1      33.924  25.000  26.047  1.00  0.00     0.046 C 
ATOM     30  O   UNL A   1      29.318  26.244  24.997  1.00  0.00    -0.246 OA
ENDBRANCH  12  13
ENDBRANCH   9  12
ENDBRANCH   7   8
BRANCH   7  31
ATOM     31  C   UNL A   1      33.290  22.283  24.001  1.00  0.00     0.038 C 
BRANCH  31  32
ATOM     32  C   UNL A   1      33.083  22.040  22.497  1.00  0.00    -0.015 C 
ATOM     33  C   UNL A   1      31.731  21.378  22.208  1.00  0.00     0.007 C 
ATOM     34  C   UNL A   1      33.142  23.357  21.714  1.00  0.00     0.007 C 
ENDBRANCH  31  32
ENDBRANCH   7  31
ENDBRANCH   4   7
ENDBRANCH   2   3
ENDBRANCH   1   2
BRANCH   1  35
ATOM     35  C   UNL A   1      37.210  22.495  25.210  1.00  0.00     0.023 C 
BRANCH  35  36
ATOM     36  C   UNL A   1      38.277  23.091  26.143  1.00  0.00     0.116 C 
BRANCH  36  37
ATOM     37  N   UNL A   1      39.472  22.267  26.174  1.00  0.00    -0.352 N 
ATOM     38  C   UNL A   1      40.792  22.598  26.328  1.00  0.00     0.251 C 
ATOM     39  H   UNL A   1      39.304  21.304  26.067  1.00  0.00     0.163 HD
ATOM     40  O   UNL A   1      41.635  21.765  25.998  1.00  0.00    -0.269 OA
BRANCH  38  41
ATOM     41  C   UNL A   1      41.238  23.900  26.875  1.00  0.00     0.039 A 
ATOM     42  C   UNL A   1      42.396  24.468  26.328  1.00  0.00     0.014 A 
ATOM     43  C   UNL A   1      40.649  24.484  28.001  1.00  0.00     0.014 A 
ATOM     44  C   UNL A   1      42.941  25.628  26.880  1.00  0.00     0.010 A 
ATOM     45  C   UNL A   1      41.198  25.650  28.553  1.00  0.00     0.010 A 
ATOM     46  C   UNL A   1      42.340  26.238  27.990  1.00  0.00    -0.014 A 
BRANCH  46  47
ATOM     47  C   UNL A   1      42.879  27.548  28.422  1.00  0.00     0.031 A 
ATOM     48  C   UNL A   1      41.855  28.561  28.825  1.00  0.00     0.074 A 
ATOM     49  C   UNL A   1      44.122  27.674  28.938  1.00  0.00     0.049 A 
ATOM     50  N   UNL A   1      41.307  28.590  30.005  1.00  0.00    -0.248 NA
ATOM     51  C   UNL A   1      41.195  29.433  27.852  1.00  0.00     0.031 C 
ATOM     52  C   UNL A   1      44.720  26.696  29.856  1.00  0.00     0.029 A 
ATOM     53  N   UNL A   1      44.980  28.752  28.983  1.00  0.00    -0.354 N 
ATOM     54  C   UNL A   1      40.221  29.447  29.939  1.00  0.00     0.074 A 
ATOM     55  C   UNL A   1      40.191  29.946  28.583  1.00  0.00     0.031 C 
ATOM     56  C   UNL A   1      45.757  27.281  30.492  1.00  0.00     0.029 A 
ATOM     57  C   UNL A   1      45.991  28.612  29.932  1.00  0.00     0.049 A 
ATOM     58  H   UNL A   1      44.888  29.543  28.402  1.00  0.00     0.167 HD
ATOM     59  C   UNL A   1      39.413  29.693  31.005  1.00  0.00     0.037 A 
ATOM     60  C   UNL A   1      46.572  29.641  30.613  1.00  0.00     0.037 A 
ATOM     61  C   UNL A   1      39.807  29.050  32.223  1.00  0.00     0.049 A 
ATOM     62  C   UNL A   1      45.464  30.016  31.562  1.00  0.00     0.074 A 
ATOM     63  C   UNL A   1      39.508  27.888  32.899  1.00  0.00     0.029 A 
ATOM     64  N   UNL A   1      40.808  29.643  32.957  1.00  0.00    -0.354 N 
ATOM     65  N   UNL A   1      45.162  29.377  32.661  1.00  0.00    -0.248 NA
ATOM     66  C   UNL A   1      44.410  30.904  31.067  1.00  0.00     0.031 C 
ATOM     67  C   UNL A   1      40.646  27.629  33.726  1.00  0.00     0.029 A 
ATOM     68  C   UNL A   1      41.579  28.633  33.472  1.00  0.00     0.049 A 
ATOM     69  H   UNL A   1      40.944  30.609  33.088  1.00  0.00     0.167 HD
ATOM     70  C   UNL A   1      43.786  29.546  32.819  1.00  0.00     0.074 A 
ATOM     71  C   UNL A   1      43.392  30.530  31.832  1.00  0.00     0.031 C 
ATOM     72  C   UNL A   1      43.015  28.733  33.596  1.00  0.00     0.037 A 
BRANCH  59  73
ATOM     73  C   UNL A   1      38.304  30.670  31.046  1.00  0.00     0.058 A 
ATOM     74  C   UNL A   1      38.626  32.028  31.209  1.00  0.00     0.135 A 
ATOM     75  C   UNL A   1      36.964  30.290  31.188  1.00  0.00     0.135 A 
ATOM     76  F   UNL A   1      39.903  32.432  31.089  1.00  0.00    -0.206 F 
ATOM     77  C   UNL A   1      37.670  32.968  31.563  1.00  0.00     0.059 A 
ATOM     78  C   UNL A   1      35.982  31.220  31.532  1.00  0.00     0.059 A 
ATOM     79  F   UNL A   1      36.609  29.003  31.052  1.00  0.00    -0.206 F 
ATOM     80  C   UNL A   1      36.352  32.551  31.745  1.00  0.00     0.060 A 
BRANCH  80  81
ATOM     81  S   UNL A   1      35.152  33.774  32.317  1.00  0.00     0.124 S 
ATOM     82  O   UNL A   1      34.079  32.927  32.828  1.00  0.00    -0.237 OA
ATOM     83  O   UNL A   1      35.921  34.502  33.321  1.00  0.00    -0.237 OA
ATOM     84  O   UNL A   1      34.834  34.529  31.108  1.00  0.00    -0.744 OA
ENDBRANCH  80  81
ENDBRANCH  59  73
BRANCH  60  85
ATOM     85  C   UNL A   1      47.350  30.615  29.783  1.00  0.00     0.058 A 
ATOM     86  C   UNL A   1      48.048  30.109  28.663  1.00  0.00     0.135 A 
ATOM     87  C   UNL A   1      47.456  31.997  29.996  1.00  0.00     0.135 A 
ATOM     88  F   UNL A   1      48.125  28.783  28.459  1.00  0.00    -0.206 F 
ATOM     89  C   UNL A   1      48.658  30.935  27.724  1.00  0.00     0.059 A 
ATOM     90  C   UNL A   1      48.042  32.851  29.058  1.00  0.00     0.059 A 
ATOM     91  F   UNL A   1      46.975  32.567  31.109  1.00  0.00    -0.206 F 
ATOM     92  C   UNL A   1      48.601  32.312  27.903  1.00  0.00     0.060 A 
BRANCH  92  93
ATOM     93  S   UNL A   1      49.190  33.376  26.569  1.00  0.00     0.124 S 
ATOM     94  O   UNL A   1      47.957  33.659  25.837  1.00  0.00    -0.237 OA
ATOM     95  O   UNL A   1      49.753  34.499  27.317  1.00  0.00    -0.237 OA
ATOM     96  O   UNL A   1      50.159  32.545  25.872  1.00  0.00    -0.744 OA
ENDBRANCH  92  93
ENDBRANCH  60  85
BRANCH  72  97
ATOM     97  C   UNL A   1      43.746  27.736  34.429  1.00  0.00     0.058 A 
ATOM     98  C   UNL A   1      44.027  26.463  33.919  1.00  0.00     0.135 A 
ATOM     99  C   UNL A   1      44.248  28.064  35.700  1.00  0.00     0.135 A 
ATOM    100  F   UNL A   1      43.573  26.102  32.708  1.00  0.00    -0.206 F 
ATOM    101  C   UNL A   1      44.821  25.563  34.621  1.00  0.00     0.059 A 
ATOM    102  C   UNL A   1      45.062  27.187  36.410  1.00  0.00     0.059 A 
ATOM    103  F   UNL A   1      43.992  29.263  36.250  1.00  0.00    -0.206 F 
ATOM    104  C   UNL A   1      45.355  25.943  35.854  1.00  0.00     0.060 A 
BRANCH 104 105
ATOM    105  S   UNL A   1      46.509  24.824  36.672  1.00  0.00     0.124 S 
ATOM    106  O   UNL A   1      46.662  25.447  37.983  1.00  0.00    -0.237 OA
ATOM    107  O   UNL A   1      45.779  23.560  36.653  1.00  0.00    -0.237 OA
ATOM    108  O   UNL A   1      47.693  24.865  35.818  1.00  0.00    -0.744 OA
ENDBRANCH 104 105
ENDBRANCH  72  97
ENDBRANCH  46  47
ENDBRANCH  38  41
ENDBRANCH  36  37
ENDBRANCH  35  36
ENDBRANCH   1  35
TORSDOF 19
ENDMDL
