MODEL 1
REMARK VINA RESULT:     -14.5      0.000      0.000
REMARK SMILES Cc1ccccc1NC(=O)CSc1nc(C(=O)NCCCCNC(=O)c2ccc(-c3c4nc(c(-c5c(F)cc(S(=O)(=O)[O-])cc5F)c5ccc([nH]5)c(-c5c(F)cc(S(=O)(=O)[O-])cc5F)c5nc(c(-c6c(F)cc(S(=O)(=O)[O-])cc6F)c6ccc3[nH]6)C=C5)C=C4)cc2)c2ccccc2n1
REMARK SMILES IDX 20 1 19 2 18 3 16 4 17 5 15 7 13 8 14 9 98 10 97 11 92 12
REMARK SMILES IDX 96 13 93 14 95 15 94 16 12 17 11 18 9 19 8 20 10 22 7 23
REMARK SMILES IDX 1 24 2 25 3 26 4 27 6 28 5 29 21 30 22 31 23 32 24 33 25 35
REMARK SMILES IDX 26 36 27 37 91 38 28 39 90 40 29 41 30 42 31 43 84 44 32 45
REMARK SMILES IDX 89 46 83 47 85 48 33 49 88 50 82 51 81 52 34 54 68 55 47 56
REMARK SMILES IDX 67 57 48 58 51 59 66 60 86 61 49 62 50 63 65 65 87 66 52 67
REMARK SMILES IDX 35 68 36 69 45 70 37 71 38 72 44 73 46 74 39 75 40 76 41 77
REMARK SMILES IDX 42 78 43 79 69 80 70 81 79 82 71 83 72 84 78 85 80 86 73 87
REMARK SMILES IDX 74 88 75 89 76 90 77 91 53 92 54 93 63 94 55 95 56 96 62 97
REMARK SMILES IDX 64 98 57 99 58 100 59 101 60 102 61 103
REMARK H PARENT 18 6 8 21 23 34 85 53 51 64
REMARK Flexibility Score: inf
ROOT
ATOM      1  C   UNL A   1      32.205  30.555  26.778  1.00  0.00     0.023 C 
ENDROOT
BRANCH   1   2
ATOM      2  C   UNL A   1      31.507  30.105  25.496  1.00  0.00     0.116 C 
BRANCH   2   3
ATOM      3  N   UNL A   1      32.378  29.791  24.369  1.00  0.00    -0.351 N 
ATOM      4  C   UNL A   1      32.240  28.855  23.355  1.00  0.00     0.270 C 
ATOM      5  O   UNL A   1      33.085  28.843  22.459  1.00  0.00    -0.267 OA
ATOM      6  H   UNL A   1      33.199  30.332  24.321  1.00  0.00     0.163 HD
BRANCH   4   7
ATOM      7  C   UNL A   1      31.169  27.804  23.375  1.00  0.00     0.140 A 
ATOM      8  C   UNL A   1      30.706  25.669  24.008  1.00  0.00     0.189 A 
ATOM      9  N   UNL A   1      31.631  26.591  23.770  1.00  0.00    -0.217 NA
ATOM     10  N   UNL A   1      29.386  25.887  24.004  1.00  0.00    -0.222 NA
ATOM     11  C   UNL A   1      28.957  27.082  23.590  1.00  0.00     0.076 A 
ATOM     12  C   UNL A   1      29.818  28.086  23.143  1.00  0.00     0.032 A 
ATOM     13  C   UNL A   1      27.596  27.357  23.642  1.00  0.00     0.029 A 
ATOM     14  C   UNL A   1      29.276  29.267  22.572  1.00  0.00     0.013 A 
ATOM     15  C   UNL A   1      27.070  28.575  23.203  1.00  0.00     0.002 A 
ATOM     16  C   UNL A   1      27.909  29.521  22.631  1.00  0.00     0.001 A 
BRANCH   8  17
ATOM     17  S   UNL A   1      31.239  24.064  24.524  1.00  0.00    -0.076 SA
BRANCH  17  18
ATOM     18  C   UNL A   1      32.151  24.508  26.031  1.00  0.00     0.178 C 
BRANCH  18  19
ATOM     19  C   UNL A   1      32.480  23.333  26.924  1.00  0.00     0.234 C 
ATOM     20  N   UNL A   1      33.606  22.571  26.851  1.00  0.00    -0.325 N 
ATOM     21  H   UNL A   1      33.596  21.838  27.508  1.00  0.00     0.169 HD
ATOM     22  O   UNL A   1      31.662  22.983  27.788  1.00  0.00    -0.274 OA
BRANCH  20  23
ATOM     23  C   UNL A   1      34.784  22.563  26.078  1.00  0.00     0.044 A 
ATOM     24  C   UNL A   1      34.110  20.288  25.025  1.00  0.00     0.046 C 
ATOM     25  C   UNL A   1      35.050  21.447  25.248  1.00  0.00    -0.027 A 
ATOM     26  C   UNL A   1      36.294  21.354  24.589  1.00  0.00     0.005 A 
ATOM     27  C   UNL A   1      37.244  22.363  24.694  1.00  0.00     0.000 A 
ATOM     28  C   UNL A   1      35.721  23.601  26.099  1.00  0.00     0.026 A 
ATOM     29  C   UNL A   1      36.945  23.498  25.430  1.00  0.00     0.002 A 
ENDBRANCH  20  23
ENDBRANCH  18  19
ENDBRANCH  17  18
ENDBRANCH   8  17
ENDBRANCH   4   7
ENDBRANCH   2   3
ENDBRANCH   1   2
BRANCH   1  30
ATOM     30  C   UNL A   1      33.177  29.569  27.412  1.00  0.00     0.023 C 
BRANCH  30  31
ATOM     31  C   UNL A   1      34.632  29.696  26.976  1.00  0.00     0.116 C 
BRANCH  31  32
ATOM     32  N   UNL A   1      35.292  30.912  27.430  1.00  0.00    -0.352 N 
ATOM     33  C   UNL A   1      36.512  31.049  28.087  1.00  0.00     0.251 C 
ATOM     34  H   UNL A   1      34.811  31.752  27.247  1.00  0.00     0.163 HD
ATOM     35  O   UNL A   1      36.875  32.134  28.501  1.00  0.00    -0.269 OA
BRANCH  33  36
ATOM     36  C   UNL A   1      37.382  29.854  28.220  1.00  0.00     0.039 A 
ATOM     37  C   UNL A   1      37.308  29.085  29.386  1.00  0.00     0.014 A 
ATOM     38  C   UNL A   1      38.386  29.618  27.289  1.00  0.00     0.014 A 
ATOM     39  C   UNL A   1      38.366  28.234  29.719  1.00  0.00     0.010 A 
ATOM     40  C   UNL A   1      39.485  28.882  27.675  1.00  0.00     0.010 A 
ATOM     41  C   UNL A   1      39.497  28.217  28.910  1.00  0.00    -0.014 A 
BRANCH  41  42
ATOM     42  C   UNL A   1      40.777  27.604  29.259  1.00  0.00     0.031 A 
ATOM     43  C   UNL A   1      41.068  26.210  28.841  1.00  0.00     0.074 A 
ATOM     44  C   UNL A   1      41.770  28.385  29.735  1.00  0.00     0.049 A 
ATOM     45  N   UNL A   1      42.123  25.544  29.164  1.00  0.00    -0.248 NA
ATOM     46  C   UNL A   1      40.134  25.430  28.039  1.00  0.00     0.031 C 
ATOM     47  C   UNL A   1      43.206  28.131  29.655  1.00  0.00     0.029 A 
ATOM     48  N   UNL A   1      41.663  29.495  30.574  1.00  0.00    -0.354 N 
ATOM     49  C   UNL A   1      42.161  24.398  28.395  1.00  0.00     0.074 A 
ATOM     50  C   UNL A   1      40.860  24.342  27.775  1.00  0.00     0.031 C 
ATOM     51  C   UNL A   1      43.836  28.880  30.572  1.00  0.00     0.029 A 
ATOM     52  C   UNL A   1      42.813  29.505  31.389  1.00  0.00     0.049 A 
ATOM     53  H   UNL A   1      40.925  30.147  30.594  1.00  0.00     0.167 HD
ATOM     54  C   UNL A   1      43.341  23.716  28.287  1.00  0.00     0.037 A 
ATOM     55  C   UNL A   1      42.717  29.344  32.743  1.00  0.00     0.037 A 
ATOM     56  C   UNL A   1      44.318  24.230  29.254  1.00  0.00     0.049 A 
ATOM     57  C   UNL A   1      43.412  28.113  33.277  1.00  0.00     0.074 A 
ATOM     58  C   UNL A   1      45.402  25.086  29.150  1.00  0.00     0.029 A 
ATOM     59  N   UNL A   1      44.061  24.091  30.616  1.00  0.00    -0.354 N 
ATOM     60  N   UNL A   1      43.792  27.106  32.538  1.00  0.00    -0.248 NA
ATOM     61  C   UNL A   1      43.735  27.915  34.686  1.00  0.00     0.031 C 
ATOM     62  C   UNL A   1      45.749  25.518  30.457  1.00  0.00     0.029 A 
ATOM     63  C   UNL A   1      44.892  24.907  31.357  1.00  0.00     0.049 A 
ATOM     64  H   UNL A   1      43.379  23.491  30.998  1.00  0.00     0.167 HD
ATOM     65  C   UNL A   1      44.358  26.137  33.327  1.00  0.00     0.074 A 
ATOM     66  C   UNL A   1      44.328  26.709  34.661  1.00  0.00     0.031 C 
ATOM     67  C   UNL A   1      44.794  24.946  32.812  1.00  0.00     0.037 A 
BRANCH  54  68
ATOM     68  C   UNL A   1      43.710  22.776  27.141  1.00  0.00     0.058 A 
ATOM     69  C   UNL A   1      42.980  21.581  26.928  1.00  0.00     0.135 A 
ATOM     70  C   UNL A   1      44.808  22.929  26.270  1.00  0.00     0.135 A 
ATOM     71  F   UNL A   1      41.854  21.316  27.604  1.00  0.00    -0.206 F 
ATOM     72  C   UNL A   1      43.369  20.590  26.016  1.00  0.00     0.059 A 
ATOM     73  C   UNL A   1      45.241  21.939  25.382  1.00  0.00     0.059 A 
ATOM     74  F   UNL A   1      45.493  24.071  26.186  1.00  0.00    -0.206 F 
ATOM     75  C   UNL A   1      44.524  20.762  25.269  1.00  0.00     0.060 A 
BRANCH  75  76
ATOM     76  S   UNL A   1      45.060  19.462  24.144  1.00  0.00     0.124 S 
ATOM     77  O   UNL A   1      44.477  19.893  22.877  1.00  0.00    -0.237 OA
ATOM     78  O   UNL A   1      46.512  19.551  24.240  1.00  0.00    -0.237 OA
ATOM     79  O   UNL A   1      44.472  18.253  24.715  1.00  0.00    -0.744 OA
ENDBRANCH  75  76
ENDBRANCH  54  68
BRANCH  55  80
ATOM     80  C   UNL A   1      41.498  29.981  33.313  1.00  0.00     0.058 A 
ATOM     81  C   UNL A   1      41.519  31.382  33.450  1.00  0.00     0.135 A 
ATOM     82  C   UNL A   1      40.246  29.352  33.225  1.00  0.00     0.135 A 
ATOM     83  F   UNL A   1      42.691  32.029  33.555  1.00  0.00    -0.206 F 
ATOM     84  C   UNL A   1      40.368  32.143  33.302  1.00  0.00     0.059 A 
ATOM     85  C   UNL A   1      39.075  30.100  33.087  1.00  0.00     0.059 A 
ATOM     86  F   UNL A   1      40.165  28.020  33.100  1.00  0.00    -0.206 F 
ATOM     87  C   UNL A   1      39.165  31.492  33.039  1.00  0.00     0.060 A 
BRANCH  87  88
ATOM     88  S   UNL A   1      37.800  32.494  32.402  1.00  0.00     0.124 S 
ATOM     89  O   UNL A   1      38.483  33.387  31.474  1.00  0.00    -0.237 OA
ATOM     90  O   UNL A   1      36.958  31.469  31.789  1.00  0.00    -0.237 OA
ATOM     91  O   UNL A   1      37.256  33.122  33.602  1.00  0.00    -0.744 OA
ENDBRANCH  87  88
ENDBRANCH  55  80
BRANCH  67  92
ATOM     92  C   UNL A   1      45.242  23.732  33.602  1.00  0.00     0.058 A 
ATOM     93  C   UNL A   1      46.532  23.561  34.135  1.00  0.00     0.135 A 
ATOM     94  C   UNL A   1      44.302  22.735  33.971  1.00  0.00     0.135 A 
ATOM     95  F   UNL A   1      47.486  24.487  33.969  1.00  0.00    -0.206 F 
ATOM     96  C   UNL A   1      46.885  22.452  34.910  1.00  0.00     0.059 A 
ATOM     97  C   UNL A   1      44.617  21.654  34.792  1.00  0.00     0.059 A 
ATOM     98  F   UNL A   1      43.028  22.785  33.556  1.00  0.00    -0.206 F 
ATOM     99  C   UNL A   1      45.921  21.503  35.235  1.00  0.00     0.060 A 
BRANCH  99 100
ATOM    100  S   UNL A   1      46.349  20.110  36.295  1.00  0.00     0.124 S 
ATOM    101  O   UNL A   1      47.807  20.143  36.246  1.00  0.00    -0.237 OA
ATOM    102  O   UNL A   1      45.753  20.479  37.576  1.00  0.00    -0.237 OA
ATOM    103  O   UNL A   1      45.717  18.978  35.624  1.00  0.00    -0.744 OA
ENDBRANCH  99 100
ENDBRANCH  67  92
ENDBRANCH  41  42
ENDBRANCH  33  36
ENDBRANCH  31  32
ENDBRANCH  30  31
ENDBRANCH   1  30
TORSDOF 18
ENDMDL
MODEL 2
REMARK VINA RESULT:     -14.5      1.606      2.572
REMARK SMILES Cc1ccccc1NC(=O)CSc1nc(C(=O)NCCCCNC(=O)c2ccc(-c3c4nc(c(-c5c(F)cc(S(=O)(=O)[O-])cc5F)c5ccc([nH]5)c(-c5c(F)cc(S(=O)(=O)[O-])cc5F)c5nc(c(-c6c(F)cc(S(=O)(=O)[O-])cc6F)c6ccc3[nH]6)C=C5)C=C4)cc2)c2ccccc2n1
REMARK SMILES IDX 20 1 19 2 18 3 16 4 17 5 15 7 13 8 14 9 98 10 97 11 92 12
REMARK SMILES IDX 96 13 93 14 95 15 94 16 12 17 11 18 9 19 8 20 10 22 7 23
REMARK SMILES IDX 1 24 2 25 3 26 4 27 6 28 5 29 21 30 22 31 23 32 24 33 25 35
REMARK SMILES IDX 26 36 27 37 91 38 28 39 90 40 29 41 30 42 31 43 84 44 32 45
REMARK SMILES IDX 89 46 83 47 85 48 33 49 88 50 82 51 81 52 34 54 68 55 47 56
REMARK SMILES IDX 67 57 48 58 51 59 66 60 86 61 49 62 50 63 65 65 87 66 52 67
REMARK SMILES IDX 35 68 36 69 45 70 37 71 38 72 44 73 46 74 39 75 40 76 41 77
REMARK SMILES IDX 42 78 43 79 69 80 70 81 79 82 71 83 72 84 78 85 80 86 73 87
REMARK SMILES IDX 74 88 75 89 76 90 77 91 53 92 54 93 63 94 55 95 56 96 62 97
REMARK SMILES IDX 64 98 57 99 58 100 59 101 60 102 61 103
REMARK H PARENT 18 6 8 21 23 34 85 53 51 64
REMARK Flexibility Score: inf
ROOT
ATOM      1  C   UNL A   1      31.869  29.164  26.247  1.00  0.00     0.023 C 
ENDROOT
BRANCH   1   2
ATOM      2  C   UNL A   1      31.966  28.054  27.292  1.00  0.00     0.116 C 
BRANCH   2   3
ATOM      3  N   UNL A   1      31.058  26.926  27.116  1.00  0.00    -0.351 N 
ATOM      4  C   UNL A   1      31.222  25.735  26.424  1.00  0.00     0.270 C 
ATOM      5  O   UNL A   1      30.325  24.894  26.498  1.00  0.00    -0.267 OA
ATOM      6  H   UNL A   1      30.185  27.027  27.560  1.00  0.00     0.163 HD
BRANCH   4   7
ATOM      7  C   UNL A   1      32.392  25.490  25.517  1.00  0.00     0.140 A 
ATOM      8  C   UNL A   1      34.394  24.421  25.353  1.00  0.00     0.189 A 
ATOM      9  N   UNL A   1      33.415  24.852  26.140  1.00  0.00    -0.217 NA
ATOM     10  N   UNL A   1      34.379  24.463  24.016  1.00  0.00    -0.222 NA
ATOM     11  C   UNL A   1      33.372  25.117  23.429  1.00  0.00     0.076 A 
ATOM     12  C   UNL A   1      32.368  25.769  24.146  1.00  0.00     0.032 A 
ATOM     13  C   UNL A   1      33.296  25.117  22.041  1.00  0.00     0.029 A 
ATOM     14  C   UNL A   1      31.424  26.572  23.453  1.00  0.00     0.013 A 
ATOM     15  C   UNL A   1      32.288  25.798  21.355  1.00  0.00     0.002 A 
ATOM     16  C   UNL A   1      31.368  26.560  22.063  1.00  0.00     0.001 A 
BRANCH   8  17
ATOM     17  S   UNL A   1      35.760  23.583  26.101  1.00  0.00    -0.076 SA
BRANCH  17  18
ATOM     18  C   UNL A   1      35.356  21.869  25.654  1.00  0.00     0.178 C 
BRANCH  18  19
ATOM     19  C   UNL A   1      34.245  21.260  26.479  1.00  0.00     0.234 C 
ATOM     20  N   UNL A   1      33.367  20.312  26.052  1.00  0.00    -0.325 N 
ATOM     21  H   UNL A   1      32.706  20.086  26.745  1.00  0.00     0.169 HD
ATOM     22  O   UNL A   1      34.068  21.657  27.640  1.00  0.00    -0.274 OA
BRANCH  20  23
ATOM     23  C   UNL A   1      33.161  19.571  24.872  1.00  0.00     0.044 A 
ATOM     24  C   UNL A   1      32.152  21.659  23.703  1.00  0.00     0.046 C 
ATOM     25  C   UNL A   1      32.530  20.200  23.770  1.00  0.00    -0.027 A 
ATOM     26  C   UNL A   1      32.178  19.430  22.641  1.00  0.00     0.005 A 
ATOM     27  C   UNL A   1      32.486  18.077  22.565  1.00  0.00     0.000 A 
ATOM     28  C   UNL A   1      33.533  18.230  24.735  1.00  0.00     0.026 A 
ATOM     29  C   UNL A   1      33.187  17.485  23.603  1.00  0.00     0.002 A 
ENDBRANCH  20  23
ENDBRANCH  18  19
ENDBRANCH  17  18
ENDBRANCH   8  17
ENDBRANCH   4   7
ENDBRANCH   2   3
ENDBRANCH   1   2
BRANCH   1  30
ATOM     30  C   UNL A   1      33.148  29.931  25.942  1.00  0.00     0.023 C 
BRANCH  30  31
ATOM     31  C   UNL A   1      34.293  29.734  26.929  1.00  0.00     0.116 C 
BRANCH  31  32
ATOM     32  N   UNL A   1      34.971  30.963  27.317  1.00  0.00    -0.352 N 
ATOM     33  C   UNL A   1      36.214  31.119  27.924  1.00  0.00     0.251 C 
ATOM     34  H   UNL A   1      34.485  31.797  27.124  1.00  0.00     0.163 HD
ATOM     35  O   UNL A   1      36.595  32.217  28.287  1.00  0.00    -0.269 OA
BRANCH  33  36
ATOM     36  C   UNL A   1      37.088  29.927  28.065  1.00  0.00     0.039 A 
ATOM     37  C   UNL A   1      37.006  29.158  29.230  1.00  0.00     0.014 A 
ATOM     38  C   UNL A   1      38.100  29.694  27.143  1.00  0.00     0.014 A 
ATOM     39  C   UNL A   1      38.064  28.311  29.574  1.00  0.00     0.010 A 
ATOM     40  C   UNL A   1      39.199  28.962  27.539  1.00  0.00     0.010 A 
ATOM     41  C   UNL A   1      39.202  28.297  28.774  1.00  0.00    -0.014 A 
BRANCH  41  42
ATOM     42  C   UNL A   1      40.481  27.689  29.134  1.00  0.00     0.031 A 
ATOM     43  C   UNL A   1      40.758  26.278  28.770  1.00  0.00     0.074 A 
ATOM     44  C   UNL A   1      41.484  28.481  29.569  1.00  0.00     0.049 A 
ATOM     45  N   UNL A   1      41.812  25.617  29.108  1.00  0.00    -0.248 NA
ATOM     46  C   UNL A   1      39.810  25.474  28.008  1.00  0.00     0.031 C 
ATOM     47  C   UNL A   1      42.918  28.213  29.486  1.00  0.00     0.029 A 
ATOM     48  N   UNL A   1      41.394  29.624  30.366  1.00  0.00    -0.354 N 
ATOM     49  C   UNL A   1      41.833  24.441  28.385  1.00  0.00     0.074 A 
ATOM     50  C   UNL A   1      40.526  24.371  27.780  1.00  0.00     0.031 C 
ATOM     51  C   UNL A   1      43.562  28.992  30.366  1.00  0.00     0.029 A 
ATOM     52  C   UNL A   1      42.552  29.657  31.168  1.00  0.00     0.049 A 
ATOM     53  H   UNL A   1      40.660  30.281  30.366  1.00  0.00     0.167 HD
ATOM     54  C   UNL A   1      43.008  23.747  28.292  1.00  0.00     0.037 A 
ATOM     55  C   UNL A   1      42.468  29.550  32.528  1.00  0.00     0.037 A 
ATOM     56  C   UNL A   1      43.997  24.291  29.229  1.00  0.00     0.049 A 
ATOM     57  C   UNL A   1      43.160  28.336  33.104  1.00  0.00     0.074 A 
ATOM     58  C   UNL A   1      45.087  25.133  29.080  1.00  0.00     0.029 A 
ATOM     59  N   UNL A   1      43.753  24.207  30.597  1.00  0.00    -0.354 N 
ATOM     60  N   UNL A   1      43.525  27.298  32.401  1.00  0.00    -0.248 NA
ATOM     61  C   UNL A   1      43.495  28.191  34.517  1.00  0.00     0.031 C 
ATOM     62  C   UNL A   1      45.450  25.614  30.366  1.00  0.00     0.029 A 
ATOM     63  C   UNL A   1      44.598  25.046  31.297  1.00  0.00     0.049 A 
ATOM     64  H   UNL A   1      43.070  23.628  31.009  1.00  0.00     0.167 HD
ATOM     65  C   UNL A   1      44.092  26.357  33.222  1.00  0.00     0.074 A 
ATOM     66  C   UNL A   1      44.080  26.981  34.533  1.00  0.00     0.031 C 
ATOM     67  C   UNL A   1      44.514  25.143  32.750  1.00  0.00     0.037 A 
BRANCH  54  68
ATOM     68  C   UNL A   1      43.358  22.759  27.181  1.00  0.00     0.058 A 
ATOM     69  C   UNL A   1      42.722  21.495  27.115  1.00  0.00     0.135 A 
ATOM     70  C   UNL A   1      44.358  22.939  26.204  1.00  0.00     0.135 A 
ATOM     71  F   UNL A   1      41.687  21.188  27.908  1.00  0.00    -0.206 F 
ATOM     72  C   UNL A   1      43.117  20.476  26.238  1.00  0.00     0.059 A 
ATOM     73  C   UNL A   1      44.799  21.926  25.345  1.00  0.00     0.059 A 
ATOM     74  F   UNL A   1      44.928  24.124  25.982  1.00  0.00    -0.206 F 
ATOM     75  C   UNL A   1      44.183  20.689  25.377  1.00  0.00     0.060 A 
BRANCH  75  76
ATOM     76  S   UNL A   1      44.733  19.358  24.294  1.00  0.00     0.124 S 
ATOM     77  O   UNL A   1      44.528  19.936  22.969  1.00  0.00    -0.237 OA
ATOM     78  O   UNL A   1      46.122  19.183  24.703  1.00  0.00    -0.237 OA
ATOM     79  O   UNL A   1      43.841  18.253  24.631  1.00  0.00    -0.744 OA
ENDBRANCH  75  76
ENDBRANCH  54  68
BRANCH  55  80
ATOM     80  C   UNL A   1      41.259  30.218  33.084  1.00  0.00     0.058 A 
ATOM     81  C   UNL A   1      41.291  31.624  33.163  1.00  0.00     0.135 A 
ATOM     82  C   UNL A   1      40.003  29.595  33.035  1.00  0.00     0.135 A 
ATOM     83  F   UNL A   1      42.469  32.267  33.229  1.00  0.00    -0.206 F 
ATOM     84  C   UNL A   1      40.143  32.386  32.996  1.00  0.00     0.059 A 
ATOM     85  C   UNL A   1      38.835  30.345  32.880  1.00  0.00     0.059 A 
ATOM     86  F   UNL A   1      39.912  28.259  32.967  1.00  0.00    -0.206 F 
ATOM     87  C   UNL A   1      38.933  31.733  32.773  1.00  0.00     0.060 A 
BRANCH  87  88
ATOM     88  S   UNL A   1      37.568  32.718  32.110  1.00  0.00     0.124 S 
ATOM     89  O   UNL A   1      38.240  33.538  31.110  1.00  0.00    -0.237 OA
ATOM     90  O   UNL A   1      36.694  31.671  31.584  1.00  0.00    -0.237 OA
ATOM     91  O   UNL A   1      37.067  33.429  33.281  1.00  0.00    -0.744 OA
ENDBRANCH  87  88
ENDBRANCH  55  80
BRANCH  67  92
ATOM     92  C   UNL A   1      44.962  23.958  33.584  1.00  0.00     0.058 A 
ATOM     93  C   UNL A   1      44.135  22.879  33.941  1.00  0.00     0.135 A 
ATOM     94  C   UNL A   1      46.327  23.814  33.942  1.00  0.00     0.135 A 
ATOM     95  F   UNL A   1      42.851  22.824  33.562  1.00  0.00    -0.206 F 
ATOM     96  C   UNL A   1      44.606  21.776  34.661  1.00  0.00     0.059 A 
ATOM     97  C   UNL A   1      46.830  22.696  34.606  1.00  0.00     0.059 A 
ATOM     98  F   UNL A   1      47.234  24.756  33.642  1.00  0.00    -0.206 F 
ATOM     99  C   UNL A   1      45.955  21.692  34.989  1.00  0.00     0.060 A 
BRANCH  99 100
ATOM    100  S   UNL A   1      46.586  20.241  35.852  1.00  0.00     0.124 S 
ATOM    101  O   UNL A   1      46.714  20.745  37.215  1.00  0.00    -0.237 OA
ATOM    102  O   UNL A   1      45.531  19.253  35.643  1.00  0.00    -0.237 OA
ATOM    103  O   UNL A   1      47.839  19.962  35.158  1.00  0.00    -0.744 OA
ENDBRANCH  99 100
ENDBRANCH  67  92
ENDBRANCH  41  42
ENDBRANCH  33  36
ENDBRANCH  31  32
ENDBRANCH  30  31
ENDBRANCH   1  30
TORSDOF 18
ENDMDL
MODEL 3
REMARK VINA RESULT:     -14.4      4.522     11.475
REMARK SMILES Cc1ccccc1NC(=O)CSc1nc(C(=O)NCCCCNC(=O)c2ccc(-c3c4nc(c(-c5c(F)cc(S(=O)(=O)[O-])cc5F)c5ccc([nH]5)c(-c5c(F)cc(S(=O)(=O)[O-])cc5F)c5nc(c(-c6c(F)cc(S(=O)(=O)[O-])cc6F)c6ccc3[nH]6)C=C5)C=C4)cc2)c2ccccc2n1
REMARK SMILES IDX 20 1 19 2 18 3 16 4 17 5 15 7 13 8 14 9 98 10 97 11 92 12
REMARK SMILES IDX 96 13 93 14 95 15 94 16 12 17 11 18 9 19 8 20 10 22 7 23
REMARK SMILES IDX 1 24 2 25 3 26 4 27 6 28 5 29 21 30 22 31 23 32 24 33 25 35
REMARK SMILES IDX 26 36 27 37 91 38 28 39 90 40 29 41 30 42 31 43 84 44 32 45
REMARK SMILES IDX 89 46 83 47 85 48 33 49 88 50 82 51 81 52 34 54 68 55 47 56
REMARK SMILES IDX 67 57 48 58 51 59 66 60 86 61 49 62 50 63 65 65 87 66 52 67
REMARK SMILES IDX 35 68 36 69 45 70 37 71 38 72 44 73 46 74 39 75 40 76 41 77
REMARK SMILES IDX 42 78 43 79 69 80 70 81 79 82 71 83 72 84 78 85 80 86 73 87
REMARK SMILES IDX 74 88 75 89 76 90 77 91 53 92 54 93 63 94 55 95 56 96 62 97
REMARK SMILES IDX 64 98 57 99 58 100 59 101 60 102 61 103
REMARK H PARENT 18 6 8 21 23 34 85 53 51 64
REMARK Flexibility Score: inf
ROOT
ATOM      1  C   UNL A   1      36.511  21.934  24.518  1.00  0.00     0.023 C 
ENDROOT
BRANCH   1   2
ATOM      2  C   UNL A   1      36.181  20.937  25.628  1.00  0.00     0.116 C 
BRANCH   2   3
ATOM      3  N   UNL A   1      35.268  21.410  26.663  1.00  0.00    -0.351 N 
ATOM      4  C   UNL A   1      33.890  21.563  26.648  1.00  0.00     0.270 C 
ATOM      5  O   UNL A   1      33.334  21.904  27.693  1.00  0.00    -0.267 OA
ATOM      6  H   UNL A   1      35.701  21.661  27.511  1.00  0.00     0.163 HD
BRANCH   4   7
ATOM      7  C   UNL A   1      33.082  21.433  25.390  1.00  0.00     0.140 A 
ATOM      8  C   UNL A   1      32.294  22.577  23.589  1.00  0.00     0.189 A 
ATOM      9  N   UNL A   1      32.824  22.630  24.806  1.00  0.00    -0.217 NA
ATOM     10  N   UNL A   1      32.121  21.460  22.875  1.00  0.00    -0.222 NA
ATOM     11  C   UNL A   1      32.362  20.294  23.481  1.00  0.00     0.076 A 
ATOM     12  C   UNL A   1      32.755  20.199  24.817  1.00  0.00     0.032 A 
ATOM     13  C   UNL A   1      32.256  19.123  22.740  1.00  0.00     0.029 A 
ATOM     14  C   UNL A   1      32.837  18.922  25.431  1.00  0.00     0.013 A 
ATOM     15  C   UNL A   1      32.468  17.865  23.311  1.00  0.00     0.002 A 
ATOM     16  C   UNL A   1      32.724  17.761  24.671  1.00  0.00     0.001 A 
BRANCH   8  17
ATOM     17  S   UNL A   1      31.929  24.102  22.770  1.00  0.00    -0.076 SA
BRANCH  17  18
ATOM     18  C   UNL A   1      32.788  25.262  23.873  1.00  0.00     0.178 C 
BRANCH  18  19
ATOM     19  C   UNL A   1      33.436  26.428  23.162  1.00  0.00     0.234 C 
ATOM     20  N   UNL A   1      33.584  27.683  23.667  1.00  0.00    -0.325 N 
ATOM     21  H   UNL A   1      34.003  28.293  23.017  1.00  0.00     0.169 HD
ATOM     22  O   UNL A   1      33.850  26.274  22.003  1.00  0.00    -0.274 OA
BRANCH  20  23
ATOM     23  C   UNL A   1      33.293  28.335  24.881  1.00  0.00     0.044 A 
ATOM     24  C   UNL A   1      31.030  29.172  23.923  1.00  0.00     0.046 C 
ATOM     25  C   UNL A   1      32.100  29.091  24.984  1.00  0.00    -0.027 A 
ATOM     26  C   UNL A   1      31.871  29.872  26.136  1.00  0.00     0.005 A 
ATOM     27  C   UNL A   1      32.768  29.874  27.197  1.00  0.00     0.000 A 
ATOM     28  C   UNL A   1      34.136  28.288  25.996  1.00  0.00     0.026 A 
ATOM     29  C   UNL A   1      33.888  29.061  27.136  1.00  0.00     0.002 A 
ENDBRANCH  20  23
ENDBRANCH  18  19
ENDBRANCH  17  18
ENDBRANCH   8  17
ENDBRANCH   4   7
ENDBRANCH   2   3
ENDBRANCH   1   2
BRANCH   1  30
ATOM     30  C   UNL A   1      37.702  22.853  24.753  1.00  0.00     0.023 C 
BRANCH  30  31
ATOM     31  C   UNL A   1      37.824  23.437  26.156  1.00  0.00     0.116 C 
BRANCH  31  32
ATOM     32  N   UNL A   1      39.044  23.064  26.859  1.00  0.00    -0.352 N 
ATOM     33  C   UNL A   1      39.959  23.884  27.513  1.00  0.00     0.251 C 
ATOM     34  H   UNL A   1      39.249  22.101  26.875  1.00  0.00     0.163 HD
ATOM     35  O   UNL A   1      40.994  23.425  27.960  1.00  0.00    -0.269 OA
BRANCH  33  36
ATOM     36  C   UNL A   1      39.618  25.316  27.702  1.00  0.00     0.039 A 
ATOM     37  C   UNL A   1      40.057  26.250  26.757  1.00  0.00     0.014 A 
ATOM     38  C   UNL A   1      39.042  25.742  28.892  1.00  0.00     0.014 A 
ATOM     39  C   UNL A   1      40.119  27.603  27.103  1.00  0.00     0.010 A 
ATOM     40  C   UNL A   1      39.223  27.052  29.281  1.00  0.00     0.010 A 
ATOM     41  C   UNL A   1      39.797  27.982  28.402  1.00  0.00    -0.014 A 
BRANCH  41  42
ATOM     42  C   UNL A   1      40.070  29.290  28.992  1.00  0.00     0.031 A 
ATOM     43  C   UNL A   1      39.036  30.353  28.945  1.00  0.00     0.074 A 
ATOM     44  C   UNL A   1      41.151  29.439  29.787  1.00  0.00     0.049 A 
ATOM     45  N   UNL A   1      39.196  31.564  29.357  1.00  0.00    -0.248 NA
ATOM     46  C   UNL A   1      37.717  30.126  28.367  1.00  0.00     0.031 C 
ATOM     47  C   UNL A   1      41.334  30.423  30.851  1.00  0.00     0.029 A 
ATOM     48  N   UNL A   1      42.404  28.837  29.656  1.00  0.00    -0.354 N 
ATOM     49  C   UNL A   1      37.960  32.177  29.385  1.00  0.00     0.074 A 
ATOM     50  C   UNL A   1      37.093  31.263  28.683  1.00  0.00     0.031 C 
ATOM     51  C   UNL A   1      42.642  30.539  31.122  1.00  0.00     0.029 A 
ATOM     52  C   UNL A   1      43.355  29.766  30.122  1.00  0.00     0.049 A 
ATOM     53  H   UNL A   1      42.587  27.935  29.305  1.00  0.00     0.167 HD
ATOM     54  C   UNL A   1      37.810  33.324  30.114  1.00  0.00     0.037 A 
ATOM     55  C   UNL A   1      44.293  30.294  29.279  1.00  0.00     0.037 A 
ATOM     56  C   UNL A   1      39.118  33.830  30.543  1.00  0.00     0.049 A 
ATOM     57  C   UNL A   1      44.202  31.792  29.102  1.00  0.00     0.074 A 
ATOM     58  C   UNL A   1      39.814  33.777  31.740  1.00  0.00     0.029 A 
ATOM     59  N   UNL A   1      40.031  34.253  29.580  1.00  0.00    -0.354 N 
ATOM     60  N   UNL A   1      43.161  32.507  29.428  1.00  0.00    -0.248 NA
ATOM     61  C   UNL A   1      45.276  32.606  28.541  1.00  0.00     0.031 C 
ATOM     62  C   UNL A   1      41.171  34.100  31.475  1.00  0.00     0.029 A 
ATOM     63  C   UNL A   1      41.295  34.373  30.123  1.00  0.00     0.049 A 
ATOM     64  H   UNL A   1      39.805  34.440  28.639  1.00  0.00     0.167 HD
ATOM     65  C   UNL A   1      43.381  33.823  29.110  1.00  0.00     0.074 A 
ATOM     66  C   UNL A   1      44.735  33.836  28.588  1.00  0.00     0.031 C 
ATOM     67  C   UNL A   1      42.424  34.784  29.296  1.00  0.00     0.037 A 
BRANCH  54  68
ATOM     68  C   UNL A   1      36.485  33.845  30.668  1.00  0.00     0.058 A 
ATOM     69  C   UNL A   1      35.459  34.276  29.793  1.00  0.00     0.135 A 
ATOM     70  C   UNL A   1      36.180  34.031  32.032  1.00  0.00     0.135 A 
ATOM     71  F   UNL A   1      35.542  34.091  28.469  1.00  0.00    -0.206 F 
ATOM     72  C   UNL A   1      34.296  34.927  30.227  1.00  0.00     0.059 A 
ATOM     73  C   UNL A   1      35.047  34.714  32.489  1.00  0.00     0.059 A 
ATOM     74  F   UNL A   1      36.930  33.513  33.005  1.00  0.00    -0.206 F 
ATOM     75  C   UNL A   1      34.114  35.174  31.580  1.00  0.00     0.060 A 
BRANCH  75  76
ATOM     76  S   UNL A   1      32.651  36.067  32.133  1.00  0.00     0.124 S 
ATOM     77  O   UNL A   1      32.272  36.809  30.934  1.00  0.00    -0.237 OA
ATOM     78  O   UNL A   1      31.756  34.982  32.519  1.00  0.00    -0.237 OA
ATOM     79  O   UNL A   1      33.147  36.886  33.236  1.00  0.00    -0.744 OA
ENDBRANCH  75  76
ENDBRANCH  54  68
BRANCH  55  80
ATOM     80  C   UNL A   1      44.767  29.316  28.261  1.00  0.00     0.058 A 
ATOM     81  C   UNL A   1      45.662  28.322  28.705  1.00  0.00     0.135 A 
ATOM     82  C   UNL A   1      44.011  29.048  27.111  1.00  0.00     0.135 A 
ATOM     83  F   UNL A   1      46.420  28.537  29.791  1.00  0.00    -0.206 F 
ATOM     84  C   UNL A   1      45.659  27.047  28.156  1.00  0.00     0.059 A 
ATOM     85  C   UNL A   1      44.004  27.775  26.536  1.00  0.00     0.059 A 
ATOM     86  F   UNL A   1      43.149  29.961  26.639  1.00  0.00    -0.206 F 
ATOM     87  C   UNL A   1      44.766  26.765  27.125  1.00  0.00     0.060 A 
BRANCH  87  88
ATOM     88  S   UNL A   1      44.456  25.022  26.749  1.00  0.00     0.124 S 
ATOM     89  O   UNL A   1      43.248  25.096  25.934  1.00  0.00    -0.237 OA
ATOM     90  O   UNL A   1      45.679  24.665  26.033  1.00  0.00    -0.237 OA
ATOM     91  O   UNL A   1      44.296  24.418  28.067  1.00  0.00    -0.744 OA
ENDBRANCH  87  88
ENDBRANCH  55  80
BRANCH  67  92
ATOM     92  C   UNL A   1      42.476  36.216  28.799  1.00  0.00     0.058 A 
ATOM     93  C   UNL A   1      43.128  37.267  29.466  1.00  0.00     0.135 A 
ATOM     94  C   UNL A   1      41.963  36.544  27.517  1.00  0.00     0.135 A 
ATOM     95  F   UNL A   1      43.764  37.071  30.629  1.00  0.00    -0.206 F 
ATOM     96  C   UNL A   1      43.203  38.561  28.941  1.00  0.00     0.059 A 
ATOM     97  C   UNL A   1      42.079  37.811  26.949  1.00  0.00     0.059 A 
ATOM     98  F   UNL A   1      41.338  35.632  26.758  1.00  0.00    -0.206 F 
ATOM     99  C   UNL A   1      42.676  38.825  27.681  1.00  0.00     0.060 A 
BRANCH  99 100
ATOM    100  S   UNL A   1      42.833  40.471  26.964  1.00  0.00     0.124 S 
ATOM    101  O   UNL A   1      43.421  41.217  28.071  1.00  0.00    -0.237 OA
ATOM    102  O   UNL A   1      43.712  40.246  25.819  1.00  0.00    -0.237 OA
ATOM    103  O   UNL A   1      41.455  40.817  26.626  1.00  0.00    -0.744 OA
ENDBRANCH  99 100
ENDBRANCH  67  92
ENDBRANCH  41  42
ENDBRANCH  33  36
ENDBRANCH  31  32
ENDBRANCH  30  31
ENDBRANCH   1  30
TORSDOF 18
ENDMDL
