MODEL 1
REMARK VINA RESULT:     -11.6      0.000      0.000
REMARK SMILES Cc1ccc(-c2cc(C(=O)NCCCCNC(=O)c3ccc(-c4c5nc(c(-c6c(F)cc(S(=O)(=O)[O-])cc6F)c6ccc([nH]6)c(-c6c(F)cc(S(=O)(=O)[O-])cc6F)c6nc(c(-c7c(F)cc(S(=O)(=O)[O-])cc7F)c7ccc4[nH]7)C=C6)C=C5)cc3)ccc2F)cc1O
REMARK SMILES IDX 14 1 13 2 12 3 11 4 9 5 10 6 8 8 6 9 7 10 87 11 86 12 88 13
REMARK SMILES IDX 85 14 5 15 1 16 2 17 3 18 90 19 4 20 89 21 91 22 15 24 16 25
REMARK SMILES IDX 17 26 18 28 19 29 20 30 84 31 21 32 83 33 22 34 23 35 24 36
REMARK SMILES IDX 77 37 25 38 82 39 76 40 78 41 26 42 81 43 75 44 74 45 27 47
REMARK SMILES IDX 61 48 40 49 60 50 41 51 44 52 59 53 79 54 42 55 43 56 58 58
REMARK SMILES IDX 80 59 45 60 28 61 29 62 38 63 30 64 31 65 37 66 39 67 32 68
REMARK SMILES IDX 33 69 34 70 35 71 36 72 62 73 63 74 72 75 64 76 65 77 71 78
REMARK SMILES IDX 73 79 66 80 67 81 68 82 69 83 70 84 46 85 47 86 56 87 48 88
REMARK SMILES IDX 49 89 55 90 57 91 50 92 51 93 52 94 53 95 54 96
REMARK H PARENT 11 7 91 23 16 27 78 46 44 57
REMARK Flexibility Score: inf
ROOT
ATOM      1  C   UNL A   1      34.859  23.694  25.765  1.00  0.00     0.023 C 
ENDROOT
BRANCH   1   2
ATOM      2  C   UNL A   1      34.190  22.858  26.862  1.00  0.00     0.023 C 
BRANCH   2   3
ATOM      3  C   UNL A   1      33.104  21.913  26.346  1.00  0.00     0.116 C 
BRANCH   3   4
ATOM      4  N   UNL A   1      31.841  22.201  26.989  1.00  0.00    -0.352 N 
ATOM      5  C   UNL A   1      30.942  23.228  26.869  1.00  0.00     0.251 C 
ATOM      6  O   UNL A   1      29.953  23.186  27.604  1.00  0.00    -0.269 OA
ATOM      7  H   UNL A   1      31.570  21.520  27.647  1.00  0.00     0.163 HD
BRANCH   5   8
ATOM      8  C   UNL A   1      31.062  24.354  25.891  1.00  0.00     0.040 A 
ATOM      9  C   UNL A   1      31.791  26.686  25.576  1.00  0.00     0.018 A 
ATOM     10  C   UNL A   1      31.628  25.547  26.384  1.00  0.00     0.025 A 
ATOM     11  C   UNL A   1      31.332  26.620  24.256  1.00  0.00     0.131 A 
ATOM     12  C   UNL A   1      30.800  25.446  23.736  1.00  0.00     0.041 A 
ATOM     13  F   UNL A   1      31.435  27.684  23.445  1.00  0.00    -0.206 F 
ATOM     14  C   UNL A   1      30.699  24.308  24.542  1.00  0.00     0.017 A 
BRANCH   9  15
ATOM     15  C   UNL A   1      32.475  27.879  26.084  1.00  0.00    -0.012 A 
ATOM     16  C   UNL A   1      34.411  31.355  27.805  1.00  0.00     0.048 C 
ATOM     17  C   UNL A   1      33.729  30.172  27.185  1.00  0.00    -0.009 A 
ATOM     18  C   UNL A   1      34.432  28.968  27.034  1.00  0.00     0.008 A 
ATOM     19  C   UNL A   1      32.397  30.214  26.761  1.00  0.00     0.119 A 
ATOM     20  C   UNL A   1      33.813  27.836  26.494  1.00  0.00     0.009 A 
ATOM     21  C   UNL A   1      31.781  29.091  26.213  1.00  0.00     0.055 A 
BRANCH  19  22
ATOM     22  O   UNL A   1      31.618  31.332  26.867  1.00  0.00    -0.508 OA
ATOM     23  H   UNL A   1      32.007  32.155  27.090  1.00  0.00     0.293 HD
ENDBRANCH  19  22
ENDBRANCH   9  15
ENDBRANCH   5   8
ENDBRANCH   3   4
ENDBRANCH   2   3
ENDBRANCH   1   2
BRANCH   1  24
ATOM     24  C   UNL A   1      36.306  24.083  26.047  1.00  0.00     0.116 C 
BRANCH  24  25
ATOM     25  N   UNL A   1      37.200  22.939  26.120  1.00  0.00    -0.352 N 
ATOM     26  C   UNL A   1      38.526  22.904  26.480  1.00  0.00     0.251 C 
ATOM     27  H   UNL A   1      36.802  22.072  25.879  1.00  0.00     0.163 HD
ATOM     28  O   UNL A   1      39.161  21.866  26.365  1.00  0.00    -0.269 OA
BRANCH  26  29
ATOM     29  C   UNL A   1      39.177  24.136  26.971  1.00  0.00     0.039 A 
ATOM     30  C   UNL A   1      39.810  24.972  26.050  1.00  0.00     0.014 A 
ATOM     31  C   UNL A   1      39.165  24.465  28.330  1.00  0.00     0.014 A 
ATOM     32  C   UNL A   1      40.399  26.158  26.488  1.00  0.00     0.010 A 
ATOM     33  C   UNL A   1      39.678  25.687  28.752  1.00  0.00     0.010 A 
ATOM     34  C   UNL A   1      40.319  26.535  27.840  1.00  0.00    -0.014 A 
BRANCH  34  35
ATOM     35  C   UNL A   1      40.943  27.796  28.313  1.00  0.00     0.031 A 
ATOM     36  C   UNL A   1      42.426  28.005  28.162  1.00  0.00     0.074 A 
ATOM     37  C   UNL A   1      40.178  28.746  28.883  1.00  0.00     0.049 A 
ATOM     38  N   UNL A   1      43.151  29.043  28.487  1.00  0.00    -0.248 NA
ATOM     39  C   UNL A   1      43.200  26.891  27.588  1.00  0.00     0.031 C 
ATOM     40  C   UNL A   1      38.737  28.640  29.121  1.00  0.00     0.029 A 
ATOM     41  N   UNL A   1      40.499  29.995  29.350  1.00  0.00    -0.354 N 
ATOM     42  C   UNL A   1      44.457  28.712  28.151  1.00  0.00     0.074 A 
ATOM     43  C   UNL A   1      44.440  27.347  27.676  1.00  0.00     0.031 C 
ATOM     44  C   UNL A   1      38.289  29.796  29.634  1.00  0.00     0.029 A 
ATOM     45  C   UNL A   1      39.414  30.714  29.792  1.00  0.00     0.049 A 
ATOM     46  H   UNL A   1      41.420  30.344  29.367  1.00  0.00     0.167 HD
ATOM     47  C   UNL A   1      45.567  29.488  28.195  1.00  0.00     0.037 A 
ATOM     48  C   UNL A   1      39.331  31.978  30.252  1.00  0.00     0.037 A 
ATOM     49  C   UNL A   1      45.575  30.850  28.660  1.00  0.00     0.049 A 
ATOM     50  C   UNL A   1      40.579  32.817  30.309  1.00  0.00     0.074 A 
ATOM     51  C   UNL A   1      46.642  31.726  28.742  1.00  0.00     0.029 A 
ATOM     52  N   UNL A   1      44.458  31.537  29.112  1.00  0.00    -0.354 N 
ATOM     53  N   UNL A   1      41.805  32.496  29.966  1.00  0.00    -0.248 NA
ATOM     54  C   UNL A   1      40.431  34.191  30.803  1.00  0.00     0.031 C 
ATOM     55  C   UNL A   1      46.176  32.932  29.278  1.00  0.00     0.029 A 
ATOM     56  C   UNL A   1      44.810  32.825  29.479  1.00  0.00     0.049 A 
ATOM     57  H   UNL A   1      43.548  31.163  29.165  1.00  0.00     0.167 HD
ATOM     58  C   UNL A   1      42.568  33.641  30.168  1.00  0.00     0.074 A 
ATOM     59  C   UNL A   1      41.663  34.661  30.660  1.00  0.00     0.031 C 
ATOM     60  C   UNL A   1      43.894  33.832  29.958  1.00  0.00     0.037 A 
BRANCH  47  61
ATOM     61  C   UNL A   1      46.855  28.882  27.704  1.00  0.00     0.058 A 
ATOM     62  C   UNL A   1      47.751  28.272  28.594  1.00  0.00     0.135 A 
ATOM     63  C   UNL A   1      47.211  28.922  26.344  1.00  0.00     0.135 A 
ATOM     64  F   UNL A   1      47.462  28.198  29.903  1.00  0.00    -0.206 F 
ATOM     65  C   UNL A   1      48.954  27.725  28.157  1.00  0.00     0.059 A 
ATOM     66  C   UNL A   1      48.394  28.355  25.880  1.00  0.00     0.059 A 
ATOM     67  F   UNL A   1      46.380  29.472  25.445  1.00  0.00    -0.206 F 
ATOM     68  C   UNL A   1      49.265  27.767  26.796  1.00  0.00     0.060 A 
BRANCH  68  69
ATOM     69  S   UNL A   1      50.797  26.997  26.234  1.00  0.00     0.124 S 
ATOM     70  O   UNL A   1      51.390  26.557  27.492  1.00  0.00    -0.237 OA
ATOM     71  O   UNL A   1      50.305  25.940  25.356  1.00  0.00    -0.237 OA
ATOM     72  O   UNL A   1      51.495  28.087  25.556  1.00  0.00    -0.744 OA
ENDBRANCH  68  69
ENDBRANCH  47  61
BRANCH  48  73
ATOM     73  C   UNL A   1      38.004  32.543  30.612  1.00  0.00     0.058 A 
ATOM     74  C   UNL A   1      37.210  33.213  29.669  1.00  0.00     0.135 A 
ATOM     75  C   UNL A   1      37.530  32.468  31.931  1.00  0.00     0.135 A 
ATOM     76  F   UNL A   1      37.625  33.323  28.398  1.00  0.00    -0.206 F 
ATOM     77  C   UNL A   1      36.007  33.812  30.025  1.00  0.00     0.059 A 
ATOM     78  C   UNL A   1      36.317  33.038  32.306  1.00  0.00     0.059 A 
ATOM     79  F   UNL A   1      38.249  31.830  32.866  1.00  0.00    -0.206 F 
ATOM     80  C   UNL A   1      35.572  33.725  31.349  1.00  0.00     0.060 A 
BRANCH  80  81
ATOM     81  S   UNL A   1      34.023  34.539  31.797  1.00  0.00     0.124 S 
ATOM     82  O   UNL A   1      33.491  33.622  32.799  1.00  0.00    -0.237 OA
ATOM     83  O   UNL A   1      34.491  35.826  32.298  1.00  0.00    -0.237 OA
ATOM     84  O   UNL A   1      33.289  34.587  30.537  1.00  0.00    -0.744 OA
ENDBRANCH  80  81
ENDBRANCH  48  73
BRANCH  60  85
ATOM     85  C   UNL A   1      44.449  35.207  30.215  1.00  0.00     0.058 A 
ATOM     86  C   UNL A   1      44.918  35.551  31.493  1.00  0.00     0.135 A 
ATOM     87  C   UNL A   1      44.465  36.198  29.221  1.00  0.00     0.135 A 
ATOM     88  F   UNL A   1      44.918  34.644  32.482  1.00  0.00    -0.206 F 
ATOM     89  C   UNL A   1      45.375  36.832  31.779  1.00  0.00     0.059 A 
ATOM     90  C   UNL A   1      44.946  37.479  29.477  1.00  0.00     0.059 A 
ATOM     91  F   UNL A   1      44.035  35.917  27.980  1.00  0.00    -0.206 F 
ATOM     92  C   UNL A   1      45.387  37.790  30.764  1.00  0.00     0.060 A 
BRANCH  92  93
ATOM     93  S   UNL A   1      46.020  39.437  31.144  1.00  0.00     0.124 S 
ATOM     94  O   UNL A   1      44.829  40.102  31.661  1.00  0.00    -0.237 OA
ATOM     95  O   UNL A   1      47.063  39.149  32.125  1.00  0.00    -0.237 OA
ATOM     96  O   UNL A   1      46.501  39.921  29.854  1.00  0.00    -0.744 OA
ENDBRANCH  92  93
ENDBRANCH  60  85
ENDBRANCH  34  35
ENDBRANCH  26  29
ENDBRANCH  24  25
ENDBRANCH   1  24
TORSDOF 16
ENDMDL
MODEL 2
REMARK VINA RESULT:     -11.6      4.101     10.667
REMARK SMILES Cc1ccc(-c2cc(C(=O)NCCCCNC(=O)c3ccc(-c4c5nc(c(-c6c(F)cc(S(=O)(=O)[O-])cc6F)c6ccc([nH]6)c(-c6c(F)cc(S(=O)(=O)[O-])cc6F)c6nc(c(-c7c(F)cc(S(=O)(=O)[O-])cc7F)c7ccc4[nH]7)C=C6)C=C5)cc3)ccc2F)cc1O
REMARK SMILES IDX 14 1 13 2 12 3 11 4 9 5 10 6 8 8 6 9 7 10 87 11 86 12 88 13
REMARK SMILES IDX 85 14 5 15 1 16 2 17 3 18 90 19 4 20 89 21 91 22 15 24 16 25
REMARK SMILES IDX 17 26 18 28 19 29 20 30 84 31 21 32 83 33 22 34 23 35 24 36
REMARK SMILES IDX 77 37 25 38 82 39 76 40 78 41 26 42 81 43 75 44 74 45 27 47
REMARK SMILES IDX 61 48 40 49 60 50 41 51 44 52 59 53 79 54 42 55 43 56 58 58
REMARK SMILES IDX 80 59 45 60 28 61 29 62 38 63 30 64 31 65 37 66 39 67 32 68
REMARK SMILES IDX 33 69 34 70 35 71 36 72 62 73 63 74 72 75 64 76 65 77 71 78
REMARK SMILES IDX 73 79 66 80 67 81 68 82 69 83 70 84 46 85 47 86 56 87 48 88
REMARK SMILES IDX 49 89 55 90 57 91 50 92 51 93 52 94 53 95 54 96
REMARK H PARENT 11 7 91 23 16 27 78 46 44 57
REMARK Flexibility Score: inf
ROOT
ATOM      1  C   UNL A   1      34.713  32.911  29.941  1.00  0.00     0.023 C 
ENDROOT
BRANCH   1   2
ATOM      2  C   UNL A   1      35.595  34.108  30.316  1.00  0.00     0.023 C 
BRANCH   2   3
ATOM      3  C   UNL A   1      35.575  34.449  31.807  1.00  0.00     0.116 C 
BRANCH   3   4
ATOM      4  N   UNL A   1      36.918  34.703  32.281  1.00  0.00    -0.352 N 
ATOM      5  C   UNL A   1      37.910  33.890  32.762  1.00  0.00     0.251 C 
ATOM      6  O   UNL A   1      38.953  34.442  33.119  1.00  0.00    -0.269 OA
ATOM      7  H   UNL A   1      37.171  35.654  32.253  1.00  0.00     0.163 HD
BRANCH   5   8
ATOM      8  C   UNL A   1      37.825  32.399  32.842  1.00  0.00     0.040 A 
ATOM      9  C   UNL A   1      39.113  30.311  33.063  1.00  0.00     0.018 A 
ATOM     10  C   UNL A   1      39.048  31.713  32.985  1.00  0.00     0.025 A 
ATOM     11  C   UNL A   1      37.917  29.595  32.952  1.00  0.00     0.131 A 
ATOM     12  C   UNL A   1      36.695  30.248  32.843  1.00  0.00     0.041 A 
ATOM     13  F   UNL A   1      37.919  28.254  32.991  1.00  0.00    -0.206 F 
ATOM     14  C   UNL A   1      36.648  31.645  32.825  1.00  0.00     0.017 A 
BRANCH   9  15
ATOM     15  C   UNL A   1      40.387  29.629  33.312  1.00  0.00    -0.012 A 
ATOM     16  C   UNL A   1      44.264  27.794  33.942  1.00  0.00     0.048 C 
ATOM     17  C   UNL A   1      42.911  28.399  33.712  1.00  0.00    -0.009 A 
ATOM     18  C   UNL A   1      42.327  29.188  34.713  1.00  0.00     0.008 A 
ATOM     19  C   UNL A   1      42.205  28.221  32.518  1.00  0.00     0.119 A 
ATOM     20  C   UNL A   1      41.084  29.797  34.515  1.00  0.00     0.009 A 
ATOM     21  C   UNL A   1      40.962  28.819  32.322  1.00  0.00     0.055 A 
BRANCH  19  22
ATOM     22  O   UNL A   1      42.684  27.479  31.475  1.00  0.00    -0.508 OA
ATOM     23  H   UNL A   1      42.088  27.033  30.905  1.00  0.00     0.293 HD
ENDBRANCH  19  22
ENDBRANCH   9  15
ENDBRANCH   5   8
ENDBRANCH   3   4
ENDBRANCH   2   3
ENDBRANCH   1   2
BRANCH   1  24
ATOM     24  C   UNL A   1      34.628  32.621  28.446  1.00  0.00     0.116 C 
BRANCH  24  25
ATOM     25  N   UNL A   1      33.892  31.404  28.143  1.00  0.00    -0.352 N 
ATOM     26  C   UNL A   1      34.377  30.135  27.932  1.00  0.00     0.251 C 
ATOM     27  H   UNL A   1      32.914  31.502  28.081  1.00  0.00     0.163 HD
ATOM     28  O   UNL A   1      33.620  29.248  27.564  1.00  0.00    -0.269 OA
BRANCH  26  29
ATOM     29  C   UNL A   1      35.817  29.867  28.122  1.00  0.00     0.039 A 
ATOM     30  C   UNL A   1      36.247  29.364  29.351  1.00  0.00     0.014 A 
ATOM     31  C   UNL A   1      36.737  30.109  27.098  1.00  0.00     0.014 A 
ATOM     32  C   UNL A   1      37.598  29.069  29.539  1.00  0.00     0.010 A 
ATOM     33  C   UNL A   1      38.067  29.736  27.259  1.00  0.00     0.010 A 
ATOM     34  C   UNL A   1      38.515  29.233  28.487  1.00  0.00    -0.014 A 
BRANCH  34  35
ATOM     35  C   UNL A   1      39.953  28.920  28.680  1.00  0.00     0.031 A 
ATOM     36  C   UNL A   1      40.868  29.942  29.299  1.00  0.00     0.074 A 
ATOM     37  C   UNL A   1      40.433  27.723  28.292  1.00  0.00     0.049 A 
ATOM     38  N   UNL A   1      42.144  29.849  29.574  1.00  0.00    -0.248 NA
ATOM     39  C   UNL A   1      40.279  31.249  29.633  1.00  0.00     0.031 C 
ATOM     40  C   UNL A   1      39.651  26.669  27.644  1.00  0.00     0.029 A 
ATOM     41  N   UNL A   1      41.689  27.182  28.403  1.00  0.00    -0.354 N 
ATOM     42  C   UNL A   1      42.503  31.075  30.118  1.00  0.00     0.074 A 
ATOM     43  C   UNL A   1      41.336  31.924  30.058  1.00  0.00     0.031 C 
ATOM     44  C   UNL A   1      40.428  25.589  27.469  1.00  0.00     0.029 A 
ATOM     45  C   UNL A   1      41.771  25.884  27.961  1.00  0.00     0.049 A 
ATOM     46  H   UNL A   1      42.459  27.678  28.766  1.00  0.00     0.167 HD
ATOM     47  C   UNL A   1      43.688  31.448  30.659  1.00  0.00     0.037 A 
ATOM     48  C   UNL A   1      42.806  25.021  27.971  1.00  0.00     0.037 A 
ATOM     49  C   UNL A   1      44.844  30.593  30.725  1.00  0.00     0.049 A 
ATOM     50  C   UNL A   1      44.118  25.461  28.561  1.00  0.00     0.074 A 
ATOM     51  C   UNL A   1      46.092  30.870  31.254  1.00  0.00     0.029 A 
ATOM     52  N   UNL A   1      44.890  29.289  30.253  1.00  0.00    -0.354 N 
ATOM     53  N   UNL A   1      44.436  26.618  29.094  1.00  0.00    -0.248 NA
ATOM     54  C   UNL A   1      45.207  24.477  28.561  1.00  0.00     0.031 C 
ATOM     55  C   UNL A   1      46.903  29.745  31.070  1.00  0.00     0.029 A 
ATOM     56  C   UNL A   1      46.145  28.749  30.476  1.00  0.00     0.049 A 
ATOM     57  H   UNL A   1      44.140  28.817  29.823  1.00  0.00     0.167 HD
ATOM     58  C   UNL A   1      45.751  26.488  29.527  1.00  0.00     0.074 A 
ATOM     59  C   UNL A   1      46.166  25.140  29.196  1.00  0.00     0.031 C 
ATOM     60  C   UNL A   1      46.540  27.400  30.148  1.00  0.00     0.037 A 
BRANCH  47  61
ATOM     61  C   UNL A   1      43.777  32.834  31.241  1.00  0.00     0.058 A 
ATOM     62  C   UNL A   1      44.242  33.911  30.472  1.00  0.00     0.135 A 
ATOM     63  C   UNL A   1      43.416  33.092  32.575  1.00  0.00     0.135 A 
ATOM     64  F   UNL A   1      44.595  33.727  29.191  1.00  0.00    -0.206 F 
ATOM     65  C   UNL A   1      44.348  35.193  31.003  1.00  0.00     0.059 A 
ATOM     66  C   UNL A   1      43.485  34.371  33.118  1.00  0.00     0.059 A 
ATOM     67  F   UNL A   1      42.942  32.103  33.350  1.00  0.00    -0.206 F 
ATOM     68  C   UNL A   1      43.962  35.415  32.327  1.00  0.00     0.060 A 
BRANCH  68  69
ATOM     69  S   UNL A   1      44.044  37.094  32.982  1.00  0.00     0.124 S 
ATOM     70  O   UNL A   1      43.881  37.896  31.775  1.00  0.00    -0.237 OA
ATOM     71  O   UNL A   1      42.922  37.113  33.917  1.00  0.00    -0.237 OA
ATOM     72  O   UNL A   1      45.364  37.151  33.603  1.00  0.00    -0.744 OA
ENDBRANCH  68  69
ENDBRANCH  47  61
BRANCH  48  73
ATOM     73  C   UNL A   1      42.607  23.631  27.481  1.00  0.00     0.058 A 
ATOM     74  C   UNL A   1      42.396  22.563  28.366  1.00  0.00     0.135 A 
ATOM     75  C   UNL A   1      42.681  23.340  26.110  1.00  0.00     0.135 A 
ATOM     76  F   UNL A   1      42.330  22.787  29.687  1.00  0.00    -0.206 F 
ATOM     77  C   UNL A   1      42.292  21.253  27.912  1.00  0.00     0.059 A 
ATOM     78  C   UNL A   1      42.555  22.040  25.630  1.00  0.00     0.059 A 
ATOM     79  F   UNL A   1      42.873  24.329  25.225  1.00  0.00    -0.206 F 
ATOM     80  C   UNL A   1      42.380  21.000  26.542  1.00  0.00     0.060 A 
BRANCH  80  81
ATOM     81  S   UNL A   1      42.277  19.287  25.978  1.00  0.00     0.124 S 
ATOM     82  O   UNL A   1      42.758  18.565  27.151  1.00  0.00    -0.237 OA
ATOM     83  O   UNL A   1      40.854  19.149  25.686  1.00  0.00    -0.237 OA
ATOM     84  O   UNL A   1      43.160  19.259  24.817  1.00  0.00    -0.744 OA
ENDBRANCH  80  81
ENDBRANCH  48  73
BRANCH  60  85
ATOM     85  C   UNL A   1      47.921  26.964  30.556  1.00  0.00     0.058 A 
ATOM     86  C   UNL A   1      48.136  26.399  31.823  1.00  0.00     0.135 A 
ATOM     87  C   UNL A   1      49.035  27.155  29.725  1.00  0.00     0.135 A 
ATOM     88  F   UNL A   1      47.106  26.201  32.661  1.00  0.00    -0.206 F 
ATOM     89  C   UNL A   1      49.409  26.046  32.256  1.00  0.00     0.059 A 
ATOM     90  C   UNL A   1      50.315  26.782  30.126  1.00  0.00     0.059 A 
ATOM     91  F   UNL A   1      48.882  27.684  28.500  1.00  0.00    -0.206 F 
ATOM     92  C   UNL A   1      50.493  26.240  31.399  1.00  0.00     0.060 A 
BRANCH  92  93
ATOM     93  S   UNL A   1      52.134  25.742  31.963  1.00  0.00     0.124 S 
ATOM     94  O   UNL A   1      52.941  25.968  30.769  1.00  0.00    -0.237 OA
ATOM     95  O   UNL A   1      52.371  26.661  33.073  1.00  0.00    -0.237 OA
ATOM     96  O   UNL A   1      51.952  24.345  32.344  1.00  0.00    -0.744 OA
ENDBRANCH  92  93
ENDBRANCH  60  85
ENDBRANCH  34  35
ENDBRANCH  26  29
ENDBRANCH  24  25
ENDBRANCH   1  24
TORSDOF 16
ENDMDL
MODEL 3
REMARK VINA RESULT:     -11.5      4.643     10.090
REMARK SMILES Cc1ccc(-c2cc(C(=O)NCCCCNC(=O)c3ccc(-c4c5nc(c(-c6c(F)cc(S(=O)(=O)[O-])cc6F)c6ccc([nH]6)c(-c6c(F)cc(S(=O)(=O)[O-])cc6F)c6nc(c(-c7c(F)cc(S(=O)(=O)[O-])cc7F)c7ccc4[nH]7)C=C6)C=C5)cc3)ccc2F)cc1O
REMARK SMILES IDX 14 1 13 2 12 3 11 4 9 5 10 6 8 8 6 9 7 10 87 11 86 12 88 13
REMARK SMILES IDX 85 14 5 15 1 16 2 17 3 18 90 19 4 20 89 21 91 22 15 24 16 25
REMARK SMILES IDX 17 26 18 28 19 29 20 30 84 31 21 32 83 33 22 34 23 35 24 36
REMARK SMILES IDX 77 37 25 38 82 39 76 40 78 41 26 42 81 43 75 44 74 45 27 47
REMARK SMILES IDX 61 48 40 49 60 50 41 51 44 52 59 53 79 54 42 55 43 56 58 58
REMARK SMILES IDX 80 59 45 60 28 61 29 62 38 63 30 64 31 65 37 66 39 67 32 68
REMARK SMILES IDX 33 69 34 70 35 71 36 72 62 73 63 74 72 75 64 76 65 77 71 78
REMARK SMILES IDX 73 79 66 80 67 81 68 82 69 83 70 84 46 85 47 86 56 87 48 88
REMARK SMILES IDX 49 89 55 90 57 91 50 92 51 93 52 94 53 95 54 96
REMARK H PARENT 11 7 91 23 16 27 78 46 44 57
REMARK Flexibility Score: inf
ROOT
ATOM      1  C   UNL A   1      33.112  27.535  25.463  1.00  0.00     0.023 C 
ENDROOT
BRANCH   1   2
ATOM      2  C   UNL A   1      32.042  27.402  26.553  1.00  0.00     0.023 C 
BRANCH   2   3
ATOM      3  C   UNL A   1      30.757  26.720  26.080  1.00  0.00     0.116 C 
BRANCH   3   4
ATOM      4  N   UNL A   1      30.590  25.447  26.747  1.00  0.00    -0.352 N 
ATOM      5  C   UNL A   1      31.046  24.183  26.479  1.00  0.00     0.251 C 
ATOM      6  O   UNL A   1      30.687  23.290  27.251  1.00  0.00    -0.269 OA
ATOM      7  H   UNL A   1      30.038  25.498  27.560  1.00  0.00     0.163 HD
BRANCH   5   8
ATOM      8  C   UNL A   1      31.967  23.830  25.355  1.00  0.00     0.040 A 
ATOM      9  C   UNL A   1      34.279  23.235  24.748  1.00  0.00     0.018 A 
ATOM     10  C   UNL A   1      33.306  23.569  25.707  1.00  0.00     0.025 A 
ATOM     11  C   UNL A   1      33.889  23.208  23.405  1.00  0.00     0.131 A 
ATOM     12  C   UNL A   1      32.568  23.430  23.034  1.00  0.00     0.041 A 
ATOM     13  F   UNL A   1      34.779  22.924  22.443  1.00  0.00    -0.206 F 
ATOM     14  C   UNL A   1      31.605  23.705  24.010  1.00  0.00     0.017 A 
BRANCH   9  15
ATOM     15  C   UNL A   1      35.640  22.869  25.152  1.00  0.00    -0.012 A 
ATOM     16  C   UNL A   1      39.736  21.830  26.122  1.00  0.00     0.048 C 
ATOM     17  C   UNL A   1      38.309  22.160  25.802  1.00  0.00    -0.009 A 
ATOM     18  C   UNL A   1      37.831  23.458  26.034  1.00  0.00     0.008 A 
ATOM     19  C   UNL A   1      37.427  21.221  25.258  1.00  0.00     0.119 A 
ATOM     20  C   UNL A   1      36.515  23.809  25.711  1.00  0.00     0.009 A 
ATOM     21  C   UNL A   1      36.113  21.565  24.944  1.00  0.00     0.055 A 
BRANCH  19  22
ATOM     22  O   UNL A   1      37.789  19.932  24.984  1.00  0.00    -0.508 OA
ATOM     23  H   UNL A   1      37.471  19.232  25.520  1.00  0.00     0.293 HD
ENDBRANCH  19  22
ENDBRANCH   9  15
ENDBRANCH   5   8
ENDBRANCH   3   4
ENDBRANCH   2   3
ENDBRANCH   1   2
BRANCH   1  24
ATOM     24  C   UNL A   1      34.235  28.516  25.783  1.00  0.00     0.116 C 
BRANCH  24  25
ATOM     25  N   UNL A   1      33.750  29.799  26.265  1.00  0.00    -0.352 N 
ATOM     26  C   UNL A   1      34.265  30.594  27.261  1.00  0.00     0.251 C 
ATOM     27  H   UNL A   1      32.944  30.145  25.818  1.00  0.00     0.163 HD
ATOM     28  O   UNL A   1      33.654  31.590  27.623  1.00  0.00    -0.269 OA
BRANCH  26  29
ATOM     29  C   UNL A   1      35.539  30.216  27.907  1.00  0.00     0.039 A 
ATOM     30  C   UNL A   1      36.731  30.716  27.379  1.00  0.00     0.014 A 
ATOM     31  C   UNL A   1      35.560  29.376  29.024  1.00  0.00     0.014 A 
ATOM     32  C   UNL A   1      37.942  30.402  27.996  1.00  0.00     0.010 A 
ATOM     33  C   UNL A   1      36.758  29.133  29.686  1.00  0.00     0.010 A 
ATOM     34  C   UNL A   1      37.963  29.624  29.168  1.00  0.00    -0.014 A 
BRANCH  34  35
ATOM     35  C   UNL A   1      39.248  29.286  29.829  1.00  0.00     0.031 A 
ATOM     36  C   UNL A   1      39.651  29.992  31.095  1.00  0.00     0.074 A 
ATOM     37  C   UNL A   1      40.051  28.351  29.286  1.00  0.00     0.049 A 
ATOM     38  N   UNL A   1      40.717  29.819  31.833  1.00  0.00    -0.248 NA
ATOM     39  C   UNL A   1      38.749  31.048  31.586  1.00  0.00     0.031 C 
ATOM     40  C   UNL A   1      39.785  27.629  28.041  1.00  0.00     0.029 A 
ATOM     41  N   UNL A   1      41.244  27.833  29.721  1.00  0.00    -0.354 N 
ATOM     42  C   UNL A   1      40.609  30.733  32.873  1.00  0.00     0.074 A 
ATOM     43  C   UNL A   1      39.418  31.516  32.628  1.00  0.00     0.031 C 
ATOM     44  C   UNL A   1      40.754  26.722  27.843  1.00  0.00     0.029 A 
ATOM     45  C   UNL A   1      41.727  26.820  28.927  1.00  0.00     0.049 A 
ATOM     46  H   UNL A   1      41.711  28.156  30.526  1.00  0.00     0.167 HD
ATOM     47  C   UNL A   1      41.405  30.881  33.959  1.00  0.00     0.037 A 
ATOM     48  C   UNL A   1      42.818  26.042  29.070  1.00  0.00     0.037 A 
ATOM     49  C   UNL A   1      42.583  30.091  34.203  1.00  0.00     0.049 A 
ATOM     50  C   UNL A   1      43.699  26.234  30.275  1.00  0.00     0.074 A 
ATOM     51  C   UNL A   1      43.458  30.156  35.272  1.00  0.00     0.029 A 
ATOM     52  N   UNL A   1      43.046  29.084  33.367  1.00  0.00    -0.354 N 
ATOM     53  N   UNL A   1      43.569  27.088  31.263  1.00  0.00    -0.248 NA
ATOM     54  C   UNL A   1      44.866  25.351  30.390  1.00  0.00     0.031 C 
ATOM     55  C   UNL A   1      44.470  29.212  35.065  1.00  0.00     0.029 A 
ATOM     56  C   UNL A   1      44.196  28.522  33.895  1.00  0.00     0.049 A 
ATOM     57  H   UNL A   1      42.619  28.810  32.523  1.00  0.00     0.167 HD
ATOM     58  C   UNL A   1      44.618  26.820  32.137  1.00  0.00     0.074 A 
ATOM     59  C   UNL A   1      45.368  25.722  31.560  1.00  0.00     0.031 C 
ATOM     60  C   UNL A   1      44.926  27.422  33.312  1.00  0.00     0.037 A 
BRANCH  47  61
ATOM     61  C   UNL A   1      41.008  31.921  34.972  1.00  0.00     0.058 A 
ATOM     62  C   UNL A   1      40.081  31.629  35.984  1.00  0.00     0.135 A 
ATOM     63  C   UNL A   1      41.535  33.224  34.928  1.00  0.00     0.135 A 
ATOM     64  F   UNL A   1      39.548  30.401  36.079  1.00  0.00    -0.206 F 
ATOM     65  C   UNL A   1      39.690  32.586  36.914  1.00  0.00     0.059 A 
ATOM     66  C   UNL A   1      41.182  34.189  35.866  1.00  0.00     0.059 A 
ATOM     67  F   UNL A   1      42.444  33.554  33.996  1.00  0.00    -0.206 F 
ATOM     68  C   UNL A   1      40.250  33.864  36.850  1.00  0.00     0.060 A 
BRANCH  68  69
ATOM     69  S   UNL A   1      39.782  35.077  38.102  1.00  0.00     0.124 S 
ATOM     70  O   UNL A   1      39.681  36.299  37.313  1.00  0.00    -0.237 OA
ATOM     71  O   UNL A   1      38.522  34.532  38.600  1.00  0.00    -0.237 OA
ATOM     72  O   UNL A   1      40.892  35.029  39.051  1.00  0.00    -0.744 OA
ENDBRANCH  68  69
ENDBRANCH  47  61
BRANCH  48  73
ATOM     73  C   UNL A   1      43.082  24.959  28.085  1.00  0.00     0.058 A 
ATOM     74  C   UNL A   1      42.731  23.627  28.348  1.00  0.00     0.135 A 
ATOM     75  C   UNL A   1      43.744  25.236  26.880  1.00  0.00     0.135 A 
ATOM     76  F   UNL A   1      42.107  23.308  29.492  1.00  0.00    -0.206 F 
ATOM     77  C   UNL A   1      43.051  22.603  27.463  1.00  0.00     0.059 A 
ATOM     78  C   UNL A   1      44.053  24.233  25.967  1.00  0.00     0.059 A 
ATOM     79  F   UNL A   1      44.092  26.497  26.581  1.00  0.00    -0.206 F 
ATOM     80  C   UNL A   1      43.719  22.915  26.277  1.00  0.00     0.060 A 
BRANCH  80  81
ATOM     81  S   UNL A   1      44.155  21.566  25.159  1.00  0.00     0.124 S 
ATOM     82  O   UNL A   1      43.076  20.617  25.412  1.00  0.00    -0.237 OA
ATOM     83  O   UNL A   1      44.128  22.228  23.859  1.00  0.00    -0.237 OA
ATOM     84  O   UNL A   1      45.476  21.154  25.624  1.00  0.00    -0.744 OA
ENDBRANCH  80  81
ENDBRANCH  48  73
BRANCH  60  85
ATOM     85  C   UNL A   1      46.100  26.884  34.084  1.00  0.00     0.058 A 
ATOM     86  C   UNL A   1      45.909  25.878  35.045  1.00  0.00     0.135 A 
ATOM     87  C   UNL A   1      47.395  27.397  33.919  1.00  0.00     0.135 A 
ATOM     88  F   UNL A   1      44.690  25.357  35.249  1.00  0.00    -0.206 F 
ATOM     89  C   UNL A   1      46.961  25.405  35.821  1.00  0.00     0.059 A 
ATOM     90  C   UNL A   1      48.469  26.919  34.665  1.00  0.00     0.059 A 
ATOM     91  F   UNL A   1      47.631  28.355  33.007  1.00  0.00    -0.206 F 
ATOM     92  C   UNL A   1      48.239  25.931  35.624  1.00  0.00     0.060 A 
BRANCH  92  93
ATOM     93  S   UNL A   1      49.600  25.280  36.614  1.00  0.00     0.124 S 
ATOM     94  O   UNL A   1      50.727  26.069  36.129  1.00  0.00    -0.237 OA
ATOM     95  O   UNL A   1      49.158  25.572  37.975  1.00  0.00    -0.237 OA
ATOM     96  O   UNL A   1      49.626  23.863  36.263  1.00  0.00    -0.744 OA
ENDBRANCH  92  93
ENDBRANCH  60  85
ENDBRANCH  34  35
ENDBRANCH  26  29
ENDBRANCH  24  25
ENDBRANCH   1  24
TORSDOF 16
ENDMDL
