MODEL 1
REMARK VINA RESULT:     -11.3      0.000      0.000
REMARK SMILES C[C@@H](NC(=O)[C@@H]([NH3+])CC(=O)NCCCCNC(=O)c1ccc(-c2c3nc(c(-c4c(F)cc(S(=O)(=O)[O-])cc4F)c4ccc([nH]4)c(-c4c(F)cc(S(=O)(=O)[O-])cc4F)c4nc(c(-c5c(F)cc(S(=O)(=O)[O-])cc5F)c5ccc2[nH]5)C=C4)C=C3)cc1)C(=O)NC1C(C)(C)SC1(C)C
REMARK SMILES IDX 12 1 11 2 9 3 10 4 8 6 6 7 4 8 3 9 5 11 2 12 1 13 85 14
REMARK SMILES IDX 86 15 87 16 88 18 89 19 93 20 90 21 91 22 92 23 94 24 95 25
REMARK SMILES IDX 7 26 13 30 14 31 15 32 16 33 17 34 18 36 19 37 20 38 84 39
REMARK SMILES IDX 21 40 83 41 22 42 23 43 24 44 77 45 25 46 82 47 76 48 78 49
REMARK SMILES IDX 26 50 81 51 75 52 74 53 27 55 61 56 40 57 60 58 41 59 44 60
REMARK SMILES IDX 59 61 79 62 42 63 43 64 58 66 80 67 45 68 28 69 29 70 38 71
REMARK SMILES IDX 30 72 31 73 37 74 39 75 32 76 33 77 34 78 35 79 36 80 62 81
REMARK SMILES IDX 63 82 72 83 64 84 65 85 71 86 73 87 66 88 67 89 68 90 69 91
REMARK SMILES IDX 70 92 46 93 47 94 56 95 48 96 49 97 55 98 57 99 50 100
REMARK SMILES IDX 51 101 52 102 53 103 54 104
REMARK H PARENT 11 5 3 10 87 17 7 27 7 28 7 29 16 35 78 54 44 65
REMARK Flexibility Score: inf
ROOT
ATOM      1  C   UNL A   1      32.477  30.274  26.731  1.00  0.00     0.116 C 
ENDROOT
BRANCH   1   2
ATOM      2  N   UNL A   1      32.683  30.070  25.311  1.00  0.00    -0.356 N 
ATOM      3  C   UNL A   1      33.197  28.987  24.668  1.00  0.00     0.226 C 
ATOM      4  O   UNL A   1      33.401  29.048  23.456  1.00  0.00    -0.275 OA
ATOM      5  H   UNL A   1      32.415  30.820  24.731  1.00  0.00     0.163 HD
BRANCH   3   6
ATOM      6  C   UNL A   1      33.526  27.735  25.449  1.00  0.00     0.175 C 
BRANCH   6   7
ATOM      7  C   UNL A   1      32.439  26.691  25.243  1.00  0.00     0.280 C 
BRANCH   7   8
ATOM      8  C   UNL A   1      31.666  26.258  26.512  1.00  0.00     0.279 C 
ATOM      9  N   UNL A   1      31.339  24.985  26.852  1.00  0.00    -0.339 N 
ATOM     10  H   UNL A   1      30.769  24.902  27.651  1.00  0.00     0.164 HD
ATOM     11  O   UNL A   1      31.361  27.117  27.346  1.00  0.00    -0.268 OA
BRANCH   9  12
ATOM     12  C   UNL A   1      31.699  23.723  26.222  1.00  0.00     0.168 C 
ATOM     13  C   UNL A   1      30.487  22.802  26.085  1.00  0.00     0.041 C 
BRANCH  12  14
ATOM     14  C   UNL A   1      32.823  23.022  26.994  1.00  0.00     0.242 C 
ATOM     15  O   UNL A   1      32.737  22.840  28.211  1.00  0.00    -0.273 OA
ATOM     16  N   UNL A   1      33.987  22.652  26.363  1.00  0.00    -0.349 N 
ATOM     17  H   UNL A   1      34.378  21.797  26.658  1.00  0.00     0.163 HD
BRANCH  16  18
ATOM     18  C   UNL A   1      34.738  23.369  25.293  1.00  0.00     0.113 C 
ATOM     19  C   UNL A   1      36.160  22.696  25.117  1.00  0.00     0.032 C 
ATOM     20  C   UNL A   1      34.329  23.191  23.761  1.00  0.00     0.032 C 
ATOM     21  C   UNL A   1      37.251  23.508  25.808  1.00  0.00     0.025 C 
ATOM     22  C   UNL A   1      36.309  21.204  25.429  1.00  0.00     0.025 C 
ATOM     23  S   UNL A   1      36.126  22.965  23.324  1.00  0.00    -0.145 SA
ATOM     24  C   UNL A   1      33.508  21.986  23.308  1.00  0.00     0.025 C 
ATOM     25  C   UNL A   1      33.853  24.459  23.030  1.00  0.00     0.025 C 
ENDBRANCH  16  18
ENDBRANCH  12  14
ENDBRANCH   9  12
ENDBRANCH   7   8
BRANCH   7  26
ATOM     26  N   UNL A   1      31.489  27.141  24.205  1.00  0.00    -0.347 N 
ATOM     27  H   UNL A   1      30.803  27.770  24.623  1.00  0.00     0.345 HD
ATOM     28  H   UNL A   1      31.010  26.332  23.808  1.00  0.00     0.345 HD
ATOM     29  H   UNL A   1      31.996  27.631  23.469  1.00  0.00     0.345 HD
ENDBRANCH   7  26
ENDBRANCH   6   7
ENDBRANCH   3   6
ENDBRANCH   1   2
BRANCH   1  30
ATOM     30  C   UNL A   1      33.537  31.209  27.305  1.00  0.00     0.023 C 
BRANCH  30  31
ATOM     31  C   UNL A   1      34.906  30.598  27.558  1.00  0.00     0.023 C 
BRANCH  31  32
ATOM     32  C   UNL A   1      35.729  31.320  28.601  1.00  0.00     0.116 C 
BRANCH  32  33
ATOM     33  N   UNL A   1      35.613  30.776  29.947  1.00  0.00    -0.352 N 
ATOM     34  C   UNL A   1      36.617  30.193  30.688  1.00  0.00     0.251 C 
ATOM     35  H   UNL A   1      34.726  30.832  30.371  1.00  0.00     0.163 HD
ATOM     36  O   UNL A   1      36.388  29.698  31.786  1.00  0.00    -0.269 OA
BRANCH  34  37
ATOM     37  C   UNL A   1      37.965  30.125  30.086  1.00  0.00     0.039 A 
ATOM     38  C   UNL A   1      39.081  30.316  30.901  1.00  0.00     0.014 A 
ATOM     39  C   UNL A   1      38.115  29.714  28.758  1.00  0.00     0.014 A 
ATOM     40  C   UNL A   1      40.347  30.015  30.400  1.00  0.00     0.010 A 
ATOM     41  C   UNL A   1      39.362  29.306  28.305  1.00  0.00     0.010 A 
ATOM     42  C   UNL A   1      40.494  29.460  29.116  1.00  0.00    -0.014 A 
BRANCH  42  43
ATOM     43  C   UNL A   1      41.828  29.052  28.609  1.00  0.00     0.031 A 
ATOM     44  C   UNL A   1      42.931  30.071  28.491  1.00  0.00     0.074 A 
ATOM     45  C   UNL A   1      42.035  27.775  28.223  1.00  0.00     0.049 A 
ATOM     46  N   UNL A   1      44.162  29.910  28.079  1.00  0.00    -0.248 NA
ATOM     47  C   UNL A   1      42.602  31.462  28.851  1.00  0.00     0.031 C 
ATOM     48  C   UNL A   1      41.020  26.718  28.200  1.00  0.00     0.029 A 
ATOM     49  N   UNL A   1      43.172  27.147  27.783  1.00  0.00    -0.354 N 
ATOM     50  C   UNL A   1      44.746  31.170  28.131  1.00  0.00     0.074 A 
ATOM     51  C   UNL A   1      43.717  32.100  28.533  1.00  0.00     0.031 C 
ATOM     52  C   UNL A   1      41.591  25.566  27.811  1.00  0.00     0.029 A 
ATOM     53  C   UNL A   1      43.003  25.804  27.537  1.00  0.00     0.049 A 
ATOM     54  H   UNL A   1      44.030  27.613  27.655  1.00  0.00     0.167 HD
ATOM     55  C   UNL A   1      46.037  31.515  27.914  1.00  0.00     0.037 A 
ATOM     56  C   UNL A   1      43.894  24.870  27.149  1.00  0.00     0.037 A 
ATOM     57  C   UNL A   1      47.068  30.581  27.552  1.00  0.00     0.049 A 
ATOM     58  C   UNL A   1      45.331  25.274  26.958  1.00  0.00     0.074 A 
ATOM     59  C   UNL A   1      48.414  30.820  27.343  1.00  0.00     0.029 A 
ATOM     60  N   UNL A   1      46.867  29.222  27.360  1.00  0.00    -0.354 N 
ATOM     61  N   UNL A   1      45.878  26.461  27.078  1.00  0.00    -0.248 NA
ATOM     62  C   UNL A   1      46.277  24.209  26.598  1.00  0.00     0.031 C 
ATOM     63  C   UNL A   1      49.025  29.608  27.004  1.00  0.00     0.029 A 
ATOM     64  C   UNL A   1      48.066  28.609  27.037  1.00  0.00     0.049 A 
ATOM     65  H   UNL A   1      46.001  28.762  27.440  1.00  0.00     0.167 HD
ATOM     66  C   UNL A   1      47.234  26.280  26.831  1.00  0.00     0.074 A 
ATOM     67  C   UNL A   1      47.427  24.867  26.584  1.00  0.00     0.031 C 
ATOM     68  C   UNL A   1      48.232  27.199  26.802  1.00  0.00     0.037 A 
BRANCH  55  69
ATOM     69  C   UNL A   1      46.413  32.958  28.110  1.00  0.00     0.058 A 
ATOM     70  C   UNL A   1      46.898  33.420  29.345  1.00  0.00     0.135 A 
ATOM     71  C   UNL A   1      46.335  33.876  27.052  1.00  0.00     0.135 A 
ATOM     72  F   UNL A   1      46.970  32.590  30.398  1.00  0.00    -0.206 F 
ATOM     73  C   UNL A   1      47.278  34.744  29.528  1.00  0.00     0.059 A 
ATOM     74  C   UNL A   1      46.735  35.201  27.206  1.00  0.00     0.059 A 
ATOM     75  F   UNL A   1      45.870  33.490  25.854  1.00  0.00    -0.206 F 
ATOM     76  C   UNL A   1      47.199  35.627  28.449  1.00  0.00     0.060 A 
BRANCH  76  77
ATOM     77  S   UNL A   1      47.733  37.333  28.697  1.00  0.00     0.124 S 
ATOM     78  O   UNL A   1      47.043  37.678  29.936  1.00  0.00    -0.237 OA
ATOM     79  O   UNL A   1      49.183  37.194  28.798  1.00  0.00    -0.237 OA
ATOM     80  O   UNL A   1      47.254  38.016  27.499  1.00  0.00    -0.744 OA
ENDBRANCH  76  77
ENDBRANCH  55  69
BRANCH  56  81
ATOM     81  C   UNL A   1      43.472  23.457  26.948  1.00  0.00     0.058 A 
ATOM     82  C   UNL A   1      43.236  22.946  25.662  1.00  0.00     0.135 A 
ATOM     83  C   UNL A   1      43.258  22.599  28.038  1.00  0.00     0.135 A 
ATOM     84  F   UNL A   1      43.425  23.726  24.587  1.00  0.00    -0.206 F 
ATOM     85  C   UNL A   1      42.761  21.654  25.464  1.00  0.00     0.059 A 
ATOM     86  C   UNL A   1      42.811  21.293  27.865  1.00  0.00     0.059 A 
ATOM     87  F   UNL A   1      43.492  23.029  29.288  1.00  0.00    -0.206 F 
ATOM     88  C   UNL A   1      42.544  20.836  26.574  1.00  0.00     0.060 A 
BRANCH  88  89
ATOM     89  S   UNL A   1      41.926  19.159  26.313  1.00  0.00     0.124 S 
ATOM     90  O   UNL A   1      41.958  18.622  27.669  1.00  0.00    -0.237 OA
ATOM     91  O   UNL A   1      40.600  19.401  25.753  1.00  0.00    -0.237 OA
ATOM     92  O   UNL A   1      42.896  18.588  25.383  1.00  0.00    -0.744 OA
ENDBRANCH  88  89
ENDBRANCH  56  81
BRANCH  68  93
ATOM     93  C   UNL A   1      49.617  26.689  26.523  1.00  0.00     0.058 A 
ATOM     94  C   UNL A   1      50.096  26.542  25.213  1.00  0.00     0.135 A 
ATOM     95  C   UNL A   1      50.475  26.346  27.580  1.00  0.00     0.135 A 
ATOM     96  F   UNL A   1      49.313  26.854  24.167  1.00  0.00    -0.206 F 
ATOM     97  C   UNL A   1      51.362  26.026  24.957  1.00  0.00     0.059 A 
ATOM     98  C   UNL A   1      51.756  25.857  27.348  1.00  0.00     0.059 A 
ATOM     99  F   UNL A   1      50.072  26.485  28.853  1.00  0.00    -0.206 F 
ATOM    100  C   UNL A   1      52.181  25.678  26.032  1.00  0.00     0.060 A 
BRANCH 100 101
ATOM    101  S   UNL A   1      53.816  24.995  25.691  1.00  0.00     0.124 S 
ATOM    102  O   UNL A   1      54.280  25.872  24.620  1.00  0.00    -0.237 OA
ATOM    103  O   UNL A   1      54.496  25.147  26.974  1.00  0.00    -0.237 OA
ATOM    104  O   UNL A   1      53.533  23.618  25.298  1.00  0.00    -0.744 OA
ENDBRANCH 100 101
ENDBRANCH  68  93
ENDBRANCH  42  43
ENDBRANCH  34  37
ENDBRANCH  32  33
ENDBRANCH  31  32
ENDBRANCH  30  31
ENDBRANCH   1  30
TORSDOF 20
ENDMDL
MODEL 2
REMARK VINA RESULT:     -11.2      6.410     11.952
REMARK SMILES C[C@@H](NC(=O)[C@@H]([NH3+])CC(=O)NCCCCNC(=O)c1ccc(-c2c3nc(c(-c4c(F)cc(S(=O)(=O)[O-])cc4F)c4ccc([nH]4)c(-c4c(F)cc(S(=O)(=O)[O-])cc4F)c4nc(c(-c5c(F)cc(S(=O)(=O)[O-])cc5F)c5ccc2[nH]5)C=C4)C=C3)cc1)C(=O)NC1C(C)(C)SC1(C)C
REMARK SMILES IDX 12 1 11 2 9 3 10 4 8 6 6 7 4 8 3 9 5 11 2 12 1 13 85 14
REMARK SMILES IDX 86 15 87 16 88 18 89 19 93 20 90 21 91 22 92 23 94 24 95 25
REMARK SMILES IDX 7 26 13 30 14 31 15 32 16 33 17 34 18 36 19 37 20 38 84 39
REMARK SMILES IDX 21 40 83 41 22 42 23 43 24 44 77 45 25 46 82 47 76 48 78 49
REMARK SMILES IDX 26 50 81 51 75 52 74 53 27 55 61 56 40 57 60 58 41 59 44 60
REMARK SMILES IDX 59 61 79 62 42 63 43 64 58 66 80 67 45 68 28 69 29 70 38 71
REMARK SMILES IDX 30 72 31 73 37 74 39 75 32 76 33 77 34 78 35 79 36 80 62 81
REMARK SMILES IDX 63 82 72 83 64 84 65 85 71 86 73 87 66 88 67 89 68 90 69 91
REMARK SMILES IDX 70 92 46 93 47 94 56 95 48 96 49 97 55 98 57 99 50 100
REMARK SMILES IDX 51 101 52 102 53 103 54 104
REMARK H PARENT 11 5 3 10 87 17 7 27 7 28 7 29 16 35 78 54 44 65
REMARK Flexibility Score: inf
ROOT
ATOM      1  C   UNL A   1      38.949  23.116  26.418  1.00  0.00     0.116 C 
ENDROOT
BRANCH   1   2
ATOM      2  N   UNL A   1      38.459  21.959  25.698  1.00  0.00    -0.356 N 
ATOM      3  C   UNL A   1      37.239  21.757  25.129  1.00  0.00     0.226 C 
ATOM      4  O   UNL A   1      36.970  20.653  24.657  1.00  0.00    -0.275 OA
ATOM      5  H   UNL A   1      39.097  21.213  25.607  1.00  0.00     0.163 HD
BRANCH   3   6
ATOM      6  C   UNL A   1      36.228  22.880  25.103  1.00  0.00     0.175 C 
BRANCH   6   7
ATOM      7  C   UNL A   1      34.968  22.465  25.847  1.00  0.00     0.280 C 
BRANCH   7   8
ATOM      8  C   UNL A   1      33.797  21.963  24.969  1.00  0.00     0.279 C 
ATOM      9  N   UNL A   1      32.617  22.605  24.768  1.00  0.00    -0.339 N 
ATOM     10  H   UNL A   1      31.951  22.097  24.249  1.00  0.00     0.164 HD
ATOM     11  O   UNL A   1      33.939  20.919  24.324  1.00  0.00    -0.268 OA
BRANCH   9  12
ATOM     12  C   UNL A   1      32.182  23.925  25.199  1.00  0.00     0.168 C 
ATOM     13  C   UNL A   1      31.786  23.927  26.676  1.00  0.00     0.041 C 
BRANCH  12  14
ATOM     14  C   UNL A   1      31.026  24.436  24.332  1.00  0.00     0.242 C 
ATOM     15  O   UNL A   1      30.363  23.659  23.639  1.00  0.00    -0.273 OA
ATOM     16  N   UNL A   1      30.752  25.780  24.243  1.00  0.00    -0.349 N 
ATOM     17  H   UNL A   1      29.798  26.018  24.195  1.00  0.00     0.163 HD
BRANCH  16  18
ATOM     18  C   UNL A   1      31.705  26.927  24.207  1.00  0.00     0.113 C 
ATOM     19  C   UNL A   1      32.481  26.914  22.827  1.00  0.00     0.032 C 
ATOM     20  C   UNL A   1      31.167  28.418  24.029  1.00  0.00     0.032 C 
ATOM     21  C   UNL A   1      33.883  26.332  22.982  1.00  0.00     0.025 C 
ATOM     22  C   UNL A   1      31.780  26.330  21.597  1.00  0.00     0.025 C 
ATOM     23  S   UNL A   1      32.487  28.726  22.751  1.00  0.00    -0.145 SA
ATOM     24  C   UNL A   1      29.780  28.683  23.446  1.00  0.00     0.025 C 
ATOM     25  C   UNL A   1      31.444  29.387  25.192  1.00  0.00     0.025 C 
ENDBRANCH  16  18
ENDBRANCH  12  14
ENDBRANCH   9  12
ENDBRANCH   7   8
BRANCH   7  26
ATOM     26  N   UNL A   1      35.292  21.455  26.876  1.00  0.00    -0.347 N 
ATOM     27  H   UNL A   1      36.272  21.185  26.791  1.00  0.00     0.345 HD
ATOM     28  H   UNL A   1      34.700  20.634  26.746  1.00  0.00     0.345 HD
ATOM     29  H   UNL A   1      35.128  21.848  27.803  1.00  0.00     0.345 HD
ENDBRANCH   7  26
ENDBRANCH   6   7
ENDBRANCH   3   6
ENDBRANCH   1   2
BRANCH   1  30
ATOM     30  C   UNL A   1      40.019  22.714  27.429  1.00  0.00     0.023 C 
BRANCH  30  31
ATOM     31  C   UNL A   1      41.374  22.332  26.858  1.00  0.00     0.023 C 
BRANCH  31  32
ATOM     32  C   UNL A   1      42.396  23.448  26.874  1.00  0.00     0.116 C 
BRANCH  32  33
ATOM     33  N   UNL A   1      42.297  24.375  25.755  1.00  0.00    -0.352 N 
ATOM     34  C   UNL A   1      42.052  25.729  25.827  1.00  0.00     0.251 C 
ATOM     35  H   UNL A   1      42.419  23.995  24.854  1.00  0.00     0.163 HD
ATOM     36  O   UNL A   1      41.914  26.402  24.812  1.00  0.00    -0.269 OA
BRANCH  34  37
ATOM     37  C   UNL A   1      41.896  26.328  27.169  1.00  0.00     0.039 A 
ATOM     38  C   UNL A   1      42.852  27.238  27.619  1.00  0.00     0.014 A 
ATOM     39  C   UNL A   1      40.723  26.108  27.898  1.00  0.00     0.014 A 
ATOM     40  C   UNL A   1      42.590  27.987  28.767  1.00  0.00     0.010 A 
ATOM     41  C   UNL A   1      40.417  26.936  28.969  1.00  0.00     0.010 A 
ATOM     42  C   UNL A   1      41.350  27.879  29.422  1.00  0.00    -0.014 A 
BRANCH  42  43
ATOM     43  C   UNL A   1      41.027  28.737  30.590  1.00  0.00     0.031 A 
ATOM     44  C   UNL A   1      41.822  28.605  31.862  1.00  0.00     0.074 A 
ATOM     45  C   UNL A   1      39.999  29.608  30.515  1.00  0.00     0.049 A 
ATOM     46  N   UNL A   1      41.698  29.265  32.984  1.00  0.00    -0.248 NA
ATOM     47  C   UNL A   1      42.873  27.572  31.894  1.00  0.00     0.031 C 
ATOM     48  C   UNL A   1      39.094  29.761  29.371  1.00  0.00     0.029 A 
ATOM     49  N   UNL A   1      39.544  30.534  31.418  1.00  0.00    -0.354 N 
ATOM     50  C   UNL A   1      42.649  28.731  33.845  1.00  0.00     0.074 A 
ATOM     51  C   UNL A   1      43.286  27.636  33.150  1.00  0.00     0.031 C 
ATOM     52  C   UNL A   1      38.224  30.753  29.626  1.00  0.00     0.029 A 
ATOM     53  C   UNL A   1      38.493  31.291  30.955  1.00  0.00     0.049 A 
ATOM     54  H   UNL A   1      39.934  30.649  32.315  1.00  0.00     0.167 HD
ATOM     55  C   UNL A   1      42.998  29.145  35.085  1.00  0.00     0.037 A 
ATOM     56  C   UNL A   1      37.832  32.313  31.533  1.00  0.00     0.037 A 
ATOM     57  C   UNL A   1      42.389  30.259  35.760  1.00  0.00     0.049 A 
ATOM     58  C   UNL A   1      38.271  32.781  32.895  1.00  0.00     0.074 A 
ATOM     59  C   UNL A   1      42.693  30.786  37.003  1.00  0.00     0.029 A 
ATOM     60  N   UNL A   1      41.361  31.031  35.238  1.00  0.00    -0.354 N 
ATOM     61  N   UNL A   1      39.220  32.304  33.666  1.00  0.00    -0.248 NA
ATOM     62  C   UNL A   1      37.564  33.940  33.457  1.00  0.00     0.031 C 
ATOM     63  C   UNL A   1      41.832  31.863  37.243  1.00  0.00     0.029 A 
ATOM     64  C   UNL A   1      41.020  32.030  36.133  1.00  0.00     0.049 A 
ATOM     65  H   UNL A   1      40.938  30.888  34.362  1.00  0.00     0.167 HD
ATOM     66  C   UNL A   1      39.237  33.118  34.793  1.00  0.00     0.074 A 
ATOM     67  C   UNL A   1      38.225  34.133  34.589  1.00  0.00     0.031 C 
ATOM     68  C   UNL A   1      40.013  33.032  35.903  1.00  0.00     0.037 A 
BRANCH  55  69
ATOM     69  C   UNL A   1      44.122  28.418  35.771  1.00  0.00     0.058 A 
ATOM     70  C   UNL A   1      43.870  27.332  36.625  1.00  0.00     0.135 A 
ATOM     71  C   UNL A   1      45.460  28.776  35.543  1.00  0.00     0.135 A 
ATOM     72  F   UNL A   1      42.608  26.964  36.898  1.00  0.00    -0.206 F 
ATOM     73  C   UNL A   1      44.903  26.635  37.240  1.00  0.00     0.059 A 
ATOM     74  C   UNL A   1      46.511  28.075  36.128  1.00  0.00     0.059 A 
ATOM     75  F   UNL A   1      45.756  29.813  34.744  1.00  0.00    -0.206 F 
ATOM     76  C   UNL A   1      46.222  27.010  36.980  1.00  0.00     0.060 A 
BRANCH  76  77
ATOM     77  S   UNL A   1      47.551  26.067  37.757  1.00  0.00     0.124 S 
ATOM     78  O   UNL A   1      46.843  25.418  38.855  1.00  0.00    -0.237 OA
ATOM     79  O   UNL A   1      47.983  25.188  36.675  1.00  0.00    -0.237 OA
ATOM     80  O   UNL A   1      48.511  27.094  38.148  1.00  0.00    -0.744 OA
ENDBRANCH  76  77
ENDBRANCH  55  69
BRANCH  56  81
ATOM     81  C   UNL A   1      36.713  32.991  30.824  1.00  0.00     0.058 A 
ATOM     82  C   UNL A   1      36.957  33.872  29.759  1.00  0.00     0.135 A 
ATOM     83  C   UNL A   1      35.380  32.802  31.220  1.00  0.00     0.135 A 
ATOM     84  F   UNL A   1      38.215  34.086  29.342  1.00  0.00    -0.206 F 
ATOM     85  C   UNL A   1      35.928  34.576  29.142  1.00  0.00     0.059 A 
ATOM     86  C   UNL A   1      34.330  33.473  30.600  1.00  0.00     0.059 A 
ATOM     87  F   UNL A   1      35.088  31.952  32.217  1.00  0.00    -0.206 F 
ATOM     88  C   UNL A   1      34.617  34.376  29.576  1.00  0.00     0.060 A 
BRANCH  88  89
ATOM     89  S   UNL A   1      33.284  35.292  28.772  1.00  0.00     0.124 S 
ATOM     90  O   UNL A   1      32.637  34.243  27.993  1.00  0.00    -0.237 OA
ATOM     91  O   UNL A   1      32.528  35.801  29.912  1.00  0.00    -0.237 OA
ATOM     92  O   UNL A   1      33.996  36.307  28.000  1.00  0.00    -0.744 OA
ENDBRANCH  88  89
ENDBRANCH  56  81
BRANCH  68  93
ATOM     93  C   UNL A   1      39.810  34.084  36.956  1.00  0.00     0.058 A 
ATOM     94  C   UNL A   1      40.459  35.326  36.889  1.00  0.00     0.135 A 
ATOM     95  C   UNL A   1      38.955  33.845  38.044  1.00  0.00     0.135 A 
ATOM     96  F   UNL A   1      41.288  35.602  35.870  1.00  0.00    -0.206 F 
ATOM     97  C   UNL A   1      40.304  36.279  37.889  1.00  0.00     0.059 A 
ATOM     98  C   UNL A   1      38.762  34.795  39.040  1.00  0.00     0.059 A 
ATOM     99  F   UNL A   1      38.297  32.679  38.146  1.00  0.00    -0.206 F 
ATOM    100  C   UNL A   1      39.461  36.000  38.966  1.00  0.00     0.060 A 
BRANCH 100 101
ATOM    101  S   UNL A   1      39.279  37.237  40.268  1.00  0.00     0.124 S 
ATOM    102  O   UNL A   1      40.670  37.600  40.521  1.00  0.00    -0.237 OA
ATOM    103  O   UNL A   1      38.464  38.260  39.619  1.00  0.00    -0.237 OA
ATOM    104  O   UNL A   1      38.615  36.503  41.341  1.00  0.00    -0.744 OA
ENDBRANCH 100 101
ENDBRANCH  68  93
ENDBRANCH  42  43
ENDBRANCH  34  37
ENDBRANCH  32  33
ENDBRANCH  31  32
ENDBRANCH  30  31
ENDBRANCH   1  30
TORSDOF 20
ENDMDL
MODEL 3
REMARK VINA RESULT:     -11.2      2.519      8.801
REMARK SMILES C[C@@H](NC(=O)[C@@H]([NH3+])CC(=O)NCCCCNC(=O)c1ccc(-c2c3nc(c(-c4c(F)cc(S(=O)(=O)[O-])cc4F)c4ccc([nH]4)c(-c4c(F)cc(S(=O)(=O)[O-])cc4F)c4nc(c(-c5c(F)cc(S(=O)(=O)[O-])cc5F)c5ccc2[nH]5)C=C4)C=C3)cc1)C(=O)NC1C(C)(C)SC1(C)C
REMARK SMILES IDX 12 1 11 2 9 3 10 4 8 6 6 7 4 8 3 9 5 11 2 12 1 13 85 14
REMARK SMILES IDX 86 15 87 16 88 18 89 19 93 20 90 21 91 22 92 23 94 24 95 25
REMARK SMILES IDX 7 26 13 30 14 31 15 32 16 33 17 34 18 36 19 37 20 38 84 39
REMARK SMILES IDX 21 40 83 41 22 42 23 43 24 44 77 45 25 46 82 47 76 48 78 49
REMARK SMILES IDX 26 50 81 51 75 52 74 53 27 55 61 56 40 57 60 58 41 59 44 60
REMARK SMILES IDX 59 61 79 62 42 63 43 64 58 66 80 67 45 68 28 69 29 70 38 71
REMARK SMILES IDX 30 72 31 73 37 74 39 75 32 76 33 77 34 78 35 79 36 80 62 81
REMARK SMILES IDX 63 82 72 83 64 84 65 85 71 86 73 87 66 88 67 89 68 90 69 91
REMARK SMILES IDX 70 92 46 93 47 94 56 95 48 96 49 97 55 98 57 99 50 100
REMARK SMILES IDX 51 101 52 102 53 103 54 104
REMARK H PARENT 11 5 3 10 87 17 7 27 7 28 7 29 16 35 78 54 44 65
REMARK Flexibility Score: inf
ROOT
ATOM      1  C   UNL A   1      37.816  23.544  26.106  1.00  0.00     0.116 C 
ENDROOT
BRANCH   1   2
ATOM      2  N   UNL A   1      37.413  23.650  24.718  1.00  0.00    -0.356 N 
ATOM      3  C   UNL A   1      36.642  22.803  23.984  1.00  0.00     0.226 C 
ATOM      4  O   UNL A   1      36.505  23.007  22.778  1.00  0.00    -0.275 OA
ATOM      5  H   UNL A   1      37.744  24.445  24.240  1.00  0.00     0.163 HD
BRANCH   3   6
ATOM      6  C   UNL A   1      35.983  21.618  24.651  1.00  0.00     0.175 C 
BRANCH   6   7
ATOM      7  C   UNL A   1      34.765  22.074  25.439  1.00  0.00     0.280 C 
BRANCH   7   8
ATOM      8  C   UNL A   1      33.390  21.782  24.791  1.00  0.00     0.279 C 
ATOM      9  N   UNL A   1      32.328  22.627  24.758  1.00  0.00    -0.339 N 
ATOM     10  H   UNL A   1      31.503  22.242  24.380  1.00  0.00     0.164 HD
ATOM     11  O   UNL A   1      33.231  20.719  24.182  1.00  0.00    -0.268 OA
BRANCH   9  12
ATOM     12  C   UNL A   1      32.215  24.012  25.191  1.00  0.00     0.168 C 
ATOM     13  C   UNL A   1      31.834  24.104  26.668  1.00  0.00     0.041 C 
BRANCH  12  14
ATOM     14  C   UNL A   1      31.209  24.781  24.327  1.00  0.00     0.242 C 
ATOM     15  O   UNL A   1      30.481  24.190  23.526  1.00  0.00    -0.273 OA
ATOM     16  N   UNL A   1      31.151  26.153  24.366  1.00  0.00    -0.349 N 
ATOM     17  H   UNL A   1      30.250  26.544  24.298  1.00  0.00     0.163 HD
BRANCH  16  18
ATOM     18  C   UNL A   1      32.270  27.132  24.497  1.00  0.00     0.113 C 
ATOM     19  C   UNL A   1      31.852  28.492  23.802  1.00  0.00     0.032 C 
ATOM     20  C   UNL A   1      32.590  27.809  25.906  1.00  0.00     0.032 C 
ATOM     21  C   UNL A   1      32.486  28.630  22.421  1.00  0.00     0.025 C 
ATOM     22  C   UNL A   1      30.369  28.871  23.763  1.00  0.00     0.025 C 
ATOM     23  S   UNL A   1      32.719  29.465  25.063  1.00  0.00    -0.145 SA
ATOM     24  C   UNL A   1      31.536  27.847  27.010  1.00  0.00     0.025 C 
ATOM     25  C   UNL A   1      33.974  27.510  26.507  1.00  0.00     0.025 C 
ENDBRANCH  16  18
ENDBRANCH  12  14
ENDBRANCH   9  12
ENDBRANCH   7   8
BRANCH   7  26
ATOM     26  N   UNL A   1      34.803  21.517  26.807  1.00  0.00    -0.347 N 
ATOM     27  H   UNL A   1      33.858  21.494  27.191  1.00  0.00     0.345 HD
ATOM     28  H   UNL A   1      35.395  22.102  27.397  1.00  0.00     0.345 HD
ATOM     29  H   UNL A   1      35.182  20.571  26.778  1.00  0.00     0.345 HD
ENDBRANCH   7  26
ENDBRANCH   6   7
ENDBRANCH   3   6
ENDBRANCH   1   2
BRANCH   1  30
ATOM     30  C   UNL A   1      39.218  22.953  26.221  1.00  0.00     0.023 C 
BRANCH  30  31
ATOM     31  C   UNL A   1      39.395  21.538  25.697  1.00  0.00     0.023 C 
BRANCH  31  32
ATOM     32  C   UNL A   1      39.776  20.523  26.753  1.00  0.00     0.116 C 
BRANCH  32  33
ATOM     33  N   UNL A   1      40.570  19.407  26.261  1.00  0.00    -0.352 N 
ATOM     34  C   UNL A   1      41.930  19.398  26.041  1.00  0.00     0.251 C 
ATOM     35  H   UNL A   1      40.086  18.571  26.067  1.00  0.00     0.163 HD
ATOM     36  O   UNL A   1      42.486  18.422  25.551  1.00  0.00    -0.269 OA
BRANCH  34  37
ATOM     37  C   UNL A   1      42.684  20.631  26.354  1.00  0.00     0.039 A 
ATOM     38  C   UNL A   1      43.102  21.451  25.306  1.00  0.00     0.014 A 
ATOM     39  C   UNL A   1      42.827  21.042  27.682  1.00  0.00     0.014 A 
ATOM     40  C   UNL A   1      43.593  22.725  25.596  1.00  0.00     0.010 A 
ATOM     41  C   UNL A   1      43.205  22.349  27.957  1.00  0.00     0.010 A 
ATOM     42  C   UNL A   1      43.601  23.203  26.918  1.00  0.00    -0.014 A 
BRANCH  42  43
ATOM     43  C   UNL A   1      44.037  24.588  27.226  1.00  0.00     0.031 A 
ATOM     44  C   UNL A   1      45.480  24.981  27.044  1.00  0.00     0.074 A 
ATOM     45  C   UNL A   1      43.142  25.481  27.699  1.00  0.00     0.049 A 
ATOM     46  N   UNL A   1      46.052  26.138  27.252  1.00  0.00    -0.248 NA
ATOM     47  C   UNL A   1      46.412  23.927  26.606  1.00  0.00     0.031 C 
ATOM     48  C   UNL A   1      41.737  25.196  28.007  1.00  0.00     0.029 A 
ATOM     49  N   UNL A   1      43.279  26.813  27.999  1.00  0.00    -0.354 N 
ATOM     50  C   UNL A   1      47.399  25.950  26.969  1.00  0.00     0.074 A 
ATOM     51  C   UNL A   1      47.578  24.551  26.658  1.00  0.00     0.031 C 
ATOM     52  C   UNL A   1      41.134  26.328  28.408  1.00  0.00     0.029 A 
ATOM     53  C   UNL A   1      42.110  27.412  28.407  1.00  0.00     0.049 A 
ATOM     54  H   UNL A   1      44.134  27.296  27.927  1.00  0.00     0.167 HD
ATOM     55  C   UNL A   1      48.392  26.869  26.923  1.00  0.00     0.037 A 
ATOM     56  C   UNL A   1      41.854  28.695  28.730  1.00  0.00     0.037 A 
ATOM     57  C   UNL A   1      48.204  28.268  27.195  1.00  0.00     0.049 A 
ATOM     58  C   UNL A   1      42.968  29.704  28.625  1.00  0.00     0.074 A 
ATOM     59  C   UNL A   1      49.135  29.291  27.141  1.00  0.00     0.029 A 
ATOM     60  N   UNL A   1      46.996  28.845  27.558  1.00  0.00    -0.354 N 
ATOM     61  N   UNL A   1      44.222  29.517  28.290  1.00  0.00    -0.248 NA
ATOM     62  C   UNL A   1      42.625  31.101  28.924  1.00  0.00     0.031 C 
ATOM     63  C   UNL A   1      48.494  30.484  27.493  1.00  0.00     0.029 A 
ATOM     64  C   UNL A   1      47.157  30.209  27.729  1.00  0.00     0.049 A 
ATOM     65  H   UNL A   1      46.150  28.356  27.677  1.00  0.00     0.167 HD
ATOM     66  C   UNL A   1      44.812  30.776  28.316  1.00  0.00     0.074 A 
ATOM     67  C   UNL A   1      43.771  31.717  28.671  1.00  0.00     0.031 C 
ATOM     68  C   UNL A   1      46.101  31.125  28.076  1.00  0.00     0.037 A 
BRANCH  55  69
ATOM     69  C   UNL A   1      49.760  26.396  26.516  1.00  0.00     0.058 A 
ATOM     70  C   UNL A   1      50.176  26.443  25.175  1.00  0.00     0.135 A 
ATOM     71  C   UNL A   1      50.679  25.934  27.472  1.00  0.00     0.135 A 
ATOM     72  F   UNL A   1      49.329  26.852  24.218  1.00  0.00    -0.206 F 
ATOM     73  C   UNL A   1      51.450  26.037  24.794  1.00  0.00     0.059 A 
ATOM     74  C   UNL A   1      51.969  25.547  27.115  1.00  0.00     0.059 A 
ATOM     75  F   UNL A   1      50.330  25.859  28.765  1.00  0.00    -0.206 F 
ATOM     76  C   UNL A   1      52.341  25.596  25.772  1.00  0.00     0.060 A 
BRANCH  76  77
ATOM     77  S   UNL A   1      54.003  25.109  25.261  1.00  0.00     0.124 S 
ATOM     78  O   UNL A   1      54.768  25.363  26.478  1.00  0.00    -0.237 OA
ATOM     79  O   UNL A   1      53.821  23.704  24.910  1.00  0.00    -0.237 OA
ATOM     80  O   UNL A   1      54.288  26.001  24.142  1.00  0.00    -0.744 OA
ENDBRANCH  76  77
ENDBRANCH  55  69
BRANCH  56  81
ATOM     81  C   UNL A   1      40.488  29.115  29.145  1.00  0.00     0.058 A 
ATOM     82  C   UNL A   1      39.509  29.442  28.193  1.00  0.00     0.135 A 
ATOM     83  C   UNL A   1      40.145  29.236  30.500  1.00  0.00     0.135 A 
ATOM     84  F   UNL A   1      39.788  29.343  26.885  1.00  0.00    -0.206 F 
ATOM     85  C   UNL A   1      38.256  29.915  28.567  1.00  0.00     0.059 A 
ATOM     86  C   UNL A   1      38.888  29.680  30.900  1.00  0.00     0.059 A 
ATOM     87  F   UNL A   1      41.036  28.913  31.452  1.00  0.00    -0.206 F 
ATOM     88  C   UNL A   1      37.958  30.039  29.925  1.00  0.00     0.060 A 
BRANCH  88  89
ATOM     89  S   UNL A   1      36.329  30.656  30.406  1.00  0.00     0.124 S 
ATOM     90  O   UNL A   1      36.582  32.087  30.523  1.00  0.00    -0.237 OA
ATOM     91  O   UNL A   1      35.497  30.243  29.280  1.00  0.00    -0.237 OA
ATOM     92  O   UNL A   1      36.065  29.955  31.659  1.00  0.00    -0.744 OA
ENDBRANCH  88  89
ENDBRANCH  56  81
BRANCH  68  93
ATOM     93  C   UNL A   1      46.436  32.587  28.162  1.00  0.00     0.058 A 
ATOM     94  C   UNL A   1      47.010  33.143  29.316  1.00  0.00     0.135 A 
ATOM     95  C   UNL A   1      46.183  33.439  27.076  1.00  0.00     0.135 A 
ATOM     96  F   UNL A   1      47.270  32.369  30.382  1.00  0.00    -0.206 F 
ATOM     97  C   UNL A   1      47.276  34.504  29.409  1.00  0.00     0.059 A 
ATOM     98  C   UNL A   1      46.469  34.798  27.136  1.00  0.00     0.059 A 
ATOM     99  F   UNL A   1      45.652  32.954  25.943  1.00  0.00    -0.206 F 
ATOM    100  C   UNL A   1      46.993  35.325  28.316  1.00  0.00     0.060 A 
BRANCH 100 101
ATOM    101  S   UNL A   1      47.328  37.093  28.451  1.00  0.00     0.124 S 
ATOM    102  O   UNL A   1      46.400  37.641  27.466  1.00  0.00    -0.237 OA
ATOM    103  O   UNL A   1      47.007  37.370  29.848  1.00  0.00    -0.237 OA
ATOM    104  O   UNL A   1      48.744  37.197  28.108  1.00  0.00    -0.744 OA
ENDBRANCH 100 101
ENDBRANCH  68  93
ENDBRANCH  42  43
ENDBRANCH  34  37
ENDBRANCH  32  33
ENDBRANCH  31  32
ENDBRANCH  30  31
ENDBRANCH   1  30
TORSDOF 20
ENDMDL
