MODEL 1
REMARK VINA RESULT:     -15.0      0.000      0.000
REMARK SMILES COc1cccc([C@@H]2CC(c3cccc(C)c3)=NN2C(=O)CCC(=O)NCCCCNC(=O)c2ccc(-c3c4nc(c(-c5c(F)cc(S(=O)(=O)[O-])cc5F)c5ccc([nH]5)c(-c5c(F)cc(S(=O)(=O)[O-])cc5F)c5nc(c(-c6c(F)cc(S(=O)(=O)[O-])cc6F)c6ccc3[nH]6)C=C5)C=C4)cc2)c1
REMARK SMILES IDX 27 1 26 2 24 3 25 4 23 6 22 7 20 8 21 9 19 10 8 11 9 12
REMARK SMILES IDX 10 13 18 14 7 15 3 16 4 17 100 18 5 19 6 20 2 21 1 22 11 23
REMARK SMILES IDX 12 24 17 25 13 26 15 27 14 28 16 29 28 30 29 31 30 32 31 33
REMARK SMILES IDX 32 34 33 36 34 37 35 38 99 39 36 40 98 41 37 42 38 43 39 44
REMARK SMILES IDX 92 45 40 46 97 47 91 48 93 49 41 50 96 51 90 52 89 53 42 55
REMARK SMILES IDX 76 56 55 57 75 58 56 59 59 60 74 61 94 62 57 63 58 64 73 66
REMARK SMILES IDX 95 67 60 68 43 69 44 70 53 71 45 72 46 73 52 74 54 75 47 76
REMARK SMILES IDX 48 77 49 78 50 79 51 80 77 81 78 82 87 83 79 84 80 85 86 86
REMARK SMILES IDX 88 87 81 88 82 89 83 90 84 91 85 92 61 93 62 94 71 95 63 96
REMARK SMILES IDX 64 97 70 98 72 99 65 100 66 101 67 102 68 103 69 104
REMARK H PARENT 26 5 31 35 93 54 59 65
REMARK Flexibility Score: inf
ROOT
ATOM      1  C   UNL A   1      38.582  23.405  26.148  1.00  0.00     0.116 C 
ENDROOT
BRANCH   1   2
ATOM      2  N   UNL A   1      37.633  23.602  24.879  1.00  0.00    -0.356 N 
ATOM      3  C   UNL A   1      37.013  22.758  24.016  1.00  0.00     0.220 C 
ATOM      4  O   UNL A   1      36.415  23.279  23.070  1.00  0.00    -0.275 OA
ATOM      5  H   UNL A   1      37.458  24.551  24.678  1.00  0.00     0.163 HD
BRANCH   3   6
ATOM      6  C   UNL A   1      37.044  21.259  24.198  1.00  0.00     0.110 C 
BRANCH   6   7
ATOM      7  C   UNL A   1      35.964  20.578  25.040  1.00  0.00     0.112 C 
BRANCH   7   8
ATOM      8  C   UNL A   1      35.145  21.555  25.890  1.00  0.00     0.243 C 
ATOM      9  O   UNL A   1      35.510  21.862  27.022  1.00  0.00    -0.273 OA
BRANCH   8  10
ATOM     10  N   UNL A   1      33.893  21.886  25.323  1.00  0.00    -0.225 N 
ATOM     11  C   UNL A   1      32.353  20.937  25.803  1.00  0.00     0.147 C 
ATOM     12  C   UNL A   1      31.012  22.460  26.095  1.00  0.00     0.091 C 
ATOM     13  C   UNL A   1      32.106  24.117  25.308  1.00  0.00     0.071 C 
ATOM     14  N   UNL A   1      33.581  23.674  25.027  1.00  0.00    -0.174 NA
BRANCH  11  15
ATOM     15  C   UNL A   1      32.400  19.720  24.742  1.00  0.00    -0.019 A 
ATOM     16  C   UNL A   1      33.086  17.469  24.122  1.00  0.00     0.119 A 
ATOM     17  C   UNL A   1      32.875  17.756  22.768  1.00  0.00     0.046 A 
ATOM     18  C   UNL A   1      32.830  18.438  25.112  1.00  0.00     0.052 A 
ATOM     19  C   UNL A   1      32.418  18.999  22.379  1.00  0.00     0.004 A 
ATOM     20  C   UNL A   1      32.201  19.968  23.352  1.00  0.00     0.006 A 
BRANCH  16  21
ATOM     21  O   UNL A   1      33.593  16.214  24.322  1.00  0.00    -0.497 OA
ATOM     22  C   UNL A   1      32.859  15.352  25.172  1.00  0.00     0.278 C 
ENDBRANCH  16  21
ENDBRANCH  11  15
BRANCH  13  23
ATOM     23  C   UNL A   1      31.698  25.494  24.335  1.00  0.00    -0.002 A 
ATOM     24  C   UNL A   1      30.512  25.456  23.631  1.00  0.00     0.010 A 
ATOM     25  C   UNL A   1      32.313  26.825  24.277  1.00  0.00     0.013 A 
ATOM     26  C   UNL A   1      30.072  26.635  23.000  1.00  0.00     0.001 A 
ATOM     27  C   UNL A   1      32.367  27.840  23.203  1.00  0.00    -0.050 A 
ATOM     28  C   UNL A   1      30.929  27.780  22.818  1.00  0.00     0.003 A 
ATOM     29  C   UNL A   1      34.099  28.462  22.113  1.00  0.00     0.044 C 
ENDBRANCH  13  23
ENDBRANCH   8  10
ENDBRANCH   7   8
ENDBRANCH   6   7
ENDBRANCH   3   6
ENDBRANCH   1   2
BRANCH   1  30
ATOM     30  C   UNL A   1      39.904  21.687  26.662  1.00  0.00     0.023 C 
BRANCH  30  31
ATOM     31  C   UNL A   1      41.248  22.043  27.970  1.00  0.00     0.023 C 
BRANCH  31  32
ATOM     32  C   UNL A   1      42.921  22.513  27.465  1.00  0.00     0.116 C 
BRANCH  32  33
ATOM     33  N   UNL A   1      43.235  23.590  26.284  1.00  0.00    -0.352 N 
ATOM     34  C   UNL A   1      42.824  24.895  25.852  1.00  0.00     0.251 C 
ATOM     35  H   UNL A   1      43.923  23.234  25.676  1.00  0.00     0.163 HD
ATOM     36  O   UNL A   1      43.100  25.296  24.727  1.00  0.00    -0.269 OA
BRANCH  34  37
ATOM     37  C   UNL A   1      42.056  25.762  26.782  1.00  0.00     0.039 A 
ATOM     38  C   UNL A   1      40.381  25.580  27.570  1.00  0.00     0.014 A 
ATOM     39  C   UNL A   1      43.281  26.864  27.530  1.00  0.00     0.014 A 
ATOM     40  C   UNL A   1      39.997  26.587  29.098  1.00  0.00     0.010 A 
ATOM     41  C   UNL A   1      42.956  27.683  29.073  1.00  0.00     0.010 A 
ATOM     42  C   UNL A   1      41.343  27.616  29.857  1.00  0.00    -0.014 A 
BRANCH  42  43
ATOM     43  C   UNL A   1      41.333  28.809  30.821  1.00  0.00     0.031 A 
ATOM     44  C   UNL A   1      41.963  28.678  32.243  1.00  0.00     0.074 A 
ATOM     45  C   UNL A   1      40.328  29.713  30.722  1.00  0.00     0.049 A 
ATOM     46  N   UNL A   1      41.864  29.470  33.294  1.00  0.00    -0.248 NA
ATOM     47  C   UNL A   1      42.737  27.468  32.552  1.00  0.00     0.031 C 
ATOM     48  C   UNL A   1      39.381  29.810  29.612  1.00  0.00     0.029 A 
ATOM     49  N   UNL A   1      39.876  30.668  31.615  1.00  0.00    -0.354 N 
ATOM     50  C   UNL A   1      42.582  28.855  34.331  1.00  0.00     0.074 A 
ATOM     51  C   UNL A   1      43.028  27.588  33.834  1.00  0.00     0.031 C 
ATOM     52  C   UNL A   1      38.465  30.758  29.887  1.00  0.00     0.029 A 
ATOM     53  C   UNL A   1      38.747  31.343  31.198  1.00  0.00     0.049 A 
ATOM     54  H   UNL A   1      40.322  30.851  32.474  1.00  0.00     0.167 HD
ATOM     55  C   UNL A   1      42.888  29.274  35.584  1.00  0.00     0.037 A 
ATOM     56  C   UNL A   1      38.020  32.321  31.786  1.00  0.00     0.037 A 
ATOM     57  C   UNL A   1      42.398  30.489  36.162  1.00  0.00     0.049 A 
ATOM     58  C   UNL A   1      38.420  32.864  33.139  1.00  0.00     0.074 A 
ATOM     59  C   UNL A   1      42.751  31.082  37.362  1.00  0.00     0.029 A 
ATOM     60  N   UNL A   1      41.404  31.262  35.601  1.00  0.00    -0.354 N 
ATOM     61  N   UNL A   1      39.342  32.432  33.965  1.00  0.00    -0.248 NA
ATOM     62  C   UNL A   1      37.692  34.048  33.630  1.00  0.00     0.031 C 
ATOM     63  C   UNL A   1      41.921  32.191  37.553  1.00  0.00     0.029 A 
ATOM     64  C   UNL A   1      41.099  32.311  36.444  1.00  0.00     0.049 A 
ATOM     65  H   UNL A   1      40.976  31.092  34.730  1.00  0.00     0.167 HD
ATOM     66  C   UNL A   1      39.330  33.312  35.046  1.00  0.00     0.074 A 
ATOM     67  C   UNL A   1      38.314  34.302  34.773  1.00  0.00     0.031 C 
ATOM     68  C   UNL A   1      40.099  33.303  36.162  1.00  0.00     0.037 A 
BRANCH  55  69
ATOM     69  C   UNL A   1      43.843  28.441  36.412  1.00  0.00     0.058 A 
ATOM     70  C   UNL A   1      43.378  27.336  37.147  1.00  0.00     0.135 A 
ATOM     71  C   UNL A   1      45.226  28.681  36.407  1.00  0.00     0.135 A 
ATOM     72  F   UNL A   1      42.065  27.065  37.201  1.00  0.00    -0.206 F 
ATOM     73  C   UNL A   1      44.246  26.505  37.850  1.00  0.00     0.059 A 
ATOM     74  C   UNL A   1      46.117  27.848  37.086  1.00  0.00     0.059 A 
ATOM     75  F   UNL A   1      45.729  29.725  35.731  1.00  0.00    -0.206 F 
ATOM     76  C   UNL A   1      45.617  26.766  37.808  1.00  0.00     0.060 A 
BRANCH  76  77
ATOM     77  S   UNL A   1      46.729  25.644  38.686  1.00  0.00     0.124 S 
ATOM     78  O   UNL A   1      47.264  26.519  39.725  1.00  0.00    -0.237 OA
ATOM     79  O   UNL A   1      45.819  24.599  39.145  1.00  0.00    -0.237 OA
ATOM     80  O   UNL A   1      47.681  25.235  37.658  1.00  0.00    -0.744 OA
ENDBRANCH  76  77
ENDBRANCH  55  69
BRANCH  56  81
ATOM     81  C   UNL A   1      36.868  32.936  31.062  1.00  0.00     0.058 A 
ATOM     82  C   UNL A   1      37.090  33.881  30.047  1.00  0.00     0.135 A 
ATOM     83  C   UNL A   1      35.538  32.616  31.373  1.00  0.00     0.135 A 
ATOM     84  F   UNL A   1      38.344  34.232  29.724  1.00  0.00    -0.206 F 
ATOM     85  C   UNL A   1      36.039  34.503  29.381  1.00  0.00     0.059 A 
ATOM     86  C   UNL A   1      34.468  33.209  30.703  1.00  0.00     0.059 A 
ATOM     87  F   UNL A   1      35.269  31.712  32.327  1.00  0.00    -0.206 F 
ATOM     88  C   UNL A   1      34.729  34.161  29.716  1.00  0.00     0.060 A 
BRANCH  88  89
ATOM     89  S   UNL A   1      33.373  34.941  28.812  1.00  0.00     0.124 S 
ATOM     90  O   UNL A   1      32.971  33.872  27.907  1.00  0.00    -0.237 OA
ATOM     91  O   UNL A   1      32.432  35.259  29.883  1.00  0.00    -0.237 OA
ATOM     92  O   UNL A   1      34.010  36.096  28.186  1.00  0.00    -0.744 OA
ENDBRANCH  88  89
ENDBRANCH  56  81
BRANCH  68  93
ATOM     93  C   UNL A   1      39.927  34.411  37.161  1.00  0.00     0.058 A 
ATOM     94  C   UNL A   1      39.158  34.247  38.322  1.00  0.00     0.135 A 
ATOM     95  C   UNL A   1      40.616  35.623  36.992  1.00  0.00     0.135 A 
ATOM     96  F   UNL A   1      38.488  33.104  38.533  1.00  0.00    -0.206 F 
ATOM     97  C   UNL A   1      39.059  35.258  39.272  1.00  0.00     0.059 A 
ATOM     98  C   UNL A   1      40.551  36.638  37.940  1.00  0.00     0.059 A 
ATOM     99  F   UNL A   1      41.381  35.821  35.906  1.00  0.00    -0.206 F 
ATOM    100  C   UNL A   1      39.760  36.450  39.072  1.00  0.00     0.060 A 
BRANCH 100 101
ATOM    101  S   UNL A   1      39.652  37.742  40.328  1.00  0.00     0.124 S 
ATOM    102  O   UNL A   1      38.839  38.744  39.647  1.00  0.00    -0.237 OA
ATOM    103  O   UNL A   1      39.007  37.050  41.439  1.00  0.00    -0.237 OA
ATOM    104  O   UNL A   1      41.047  38.111  40.554  1.00  0.00    -0.744 OA
ENDBRANCH 100 101
ENDBRANCH  68  93
ENDBRANCH  42  43
ENDBRANCH  34  37
ENDBRANCH  32  33
ENDBRANCH  31  32
ENDBRANCH  30  31
ENDBRANCH   1  30
TORSDOF 20
ENDMDL
MODEL 2
REMARK VINA RESULT:     -14.0      2.200      3.695
REMARK SMILES COc1cccc([C@@H]2CC(c3cccc(C)c3)=NN2C(=O)CCC(=O)NCCCCNC(=O)c2ccc(-c3c4nc(c(-c5c(F)cc(S(=O)(=O)[O-])cc5F)c5ccc([nH]5)c(-c5c(F)cc(S(=O)(=O)[O-])cc5F)c5nc(c(-c6c(F)cc(S(=O)(=O)[O-])cc6F)c6ccc3[nH]6)C=C5)C=C4)cc2)c1
REMARK SMILES IDX 27 1 26 2 24 3 25 4 23 6 22 7 20 8 21 9 19 10 8 11 9 12
REMARK SMILES IDX 10 13 18 14 7 15 3 16 4 17 100 18 5 19 6 20 2 21 1 22 11 23
REMARK SMILES IDX 12 24 17 25 13 26 15 27 14 28 16 29 28 30 29 31 30 32 31 33
REMARK SMILES IDX 32 34 33 36 34 37 35 38 99 39 36 40 98 41 37 42 38 43 39 44
REMARK SMILES IDX 92 45 40 46 97 47 91 48 93 49 41 50 96 51 90 52 89 53 42 55
REMARK SMILES IDX 76 56 55 57 75 58 56 59 59 60 74 61 94 62 57 63 58 64 73 66
REMARK SMILES IDX 95 67 60 68 43 69 44 70 53 71 45 72 46 73 52 74 54 75 47 76
REMARK SMILES IDX 48 77 49 78 50 79 51 80 77 81 78 82 87 83 79 84 80 85 86 86
REMARK SMILES IDX 88 87 81 88 82 89 83 90 84 91 85 92 61 93 62 94 71 95 63 96
REMARK SMILES IDX 64 97 70 98 72 99 65 100 66 101 67 102 68 103 69 104
REMARK H PARENT 26 5 31 35 93 54 59 65
REMARK Flexibility Score: inf
ROOT
ATOM      1  C   UNL A   1      35.946  21.652  25.057  1.00  0.00     0.116 C 
ENDROOT
BRANCH   1   2
ATOM      2  N   UNL A   1      34.520  21.112  24.582  1.00  0.00    -0.356 N 
ATOM      3  C   UNL A   1      33.543  21.594  23.773  1.00  0.00     0.220 C 
ATOM      4  O   UNL A   1      32.506  20.928  23.705  1.00  0.00    -0.275 OA
ATOM      5  H   UNL A   1      34.301  20.230  24.962  1.00  0.00     0.163 HD
BRANCH   3   6
ATOM      6  C   UNL A   1      33.709  22.875  22.990  1.00  0.00     0.110 C 
BRANCH   6   7
ATOM      7  C   UNL A   1      32.472  23.689  22.603  1.00  0.00     0.112 C 
BRANCH   7   8
ATOM      8  C   UNL A   1      32.773  25.167  22.333  1.00  0.00     0.243 C 
ATOM      9  O   UNL A   1      33.654  25.494  21.542  1.00  0.00    -0.273 OA
BRANCH   8  10
ATOM     10  N   UNL A   1      32.090  26.052  23.198  1.00  0.00    -0.225 N 
ATOM     11  C   UNL A   1      32.783  26.450  24.890  1.00  0.00     0.147 C 
ATOM     12  C   UNL A   1      32.549  28.485  24.956  1.00  0.00     0.091 C 
ATOM     13  C   UNL A   1      31.332  28.808  23.231  1.00  0.00     0.071 C 
ATOM     14  N   UNL A   1      31.251  27.482  22.403  1.00  0.00    -0.174 NA
BRANCH  11  15
ATOM     15  C   UNL A   1      32.147  25.254  25.771  1.00  0.00    -0.019 A 
ATOM     16  C   UNL A   1      32.304  23.047  26.782  1.00  0.00     0.119 A 
ATOM     17  C   UNL A   1      30.913  22.989  26.923  1.00  0.00     0.046 A 
ATOM     18  C   UNL A   1      32.927  24.183  26.228  1.00  0.00     0.052 A 
ATOM     19  C   UNL A   1      30.125  24.046  26.513  1.00  0.00     0.004 A 
ATOM     20  C   UNL A   1      30.734  25.151  25.932  1.00  0.00     0.006 A 
BRANCH  16  21
ATOM     21  O   UNL A   1      32.923  21.894  27.185  1.00  0.00    -0.497 OA
ATOM     22  C   UNL A   1      34.065  22.033  28.011  1.00  0.00     0.278 C 
ENDBRANCH  16  21
ENDBRANCH  11  15
BRANCH  13  23
ATOM     23  C   UNL A   1      29.971  29.822  22.873  1.00  0.00    -0.002 A 
ATOM     24  C   UNL A   1      29.187  29.489  21.788  1.00  0.00     0.010 A 
ATOM     25  C   UNL A   1      29.362  30.898  23.664  1.00  0.00     0.013 A 
ATOM     26  C   UNL A   1      27.974  30.177  21.603  1.00  0.00     0.001 A 
ATOM     27  C   UNL A   1      28.569  32.083  23.269  1.00  0.00    -0.050 A 
ATOM     28  C   UNL A   1      27.657  31.388  22.319  1.00  0.00     0.003 A 
ATOM     29  C   UNL A   1      29.167  34.131  23.416  1.00  0.00     0.044 C 
ENDBRANCH  13  23
ENDBRANCH   8  10
ENDBRANCH   7   8
ENDBRANCH   6   7
ENDBRANCH   3   6
ENDBRANCH   1   2
BRANCH   1  30
ATOM     30  C   UNL A   1      36.532  23.704  25.697  1.00  0.00     0.023 C 
BRANCH  30  31
ATOM     31  C   UNL A   1      38.384  23.948  26.087  1.00  0.00     0.023 C 
BRANCH  31  32
ATOM     32  C   UNL A   1      39.390  22.562  26.671  1.00  0.00     0.116 C 
BRANCH  32  33
ATOM     33  N   UNL A   1      40.844  22.178  26.044  1.00  0.00    -0.352 N 
ATOM     34  C   UNL A   1      42.076  22.808  25.665  1.00  0.00     0.251 C 
ATOM     35  H   UNL A   1      40.893  21.210  25.871  1.00  0.00     0.163 HD
ATOM     36  O   UNL A   1      42.887  22.220  24.959  1.00  0.00    -0.269 OA
BRANCH  34  37
ATOM     37  C   UNL A   1      42.364  24.188  26.136  1.00  0.00     0.039 A 
ATOM     38  C   UNL A   1      42.682  25.780  25.231  1.00  0.00     0.014 A 
ATOM     39  C   UNL A   1      41.796  24.234  27.854  1.00  0.00     0.014 A 
ATOM     40  C   UNL A   1      42.448  27.394  26.148  1.00  0.00     0.010 A 
ATOM     41  C   UNL A   1      41.420  25.775  28.654  1.00  0.00     0.010 A 
ATOM     42  C   UNL A   1      41.768  27.354  27.875  1.00  0.00    -0.014 A 
BRANCH  42  43
ATOM     43  C   UNL A   1      41.789  28.359  29.033  1.00  0.00     0.031 A 
ATOM     44  C   UNL A   1      42.498  28.000  30.376  1.00  0.00     0.074 A 
ATOM     45  C   UNL A   1      40.766  29.240  29.145  1.00  0.00     0.049 A 
ATOM     46  N   UNL A   1      42.443  28.593  31.553  1.00  0.00    -0.248 NA
ATOM     47  C   UNL A   1      43.309  26.775  30.428  1.00  0.00     0.031 C 
ATOM     48  C   UNL A   1      39.757  29.504  28.119  1.00  0.00     0.029 A 
ATOM     49  N   UNL A   1      40.346  30.012  30.214  1.00  0.00    -0.354 N 
ATOM     50  C   UNL A   1      43.227  27.825  32.428  1.00  0.00     0.074 A 
ATOM     51  C   UNL A   1      43.667  26.677  31.695  1.00  0.00     0.031 C 
ATOM     52  C   UNL A   1      38.841  30.365  28.603  1.00  0.00     0.029 A 
ATOM     53  C   UNL A   1      39.185  30.719  29.979  1.00  0.00     0.049 A 
ATOM     54  H   UNL A   1      40.834  30.054  31.068  1.00  0.00     0.167 HD
ATOM     55  C   UNL A   1      43.593  28.028  33.719  1.00  0.00     0.037 A 
ATOM     56  C   UNL A   1      38.474  31.560  30.766  1.00  0.00     0.037 A 
ATOM     57  C   UNL A   1      43.115  29.109  34.525  1.00  0.00     0.049 A 
ATOM     58  C   UNL A   1      38.937  31.869  32.172  1.00  0.00     0.074 A 
ATOM     59  C   UNL A   1      43.522  29.493  35.791  1.00  0.00     0.029 A 
ATOM     60  N   UNL A   1      42.078  29.942  34.159  1.00  0.00    -0.354 N 
ATOM     61  N   UNL A   1      39.910  31.324  32.862  1.00  0.00    -0.248 NA
ATOM     62  C   UNL A   1      38.216  32.929  32.899  1.00  0.00     0.031 C 
ATOM     63  C   UNL A   1      42.685  30.530  36.215  1.00  0.00     0.029 A 
ATOM     64  C   UNL A   1      41.801  30.819  35.188  1.00  0.00     0.049 A 
ATOM     65  H   UNL A   1      41.607  29.915  33.296  1.00  0.00     0.167 HD
ATOM     66  C   UNL A   1      39.942  32.002  34.079  1.00  0.00     0.074 A 
ATOM     67  C   UNL A   1      38.895  32.996  34.036  1.00  0.00     0.031 C 
ATOM     68  C   UNL A   1      40.771  31.819  35.136  1.00  0.00     0.037 A 
BRANCH  55  69
ATOM     69  C   UNL A   1      44.606  27.089  34.339  1.00  0.00     0.058 A 
ATOM     70  C   UNL A   1      44.189  25.924  35.007  1.00  0.00     0.135 A 
ATOM     71  C   UNL A   1      45.988  27.293  34.193  1.00  0.00     0.135 A 
ATOM     72  F   UNL A   1      42.882  25.682  35.190  1.00  0.00    -0.206 F 
ATOM     73  C   UNL A   1      45.101  25.003  35.514  1.00  0.00     0.059 A 
ATOM     74  C   UNL A   1      46.920  26.372  34.672  1.00  0.00     0.059 A 
ATOM     75  F   UNL A   1      46.447  28.390  33.570  1.00  0.00    -0.206 F 
ATOM     76  C   UNL A   1      46.466  25.232  35.335  1.00  0.00     0.060 A 
BRANCH  76  77
ATOM     77  S   UNL A   1      47.630  23.997  35.956  1.00  0.00     0.124 S 
ATOM     78  O   UNL A   1      46.879  22.762  35.757  1.00  0.00    -0.237 OA
ATOM     79  O   UNL A   1      48.782  24.186  35.080  1.00  0.00    -0.237 OA
ATOM     80  O   UNL A   1      47.834  24.391  37.347  1.00  0.00    -0.744 OA
ENDBRANCH  76  77
ENDBRANCH  55  69
BRANCH  56  81
ATOM     81  C   UNL A   1      37.273  32.261  30.221  1.00  0.00     0.058 A 
ATOM     82  C   UNL A   1      35.984  31.777  30.497  1.00  0.00     0.135 A 
ATOM     83  C   UNL A   1      37.381  33.400  29.410  1.00  0.00     0.135 A 
ATOM     84  F   UNL A   1      35.829  30.681  31.255  1.00  0.00    -0.206 F 
ATOM     85  C   UNL A   1      34.846  32.381  29.972  1.00  0.00     0.059 A 
ATOM     86  C   UNL A   1      36.253  34.037  28.891  1.00  0.00     0.059 A 
ATOM     87  F   UNL A   1      38.588  33.911  29.124  1.00  0.00    -0.206 F 
ATOM     88  C   UNL A   1      34.990  33.512  29.169  1.00  0.00     0.060 A 
BRANCH  88  89
ATOM     89  S   UNL A   1      33.503  34.316  28.531  1.00  0.00     0.124 S 
ATOM     90  O   UNL A   1      32.962  33.283  27.657  1.00  0.00    -0.237 OA
ATOM     91  O   UNL A   1      32.747  34.579  29.753  1.00  0.00    -0.237 OA
ATOM     92  O   UNL A   1      34.026  35.503  27.861  1.00  0.00    -0.744 OA
ENDBRANCH  88  89
ENDBRANCH  56  81
BRANCH  68  93
ATOM     93  C   UNL A   1      40.634  32.729  36.322  1.00  0.00     0.058 A 
ATOM     94  C   UNL A   1      39.634  32.544  37.286  1.00  0.00     0.135 A 
ATOM     95  C   UNL A   1      41.576  33.749  36.537  1.00  0.00     0.135 A 
ATOM     96  F   UNL A   1      38.715  31.579  37.130  1.00  0.00    -0.206 F 
ATOM     97  C   UNL A   1      39.557  33.355  38.413  1.00  0.00     0.059 A 
ATOM     98  C   UNL A   1      41.534  34.555  37.668  1.00  0.00     0.059 A 
ATOM     99  F   UNL A   1      42.565  33.954  35.652  1.00  0.00    -0.206 F 
ATOM    100  C   UNL A   1      40.512  34.357  38.596  1.00  0.00     0.060 A 
BRANCH 100 101
ATOM    101  S   UNL A   1      40.424  35.382  40.080  1.00  0.00     0.124 S 
ATOM    102  O   UNL A   1      40.333  34.370  41.128  1.00  0.00    -0.237 OA
ATOM    103  O   UNL A   1      41.677  36.127  40.024  1.00  0.00    -0.237 OA
ATOM    104  O   UNL A   1      39.219  36.179  39.870  1.00  0.00    -0.744 OA
ENDBRANCH 100 101
ENDBRANCH  68  93
ENDBRANCH  42  43
ENDBRANCH  34  37
ENDBRANCH  32  33
ENDBRANCH  31  32
ENDBRANCH  30  31
ENDBRANCH   1  30
TORSDOF 20
ENDMDL
MODEL 3
REMARK VINA RESULT:     -13.6      6.441      8.790
REMARK SMILES COc1cccc([C@@H]2CC(c3cccc(C)c3)=NN2C(=O)CCC(=O)NCCCCNC(=O)c2ccc(-c3c4nc(c(-c5c(F)cc(S(=O)(=O)[O-])cc5F)c5ccc([nH]5)c(-c5c(F)cc(S(=O)(=O)[O-])cc5F)c5nc(c(-c6c(F)cc(S(=O)(=O)[O-])cc6F)c6ccc3[nH]6)C=C5)C=C4)cc2)c1
REMARK SMILES IDX 27 1 26 2 24 3 25 4 23 6 22 7 20 8 21 9 19 10 8 11 9 12
REMARK SMILES IDX 10 13 18 14 7 15 3 16 4 17 100 18 5 19 6 20 2 21 1 22 11 23
REMARK SMILES IDX 12 24 17 25 13 26 15 27 14 28 16 29 28 30 29 31 30 32 31 33
REMARK SMILES IDX 32 34 33 36 34 37 35 38 99 39 36 40 98 41 37 42 38 43 39 44
REMARK SMILES IDX 92 45 40 46 97 47 91 48 93 49 41 50 96 51 90 52 89 53 42 55
REMARK SMILES IDX 76 56 55 57 75 58 56 59 59 60 74 61 94 62 57 63 58 64 73 66
REMARK SMILES IDX 95 67 60 68 43 69 44 70 53 71 45 72 46 73 52 74 54 75 47 76
REMARK SMILES IDX 48 77 49 78 50 79 51 80 77 81 78 82 87 83 79 84 80 85 86 86
REMARK SMILES IDX 88 87 81 88 82 89 83 90 84 91 85 92 61 93 62 94 71 95 63 96
REMARK SMILES IDX 64 97 70 98 72 99 65 100 66 101 67 102 68 103 69 104
REMARK H PARENT 26 5 31 35 93 54 59 65
REMARK Flexibility Score: inf
ROOT
ATOM      1  C   UNL A   1      39.464  23.373  26.852  1.00  0.00     0.116 C 
ENDROOT
BRANCH   1   2
ATOM      2  N   UNL A   1      38.403  23.676  25.698  1.00  0.00    -0.356 N 
ATOM      3  C   UNL A   1      37.578  22.909  24.941  1.00  0.00     0.220 C 
ATOM      4  O   UNL A   1      36.944  23.490  24.055  1.00  0.00    -0.275 OA
ATOM      5  H   UNL A   1      38.333  24.636  25.488  1.00  0.00     0.163 HD
BRANCH   3   6
ATOM      6  C   UNL A   1      37.433  21.423  25.167  1.00  0.00     0.110 C 
BRANCH   6   7
ATOM      7  C   UNL A   1      36.051  20.773  25.055  1.00  0.00     0.112 C 
BRANCH   7   8
ATOM      8  C   UNL A   1      34.991  21.436  25.939  1.00  0.00     0.243 C 
ATOM      9  O   UNL A   1      35.154  21.531  27.153  1.00  0.00    -0.273 OA
BRANCH   8  10
ATOM     10  N   UNL A   1      33.788  21.730  25.257  1.00  0.00    -0.225 N 
ATOM     11  C   UNL A   1      32.242  20.727  25.582  1.00  0.00     0.147 C 
ATOM     12  C   UNL A   1      30.829  22.203  25.752  1.00  0.00     0.091 C 
ATOM     13  C   UNL A   1      31.937  23.901  25.082  1.00  0.00     0.071 C 
ATOM     14  N   UNL A   1      33.446  23.509  24.942  1.00  0.00    -0.174 NA
BRANCH  11  15
ATOM     15  C   UNL A   1      32.431  19.522  24.524  1.00  0.00    -0.019 A 
ATOM     16  C   UNL A   1      33.397  17.377  23.899  1.00  0.00     0.119 A 
ATOM     17  C   UNL A   1      33.129  17.626  22.548  1.00  0.00     0.046 A 
ATOM     18  C   UNL A   1      33.031  18.309  24.891  1.00  0.00     0.052 A 
ATOM     19  C   UNL A   1      32.506  18.797  22.163  1.00  0.00     0.004 A 
ATOM     20  C   UNL A   1      32.180  19.734  23.137  1.00  0.00     0.006 A 
BRANCH  16  21
ATOM     21  O   UNL A   1      34.067  16.200  24.095  1.00  0.00    -0.497 OA
ATOM     22  C   UNL A   1      34.634  15.988  25.375  1.00  0.00     0.278 C 
ENDBRANCH  16  21
ENDBRANCH  11  15
BRANCH  13  23
ATOM     23  C   UNL A   1      31.578  25.272  24.081  1.00  0.00    -0.002 A 
ATOM     24  C   UNL A   1      31.906  25.196  22.743  1.00  0.00     0.010 A 
ATOM     25  C   UNL A   1      30.777  26.468  24.369  1.00  0.00     0.013 A 
ATOM     26  C   UNL A   1      31.444  26.209  21.883  1.00  0.00     0.001 A 
ATOM     27  C   UNL A   1      30.815  27.837  23.811  1.00  0.00    -0.050 A 
ATOM     28  C   UNL A   1      30.899  27.451  22.375  1.00  0.00     0.003 A 
ATOM     29  C   UNL A   1      31.405  29.621  24.833  1.00  0.00     0.044 C 
ENDBRANCH  13  23
ENDBRANCH   8  10
ENDBRANCH   7   8
ENDBRANCH   6   7
ENDBRANCH   3   6
ENDBRANCH   1   2
BRANCH   1  30
ATOM     30  C   UNL A   1      40.404  21.436  27.427  1.00  0.00     0.023 C 
BRANCH  30  31
ATOM     31  C   UNL A   1      41.570  20.668  26.126  1.00  0.00     0.023 C 
BRANCH  31  32
ATOM     32  C   UNL A   1      41.999  18.912  26.200  1.00  0.00     0.116 C 
BRANCH  32  33
ATOM     33  N   UNL A   1      43.525  18.353  26.088  1.00  0.00    -0.352 N 
ATOM     34  C   UNL A   1      44.777  18.695  25.475  1.00  0.00     0.251 C 
ATOM     35  H   UNL A   1      43.619  17.518  26.601  1.00  0.00     0.163 HD
ATOM     36  O   UNL A   1      45.679  17.869  25.393  1.00  0.00    -0.269 OA
BRANCH  34  37
ATOM     37  C   UNL A   1      44.973  20.066  24.936  1.00  0.00     0.039 A 
ATOM     38  C   UNL A   1      44.587  20.831  23.286  1.00  0.00     0.014 A 
ATOM     39  C   UNL A   1      45.170  21.126  26.389  1.00  0.00     0.014 A 
ATOM     40  C   UNL A   1      44.460  22.693  23.170  1.00  0.00     0.010 A 
ATOM     41  C   UNL A   1      44.882  22.877  26.292  1.00  0.00     0.010 A 
ATOM     42  C   UNL A   1      44.577  23.699  24.726  1.00  0.00    -0.014 A 
BRANCH  42  43
ATOM     43  C   UNL A   1      44.890  25.176  24.998  1.00  0.00     0.031 A 
ATOM     44  C   UNL A   1      46.364  25.644  25.204  1.00  0.00     0.074 A 
ATOM     45  C   UNL A   1      43.957  25.930  25.628  1.00  0.00     0.049 A 
ATOM     46  N   UNL A   1      46.839  26.784  25.668  1.00  0.00    -0.248 NA
ATOM     47  C   UNL A   1      47.444  24.684  24.930  1.00  0.00     0.031 C 
ATOM     48  C   UNL A   1      42.565  25.544  25.853  1.00  0.00     0.029 A 
ATOM     49  N   UNL A   1      44.064  27.145  26.282  1.00  0.00    -0.354 N 
ATOM     50  C   UNL A   1      48.236  26.657  25.696  1.00  0.00     0.074 A 
ATOM     51  C   UNL A   1      48.541  25.314  25.306  1.00  0.00     0.031 C 
ATOM     52  C   UNL A   1      41.952  26.491  26.589  1.00  0.00     0.029 A 
ATOM     53  C   UNL A   1      42.902  27.558  26.900  1.00  0.00     0.049 A 
ATOM     54  H   UNL A   1      44.897  27.670  26.303  1.00  0.00     0.167 HD
ATOM     55  C   UNL A   1      49.214  27.551  25.991  1.00  0.00     0.037 A 
ATOM     56  C   UNL A   1      42.620  28.663  27.629  1.00  0.00     0.037 A 
ATOM     57  C   UNL A   1      48.966  28.877  26.469  1.00  0.00     0.049 A 
ATOM     58  C   UNL A   1      43.680  29.713  27.870  1.00  0.00     0.074 A 
ATOM     59  C   UNL A   1      49.866  29.910  26.664  1.00  0.00     0.029 A 
ATOM     60  N   UNL A   1      47.731  29.328  26.883  1.00  0.00    -0.354 N 
ATOM     61  N   UNL A   1      44.960  29.678  27.586  1.00  0.00    -0.248 NA
ATOM     62  C   UNL A   1      43.249  30.968  28.512  1.00  0.00     0.031 C 
ATOM     63  C   UNL A   1      49.178  30.974  27.255  1.00  0.00     0.029 A 
ATOM     64  C   UNL A   1      47.845  30.615  27.370  1.00  0.00     0.049 A 
ATOM     65  H   UNL A   1      46.894  28.811  26.839  1.00  0.00     0.167 HD
ATOM     66  C   UNL A   1      45.472  30.914  27.977  1.00  0.00     0.074 A 
ATOM     67  C   UNL A   1      44.370  31.677  28.514  1.00  0.00     0.031 C 
ATOM     68  C   UNL A   1      46.743  31.377  27.889  1.00  0.00     0.037 A 
BRANCH  55  69
ATOM     69  C   UNL A   1      50.654  27.150  25.754  1.00  0.00     0.058 A 
ATOM     70  C   UNL A   1      51.248  27.321  24.491  1.00  0.00     0.135 A 
ATOM     71  C   UNL A   1      51.471  26.684  26.797  1.00  0.00     0.135 A 
ATOM     72  F   UNL A   1      50.514  27.749  23.452  1.00  0.00    -0.206 F 
ATOM     73  C   UNL A   1      52.592  27.037  24.269  1.00  0.00     0.059 A 
ATOM     74  C   UNL A   1      52.826  26.415  26.603  1.00  0.00     0.059 A 
ATOM     75  F   UNL A   1      50.960  26.495  28.024  1.00  0.00    -0.206 F 
ATOM     76  C   UNL A   1      53.377  26.591  25.334  1.00  0.00     0.060 A 
BRANCH  76  77
ATOM     77  S   UNL A   1      55.131  26.278  25.033  1.00  0.00     0.124 S 
ATOM     78  O   UNL A   1      55.207  24.834  25.231  1.00  0.00    -0.237 OA
ATOM     79  O   UNL A   1      55.299  26.739  23.659  1.00  0.00    -0.237 OA
ATOM     80  O   UNL A   1      55.799  27.087  26.048  1.00  0.00    -0.744 OA
ENDBRANCH  76  77
ENDBRANCH  55  69
BRANCH  56  81
ATOM     81  C   UNL A   1      41.231  28.899  28.125  1.00  0.00     0.058 A 
ATOM     82  C   UNL A   1      40.203  29.228  27.226  1.00  0.00     0.135 A 
ATOM     83  C   UNL A   1      40.904  28.821  29.486  1.00  0.00     0.135 A 
ATOM     84  F   UNL A   1      40.469  29.329  25.915  1.00  0.00    -0.206 F 
ATOM     85  C   UNL A   1      38.908  29.494  27.658  1.00  0.00     0.059 A 
ATOM     86  C   UNL A   1      39.607  29.060  29.942  1.00  0.00     0.059 A 
ATOM     87  F   UNL A   1      41.845  28.500  30.387  1.00  0.00    -0.206 F 
ATOM     88  C   UNL A   1      38.618  29.407  29.020  1.00  0.00     0.060 A 
BRANCH  88  89
ATOM     89  S   UNL A   1      36.922  29.708  29.565  1.00  0.00     0.124 S 
ATOM     90  O   UNL A   1      36.875  28.952  30.810  1.00  0.00    -0.237 OA
ATOM     91  O   UNL A   1      36.895  31.163  29.699  1.00  0.00    -0.237 OA
ATOM     92  O   UNL A   1      36.119  29.174  28.468  1.00  0.00    -0.744 OA
ENDBRANCH  88  89
ENDBRANCH  56  81
BRANCH  68  93
ATOM     93  C   UNL A   1      47.027  32.783  28.331  1.00  0.00     0.058 A 
ATOM     94  C   UNL A   1      47.433  33.081  29.640  1.00  0.00     0.135 A 
ATOM     95  C   UNL A   1      46.975  33.836  27.402  1.00  0.00     0.135 A 
ATOM     96  F   UNL A   1      47.505  32.108  30.562  1.00  0.00    -0.206 F 
ATOM     97  C   UNL A   1      47.755  34.379  30.020  1.00  0.00     0.059 A 
ATOM     98  C   UNL A   1      47.317  35.137  27.753  1.00  0.00     0.059 A 
ATOM     99  F   UNL A   1      46.611  33.599  26.132  1.00  0.00    -0.206 F 
ATOM    100  C   UNL A   1      47.695  35.400  29.069  1.00  0.00     0.060 A 
BRANCH 100 101
ATOM    101  S   UNL A   1      48.149  37.076  29.564  1.00  0.00     0.124 S 
ATOM    102  O   UNL A   1      47.090  37.397  30.515  1.00  0.00    -0.237 OA
ATOM    103  O   UNL A   1      49.478  36.887  30.135  1.00  0.00    -0.237 OA
ATOM    104  O   UNL A   1      48.113  37.821  28.309  1.00  0.00    -0.744 OA
ENDBRANCH 100 101
ENDBRANCH  68  93
ENDBRANCH  42  43
ENDBRANCH  34  37
ENDBRANCH  32  33
ENDBRANCH  31  32
ENDBRANCH  30  31
ENDBRANCH   1  30
TORSDOF 20
ENDMDL
