MODEL 1
REMARK VINA RESULT:     -12.9      0.000      0.000
REMARK SMILES Cn1cc(-c2ccn(Cc3ccc(C(=O)NCCCCNC(=O)c4ccc(-c5c6nc(c(-c7c(F)cc(S(=O)(=O)[O-])cc7F)c7ccc([nH]7)c(-c7c(F)cc(S(=O)(=O)[O-])cc7F)c7nc(c(-c8c(F)cc(S(=O)(=O)[O-])cc8F)c8ccc5[nH]8)C=C7)C=C6)cc4)cc3)n2)cn1
REMARK SMILES IDX 18 1 17 2 16 3 14 4 15 5 13 7 10 8 11 9 91 10 12 11 90 12
REMARK SMILES IDX 9 13 8 14 5 15 6 16 92 17 7 18 4 19 1 20 2 21 3 22 94 23
REMARK SMILES IDX 93 24 19 25 20 26 21 27 22 28 23 30 24 31 25 32 89 33 26 34
REMARK SMILES IDX 88 35 27 36 28 37 29 38 82 39 30 40 87 41 81 42 83 43 31 44
REMARK SMILES IDX 86 45 80 46 79 47 32 49 66 50 45 51 65 52 46 53 49 54 64 55
REMARK SMILES IDX 84 56 47 57 48 58 63 60 85 61 50 62 33 63 34 64 43 65 35 66
REMARK SMILES IDX 36 67 42 68 44 69 37 70 38 71 39 72 40 73 41 74 67 75 68 76
REMARK SMILES IDX 77 77 69 78 70 79 76 80 78 81 71 82 72 83 73 84 74 85 75 86
REMARK SMILES IDX 51 87 52 88 61 89 53 90 54 91 60 92 62 93 55 94 56 95 57 96
REMARK SMILES IDX 58 97 59 98
REMARK H PARENT 16 6 21 29 83 48 49 59
REMARK Flexibility Score: inf
ROOT
ATOM      1  C   UNL A   1      35.698  21.718  26.519  1.00  0.00     0.023 C 
ENDROOT
BRANCH   1   2
ATOM      2  C   UNL A   1      34.257  21.710  27.049  1.00  0.00     0.116 C 
BRANCH   2   3
ATOM      3  N   UNL A   1      33.469  20.664  26.423  1.00  0.00    -0.352 N 
ATOM      4  C   UNL A   1      32.588  20.673  25.369  1.00  0.00     0.251 C 
ATOM      5  O   UNL A   1      32.062  19.606  25.051  1.00  0.00    -0.269 OA
ATOM      6  H   UNL A   1      33.590  19.777  26.833  1.00  0.00     0.163 HD
BRANCH   4   7
ATOM      7  C   UNL A   1      32.269  21.892  24.573  1.00  0.00     0.039 A 
ATOM      8  C   UNL A   1      31.864  24.233  23.034  1.00  0.00    -0.026 A 
ATOM      9  C   UNL A   1      32.888  23.336  22.703  1.00  0.00     0.006 A 
ATOM     10  C   UNL A   1      31.010  23.907  24.094  1.00  0.00     0.006 A 
ATOM     11  C   UNL A   1      33.086  22.179  23.468  1.00  0.00     0.014 A 
ATOM     12  C   UNL A   1      31.198  22.744  24.839  1.00  0.00     0.014 A 
BRANCH   8  13
ATOM     13  C   UNL A   1      31.655  25.513  22.263  1.00  0.00     0.179 C 
BRANCH  13  14
ATOM     14  N   UNL A   1      31.601  26.708  23.106  1.00  0.00    -0.268 N 
ATOM     15  C   UNL A   1      32.152  28.068  24.634  1.00  0.00     0.095 A 
ATOM     16  C   UNL A   1      30.854  28.439  24.234  1.00  0.00     0.050 A 
ATOM     17  N   UNL A   1      32.593  26.988  23.983  1.00  0.00    -0.172 NA
ATOM     18  C   UNL A   1      30.523  27.544  23.243  1.00  0.00     0.110 A 
BRANCH  15  19
ATOM     19  C   UNL A   1      32.921  28.763  25.650  1.00  0.00     0.040 A 
ATOM     20  C   UNL A   1      34.069  31.411  27.789  1.00  0.00     0.173 C 
ATOM     21  N   UNL A   1      33.776  30.217  27.034  1.00  0.00    -0.275 N 
ATOM     22  C   UNL A   1      32.789  30.055  26.104  1.00  0.00     0.118 A 
ATOM     23  N   UNL A   1      34.537  29.122  27.211  1.00  0.00    -0.181 NA
ATOM     24  C   UNL A   1      34.006  28.229  26.367  1.00  0.00     0.145 A 
ENDBRANCH  15  19
ENDBRANCH  13  14
ENDBRANCH   8  13
ENDBRANCH   4   7
ENDBRANCH   2   3
ENDBRANCH   1   2
BRANCH   1  25
ATOM     25  C   UNL A   1      36.077  22.921  25.643  1.00  0.00     0.023 C 
BRANCH  25  26
ATOM     26  C   UNL A   1      37.571  23.084  25.388  1.00  0.00     0.116 C 
BRANCH  26  27
ATOM     27  N   UNL A   1      38.395  22.175  26.190  1.00  0.00    -0.352 N 
ATOM     28  C   UNL A   1      39.582  22.463  26.837  1.00  0.00     0.251 C 
ATOM     29  H   UNL A   1      38.064  21.251  26.278  1.00  0.00     0.163 HD
ATOM     30  O   UNL A   1      40.390  21.572  27.105  1.00  0.00    -0.269 OA
BRANCH  28  31
ATOM     31  C   UNL A   1      39.847  23.856  27.220  1.00  0.00     0.039 A 
ATOM     32  C   UNL A   1      38.883  24.862  27.125  1.00  0.00     0.014 A 
ATOM     33  C   UNL A   1      41.105  24.119  27.753  1.00  0.00     0.014 A 
ATOM     34  C   UNL A   1      39.178  26.118  27.654  1.00  0.00     0.010 A 
ATOM     35  C   UNL A   1      41.315  25.279  28.444  1.00  0.00     0.010 A 
ATOM     36  C   UNL A   1      40.394  26.311  28.332  1.00  0.00    -0.014 A 
BRANCH  36  37
ATOM     37  C   UNL A   1      40.692  27.553  29.032  1.00  0.00     0.031 A 
ATOM     38  C   UNL A   1      41.764  28.369  28.401  1.00  0.00     0.074 A 
ATOM     39  C   UNL A   1      39.907  28.037  30.020  1.00  0.00     0.049 A 
ATOM     40  N   UNL A   1      42.960  28.571  28.846  1.00  0.00    -0.248 NA
ATOM     41  C   UNL A   1      41.550  28.879  27.036  1.00  0.00     0.031 C 
ATOM     42  C   UNL A   1      38.635  27.505  30.530  1.00  0.00     0.029 A 
ATOM     43  N   UNL A   1      40.034  29.195  30.719  1.00  0.00    -0.354 N 
ATOM     44  C   UNL A   1      43.558  29.448  27.946  1.00  0.00     0.074 A 
ATOM     45  C   UNL A   1      42.740  29.419  26.762  1.00  0.00     0.031 C 
ATOM     46  C   UNL A   1      38.001  28.453  31.255  1.00  0.00     0.029 A 
ATOM     47  C   UNL A   1      38.891  29.586  31.412  1.00  0.00     0.049 A 
ATOM     48  H   UNL A   1      40.868  29.717  30.733  1.00  0.00     0.167 HD
ATOM     49  C   UNL A   1      44.526  30.319  28.353  1.00  0.00     0.037 A 
ATOM     50  C   UNL A   1      38.692  30.777  32.035  1.00  0.00     0.037 A 
ATOM     51  C   UNL A   1      45.039  29.947  29.651  1.00  0.00     0.049 A 
ATOM     52  C   UNL A   1      40.046  31.347  32.293  1.00  0.00     0.074 A 
ATOM     53  C   UNL A   1      45.617  28.800  30.166  1.00  0.00     0.029 A 
ATOM     54  N   UNL A   1      44.607  30.665  30.743  1.00  0.00    -0.354 N 
ATOM     55  N   UNL A   1      40.918  30.795  33.099  1.00  0.00    -0.248 NA
ATOM     56  C   UNL A   1      40.610  32.215  31.268  1.00  0.00     0.031 C 
ATOM     57  C   UNL A   1      45.031  28.648  31.459  1.00  0.00     0.029 A 
ATOM     58  C   UNL A   1      44.215  29.755  31.695  1.00  0.00     0.049 A 
ATOM     59  H   UNL A   1      44.583  31.645  30.827  1.00  0.00     0.167 HD
ATOM     60  C   UNL A   1      42.132  30.891  32.433  1.00  0.00     0.074 A 
ATOM     61  C   UNL A   1      41.887  31.828  31.335  1.00  0.00     0.031 C 
ATOM     62  C   UNL A   1      43.138  29.987  32.636  1.00  0.00     0.037 A 
BRANCH  49  63
ATOM     63  C   UNL A   1      44.740  31.699  27.776  1.00  0.00     0.058 A 
ATOM     64  C   UNL A   1      45.945  31.979  27.096  1.00  0.00     0.135 A 
ATOM     65  C   UNL A   1      43.950  32.827  28.096  1.00  0.00     0.135 A 
ATOM     66  F   UNL A   1      46.777  30.987  26.741  1.00  0.00    -0.206 F 
ATOM     67  C   UNL A   1      46.371  33.281  26.832  1.00  0.00     0.059 A 
ATOM     68  C   UNL A   1      44.330  34.129  27.793  1.00  0.00     0.059 A 
ATOM     69  F   UNL A   1      42.819  32.735  28.805  1.00  0.00    -0.206 F 
ATOM     70  C   UNL A   1      45.561  34.351  27.200  1.00  0.00     0.060 A 
BRANCH  70  71
ATOM     71  S   UNL A   1      46.151  36.033  26.949  1.00  0.00     0.124 S 
ATOM     72  O   UNL A   1      46.984  36.227  28.131  1.00  0.00    -0.237 OA
ATOM     73  O   UNL A   1      46.860  35.916  25.678  1.00  0.00    -0.237 OA
ATOM     74  O   UNL A   1      44.921  36.816  26.905  1.00  0.00    -0.744 OA
ENDBRANCH  70  71
ENDBRANCH  49  63
BRANCH  50  75
ATOM     75  C   UNL A   1      37.443  31.594  32.036  1.00  0.00     0.058 A 
ATOM     76  C   UNL A   1      36.810  31.973  33.234  1.00  0.00     0.135 A 
ATOM     77  C   UNL A   1      36.991  32.250  30.872  1.00  0.00     0.135 A 
ATOM     78  F   UNL A   1      37.186  31.420  34.398  1.00  0.00    -0.206 F 
ATOM     79  C   UNL A   1      35.825  32.970  33.281  1.00  0.00     0.059 A 
ATOM     80  C   UNL A   1      36.007  33.238  30.892  1.00  0.00     0.059 A 
ATOM     81  F   UNL A   1      37.559  32.016  29.679  1.00  0.00    -0.206 F 
ATOM     82  C   UNL A   1      35.443  33.612  32.103  1.00  0.00     0.060 A 
BRANCH  82  83
ATOM     83  S   UNL A   1      34.299  35.013  32.171  1.00  0.00     0.124 S 
ATOM     84  O   UNL A   1      33.159  34.441  32.880  1.00  0.00    -0.237 OA
ATOM     85  O   UNL A   1      35.070  36.009  32.907  1.00  0.00    -0.237 OA
ATOM     86  O   UNL A   1      34.062  35.329  30.765  1.00  0.00    -0.744 OA
ENDBRANCH  82  83
ENDBRANCH  50  75
BRANCH  62  87
ATOM     87  C   UNL A   1      43.035  29.013  33.786  1.00  0.00     0.058 A 
ATOM     88  C   UNL A   1      43.336  29.316  35.127  1.00  0.00     0.135 A 
ATOM     89  C   UNL A   1      42.423  27.774  33.540  1.00  0.00     0.135 A 
ATOM     90  F   UNL A   1      43.825  30.515  35.471  1.00  0.00    -0.206 F 
ATOM     91  C   UNL A   1      43.073  28.416  36.166  1.00  0.00     0.059 A 
ATOM     92  C   UNL A   1      42.122  26.876  34.560  1.00  0.00     0.059 A 
ATOM     93  F   UNL A   1      42.050  27.446  32.291  1.00  0.00    -0.206 F 
ATOM     94  C   UNL A   1      42.461  27.197  35.871  1.00  0.00     0.060 A 
BRANCH  94  95
ATOM     95  S   UNL A   1      42.059  26.060  37.216  1.00  0.00     0.124 S 
ATOM     96  O   UNL A   1      43.009  26.458  38.249  1.00  0.00    -0.237 OA
ATOM     97  O   UNL A   1      40.659  26.372  37.488  1.00  0.00    -0.237 OA
ATOM     98  O   UNL A   1      42.293  24.742  36.630  1.00  0.00    -0.744 OA
ENDBRANCH  94  95
ENDBRANCH  62  87
ENDBRANCH  36  37
ENDBRANCH  28  31
ENDBRANCH  26  27
ENDBRANCH  25  26
ENDBRANCH   1  25
TORSDOF 17
ENDMDL
MODEL 2
REMARK VINA RESULT:     -12.7      2.970      9.762
REMARK SMILES Cn1cc(-c2ccn(Cc3ccc(C(=O)NCCCCNC(=O)c4ccc(-c5c6nc(c(-c7c(F)cc(S(=O)(=O)[O-])cc7F)c7ccc([nH]7)c(-c7c(F)cc(S(=O)(=O)[O-])cc7F)c7nc(c(-c8c(F)cc(S(=O)(=O)[O-])cc8F)c8ccc5[nH]8)C=C7)C=C6)cc4)cc3)n2)cn1
REMARK SMILES IDX 18 1 17 2 16 3 14 4 15 5 13 7 10 8 11 9 91 10 12 11 90 12
REMARK SMILES IDX 9 13 8 14 5 15 6 16 92 17 7 18 4 19 1 20 2 21 3 22 94 23
REMARK SMILES IDX 93 24 19 25 20 26 21 27 22 28 23 30 24 31 25 32 89 33 26 34
REMARK SMILES IDX 88 35 27 36 28 37 29 38 82 39 30 40 87 41 81 42 83 43 31 44
REMARK SMILES IDX 86 45 80 46 79 47 32 49 66 50 45 51 65 52 46 53 49 54 64 55
REMARK SMILES IDX 84 56 47 57 48 58 63 60 85 61 50 62 33 63 34 64 43 65 35 66
REMARK SMILES IDX 36 67 42 68 44 69 37 70 38 71 39 72 40 73 41 74 67 75 68 76
REMARK SMILES IDX 77 77 69 78 70 79 76 80 78 81 71 82 72 83 73 84 74 85 75 86
REMARK SMILES IDX 51 87 52 88 61 89 53 90 54 91 60 92 62 93 55 94 56 95 57 96
REMARK SMILES IDX 58 97 59 98
REMARK H PARENT 16 6 21 29 83 48 49 59
REMARK Flexibility Score: inf
ROOT
ATOM      1  C   UNL A   1      32.834  29.697  25.169  1.00  0.00     0.023 C 
ENDROOT
BRANCH   1   2
ATOM      2  C   UNL A   1      33.135  28.934  23.871  1.00  0.00     0.116 C 
BRANCH   2   3
ATOM      3  N   UNL A   1      31.988  28.933  22.980  1.00  0.00    -0.352 N 
ATOM      4  C   UNL A   1      30.998  28.011  22.747  1.00  0.00     0.251 C 
ATOM      5  O   UNL A   1      30.132  28.295  21.919  1.00  0.00    -0.269 OA
ATOM      6  H   UNL A   1      31.905  29.752  22.439  1.00  0.00     0.163 HD
BRANCH   4   7
ATOM      7  C   UNL A   1      30.897  26.712  23.470  1.00  0.00     0.039 A 
ATOM      8  C   UNL A   1      30.769  24.340  25.010  1.00  0.00    -0.026 A 
ATOM      9  C   UNL A   1      30.418  25.572  25.576  1.00  0.00     0.006 A 
ATOM     10  C   UNL A   1      31.113  24.304  23.654  1.00  0.00     0.006 A 
ATOM     11  C   UNL A   1      30.483  26.744  24.812  1.00  0.00     0.014 A 
ATOM     12  C   UNL A   1      31.157  25.471  22.891  1.00  0.00     0.014 A 
BRANCH   8  13
ATOM     13  C   UNL A   1      30.758  23.066  25.820  1.00  0.00     0.179 C 
BRANCH  13  14
ATOM     14  N   UNL A   1      31.884  22.177  25.535  1.00  0.00    -0.268 N 
ATOM     15  C   UNL A   1      32.948  20.362  25.284  1.00  0.00     0.095 A 
ATOM     16  C   UNL A   1      33.923  21.376  25.356  1.00  0.00     0.050 A 
ATOM     17  N   UNL A   1      31.710  20.838  25.438  1.00  0.00    -0.172 NA
ATOM     18  C   UNL A   1      33.207  22.540  25.516  1.00  0.00     0.110 A 
BRANCH  15  19
ATOM     19  C   UNL A   1      33.249  18.956  25.085  1.00  0.00     0.040 A 
ATOM     20  C   UNL A   1      33.004  15.382  25.353  1.00  0.00     0.173 C 
ATOM     21  N   UNL A   1      33.291  16.775  25.109  1.00  0.00    -0.275 N 
ATOM     22  C   UNL A   1      32.577  17.850  25.552  1.00  0.00     0.118 A 
ATOM     23  N   UNL A   1      34.380  17.107  24.390  1.00  0.00    -0.181 NA
ATOM     24  C   UNL A   1      34.347  18.446  24.369  1.00  0.00     0.145 A 
ENDBRANCH  15  19
ENDBRANCH  13  14
ENDBRANCH   8  13
ENDBRANCH   4   7
ENDBRANCH   2   3
ENDBRANCH   1   2
BRANCH   1  25
ATOM     25  C   UNL A   1      33.010  28.895  26.467  1.00  0.00     0.023 C 
BRANCH  25  26
ATOM     26  C   UNL A   1      33.509  29.703  27.659  1.00  0.00     0.116 C 
BRANCH  26  27
ATOM     27  N   UNL A   1      33.889  31.075  27.307  1.00  0.00    -0.352 N 
ATOM     28  C   UNL A   1      34.990  31.785  27.746  1.00  0.00     0.251 C 
ATOM     29  H   UNL A   1      33.289  31.546  26.683  1.00  0.00     0.163 HD
ATOM     30  O   UNL A   1      34.992  33.016  27.746  1.00  0.00    -0.269 OA
BRANCH  28  31
ATOM     31  C   UNL A   1      36.170  31.032  28.194  1.00  0.00     0.039 A 
ATOM     32  C   UNL A   1      36.451  29.736  27.755  1.00  0.00     0.014 A 
ATOM     33  C   UNL A   1      37.047  31.707  29.037  1.00  0.00     0.014 A 
ATOM     34  C   UNL A   1      37.670  29.162  28.113  1.00  0.00     0.010 A 
ATOM     35  C   UNL A   1      38.313  31.227  29.217  1.00  0.00     0.010 A 
ATOM     36  C   UNL A   1      38.606  29.926  28.830  1.00  0.00    -0.014 A 
BRANCH  36  37
ATOM     37  C   UNL A   1      39.950  29.434  29.103  1.00  0.00     0.031 A 
ATOM     38  C   UNL A   1      40.216  29.145  30.537  1.00  0.00     0.074 A 
ATOM     39  C   UNL A   1      40.794  29.046  28.121  1.00  0.00     0.049 A 
ATOM     40  N   UNL A   1      40.980  29.806  31.342  1.00  0.00    -0.248 NA
ATOM     41  C   UNL A   1      39.413  28.107  31.208  1.00  0.00     0.031 C 
ATOM     42  C   UNL A   1      40.551  28.968  26.674  1.00  0.00     0.029 A 
ATOM     43  N   UNL A   1      42.044  28.525  28.230  1.00  0.00    -0.354 N 
ATOM     44  C   UNL A   1      40.956  29.113  32.548  1.00  0.00     0.074 A 
ATOM     45  C   UNL A   1      39.822  28.229  32.474  1.00  0.00     0.031 C 
ATOM     46  C   UNL A   1      41.505  28.209  26.091  1.00  0.00     0.029 A 
ATOM     47  C   UNL A   1      42.517  27.898  27.080  1.00  0.00     0.049 A 
ATOM     48  H   UNL A   1      42.573  28.584  29.058  1.00  0.00     0.167 HD
ATOM     49  C   UNL A   1      42.026  29.139  33.393  1.00  0.00     0.037 A 
ATOM     50  C   UNL A   1      43.645  27.149  26.974  1.00  0.00     0.037 A 
ATOM     51  C   UNL A   1      42.935  30.205  33.041  1.00  0.00     0.049 A 
ATOM     52  C   UNL A   1      44.522  27.546  28.113  1.00  0.00     0.074 A 
ATOM     53  C   UNL A   1      42.803  31.574  32.895  1.00  0.00     0.029 A 
ATOM     54  N   UNL A   1      44.086  29.871  32.365  1.00  0.00    -0.354 N 
ATOM     55  N   UNL A   1      45.038  28.742  28.242  1.00  0.00    -0.248 NA
ATOM     56  C   UNL A   1      44.387  26.791  29.352  1.00  0.00     0.031 C 
ATOM     57  C   UNL A   1      43.558  31.888  31.725  1.00  0.00     0.029 A 
ATOM     58  C   UNL A   1      44.183  30.719  31.289  1.00  0.00     0.049 A 
ATOM     59  H   UNL A   1      44.720  29.158  32.606  1.00  0.00     0.167 HD
ATOM     60  C   UNL A   1      44.890  29.053  29.587  1.00  0.00     0.074 A 
ATOM     61  C   UNL A   1      44.535  27.787  30.230  1.00  0.00     0.031 C 
ATOM     62  C   UNL A   1      44.769  30.346  30.018  1.00  0.00     0.037 A 
BRANCH  49  63
ATOM     63  C   UNL A   1      42.448  27.991  34.283  1.00  0.00     0.058 A 
ATOM     64  C   UNL A   1      42.506  28.191  35.679  1.00  0.00     0.135 A 
ATOM     65  C   UNL A   1      43.059  26.805  33.815  1.00  0.00     0.135 A 
ATOM     66  F   UNL A   1      41.960  29.283  36.237  1.00  0.00    -0.206 F 
ATOM     67  C   UNL A   1      43.191  27.325  36.532  1.00  0.00     0.059 A 
ATOM     68  C   UNL A   1      43.700  25.901  34.654  1.00  0.00     0.059 A 
ATOM     69  F   UNL A   1      43.155  26.511  32.514  1.00  0.00    -0.206 F 
ATOM     70  C   UNL A   1      43.798  26.189  36.005  1.00  0.00     0.060 A 
BRANCH  70  71
ATOM     71  S   UNL A   1      44.764  25.122  37.086  1.00  0.00     0.124 S 
ATOM     72  O   UNL A   1      44.082  25.309  38.362  1.00  0.00    -0.237 OA
ATOM     73  O   UNL A   1      44.593  23.818  36.453  1.00  0.00    -0.237 OA
ATOM     74  O   UNL A   1      46.108  25.684  36.998  1.00  0.00    -0.744 OA
ENDBRANCH  70  71
ENDBRANCH  49  63
BRANCH  50  75
ATOM     75  C   UNL A   1      43.809  25.873  26.216  1.00  0.00     0.058 A 
ATOM     76  C   UNL A   1      44.928  25.642  25.395  1.00  0.00     0.135 A 
ATOM     77  C   UNL A   1      43.009  24.745  26.492  1.00  0.00     0.135 A 
ATOM     78  F   UNL A   1      45.762  26.649  25.094  1.00  0.00    -0.206 F 
ATOM     79  C   UNL A   1      45.257  24.365  24.916  1.00  0.00     0.059 A 
ATOM     80  C   UNL A   1      43.310  23.467  26.020  1.00  0.00     0.059 A 
ATOM     81  F   UNL A   1      41.949  24.829  27.310  1.00  0.00    -0.206 F 
ATOM     82  C   UNL A   1      44.449  23.278  25.251  1.00  0.00     0.060 A 
BRANCH  82  83
ATOM     83  S   UNL A   1      44.953  21.603  24.782  1.00  0.00     0.124 S 
ATOM     84  O   UNL A   1      44.126  20.780  25.657  1.00  0.00    -0.237 OA
ATOM     85  O   UNL A   1      44.615  21.564  23.363  1.00  0.00    -0.237 OA
ATOM     86  O   UNL A   1      46.384  21.583  25.078  1.00  0.00    -0.744 OA
ENDBRANCH  82  83
ENDBRANCH  50  75
BRANCH  62  87
ATOM     87  C   UNL A   1      45.054  31.475  29.056  1.00  0.00     0.058 A 
ATOM     88  C   UNL A   1      46.334  31.988  28.773  1.00  0.00     0.135 A 
ATOM     89  C   UNL A   1      43.999  31.926  28.248  1.00  0.00     0.135 A 
ATOM     90  F   UNL A   1      47.416  31.539  29.421  1.00  0.00    -0.206 F 
ATOM     91  C   UNL A   1      46.546  32.928  27.759  1.00  0.00     0.059 A 
ATOM     92  C   UNL A   1      44.191  32.838  27.213  1.00  0.00     0.059 A 
ATOM     93  F   UNL A   1      42.762  31.431  28.421  1.00  0.00    -0.206 F 
ATOM     94  C   UNL A   1      45.465  33.346  26.981  1.00  0.00     0.060 A 
BRANCH  94  95
ATOM     95  S   UNL A   1      45.745  34.509  25.628  1.00  0.00     0.124 S 
ATOM     96  O   UNL A   1      44.822  34.022  24.609  1.00  0.00    -0.237 OA
ATOM     97  O   UNL A   1      45.401  35.792  26.235  1.00  0.00    -0.237 OA
ATOM     98  O   UNL A   1      47.162  34.337  25.317  1.00  0.00    -0.744 OA
ENDBRANCH  94  95
ENDBRANCH  62  87
ENDBRANCH  36  37
ENDBRANCH  28  31
ENDBRANCH  26  27
ENDBRANCH  25  26
ENDBRANCH   1  25
TORSDOF 17
ENDMDL
MODEL 3
REMARK VINA RESULT:     -12.6      2.624      3.899
REMARK SMILES Cn1cc(-c2ccn(Cc3ccc(C(=O)NCCCCNC(=O)c4ccc(-c5c6nc(c(-c7c(F)cc(S(=O)(=O)[O-])cc7F)c7ccc([nH]7)c(-c7c(F)cc(S(=O)(=O)[O-])cc7F)c7nc(c(-c8c(F)cc(S(=O)(=O)[O-])cc8F)c8ccc5[nH]8)C=C7)C=C6)cc4)cc3)n2)cn1
REMARK SMILES IDX 18 1 17 2 16 3 14 4 15 5 13 7 10 8 11 9 91 10 12 11 90 12
REMARK SMILES IDX 9 13 8 14 5 15 6 16 92 17 7 18 4 19 1 20 2 21 3 22 94 23
REMARK SMILES IDX 93 24 19 25 20 26 21 27 22 28 23 30 24 31 25 32 89 33 26 34
REMARK SMILES IDX 88 35 27 36 28 37 29 38 82 39 30 40 87 41 81 42 83 43 31 44
REMARK SMILES IDX 86 45 80 46 79 47 32 49 66 50 45 51 65 52 46 53 49 54 64 55
REMARK SMILES IDX 84 56 47 57 48 58 63 60 85 61 50 62 33 63 34 64 43 65 35 66
REMARK SMILES IDX 36 67 42 68 44 69 37 70 38 71 39 72 40 73 41 74 67 75 68 76
REMARK SMILES IDX 77 77 69 78 70 79 76 80 78 81 71 82 72 83 73 84 74 85 75 86
REMARK SMILES IDX 51 87 52 88 61 89 53 90 54 91 60 92 62 93 55 94 56 95 57 96
REMARK SMILES IDX 58 97 59 98
REMARK H PARENT 16 6 21 29 83 48 49 59
REMARK Flexibility Score: inf
ROOT
ATOM      1  C   UNL A   1      40.394  21.205  26.930  1.00  0.00     0.023 C 
ENDROOT
BRANCH   1   2
ATOM      2  C   UNL A   1      39.288  21.767  26.025  1.00  0.00     0.116 C 
BRANCH   2   3
ATOM      3  N   UNL A   1      38.441  20.708  25.504  1.00  0.00    -0.352 N 
ATOM      4  C   UNL A   1      37.101  20.654  25.213  1.00  0.00     0.251 C 
ATOM      5  O   UNL A   1      36.652  19.597  24.767  1.00  0.00    -0.269 OA
ATOM      6  H   UNL A   1      38.922  19.868  25.326  1.00  0.00     0.163 HD
BRANCH   4   7
ATOM      7  C   UNL A   1      36.176  21.813  25.370  1.00  0.00     0.039 A 
ATOM      8  C   UNL A   1      34.582  24.136  25.648  1.00  0.00    -0.026 A 
ATOM      9  C   UNL A   1      35.660  24.119  24.754  1.00  0.00     0.006 A 
ATOM     10  C   UNL A   1      34.274  22.959  26.342  1.00  0.00     0.006 A 
ATOM     11  C   UNL A   1      36.448  22.968  24.619  1.00  0.00     0.014 A 
ATOM     12  C   UNL A   1      35.048  21.809  26.190  1.00  0.00     0.014 A 
BRANCH   8  13
ATOM     13  C   UNL A   1      33.745  25.374  25.854  1.00  0.00     0.179 C 
BRANCH  13  14
ATOM     14  N   UNL A   1      32.889  25.704  24.715  1.00  0.00    -0.268 N 
ATOM     15  C   UNL A   1      31.433  26.742  23.579  1.00  0.00     0.095 A 
ATOM     16  C   UNL A   1      31.652  25.524  22.908  1.00  0.00     0.050 A 
ATOM     17  N   UNL A   1      32.148  26.837  24.703  1.00  0.00    -0.172 NA
ATOM     18  C   UNL A   1      32.600  24.873  23.662  1.00  0.00     0.110 A 
BRANCH  15  19
ATOM     19  C   UNL A   1      30.520  27.773  23.119  1.00  0.00     0.040 A 
ATOM     20  C   UNL A   1      27.486  29.648  22.693  1.00  0.00     0.173 C 
ATOM     21  N   UNL A   1      28.800  29.052  22.715  1.00  0.00    -0.275 N 
ATOM     22  C   UNL A   1      29.199  27.971  23.447  1.00  0.00     0.118 A 
ATOM     23  N   UNL A   1      29.769  29.566  21.936  1.00  0.00    -0.181 NA
ATOM     24  C   UNL A   1      30.826  28.785  22.191  1.00  0.00     0.145 A 
ENDBRANCH  15  19
ENDBRANCH  13  14
ENDBRANCH   8  13
ENDBRANCH   4   7
ENDBRANCH   2   3
ENDBRANCH   1   2
BRANCH   1  25
ATOM     25  C   UNL A   1      41.098  19.942  26.412  1.00  0.00     0.023 C 
BRANCH  25  26
ATOM     26  C   UNL A   1      42.480  19.690  27.001  1.00  0.00     0.116 C 
BRANCH  26  27
ATOM     27  N   UNL A   1      43.517  19.511  25.981  1.00  0.00    -0.352 N 
ATOM     28  C   UNL A   1      44.024  20.464  25.117  1.00  0.00     0.251 C 
ATOM     29  H   UNL A   1      43.898  18.606  25.902  1.00  0.00     0.163 HD
ATOM     30  O   UNL A   1      44.549  20.137  24.051  1.00  0.00    -0.269 OA
BRANCH  28  31
ATOM     31  C   UNL A   1      43.943  21.876  25.512  1.00  0.00     0.039 A 
ATOM     32  C   UNL A   1      43.008  22.760  24.967  1.00  0.00     0.014 A 
ATOM     33  C   UNL A   1      44.810  22.284  26.520  1.00  0.00     0.014 A 
ATOM     34  C   UNL A   1      42.906  24.039  25.513  1.00  0.00     0.010 A 
ATOM     35  C   UNL A   1      44.572  23.456  27.180  1.00  0.00     0.010 A 
ATOM     36  C   UNL A   1      43.681  24.371  26.637  1.00  0.00    -0.014 A 
BRANCH  36  37
ATOM     37  C   UNL A   1      43.510  25.636  27.339  1.00  0.00     0.031 A 
ATOM     38  C   UNL A   1      44.507  26.678  26.977  1.00  0.00     0.074 A 
ATOM     39  C   UNL A   1      42.407  25.917  28.069  1.00  0.00     0.049 A 
ATOM     40  N   UNL A   1      45.471  27.130  27.708  1.00  0.00    -0.248 NA
ATOM     41  C   UNL A   1      44.553  27.154  25.583  1.00  0.00     0.031 C 
ATOM     42  C   UNL A   1      41.193  25.111  28.252  1.00  0.00     0.029 A 
ATOM     43  N   UNL A   1      42.093  27.062  28.729  1.00  0.00    -0.354 N 
ATOM     44  C   UNL A   1      46.080  28.133  26.960  1.00  0.00     0.074 A 
ATOM     45  C   UNL A   1      45.628  27.947  25.606  1.00  0.00     0.031 C 
ATOM     46  C   UNL A   1      40.201  25.884  28.749  1.00  0.00     0.029 A 
ATOM     47  C   UNL A   1      40.752  27.181  29.086  1.00  0.00     0.049 A 
ATOM     48  H   UNL A   1      42.761  27.754  28.939  1.00  0.00     0.167 HD
ATOM     49  C   UNL A   1      46.695  29.187  27.569  1.00  0.00     0.037 A 
ATOM     50  C   UNL A   1      40.144  28.288  29.587  1.00  0.00     0.037 A 
ATOM     51  C   UNL A   1      46.918  28.913  28.970  1.00  0.00     0.049 A 
ATOM     52  C   UNL A   1      41.226  29.136  30.165  1.00  0.00     0.074 A 
ATOM     53  C   UNL A   1      47.574  27.912  29.663  1.00  0.00     0.029 A 
ATOM     54  N   UNL A   1      46.069  29.498  29.882  1.00  0.00    -0.354 N 
ATOM     55  N   UNL A   1      41.953  28.774  31.191  1.00  0.00    -0.248 NA
ATOM     56  C   UNL A   1      41.838  30.125  29.287  1.00  0.00     0.031 C 
ATOM     57  C   UNL A   1      46.716  27.612  30.764  1.00  0.00     0.029 A 
ATOM     58  C   UNL A   1      45.648  28.508  30.735  1.00  0.00     0.049 A 
ATOM     59  H   UNL A   1      45.813  30.448  29.917  1.00  0.00     0.167 HD
ATOM     60  C   UNL A   1      43.250  29.146  30.860  1.00  0.00     0.074 A 
ATOM     61  C   UNL A   1      43.105  30.026  29.699  1.00  0.00     0.031 C 
ATOM     62  C   UNL A   1      44.338  28.481  31.354  1.00  0.00     0.037 A 
BRANCH  49  63
ATOM     63  C   UNL A   1      46.749  30.591  27.011  1.00  0.00     0.058 A 
ATOM     64  C   UNL A   1      47.980  31.280  27.009  1.00  0.00     0.135 A 
ATOM     65  C   UNL A   1      45.611  31.384  26.742  1.00  0.00     0.135 A 
ATOM     66  F   UNL A   1      49.130  30.630  27.253  1.00  0.00    -0.206 F 
ATOM     67  C   UNL A   1      48.065  32.663  26.836  1.00  0.00     0.059 A 
ATOM     68  C   UNL A   1      45.678  32.753  26.513  1.00  0.00     0.059 A 
ATOM     69  F   UNL A   1      44.367  30.894  26.784  1.00  0.00    -0.206 F 
ATOM     70  C   UNL A   1      46.903  33.392  26.604  1.00  0.00     0.060 A 
BRANCH  70  71
ATOM     71  S   UNL A   1      46.997  35.185  26.478  1.00  0.00     0.124 S 
ATOM     72  O   UNL A   1      48.382  35.374  26.060  1.00  0.00    -0.237 OA
ATOM     73  O   UNL A   1      45.979  35.470  25.471  1.00  0.00    -0.237 OA
ATOM     74  O   UNL A   1      46.676  35.633  27.829  1.00  0.00    -0.744 OA
ENDBRANCH  70  71
ENDBRANCH  49  63
BRANCH  50  75
ATOM     75  C   UNL A   1      38.792  28.810  29.230  1.00  0.00     0.058 A 
ATOM     76  C   UNL A   1      37.794  28.999  30.204  1.00  0.00     0.135 A 
ATOM     77  C   UNL A   1      38.536  29.392  27.971  1.00  0.00     0.135 A 
ATOM     78  F   UNL A   1      37.956  28.502  31.439  1.00  0.00    -0.206 F 
ATOM     79  C   UNL A   1      36.637  29.755  29.957  1.00  0.00     0.059 A 
ATOM     80  C   UNL A   1      37.390  30.139  27.699  1.00  0.00     0.059 A 
ATOM     81  F   UNL A   1      39.440  29.330  26.981  1.00  0.00    -0.206 F 
ATOM     82  C   UNL A   1      36.454  30.338  28.704  1.00  0.00     0.060 A 
BRANCH  82  83
ATOM     83  S   UNL A   1      35.054  31.452  28.425  1.00  0.00     0.124 S 
ATOM     84  O   UNL A   1      34.799  31.961  29.768  1.00  0.00    -0.237 OA
ATOM     85  O   UNL A   1      35.604  32.411  27.474  1.00  0.00    -0.237 OA
ATOM     86  O   UNL A   1      34.020  30.570  27.888  1.00  0.00    -0.744 OA
ENDBRANCH  82  83
ENDBRANCH  50  75
BRANCH  62  87
ATOM     87  C   UNL A   1      44.150  27.487  32.476  1.00  0.00     0.058 A 
ATOM     88  C   UNL A   1      43.893  27.827  33.817  1.00  0.00     0.135 A 
ATOM     89  C   UNL A   1      44.039  26.130  32.135  1.00  0.00     0.135 A 
ATOM     90  F   UNL A   1      43.873  29.106  34.214  1.00  0.00    -0.206 F 
ATOM     91  C   UNL A   1      43.576  26.860  34.778  1.00  0.00     0.059 A 
ATOM     92  C   UNL A   1      43.694  25.154  33.066  1.00  0.00     0.059 A 
ATOM     93  F   UNL A   1      44.209  25.743  30.860  1.00  0.00    -0.206 F 
ATOM     94  C   UNL A   1      43.476  25.524  34.390  1.00  0.00     0.060 A 
BRANCH  94  95
ATOM     95  S   UNL A   1      43.002  24.280  35.611  1.00  0.00     0.124 S 
ATOM     96  O   UNL A   1      43.574  24.822  36.839  1.00  0.00    -0.237 OA
ATOM     97  O   UNL A   1      41.544  24.294  35.531  1.00  0.00    -0.237 OA
ATOM     98  O   UNL A   1      43.633  23.058  35.117  1.00  0.00    -0.744 OA
ENDBRANCH  94  95
ENDBRANCH  62  87
ENDBRANCH  36  37
ENDBRANCH  28  31
ENDBRANCH  26  27
ENDBRANCH  25  26
ENDBRANCH   1  25
TORSDOF 17
ENDMDL
