MODEL 1
REMARK VINA RESULT:     -11.3      0.000      0.000
REMARK SMILES CO[C@H]1C[C@@H](C(=O)NCCCCNC(=O)c2ccc(-c3c4nc(c(-c5c(F)cc(S(=O)(=O)[O-])cc5F)c5ccc([nH]5)c(-c5c(F)cc(S(=O)(=O)[O-])cc5F)c5nc(c(-c6c(F)cc(S(=O)(=O)[O-])cc6F)c6ccc3[nH]6)C=C5)C=C4)cc2)N(C(=O)c2cscc2C)C1
REMARK SMILES IDX 11 1 10 2 9 3 8 4 6 5 7 6 5 8 3 9 4 10 91 11 82 12 2 13 1 14
REMARK SMILES IDX 83 15 84 16 85 17 86 18 89 19 87 20 88 21 90 22 12 23 13 24
REMARK SMILES IDX 14 25 15 27 16 28 17 29 81 30 18 31 80 32 19 33 20 34 21 35
REMARK SMILES IDX 74 36 22 37 79 38 73 39 75 40 23 41 78 42 72 43 71 44 24 46
REMARK SMILES IDX 58 47 37 48 57 49 38 50 41 51 56 52 76 53 39 54 40 55 55 57
REMARK SMILES IDX 77 58 42 59 25 60 26 61 35 62 27 63 28 64 34 65 36 66 29 67
REMARK SMILES IDX 30 68 31 69 32 70 33 71 59 72 60 73 69 74 61 75 62 76 68 77
REMARK SMILES IDX 70 78 63 79 64 80 65 81 66 82 67 83 43 84 44 85 53 86 45 87
REMARK SMILES IDX 46 88 52 89 54 90 47 91 48 92 49 93 50 94 51 95
REMARK H PARENT 8 7 13 26 75 45 41 56
REMARK Flexibility Score: inf
ROOT
ATOM      1  C   UNL A   1      34.992  31.930  27.665  1.00  0.00     0.023 C 
ENDROOT
BRANCH   1   2
ATOM      2  C   UNL A   1      33.489  31.765  27.465  1.00  0.00     0.023 C 
BRANCH   2   3
ATOM      3  C   UNL A   1      32.646  33.028  27.626  1.00  0.00     0.116 C 
BRANCH   3   4
ATOM      4  N   UNL A   1      33.394  34.270  27.626  1.00  0.00    -0.354 N 
ATOM      5  C   UNL A   1      33.750  35.100  28.642  1.00  0.00     0.242 C 
ATOM      6  O   UNL A   1      34.617  35.948  28.398  1.00  0.00    -0.273 OA
ATOM      7  H   UNL A   1      33.697  34.562  26.736  1.00  0.00     0.163 HD
BRANCH   5   8
ATOM      8  C   UNL A   1      33.224  34.950  30.078  1.00  0.00     0.177 C 
ATOM      9  C   UNL A   1      32.714  36.325  31.992  1.00  0.00     0.139 C 
ATOM     10  C   UNL A   1      32.669  36.334  30.474  1.00  0.00     0.069 C 
ATOM     11  C   UNL A   1      34.014  35.572  32.255  1.00  0.00     0.152 C 
ATOM     12  N   UNL A   1      34.120  34.586  31.184  1.00  0.00    -0.324 N 
BRANCH   9  13
ATOM     13  O   UNL A   1      32.724  37.655  32.496  1.00  0.00    -0.380 OA
ATOM     14  C   UNL A   1      34.028  38.224  32.501  1.00  0.00     0.195 C 
ENDBRANCH   9  13
BRANCH  12  15
ATOM     15  C   UNL A   1      34.778  33.397  31.500  1.00  0.00     0.255 C 
ATOM     16  O   UNL A   1      34.117  32.355  31.442  1.00  0.00    -0.269 OA
BRANCH  15  17
ATOM     17  C   UNL A   1      36.192  33.315  31.927  1.00  0.00     0.053 A 
ATOM     18  C   UNL A   1      36.677  32.962  33.172  1.00  0.00     0.079 A 
ATOM     19  C   UNL A   1      37.330  33.469  31.011  1.00  0.00    -0.028 A 
ATOM     20  S   UNL A   1      38.376  32.827  33.273  1.00  0.00    -0.151 S 
ATOM     21  C   UNL A   1      38.540  33.216  31.633  1.00  0.00     0.069 A 
ATOM     22  C   UNL A   1      37.275  33.828  29.558  1.00  0.00     0.046 C 
ENDBRANCH  15  17
ENDBRANCH  12  15
ENDBRANCH   5   8
ENDBRANCH   3   4
ENDBRANCH   2   3
ENDBRANCH   1   2
BRANCH   1  23
ATOM     23  C   UNL A   1      35.694  30.691  28.184  1.00  0.00     0.116 C 
BRANCH  23  24
ATOM     24  N   UNL A   1      35.528  30.524  29.619  1.00  0.00    -0.352 N 
ATOM     25  C   UNL A   1      36.409  30.006  30.536  1.00  0.00     0.251 C 
ATOM     26  H   UNL A   1      34.664  30.826  29.986  1.00  0.00     0.163 HD
ATOM     27  O   UNL A   1      36.038  29.764  31.677  1.00  0.00    -0.269 OA
BRANCH  25  28
ATOM     28  C   UNL A   1      37.800  29.727  30.121  1.00  0.00     0.039 A 
ATOM     29  C   UNL A   1      38.742  29.376  31.090  1.00  0.00     0.014 A 
ATOM     30  C   UNL A   1      38.162  29.792  28.773  1.00  0.00     0.014 A 
ATOM     31  C   UNL A   1      40.037  29.042  30.696  1.00  0.00     0.010 A 
ATOM     32  C   UNL A   1      39.418  29.358  28.375  1.00  0.00     0.010 A 
ATOM     33  C   UNL A   1      40.376  29.001  29.333  1.00  0.00    -0.014 A 
BRANCH  33  34
ATOM     34  C   UNL A   1      41.740  28.621  28.887  1.00  0.00     0.031 A 
ATOM     35  C   UNL A   1      42.812  29.672  28.789  1.00  0.00     0.074 A 
ATOM     36  C   UNL A   1      41.988  27.354  28.507  1.00  0.00     0.049 A 
ATOM     37  N   UNL A   1      44.042  29.560  28.359  1.00  0.00    -0.248 NA
ATOM     38  C   UNL A   1      42.441  31.040  29.190  1.00  0.00     0.031 C 
ATOM     39  C   UNL A   1      41.007  26.266  28.493  1.00  0.00     0.029 A 
ATOM     40  N   UNL A   1      43.138  26.768  28.044  1.00  0.00    -0.354 N 
ATOM     41  C   UNL A   1      44.581  30.840  28.423  1.00  0.00     0.074 A 
ATOM     42  C   UNL A   1      43.525  31.724  28.861  1.00  0.00     0.031 C 
ATOM     43  C   UNL A   1      41.601  25.143  28.063  1.00  0.00     0.029 A 
ATOM     44  C   UNL A   1      42.992  25.437  27.732  1.00  0.00     0.049 A 
ATOM     45  H   UNL A   1      43.988  27.254  27.944  1.00  0.00     0.167 HD
ATOM     46  C   UNL A   1      45.852  31.237  28.169  1.00  0.00     0.037 A 
ATOM     47  C   UNL A   1      43.876  24.557  27.225  1.00  0.00     0.037 A 
ATOM     48  C   UNL A   1      46.897  30.342  27.750  1.00  0.00     0.049 A 
ATOM     49  C   UNL A   1      45.286  25.012  26.961  1.00  0.00     0.074 A 
ATOM     50  C   UNL A   1      48.233  30.622  27.527  1.00  0.00     0.029 A 
ATOM     51  N   UNL A   1      46.721  28.991  27.483  1.00  0.00    -0.354 N 
ATOM     52  N   UNL A   1      45.805  26.208  27.107  1.00  0.00    -0.248 NA
ATOM     53  C   UNL A   1      46.232  23.998  26.479  1.00  0.00     0.031 C 
ATOM     54  C   UNL A   1      48.853  29.454  27.072  1.00  0.00     0.029 A 
ATOM     55  C   UNL A   1      47.919  28.430  27.071  1.00  0.00     0.049 A 
ATOM     56  H   UNL A   1      45.870  28.504  27.573  1.00  0.00     0.167 HD
ATOM     57  C   UNL A   1      47.143  26.089  26.753  1.00  0.00     0.074 A 
ATOM     58  C   UNL A   1      47.357  24.698  26.402  1.00  0.00     0.031 C 
ATOM     59  C   UNL A   1      48.109  27.042  26.722  1.00  0.00     0.037 A 
BRANCH  46  60
ATOM     60  C   UNL A   1      46.164  32.702  28.335  1.00  0.00     0.058 A 
ATOM     61  C   UNL A   1      46.588  33.235  29.565  1.00  0.00     0.135 A 
ATOM     62  C   UNL A   1      46.030  33.588  27.254  1.00  0.00     0.135 A 
ATOM     63  F   UNL A   1      46.722  32.439  30.637  1.00  0.00    -0.206 F 
ATOM     64  C   UNL A   1      46.814  34.598  29.730  1.00  0.00     0.059 A 
ATOM     65  C   UNL A   1      46.286  34.950  27.387  1.00  0.00     0.059 A 
ATOM     66  F   UNL A   1      45.631  33.137  26.054  1.00  0.00    -0.206 F 
ATOM     67  C   UNL A   1      46.654  35.449  28.636  1.00  0.00     0.060 A 
BRANCH  67  68
ATOM     68  S   UNL A   1      46.922  37.217  28.875  1.00  0.00     0.124 S 
ATOM     69  O   UNL A   1      46.745  37.345  30.319  1.00  0.00    -0.237 OA
ATOM     70  O   UNL A   1      48.285  37.396  28.386  1.00  0.00    -0.237 OA
ATOM     71  O   UNL A   1      45.880  37.833  28.059  1.00  0.00    -0.744 OA
ENDBRANCH  67  68
ENDBRANCH  46  60
BRANCH  47  72
ATOM     72  C   UNL A   1      43.445  23.159  26.954  1.00  0.00     0.058 A 
ATOM     73  C   UNL A   1      43.293  22.685  25.644  1.00  0.00     0.135 A 
ATOM     74  C   UNL A   1      43.230  22.253  28.005  1.00  0.00     0.135 A 
ATOM     75  F   UNL A   1      43.482  23.513  24.605  1.00  0.00    -0.206 F 
ATOM     76  C   UNL A   1      42.940  21.365  25.382  1.00  0.00     0.059 A 
ATOM     77  C   UNL A   1      42.902  20.921  27.770  1.00  0.00     0.059 A 
ATOM     78  F   UNL A   1      43.379  22.652  29.278  1.00  0.00    -0.206 F 
ATOM     79  C   UNL A   1      42.756  20.488  26.453  1.00  0.00     0.060 A 
BRANCH  79  80
ATOM     80  S   UNL A   1      42.377  18.757  26.099  1.00  0.00     0.124 S 
ATOM     81  O   UNL A   1      40.962  18.831  25.751  1.00  0.00    -0.237 OA
ATOM     82  O   UNL A   1      43.291  18.462  25.001  1.00  0.00    -0.237 OA
ATOM     83  O   UNL A   1      42.682  18.082  27.358  1.00  0.00    -0.744 OA
ENDBRANCH  79  80
ENDBRANCH  47  72
BRANCH  59  84
ATOM     84  C   UNL A   1      49.494  26.612  26.318  1.00  0.00     0.058 A 
ATOM     85  C   UNL A   1      50.375  26.003  27.225  1.00  0.00     0.135 A 
ATOM     86  C   UNL A   1      49.922  26.761  24.988  1.00  0.00     0.135 A 
ATOM     87  F   UNL A   1      50.018  25.842  28.510  1.00  0.00    -0.206 F 
ATOM     88  C   UNL A   1      51.640  25.578  26.834  1.00  0.00     0.059 A 
ATOM     89  C   UNL A   1      51.170  26.314  24.569  1.00  0.00     0.059 A 
ATOM     90  F   UNL A   1      49.115  27.326  24.076  1.00  0.00    -0.206 F 
ATOM     91  C   UNL A   1      52.027  25.734  25.502  1.00  0.00     0.060 A 
BRANCH  91  92
ATOM     92  S   UNL A   1      53.657  25.145  25.001  1.00  0.00     0.124 S 
ATOM     93  O   UNL A   1      53.528  23.706  25.212  1.00  0.00    -0.237 OA
ATOM     94  O   UNL A   1      53.730  25.578  23.609  1.00  0.00    -0.237 OA
ATOM     95  O   UNL A   1      54.565  25.834  25.914  1.00  0.00    -0.744 OA
ENDBRANCH  91  92
ENDBRANCH  59  84
ENDBRANCH  33  34
ENDBRANCH  25  28
ENDBRANCH  23  24
ENDBRANCH   1  23
TORSDOF 17
ENDMDL
MODEL 2
REMARK VINA RESULT:     -10.9      5.818     13.881
REMARK SMILES CO[C@H]1C[C@@H](C(=O)NCCCCNC(=O)c2ccc(-c3c4nc(c(-c5c(F)cc(S(=O)(=O)[O-])cc5F)c5ccc([nH]5)c(-c5c(F)cc(S(=O)(=O)[O-])cc5F)c5nc(c(-c6c(F)cc(S(=O)(=O)[O-])cc6F)c6ccc3[nH]6)C=C5)C=C4)cc2)N(C(=O)c2cscc2C)C1
REMARK SMILES IDX 11 1 10 2 9 3 8 4 6 5 7 6 5 8 3 9 4 10 91 11 82 12 2 13 1 14
REMARK SMILES IDX 83 15 84 16 85 17 86 18 89 19 87 20 88 21 90 22 12 23 13 24
REMARK SMILES IDX 14 25 15 27 16 28 17 29 81 30 18 31 80 32 19 33 20 34 21 35
REMARK SMILES IDX 74 36 22 37 79 38 73 39 75 40 23 41 78 42 72 43 71 44 24 46
REMARK SMILES IDX 58 47 37 48 57 49 38 50 41 51 56 52 76 53 39 54 40 55 55 57
REMARK SMILES IDX 77 58 42 59 25 60 26 61 35 62 27 63 28 64 34 65 36 66 29 67
REMARK SMILES IDX 30 68 31 69 32 70 33 71 59 72 60 73 69 74 61 75 62 76 68 77
REMARK SMILES IDX 70 78 63 79 64 80 65 81 66 82 67 83 43 84 44 85 53 86 45 87
REMARK SMILES IDX 46 88 52 89 54 90 47 91 48 92 49 93 50 94 51 95
REMARK H PARENT 8 7 13 26 75 45 41 56
REMARK Flexibility Score: inf
ROOT
ATOM      1  C   UNL A   1      38.632  22.863  26.188  1.00  0.00     0.023 C 
ENDROOT
BRANCH   1   2
ATOM      2  C   UNL A   1      39.503  21.619  26.328  1.00  0.00     0.023 C 
BRANCH   2   3
ATOM      3  C   UNL A   1      40.572  21.665  27.417  1.00  0.00     0.116 C 
BRANCH   3   4
ATOM      4  N   UNL A   1      41.098  20.375  27.817  1.00  0.00    -0.354 N 
ATOM      5  C   UNL A   1      42.061  19.591  27.263  1.00  0.00     0.242 C 
ATOM      6  O   UNL A   1      42.501  18.668  27.958  1.00  0.00    -0.273 OA
ATOM      7  H   UNL A   1      40.686  20.002  28.630  1.00  0.00     0.163 HD
BRANCH   5   8
ATOM      8  C   UNL A   1      42.697  19.876  25.894  1.00  0.00     0.177 C 
ATOM      9  C   UNL A   1      44.577  19.157  24.566  1.00  0.00     0.139 C 
ATOM     10  C   UNL A   1      43.550  18.636  25.555  1.00  0.00     0.069 C 
ATOM     11  C   UNL A   1      44.870  20.542  25.132  1.00  0.00     0.152 C 
ATOM     12  N   UNL A   1      43.610  21.011  25.699  1.00  0.00    -0.324 N 
BRANCH   9  13
ATOM     13  O   UNL A   1      45.717  18.307  24.540  1.00  0.00    -0.380 OA
ATOM     14  C   UNL A   1      46.638  18.602  25.584  1.00  0.00     0.195 C 
ENDBRANCH   9  13
BRANCH  12  15
ATOM     15  C   UNL A   1      43.394  22.389  25.676  1.00  0.00     0.255 C 
ATOM     16  O   UNL A   1      42.713  22.838  24.748  1.00  0.00    -0.269 OA
BRANCH  15  17
ATOM     17  C   UNL A   1      43.954  23.336  26.666  1.00  0.00     0.053 A 
ATOM     18  C   UNL A   1      43.515  23.561  27.958  1.00  0.00     0.079 A 
ATOM     19  C   UNL A   1      45.190  24.100  26.454  1.00  0.00    -0.028 A 
ATOM     20  S   UNL A   1      44.490  24.620  28.876  1.00  0.00    -0.151 S 
ATOM     21  C   UNL A   1      45.567  24.809  27.582  1.00  0.00     0.069 A 
ATOM     22  C   UNL A   1      46.020  24.143  25.209  1.00  0.00     0.046 C 
ENDBRANCH  15  17
ENDBRANCH  12  15
ENDBRANCH   5   8
ENDBRANCH   3   4
ENDBRANCH   2   3
ENDBRANCH   1   2
BRANCH   1  23
ATOM     23  C   UNL A   1      39.278  24.139  26.691  1.00  0.00     0.116 C 
BRANCH  23  24
ATOM     24  N   UNL A   1      40.366  24.580  25.833  1.00  0.00    -0.352 N 
ATOM     25  C   UNL A   1      41.179  25.679  25.966  1.00  0.00     0.251 C 
ATOM     26  H   UNL A   1      40.547  24.012  25.049  1.00  0.00     0.163 HD
ATOM     27  O   UNL A   1      41.923  26.007  25.050  1.00  0.00    -0.269 OA
BRANCH  25  28
ATOM     28  C   UNL A   1      41.127  26.467  27.214  1.00  0.00     0.039 A 
ATOM     29  C   UNL A   1      41.878  27.640  27.310  1.00  0.00     0.014 A 
ATOM     30  C   UNL A   1      40.319  26.056  28.277  1.00  0.00     0.014 A 
ATOM     31  C   UNL A   1      41.777  28.426  28.458  1.00  0.00     0.010 A 
ATOM     32  C   UNL A   1      40.140  26.892  29.370  1.00  0.00     0.010 A 
ATOM     33  C   UNL A   1      40.884  28.073  29.484  1.00  0.00    -0.014 A 
BRANCH  33  34
ATOM     34  C   UNL A   1      40.738  28.907  30.702  1.00  0.00     0.031 A 
ATOM     35  C   UNL A   1      39.669  29.965  30.758  1.00  0.00     0.074 A 
ATOM     36  C   UNL A   1      41.607  28.759  31.720  1.00  0.00     0.049 A 
ATOM     37  N   UNL A   1      39.420  30.840  31.698  1.00  0.00    -0.248 NA
ATOM     38  C   UNL A   1      38.788  30.082  29.584  1.00  0.00     0.031 C 
ATOM     39  C   UNL A   1      42.726  27.814  31.747  1.00  0.00     0.029 A 
ATOM     40  N   UNL A   1      41.695  29.411  32.923  1.00  0.00    -0.354 N 
ATOM     41  C   UNL A   1      38.370  31.616  31.222  1.00  0.00     0.074 A 
ATOM     42  C   UNL A   1      38.079  31.159  29.882  1.00  0.00     0.031 C 
ATOM     43  C   UNL A   1      43.375  27.935  32.915  1.00  0.00     0.029 A 
ATOM     44  C   UNL A   1      42.747  28.991  33.702  1.00  0.00     0.049 A 
ATOM     45  H   UNL A   1      41.065  30.114  33.202  1.00  0.00     0.167 HD
ATOM     46  C   UNL A   1      37.689  32.600  31.857  1.00  0.00     0.037 A 
ATOM     47  C   UNL A   1      43.165  29.418  34.909  1.00  0.00     0.037 A 
ATOM     48  C   UNL A   1      37.980  33.033  33.198  1.00  0.00     0.049 A 
ATOM     49  C   UNL A   1      42.389  30.503  35.605  1.00  0.00     0.074 A 
ATOM     50  C   UNL A   1      37.316  33.974  33.962  1.00  0.00     0.029 A 
ATOM     51  N   UNL A   1      39.029  32.555  33.972  1.00  0.00    -0.354 N 
ATOM     52  N   UNL A   1      41.344  31.171  35.177  1.00  0.00    -0.248 NA
ATOM     53  C   UNL A   1      42.838  30.883  36.950  1.00  0.00     0.031 C 
ATOM     54  C   UNL A   1      37.996  34.106  35.177  1.00  0.00     0.029 A 
ATOM     55  C   UNL A   1      39.047  33.203  35.197  1.00  0.00     0.049 A 
ATOM     56  H   UNL A   1      39.666  31.860  33.692  1.00  0.00     0.167 HD
ATOM     57  C   UNL A   1      40.997  32.038  36.206  1.00  0.00     0.074 A 
ATOM     58  C   UNL A   1      41.935  31.796  37.285  1.00  0.00     0.031 C 
ATOM     59  C   UNL A   1      39.993  32.950  36.257  1.00  0.00     0.037 A 
BRANCH  46  60
ATOM     60  C   UNL A   1      36.574  33.270  31.097  1.00  0.00     0.058 A 
ATOM     61  C   UNL A   1      36.827  34.159  30.037  1.00  0.00     0.135 A 
ATOM     62  C   UNL A   1      35.233  33.029  31.436  1.00  0.00     0.135 A 
ATOM     63  F   UNL A   1      38.090  34.439  29.677  1.00  0.00    -0.206 F 
ATOM     64  C   UNL A   1      35.797  34.825  29.381  1.00  0.00     0.059 A 
ATOM     65  C   UNL A   1      34.184  33.657  30.769  1.00  0.00     0.059 A 
ATOM     66  F   UNL A   1      34.928  32.188  32.437  1.00  0.00    -0.206 F 
ATOM     67  C   UNL A   1      34.478  34.571  29.758  1.00  0.00     0.060 A 
BRANCH  67  68
ATOM     68  S   UNL A   1      33.156  35.465  28.916  1.00  0.00     0.124 S 
ATOM     69  O   UNL A   1      33.915  36.431  28.127  1.00  0.00    -0.237 OA
ATOM     70  O   UNL A   1      32.495  34.407  28.159  1.00  0.00    -0.237 OA
ATOM     71  O   UNL A   1      32.374  36.029  30.013  1.00  0.00    -0.744 OA
ENDBRANCH  67  68
ENDBRANCH  46  60
BRANCH  47  72
ATOM     72  C   UNL A   1      44.366  28.798  35.529  1.00  0.00     0.058 A 
ATOM     73  C   UNL A   1      45.653  29.297  35.280  1.00  0.00     0.135 A 
ATOM     74  C   UNL A   1      44.244  27.727  36.430  1.00  0.00     0.135 A 
ATOM     75  F   UNL A   1      45.823  30.315  34.424  1.00  0.00    -0.206 F 
ATOM     76  C   UNL A   1      46.777  28.756  35.896  1.00  0.00     0.059 A 
ATOM     77  C   UNL A   1      45.349  27.186  37.079  1.00  0.00     0.059 A 
ATOM     78  F   UNL A   1      43.033  27.225  36.716  1.00  0.00    -0.206 F 
ATOM     79  C   UNL A   1      46.613  27.706  36.803  1.00  0.00     0.060 A 
BRANCH  79  80
ATOM     80  S   UNL A   1      48.070  27.064  37.658  1.00  0.00     0.124 S 
ATOM     81  O   UNL A   1      48.540  28.249  38.367  1.00  0.00    -0.237 OA
ATOM     82  O   UNL A   1      47.497  26.008  38.486  1.00  0.00    -0.237 OA
ATOM     83  O   UNL A   1      48.924  26.602  36.567  1.00  0.00    -0.744 OA
ENDBRANCH  79  80
ENDBRANCH  47  72
BRANCH  59  84
ATOM     84  C   UNL A   1      39.839  33.740  37.528  1.00  0.00     0.058 A 
ATOM     85  C   UNL A   1      38.973  33.331  38.554  1.00  0.00     0.135 A 
ATOM     86  C   UNL A   1      40.612  34.894  37.744  1.00  0.00     0.135 A 
ATOM     87  F   UNL A   1      38.207  32.240  38.397  1.00  0.00    -0.206 F 
ATOM     88  C   UNL A   1      38.863  34.049  39.740  1.00  0.00     0.059 A 
ATOM     89  C   UNL A   1      40.540  35.608  38.935  1.00  0.00     0.059 A 
ATOM     90  F   UNL A   1      41.464  35.323  36.800  1.00  0.00    -0.206 F 
ATOM     91  C   UNL A   1      39.653  35.185  39.923  1.00  0.00     0.060 A 
BRANCH  91  92
ATOM     92  S   UNL A   1      39.525  36.087  41.480  1.00  0.00     0.124 S 
ATOM     93  O   UNL A   1      38.768  37.267  41.076  1.00  0.00    -0.237 OA
ATOM     94  O   UNL A   1      38.814  35.138  42.332  1.00  0.00    -0.237 OA
ATOM     95  O   UNL A   1      40.917  36.330  41.849  1.00  0.00    -0.744 OA
ENDBRANCH  91  92
ENDBRANCH  59  84
ENDBRANCH  33  34
ENDBRANCH  25  28
ENDBRANCH  23  24
ENDBRANCH   1  23
TORSDOF 17
ENDMDL
MODEL 3
REMARK VINA RESULT:     -10.9      4.725     11.114
REMARK SMILES CO[C@H]1C[C@@H](C(=O)NCCCCNC(=O)c2ccc(-c3c4nc(c(-c5c(F)cc(S(=O)(=O)[O-])cc5F)c5ccc([nH]5)c(-c5c(F)cc(S(=O)(=O)[O-])cc5F)c5nc(c(-c6c(F)cc(S(=O)(=O)[O-])cc6F)c6ccc3[nH]6)C=C5)C=C4)cc2)N(C(=O)c2cscc2C)C1
REMARK SMILES IDX 11 1 10 2 9 3 8 4 6 5 7 6 5 8 3 9 4 10 91 11 82 12 2 13 1 14
REMARK SMILES IDX 83 15 84 16 85 17 86 18 89 19 87 20 88 21 90 22 12 23 13 24
REMARK SMILES IDX 14 25 15 27 16 28 17 29 81 30 18 31 80 32 19 33 20 34 21 35
REMARK SMILES IDX 74 36 22 37 79 38 73 39 75 40 23 41 78 42 72 43 71 44 24 46
REMARK SMILES IDX 58 47 37 48 57 49 38 50 41 51 56 52 76 53 39 54 40 55 55 57
REMARK SMILES IDX 77 58 42 59 25 60 26 61 35 62 27 63 28 64 34 65 36 66 29 67
REMARK SMILES IDX 30 68 31 69 32 70 33 71 59 72 60 73 69 74 61 75 62 76 68 77
REMARK SMILES IDX 70 78 63 79 64 80 65 81 66 82 67 83 43 84 44 85 53 86 45 87
REMARK SMILES IDX 46 88 52 89 54 90 47 91 48 92 49 93 50 94 51 95
REMARK H PARENT 8 7 13 26 75 45 41 56
REMARK Flexibility Score: inf
ROOT
ATOM      1  C   UNL A   1      38.385  20.115  25.008  1.00  0.00     0.023 C 
ENDROOT
BRANCH   1   2
ATOM      2  C   UNL A   1      37.449  21.293  24.760  1.00  0.00     0.023 C 
BRANCH   2   3
ATOM      3  C   UNL A   1      35.964  21.037  25.010  1.00  0.00     0.116 C 
BRANCH   3   4
ATOM      4  N   UNL A   1      35.517  21.291  26.365  1.00  0.00    -0.354 N 
ATOM      5  C   UNL A   1      34.347  21.793  26.841  1.00  0.00     0.242 C 
ATOM      6  O   UNL A   1      34.126  21.653  28.050  1.00  0.00    -0.273 OA
ATOM      7  H   UNL A   1      36.175  21.061  27.061  1.00  0.00     0.163 HD
BRANCH   5   8
ATOM      8  C   UNL A   1      33.260  22.400  25.941  1.00  0.00     0.177 C 
ATOM      9  C   UNL A   1      31.098  23.449  26.136  1.00  0.00     0.139 C 
ATOM     10  C   UNL A   1      32.438  23.343  26.842  1.00  0.00     0.069 C 
ATOM     11  C   UNL A   1      30.914  22.028  25.616  1.00  0.00     0.152 C 
ATOM     12  N   UNL A   1      32.254  21.554  25.285  1.00  0.00    -0.324 N 
BRANCH   9  13
ATOM     13  O   UNL A   1      30.085  23.849  27.051  1.00  0.00    -0.380 OA
ATOM     14  C   UNL A   1      29.245  22.767  27.438  1.00  0.00     0.195 C 
ENDBRANCH   9  13
BRANCH  12  15
ATOM     15  C   UNL A   1      32.345  20.635  24.238  1.00  0.00     0.255 C 
ATOM     16  O   UNL A   1      32.126  21.056  23.098  1.00  0.00    -0.269 OA
BRANCH  15  17
ATOM     17  C   UNL A   1      32.652  19.199  24.416  1.00  0.00     0.053 A 
ATOM     18  C   UNL A   1      32.874  18.525  25.602  1.00  0.00     0.079 A 
ATOM     19  C   UNL A   1      32.627  18.219  23.322  1.00  0.00    -0.028 A 
ATOM     20  S   UNL A   1      33.054  16.834  25.449  1.00  0.00    -0.151 S 
ATOM     21  C   UNL A   1      32.819  16.925  23.774  1.00  0.00     0.069 A 
ATOM     22  C   UNL A   1      32.401  18.498  21.868  1.00  0.00     0.046 C 
ENDBRANCH  15  17
ENDBRANCH  12  15
ENDBRANCH   5   8
ENDBRANCH   3   4
ENDBRANCH   2   3
ENDBRANCH   1   2
BRANCH   1  23
ATOM     23  C   UNL A   1      39.407  20.348  26.104  1.00  0.00     0.116 C 
BRANCH  23  24
ATOM     24  N   UNL A   1      40.437  19.321  26.123  1.00  0.00    -0.352 N 
ATOM     25  C   UNL A   1      41.802  19.469  26.154  1.00  0.00     0.251 C 
ATOM     26  H   UNL A   1      40.111  18.392  26.115  1.00  0.00     0.163 HD
ATOM     27  O   UNL A   1      42.529  18.500  25.975  1.00  0.00    -0.269 OA
BRANCH  25  28
ATOM     28  C   UNL A   1      42.377  20.810  26.384  1.00  0.00     0.039 A 
ATOM     29  C   UNL A   1      42.706  21.607  25.286  1.00  0.00     0.014 A 
ATOM     30  C   UNL A   1      42.568  21.285  27.684  1.00  0.00     0.014 A 
ATOM     31  C   UNL A   1      43.182  22.901  25.497  1.00  0.00     0.010 A 
ATOM     32  C   UNL A   1      42.939  22.605  27.889  1.00  0.00     0.010 A 
ATOM     33  C   UNL A   1      43.273  23.420  26.799  1.00  0.00    -0.014 A 
BRANCH  33  34
ATOM     34  C   UNL A   1      43.749  24.803  27.047  1.00  0.00     0.031 A 
ATOM     35  C   UNL A   1      45.204  25.137  26.857  1.00  0.00     0.074 A 
ATOM     36  C   UNL A   1      42.890  25.732  27.509  1.00  0.00     0.049 A 
ATOM     37  N   UNL A   1      45.831  26.262  27.085  1.00  0.00    -0.248 NA
ATOM     38  C   UNL A   1      46.079  24.050  26.385  1.00  0.00     0.031 C 
ATOM     39  C   UNL A   1      41.473  25.504  27.798  1.00  0.00     0.029 A 
ATOM     40  N   UNL A   1      43.086  27.050  27.831  1.00  0.00    -0.354 N 
ATOM     41  C   UNL A   1      47.168  26.012  26.801  1.00  0.00     0.074 A 
ATOM     42  C   UNL A   1      47.275  24.612  26.457  1.00  0.00     0.031 C 
ATOM     43  C   UNL A   1      40.924  26.647  28.236  1.00  0.00     0.029 A 
ATOM     44  C   UNL A   1      41.955  27.677  28.298  1.00  0.00     0.049 A 
ATOM     45  H   UNL A   1      43.954  27.505  27.738  1.00  0.00     0.167 HD
ATOM     46  C   UNL A   1      48.210  26.879  26.797  1.00  0.00     0.037 A 
ATOM     47  C   UNL A   1      41.774  28.937  28.739  1.00  0.00     0.037 A 
ATOM     48  C   UNL A   1      48.085  28.274  27.125  1.00  0.00     0.049 A 
ATOM     49  C   UNL A   1      42.938  29.890  28.715  1.00  0.00     0.074 A 
ATOM     50  C   UNL A   1      49.058  29.257  27.092  1.00  0.00     0.029 A 
ATOM     51  N   UNL A   1      46.914  28.884  27.555  1.00  0.00    -0.354 N 
ATOM     52  N   UNL A   1      44.181  29.662  28.362  1.00  0.00    -0.248 NA
ATOM     53  C   UNL A   1      42.674  31.272  29.134  1.00  0.00     0.031 C 
ATOM     54  C   UNL A   1      48.489  30.448  27.554  1.00  0.00     0.029 A 
ATOM     55  C   UNL A   1      47.146  30.224  27.817  1.00  0.00     0.049 A 
ATOM     56  H   UNL A   1      46.047  28.430  27.659  1.00  0.00     0.167 HD
ATOM     57  C   UNL A   1      44.846  30.875  28.499  1.00  0.00     0.074 A 
ATOM     58  C   UNL A   1      43.861  31.838  28.950  1.00  0.00     0.031 C 
ATOM     59  C   UNL A   1      46.151  31.167  28.270  1.00  0.00     0.037 A 
BRANCH  46  60
ATOM     60  C   UNL A   1      49.565  26.331  26.431  1.00  0.00     0.058 A 
ATOM     61  C   UNL A   1      50.392  25.705  27.380  1.00  0.00     0.135 A 
ATOM     62  C   UNL A   1      50.049  26.438  25.118  1.00  0.00     0.135 A 
ATOM     63  F   UNL A   1      49.989  25.585  28.655  1.00  0.00    -0.206 F 
ATOM     64  C   UNL A   1      51.669  25.258  27.053  1.00  0.00     0.059 A 
ATOM     65  C   UNL A   1      51.308  25.965  24.759  1.00  0.00     0.059 A 
ATOM     66  F   UNL A   1      49.303  27.023  24.167  1.00  0.00    -0.206 F 
ATOM     67  C   UNL A   1      52.120  25.398  25.741  1.00  0.00     0.060 A 
BRANCH  67  68
ATOM     68  S   UNL A   1      53.789  24.840  25.341  1.00  0.00     0.124 S 
ATOM     69  O   UNL A   1      54.098  25.660  24.173  1.00  0.00    -0.237 OA
ATOM     70  O   UNL A   1      54.527  25.166  26.557  1.00  0.00    -0.237 OA
ATOM     71  O   UNL A   1      53.617  23.414  25.079  1.00  0.00    -0.744 OA
ENDBRANCH  67  68
ENDBRANCH  46  60
BRANCH  47  72
ATOM     72  C   UNL A   1      40.431  29.359  29.219  1.00  0.00     0.058 A 
ATOM     73  C   UNL A   1      40.166  29.525  30.586  1.00  0.00     0.135 A 
ATOM     74  C   UNL A   1      39.400  29.658  28.314  1.00  0.00     0.135 A 
ATOM     75  F   UNL A   1      41.117  29.248  31.491  1.00  0.00    -0.206 F 
ATOM     76  C   UNL A   1      38.928  29.969  31.040  1.00  0.00     0.059 A 
ATOM     77  C   UNL A   1      38.163  30.129  28.741  1.00  0.00     0.059 A 
ATOM     78  F   UNL A   1      39.608  29.532  26.993  1.00  0.00    -0.206 F 
ATOM     79  C   UNL A   1      37.936  30.278  30.108  1.00  0.00     0.060 A 
BRANCH  79  80
ATOM     80  S   UNL A   1      36.359  30.929  30.705  1.00  0.00     0.124 S 
ATOM     81  O   UNL A   1      36.727  32.290  31.080  1.00  0.00    -0.237 OA
ATOM     82  O   UNL A   1      35.509  30.798  29.527  1.00  0.00    -0.237 OA
ATOM     83  O   UNL A   1      36.025  30.038  31.813  1.00  0.00    -0.744 OA
ENDBRANCH  79  80
ENDBRANCH  47  72
BRANCH  59  84
ATOM     84  C   UNL A   1      46.589  32.591  28.479  1.00  0.00     0.058 A 
ATOM     85  C   UNL A   1      46.493  33.553  27.461  1.00  0.00     0.135 A 
ATOM     86  C   UNL A   1      47.059  33.011  29.735  1.00  0.00     0.135 A 
ATOM     87  F   UNL A   1      46.057  33.204  26.240  1.00  0.00    -0.206 F 
ATOM     88  C   UNL A   1      46.868  34.875  27.675  1.00  0.00     0.059 A 
ATOM     89  C   UNL A   1      47.408  34.334  29.979  1.00  0.00     0.059 A 
ATOM     90  F   UNL A   1      47.160  32.134  30.747  1.00  0.00    -0.206 F 
ATOM     91  C   UNL A   1      47.321  35.257  28.938  1.00  0.00     0.060 A 
BRANCH  91  92
ATOM     92  S   UNL A   1      47.771  36.984  29.210  1.00  0.00     0.124 S 
ATOM     93  O   UNL A   1      49.170  36.992  28.796  1.00  0.00    -0.237 OA
ATOM     94  O   UNL A   1      46.844  37.689  28.330  1.00  0.00    -0.237 OA
ATOM     95  O   UNL A   1      47.538  37.176  30.639  1.00  0.00    -0.744 OA
ENDBRANCH  91  92
ENDBRANCH  59  84
ENDBRANCH  33  34
ENDBRANCH  25  28
ENDBRANCH  23  24
ENDBRANCH   1  23
TORSDOF 17
ENDMDL
