MODEL 1
REMARK VINA RESULT:     -11.2      0.000      0.000
REMARK SMILES C[C@H]1[C@H](C(=O)NCCCCNC(=O)c2ccc(-c3c4nc(c(-c5c(F)cc(S(=O)(=O)[O-])cc5F)c5ccc([nH]5)c(-c5c(F)cc(S(=O)(=O)[O-])cc5F)c5nc(c(-c6c(F)cc(S(=O)(=O)[O-])cc6F)c6ccc3[nH]6)C=C5)C=C4)cc2)CCN1C(=O)[C@H]1CC=CCC1
REMARK SMILES IDX 9 1 8 2 7 3 6 4 4 5 5 6 3 8 1 9 2 10 82 11 80 12 81 13 83 14
REMARK SMILES IDX 84 15 85 16 86 17 90 18 87 19 89 20 88 21 10 22 11 23 12 24
REMARK SMILES IDX 13 26 14 27 15 28 79 29 16 30 78 31 17 32 18 33 19 34 72 35
REMARK SMILES IDX 20 36 77 37 71 38 73 39 21 40 76 41 70 42 69 43 22 45 56 46
REMARK SMILES IDX 35 47 55 48 36 49 39 50 54 51 74 52 37 53 38 54 53 56 75 57
REMARK SMILES IDX 40 58 23 59 24 60 33 61 25 62 26 63 32 64 34 65 27 66 28 67
REMARK SMILES IDX 29 68 30 69 31 70 57 71 58 72 67 73 59 74 60 75 66 76 68 77
REMARK SMILES IDX 61 78 62 79 63 80 64 81 65 82 41 83 42 84 51 85 43 86 44 87
REMARK SMILES IDX 50 88 52 89 45 90 46 91 47 92 48 93 49 94
REMARK H PARENT 6 7 11 25 73 44 39 55
REMARK Flexibility Score: inf
ROOT
ATOM      1  C   UNL A   1      33.291  27.634  26.563  1.00  0.00     0.023 C 
ENDROOT
BRANCH   1   2
ATOM      2  C   UNL A   1      31.790  27.861  26.611  1.00  0.00     0.023 C 
BRANCH   2   3
ATOM      3  C   UNL A   1      30.932  26.785  25.957  1.00  0.00     0.116 C 
BRANCH   3   4
ATOM      4  N   UNL A   1      30.864  25.574  26.752  1.00  0.00    -0.356 N 
ATOM      5  C   UNL A   1      31.347  24.326  26.528  1.00  0.00     0.225 C 
ATOM      6  O   UNL A   1      31.167  23.487  27.418  1.00  0.00    -0.275 OA
ATOM      7  H   UNL A   1      30.383  25.675  27.605  1.00  0.00     0.163 HD
BRANCH   5   8
ATOM      8  C   UNL A   1      32.052  23.909  25.246  1.00  0.00     0.102 C 
ATOM      9  C   UNL A   1      34.001  24.994  24.120  1.00  0.00     0.032 C 
ATOM     10  C   UNL A   1      33.577  24.117  25.302  1.00  0.00     0.094 C 
ATOM     11  N   UNL A   1      34.146  22.775  25.207  1.00  0.00    -0.339 N 
ATOM     12  C   UNL A   1      31.818  22.470  24.789  1.00  0.00     0.037 C 
ATOM     13  C   UNL A   1      33.204  21.892  24.535  1.00  0.00     0.120 C 
BRANCH  11  14
ATOM     14  C   UNL A   1      35.360  22.270  25.613  1.00  0.00     0.226 C 
ATOM     15  O   UNL A   1      35.377  21.418  26.517  1.00  0.00    -0.275 OA
BRANCH  14  16
ATOM     16  C   UNL A   1      36.727  22.712  25.053  1.00  0.00     0.083 C 
ATOM     17  C   UNL A   1      37.327  23.995  25.629  1.00  0.00     0.040 C 
ATOM     18  C   UNL A   1      37.743  21.598  24.793  1.00  0.00     0.018 C 
ATOM     19  C   UNL A   1      38.559  23.818  26.462  1.00  0.00    -0.030 C 
ATOM     20  C   UNL A   1      38.832  21.416  25.851  1.00  0.00     0.028 C 
ATOM     21  C   UNL A   1      39.234  22.666  26.557  1.00  0.00    -0.031 C 
ENDBRANCH  14  16
ENDBRANCH  11  14
ENDBRANCH   5   8
ENDBRANCH   3   4
ENDBRANCH   2   3
ENDBRANCH   1   2
BRANCH   1  22
ATOM     22  C   UNL A   1      34.056  28.725  25.839  1.00  0.00     0.116 C 
BRANCH  22  23
ATOM     23  N   UNL A   1      33.798  30.051  26.390  1.00  0.00    -0.352 N 
ATOM     24  C   UNL A   1      34.446  30.721  27.401  1.00  0.00     0.251 C 
ATOM     25  H   UNL A   1      33.049  30.538  25.979  1.00  0.00     0.163 HD
ATOM     26  O   UNL A   1      33.971  31.757  27.855  1.00  0.00    -0.269 OA
BRANCH  24  27
ATOM     27  C   UNL A   1      35.700  30.168  27.951  1.00  0.00     0.039 A 
ATOM     28  C   UNL A   1      36.899  30.364  27.262  1.00  0.00     0.014 A 
ATOM     29  C   UNL A   1      35.694  29.495  29.173  1.00  0.00     0.014 A 
ATOM     30  C   UNL A   1      38.100  29.960  27.847  1.00  0.00     0.010 A 
ATOM     31  C   UNL A   1      36.893  29.209  29.807  1.00  0.00     0.010 A 
ATOM     32  C   UNL A   1      38.111  29.423  29.146  1.00  0.00    -0.014 A 
BRANCH  32  33
ATOM     33  C   UNL A   1      39.374  29.050  29.831  1.00  0.00     0.031 A 
ATOM     34  C   UNL A   1      39.829  29.841  31.030  1.00  0.00     0.074 A 
ATOM     35  C   UNL A   1      40.147  28.068  29.329  1.00  0.00     0.049 A 
ATOM     36  N   UNL A   1      40.948  29.754  31.701  1.00  0.00    -0.248 NA
ATOM     37  C   UNL A   1      38.926  30.902  31.510  1.00  0.00     0.031 C 
ATOM     38  C   UNL A   1      39.846  27.276  28.132  1.00  0.00     0.029 A 
ATOM     39  N   UNL A   1      41.354  27.574  29.754  1.00  0.00    -0.354 N 
ATOM     40  C   UNL A   1      40.892  30.762  32.658  1.00  0.00     0.074 A 
ATOM     41  C   UNL A   1      39.663  31.490  32.438  1.00  0.00     0.031 C 
ATOM     42  C   UNL A   1      40.825  26.377  27.941  1.00  0.00     0.029 A 
ATOM     43  C   UNL A   1      41.842  26.553  28.972  1.00  0.00     0.049 A 
ATOM     44  H   UNL A   1      41.828  27.918  30.546  1.00  0.00     0.167 HD
ATOM     45  C   UNL A   1      41.770  31.035  33.651  1.00  0.00     0.037 A 
ATOM     46  C   UNL A   1      42.982  25.842  29.075  1.00  0.00     0.037 A 
ATOM     47  C   UNL A   1      42.965  30.272  33.894  1.00  0.00     0.049 A 
ATOM     48  C   UNL A   1      43.926  26.141  30.207  1.00  0.00     0.074 A 
ATOM     49  C   UNL A   1      43.884  30.414  34.917  1.00  0.00     0.029 A 
ATOM     50  N   UNL A   1      43.399  29.215  33.107  1.00  0.00    -0.354 N 
ATOM     51  N   UNL A   1      43.825  27.055  31.144  1.00  0.00    -0.248 NA
ATOM     52  C   UNL A   1      45.134  25.311  30.302  1.00  0.00     0.031 C 
ATOM     53  C   UNL A   1      44.895  29.467  34.729  1.00  0.00     0.029 A 
ATOM     54  C   UNL A   1      44.582  28.706  33.613  1.00  0.00     0.049 A 
ATOM     55  H   UNL A   1      42.936  28.879  32.307  1.00  0.00     0.167 HD
ATOM     56  C   UNL A   1      44.944  26.892  31.955  1.00  0.00     0.074 A 
ATOM     57  C   UNL A   1      45.699  25.785  31.404  1.00  0.00     0.031 C 
ATOM     58  C   UNL A   1      45.312  27.595  33.054  1.00  0.00     0.037 A 
BRANCH  45  59
ATOM     59  C   UNL A   1      41.457  32.194  34.557  1.00  0.00     0.058 A 
ATOM     60  C   UNL A   1      41.890  33.498  34.263  1.00  0.00     0.135 A 
ATOM     61  C   UNL A   1      40.698  32.005  35.723  1.00  0.00     0.135 A 
ATOM     62  F   UNL A   1      42.635  33.734  33.171  1.00  0.00    -0.206 F 
ATOM     63  C   UNL A   1      41.612  34.566  35.110  1.00  0.00     0.059 A 
ATOM     64  C   UNL A   1      40.382  33.065  36.569  1.00  0.00     0.059 A 
ATOM     65  F   UNL A   1      40.261  30.781  36.055  1.00  0.00    -0.206 F 
ATOM     66  C   UNL A   1      40.858  34.339  36.262  1.00  0.00     0.060 A 
BRANCH  66  67
ATOM     67  S   UNL A   1      40.503  35.737  37.347  1.00  0.00     0.124 S 
ATOM     68  O   UNL A   1      39.708  35.098  38.392  1.00  0.00    -0.237 OA
ATOM     69  O   UNL A   1      41.838  36.172  37.744  1.00  0.00    -0.237 OA
ATOM     70  O   UNL A   1      39.777  36.663  36.483  1.00  0.00    -0.744 OA
ENDBRANCH  66  67
ENDBRANCH  45  59
BRANCH  46  71
ATOM     71  C   UNL A   1      43.274  24.758  28.099  1.00  0.00     0.058 A 
ATOM     72  C   UNL A   1      43.997  25.022  26.926  1.00  0.00     0.135 A 
ATOM     73  C   UNL A   1      42.854  23.437  28.325  1.00  0.00     0.135 A 
ATOM     74  F   UNL A   1      44.416  26.268  26.664  1.00  0.00    -0.206 F 
ATOM     75  C   UNL A   1      44.279  24.021  26.002  1.00  0.00     0.059 A 
ATOM     76  C   UNL A   1      43.145  22.414  27.427  1.00  0.00     0.059 A 
ATOM     77  F   UNL A   1      42.175  23.129  29.440  1.00  0.00    -0.206 F 
ATOM     78  C   UNL A   1      43.849  22.718  26.262  1.00  0.00     0.060 A 
BRANCH  78  79
ATOM     79  S   UNL A   1      44.263  21.417  25.080  1.00  0.00     0.124 S 
ATOM     80  O   UNL A   1      45.602  21.038  25.517  1.00  0.00    -0.237 OA
ATOM     81  O   UNL A   1      43.210  20.436  25.321  1.00  0.00    -0.237 OA
ATOM     82  O   UNL A   1      44.188  22.100  23.791  1.00  0.00    -0.744 OA
ENDBRANCH  78  79
ENDBRANCH  46  71
BRANCH  58  83
ATOM     83  C   UNL A   1      46.570  27.168  33.755  1.00  0.00     0.058 A 
ATOM     84  C   UNL A   1      46.557  26.187  34.758  1.00  0.00     0.135 A 
ATOM     85  C   UNL A   1      47.811  27.707  33.376  1.00  0.00     0.135 A 
ATOM     86  F   UNL A   1      45.396  25.645  35.159  1.00  0.00    -0.206 F 
ATOM     87  C   UNL A   1      47.730  25.769  35.377  1.00  0.00     0.059 A 
ATOM     88  C   UNL A   1      48.998  27.283  33.963  1.00  0.00     0.059 A 
ATOM     89  F   UNL A   1      47.878  28.639  32.414  1.00  0.00    -0.206 F 
ATOM     90  C   UNL A   1      48.947  26.321  34.972  1.00  0.00     0.060 A 
BRANCH  90  91
ATOM     91  S   UNL A   1      50.465  25.744  35.758  1.00  0.00     0.124 S 
ATOM     92  O   UNL A   1      50.792  24.579  34.944  1.00  0.00    -0.237 OA
ATOM     93  O   UNL A   1      51.353  26.893  35.607  1.00  0.00    -0.237 OA
ATOM     94  O   UNL A   1      50.050  25.457  37.127  1.00  0.00    -0.744 OA
ENDBRANCH  90  91
ENDBRANCH  58  83
ENDBRANCH  32  33
ENDBRANCH  24  27
ENDBRANCH  22  23
ENDBRANCH   1  22
TORSDOF 16
ENDMDL
MODEL 2
REMARK VINA RESULT:     -11.1      2.839      3.921
REMARK SMILES C[C@H]1[C@H](C(=O)NCCCCNC(=O)c2ccc(-c3c4nc(c(-c5c(F)cc(S(=O)(=O)[O-])cc5F)c5ccc([nH]5)c(-c5c(F)cc(S(=O)(=O)[O-])cc5F)c5nc(c(-c6c(F)cc(S(=O)(=O)[O-])cc6F)c6ccc3[nH]6)C=C5)C=C4)cc2)CCN1C(=O)[C@H]1CC=CCC1
REMARK SMILES IDX 9 1 8 2 7 3 6 4 4 5 5 6 3 8 1 9 2 10 82 11 80 12 81 13 83 14
REMARK SMILES IDX 84 15 85 16 86 17 90 18 87 19 89 20 88 21 10 22 11 23 12 24
REMARK SMILES IDX 13 26 14 27 15 28 79 29 16 30 78 31 17 32 18 33 19 34 72 35
REMARK SMILES IDX 20 36 77 37 71 38 73 39 21 40 76 41 70 42 69 43 22 45 56 46
REMARK SMILES IDX 35 47 55 48 36 49 39 50 54 51 74 52 37 53 38 54 53 56 75 57
REMARK SMILES IDX 40 58 23 59 24 60 33 61 25 62 26 63 32 64 34 65 27 66 28 67
REMARK SMILES IDX 29 68 30 69 31 70 57 71 58 72 67 73 59 74 60 75 66 76 68 77
REMARK SMILES IDX 61 78 62 79 63 80 64 81 65 82 41 83 42 84 51 85 43 86 44 87
REMARK SMILES IDX 50 88 52 89 45 90 46 91 47 92 48 93 49 94
REMARK H PARENT 6 7 11 25 73 44 39 55
REMARK Flexibility Score: inf
ROOT
ATOM      1  C   UNL A   1      32.224  27.821  27.542  1.00  0.00     0.023 C 
ENDROOT
BRANCH   1   2
ATOM      2  C   UNL A   1      31.227  27.849  26.395  1.00  0.00     0.023 C 
BRANCH   2   3
ATOM      3  C   UNL A   1      31.093  26.557  25.599  1.00  0.00     0.116 C 
BRANCH   3   4
ATOM      4  N   UNL A   1      31.077  25.383  26.449  1.00  0.00    -0.356 N 
ATOM      5  C   UNL A   1      31.902  24.307  26.508  1.00  0.00     0.225 C 
ATOM      6  O   UNL A   1      31.660  23.462  27.377  1.00  0.00    -0.275 OA
ATOM      7  H   UNL A   1      30.338  25.362  27.099  1.00  0.00     0.163 HD
BRANCH   5   8
ATOM      8  C   UNL A   1      33.062  24.078  25.551  1.00  0.00     0.102 C 
ATOM      9  C   UNL A   1      35.402  23.379  26.084  1.00  0.00     0.032 C 
ATOM     10  C   UNL A   1      33.955  22.891  25.960  1.00  0.00     0.094 C 
ATOM     11  N   UNL A   1      33.806  21.917  24.881  1.00  0.00    -0.339 N 
ATOM     12  C   UNL A   1      32.692  23.868  24.084  1.00  0.00     0.037 C 
ATOM     13  C   UNL A   1      33.419  22.600  23.656  1.00  0.00     0.120 C 
BRANCH  11  14
ATOM     14  C   UNL A   1      33.986  20.552  24.856  1.00  0.00     0.226 C 
ATOM     15  O   UNL A   1      35.141  20.104  24.950  1.00  0.00    -0.275 OA
BRANCH  14  16
ATOM     16  C   UNL A   1      32.855  19.520  24.680  1.00  0.00     0.083 C 
ATOM     17  C   UNL A   1      32.486  19.137  23.247  1.00  0.00     0.040 C 
ATOM     18  C   UNL A   1      32.844  18.354  25.671  1.00  0.00     0.018 C 
ATOM     19  C   UNL A   1      32.822  17.734  22.844  1.00  0.00    -0.030 C 
ATOM     20  C   UNL A   1      33.413  17.029  25.162  1.00  0.00     0.028 C 
ATOM     21  C   UNL A   1      33.231  16.791  23.701  1.00  0.00    -0.031 C 
ENDBRANCH  14  16
ENDBRANCH  11  14
ENDBRANCH   5   8
ENDBRANCH   3   4
ENDBRANCH   2   3
ENDBRANCH   1   2
BRANCH   1  22
ATOM     22  C   UNL A   1      33.524  28.543  27.244  1.00  0.00     0.116 C 
BRANCH  22  23
ATOM     23  N   UNL A   1      33.493  29.944  27.651  1.00  0.00    -0.352 N 
ATOM     24  C   UNL A   1      34.463  30.700  28.263  1.00  0.00     0.251 C 
ATOM     25  H   UNL A   1      32.652  30.418  27.458  1.00  0.00     0.163 HD
ATOM     26  O   UNL A   1      34.191  31.816  28.697  1.00  0.00    -0.269 OA
BRANCH  24  27
ATOM     27  C   UNL A   1      35.824  30.148  28.418  1.00  0.00     0.039 A 
ATOM     28  C   UNL A   1      36.694  30.146  27.326  1.00  0.00     0.014 A 
ATOM     29  C   UNL A   1      36.253  29.676  29.659  1.00  0.00     0.014 A 
ATOM     30  C   UNL A   1      38.021  29.750  27.506  1.00  0.00     0.010 A 
ATOM     31  C   UNL A   1      37.597  29.404  29.864  1.00  0.00     0.010 A 
ATOM     32  C   UNL A   1      38.494  29.422  28.788  1.00  0.00    -0.014 A 
BRANCH  32  33
ATOM     33  C   UNL A   1      39.915  29.068  29.033  1.00  0.00     0.031 A 
ATOM     34  C   UNL A   1      40.854  30.107  29.589  1.00  0.00     0.074 A 
ATOM     35  C   UNL A   1      40.376  27.852  28.677  1.00  0.00     0.049 A 
ATOM     36  N   UNL A   1      42.146  30.039  29.771  1.00  0.00    -0.248 NA
ATOM     37  C   UNL A   1      40.267  31.411  29.946  1.00  0.00     0.031 C 
ATOM     38  C   UNL A   1      39.579  26.786  28.065  1.00  0.00     0.029 A 
ATOM     39  N   UNL A   1      41.634  27.312  28.767  1.00  0.00    -0.354 N 
ATOM     40  C   UNL A   1      42.527  31.294  30.233  1.00  0.00     0.074 A 
ATOM     41  C   UNL A   1      41.343  32.123  30.241  1.00  0.00     0.031 C 
ATOM     42  C   UNL A   1      40.359  25.711  27.866  1.00  0.00     0.029 A 
ATOM     43  C   UNL A   1      41.718  26.022  28.295  1.00  0.00     0.049 A 
ATOM     44  H   UNL A   1      42.405  27.801  29.135  1.00  0.00     0.167 HD
ATOM     45  C   UNL A   1      43.748  31.709  30.647  1.00  0.00     0.037 A 
ATOM     46  C   UNL A   1      42.773  25.189  28.216  1.00  0.00     0.037 A 
ATOM     47  C   UNL A   1      44.909  30.862  30.686  1.00  0.00     0.049 A 
ATOM     48  C   UNL A   1      44.112  25.661  28.713  1.00  0.00     0.074 A 
ATOM     49  C   UNL A   1      46.175  31.157  31.158  1.00  0.00     0.029 A 
ATOM     50  N   UNL A   1      44.942  29.547  30.243  1.00  0.00    -0.354 N 
ATOM     51  N   UNL A   1      44.441  26.830  29.210  1.00  0.00    -0.248 NA
ATOM     52  C   UNL A   1      45.222  24.701  28.646  1.00  0.00     0.031 C 
ATOM     53  C   UNL A   1      46.984  30.033  30.966  1.00  0.00     0.029 A 
ATOM     54  C   UNL A   1      46.211  29.023  30.417  1.00  0.00     0.049 A 
ATOM     55  H   UNL A   1      44.177  29.061  29.861  1.00  0.00     0.167 HD
ATOM     56  C   UNL A   1      45.789  26.737  29.539  1.00  0.00     0.074 A 
ATOM     57  C   UNL A   1      46.210  25.394  29.196  1.00  0.00     0.031 C 
ATOM     58  C   UNL A   1      46.605  27.678  30.076  1.00  0.00     0.037 A 
BRANCH  45  59
ATOM     59  C   UNL A   1      43.878  33.135  31.108  1.00  0.00     0.058 A 
ATOM     60  C   UNL A   1      43.676  33.498  32.449  1.00  0.00     0.135 A 
ATOM     61  C   UNL A   1      44.229  34.150  30.202  1.00  0.00     0.135 A 
ATOM     62  F   UNL A   1      43.321  32.573  33.355  1.00  0.00    -0.206 F 
ATOM     63  C   UNL A   1      43.783  34.820  32.871  1.00  0.00     0.059 A 
ATOM     64  C   UNL A   1      44.370  35.474  30.607  1.00  0.00     0.059 A 
ATOM     65  F   UNL A   1      44.430  33.860  28.907  1.00  0.00    -0.206 F 
ATOM     66  C   UNL A   1      44.129  35.801  31.941  1.00  0.00     0.060 A 
BRANCH  66  67
ATOM     67  S   UNL A   1      44.266  37.510  32.505  1.00  0.00     0.124 S 
ATOM     68  O   UNL A   1      43.971  38.245  31.278  1.00  0.00    -0.237 OA
ATOM     69  O   UNL A   1      43.246  37.580  33.546  1.00  0.00    -0.237 OA
ATOM     70  O   UNL A   1      45.645  37.604  32.976  1.00  0.00    -0.744 OA
ENDBRANCH  66  67
ENDBRANCH  45  59
BRANCH  46  71
ATOM     71  C   UNL A   1      42.597  23.813  27.676  1.00  0.00     0.058 A 
ATOM     72  C   UNL A   1      42.423  22.720  28.537  1.00  0.00     0.135 A 
ATOM     73  C   UNL A   1      42.581  23.566  26.294  1.00  0.00     0.135 A 
ATOM     74  F   UNL A   1      42.435  22.905  29.865  1.00  0.00    -0.206 F 
ATOM     75  C   UNL A   1      42.258  21.427  28.051  1.00  0.00     0.059 A 
ATOM     76  C   UNL A   1      42.392  22.285  25.783  1.00  0.00     0.059 A 
ATOM     77  F   UNL A   1      42.723  24.581  25.428  1.00  0.00    -0.206 F 
ATOM     78  C   UNL A   1      42.243  21.220  26.670  1.00  0.00     0.060 A 
BRANCH  78  79
ATOM     79  S   UNL A   1      41.979  19.544  26.049  1.00  0.00     0.124 S 
ATOM     80  O   UNL A   1      42.923  19.491  24.939  1.00  0.00    -0.237 OA
ATOM     81  O   UNL A   1      42.312  18.729  27.212  1.00  0.00    -0.237 OA
ATOM     82  O   UNL A   1      40.566  19.544  25.677  1.00  0.00    -0.744 OA
ENDBRANCH  78  79
ENDBRANCH  46  71
BRANCH  58  83
ATOM     83  C   UNL A   1      48.025  27.280  30.357  1.00  0.00     0.058 A 
ATOM     84  C   UNL A   1      49.071  27.621  29.486  1.00  0.00     0.135 A 
ATOM     85  C   UNL A   1      48.350  26.600  31.542  1.00  0.00     0.135 A 
ATOM     86  F   UNL A   1      48.813  28.266  28.338  1.00  0.00    -0.206 F 
ATOM     87  C   UNL A   1      50.390  27.281  29.770  1.00  0.00     0.059 A 
ATOM     88  C   UNL A   1      49.664  26.275  31.859  1.00  0.00     0.059 A 
ATOM     89  F   UNL A   1      47.387  26.262  32.414  1.00  0.00    -0.206 F 
ATOM     90  C   UNL A   1      50.677  26.610  30.961  1.00  0.00     0.060 A 
BRANCH  90  91
ATOM     91  S   UNL A   1      52.396  26.208  31.335  1.00  0.00     0.124 S 
ATOM     92  O   UNL A   1      52.922  25.906  30.009  1.00  0.00    -0.237 OA
ATOM     93  O   UNL A   1      52.881  27.443  31.944  1.00  0.00    -0.237 OA
ATOM     94  O   UNL A   1      52.288  25.069  32.242  1.00  0.00    -0.744 OA
ENDBRANCH  90  91
ENDBRANCH  58  83
ENDBRANCH  32  33
ENDBRANCH  24  27
ENDBRANCH  22  23
ENDBRANCH   1  22
TORSDOF 16
ENDMDL
MODEL 3
REMARK VINA RESULT:     -11.1      2.544      3.242
REMARK SMILES C[C@H]1[C@H](C(=O)NCCCCNC(=O)c2ccc(-c3c4nc(c(-c5c(F)cc(S(=O)(=O)[O-])cc5F)c5ccc([nH]5)c(-c5c(F)cc(S(=O)(=O)[O-])cc5F)c5nc(c(-c6c(F)cc(S(=O)(=O)[O-])cc6F)c6ccc3[nH]6)C=C5)C=C4)cc2)CCN1C(=O)[C@H]1CC=CCC1
REMARK SMILES IDX 9 1 8 2 7 3 6 4 4 5 5 6 3 8 1 9 2 10 82 11 80 12 81 13 83 14
REMARK SMILES IDX 84 15 85 16 86 17 90 18 87 19 89 20 88 21 10 22 11 23 12 24
REMARK SMILES IDX 13 26 14 27 15 28 79 29 16 30 78 31 17 32 18 33 19 34 72 35
REMARK SMILES IDX 20 36 77 37 71 38 73 39 21 40 76 41 70 42 69 43 22 45 56 46
REMARK SMILES IDX 35 47 55 48 36 49 39 50 54 51 74 52 37 53 38 54 53 56 75 57
REMARK SMILES IDX 40 58 23 59 24 60 33 61 25 62 26 63 32 64 34 65 27 66 28 67
REMARK SMILES IDX 29 68 30 69 31 70 57 71 58 72 67 73 59 74 60 75 66 76 68 77
REMARK SMILES IDX 61 78 62 79 63 80 64 81 65 82 41 83 42 84 51 85 43 86 44 87
REMARK SMILES IDX 50 88 52 89 45 90 46 91 47 92 48 93 49 94
REMARK H PARENT 6 7 11 25 73 44 39 55
REMARK Flexibility Score: inf
ROOT
ATOM      1  C   UNL A   1      32.599  28.059  25.916  1.00  0.00     0.023 C 
ENDROOT
BRANCH   1   2
ATOM      2  C   UNL A   1      31.368  27.412  26.530  1.00  0.00     0.023 C 
BRANCH   2   3
ATOM      3  C   UNL A   1      30.988  26.045  25.975  1.00  0.00     0.116 C 
BRANCH   3   4
ATOM      4  N   UNL A   1      31.212  24.979  26.932  1.00  0.00    -0.356 N 
ATOM      5  C   UNL A   1      31.344  23.639  26.766  1.00  0.00     0.225 C 
ATOM      6  O   UNL A   1      31.570  22.968  27.780  1.00  0.00    -0.275 OA
ATOM      7  H   UNL A   1      31.280  25.280  27.867  1.00  0.00     0.163 HD
BRANCH   5   8
ATOM      8  C   UNL A   1      31.195  22.933  25.427  1.00  0.00     0.102 C 
ATOM      9  C   UNL A   1      30.601  23.917  23.208  1.00  0.00     0.032 C 
ATOM     10  C   UNL A   1      31.720  23.768  24.244  1.00  0.00     0.094 C 
ATOM     11  N   UNL A   1      32.847  23.005  23.712  1.00  0.00    -0.339 N 
ATOM     12  C   UNL A   1      31.846  21.555  25.318  1.00  0.00     0.037 C 
ATOM     13  C   UNL A   1      32.686  21.599  24.049  1.00  0.00     0.120 C 
BRANCH  11  14
ATOM     14  C   UNL A   1      33.943  23.394  22.977  1.00  0.00     0.226 C 
ATOM     15  O   UNL A   1      33.860  23.390  21.738  1.00  0.00    -0.275 OA
BRANCH  14  16
ATOM     16  C   UNL A   1      35.302  23.806  23.578  1.00  0.00     0.083 C 
ATOM     17  C   UNL A   1      35.302  24.268  25.035  1.00  0.00     0.040 C 
ATOM     18  C   UNL A   1      36.504  22.942  23.187  1.00  0.00     0.018 C 
ATOM     19  C   UNL A   1      35.989  23.355  26.005  1.00  0.00    -0.030 C 
ATOM     20  C   UNL A   1      36.959  21.910  24.220  1.00  0.00     0.028 C 
ATOM     21  C   UNL A   1      36.733  22.304  25.640  1.00  0.00    -0.031 C 
ENDBRANCH  14  16
ENDBRANCH  11  14
ENDBRANCH   5   8
ENDBRANCH   3   4
ENDBRANCH   2   3
ENDBRANCH   1   2
BRANCH   1  22
ATOM     22  C   UNL A   1      33.686  28.387  26.921  1.00  0.00     0.116 C 
BRANCH  22  23
ATOM     23  N   UNL A   1      33.634  29.774  27.371  1.00  0.00    -0.352 N 
ATOM     24  C   UNL A   1      34.576  30.512  28.047  1.00  0.00     0.251 C 
ATOM     25  H   UNL A   1      32.800  30.252  27.160  1.00  0.00     0.163 HD
ATOM     26  O   UNL A   1      34.283  31.612  28.506  1.00  0.00    -0.269 OA
BRANCH  24  27
ATOM     27  C   UNL A   1      35.932  29.958  28.240  1.00  0.00     0.039 A 
ATOM     28  C   UNL A   1      36.880  30.090  27.222  1.00  0.00     0.014 A 
ATOM     29  C   UNL A   1      36.276  29.349  29.446  1.00  0.00     0.014 A 
ATOM     30  C   UNL A   1      38.196  29.688  27.455  1.00  0.00     0.010 A 
ATOM     31  C   UNL A   1      37.606  29.067  29.719  1.00  0.00     0.010 A 
ATOM     32  C   UNL A   1      38.580  29.217  28.723  1.00  0.00    -0.014 A 
BRANCH  32  33
ATOM     33  C   UNL A   1      39.984  28.850  29.031  1.00  0.00     0.031 A 
ATOM     34  C   UNL A   1      40.900  29.873  29.653  1.00  0.00     0.074 A 
ATOM     35  C   UNL A   1      40.456  27.639  28.677  1.00  0.00     0.049 A 
ATOM     36  N   UNL A   1      42.182  29.794  29.897  1.00  0.00    -0.248 NA
ATOM     37  C   UNL A   1      40.304  31.174  30.004  1.00  0.00     0.031 C 
ATOM     38  C   UNL A   1      39.685  26.589  28.006  1.00  0.00     0.029 A 
ATOM     39  N   UNL A   1      41.705  27.089  28.818  1.00  0.00    -0.354 N 
ATOM     40  C   UNL A   1      42.546  31.038  30.402  1.00  0.00     0.074 A 
ATOM     41  C   UNL A   1      41.367  31.874  30.365  1.00  0.00     0.031 C 
ATOM     42  C   UNL A   1      40.468  25.513  27.826  1.00  0.00     0.029 A 
ATOM     43  C   UNL A   1      41.806  25.808  28.328  1.00  0.00     0.049 A 
ATOM     44  H   UNL A   1      42.460  27.567  29.233  1.00  0.00     0.167 HD
ATOM     45  C   UNL A   1      43.746  31.438  30.883  1.00  0.00     0.037 A 
ATOM     46  C   UNL A   1      42.859  24.969  28.286  1.00  0.00     0.037 A 
ATOM     47  C   UNL A   1      44.900  30.583  30.964  1.00  0.00     0.049 A 
ATOM     48  C   UNL A   1      44.175  25.424  28.858  1.00  0.00     0.074 A 
ATOM     49  C   UNL A   1      46.142  30.862  31.504  1.00  0.00     0.029 A 
ATOM     50  N   UNL A   1      44.947  29.277  30.499  1.00  0.00    -0.354 N 
ATOM     51  N   UNL A   1      44.484  26.581  29.392  1.00  0.00    -0.248 NA
ATOM     52  C   UNL A   1      45.281  24.458  28.828  1.00  0.00     0.031 C 
ATOM     53  C   UNL A   1      46.953  29.736  31.332  1.00  0.00     0.029 A 
ATOM     54  C   UNL A   1      46.203  28.741  30.726  1.00  0.00     0.049 A 
ATOM     55  H   UNL A   1      44.200  28.802  30.070  1.00  0.00     0.167 HD
ATOM     56  C   UNL A   1      45.814  26.475  29.786  1.00  0.00     0.074 A 
ATOM     57  C   UNL A   1      46.244  25.135  29.439  1.00  0.00     0.031 C 
ATOM     58  C   UNL A   1      46.607  27.401  30.380  1.00  0.00     0.037 A 
BRANCH  45  59
ATOM     59  C   UNL A   1      43.861  32.854  31.376  1.00  0.00     0.058 A 
ATOM     60  C   UNL A   1      43.551  33.202  32.701  1.00  0.00     0.135 A 
ATOM     61  C   UNL A   1      44.305  33.875  30.520  1.00  0.00     0.135 A 
ATOM     62  F   UNL A   1      43.104  32.269  33.559  1.00  0.00    -0.206 F 
ATOM     63  C   UNL A   1      43.644  34.514  33.151  1.00  0.00     0.059 A 
ATOM     64  C   UNL A   1      44.434  35.191  30.957  1.00  0.00     0.059 A 
ATOM     65  F   UNL A   1      44.612  33.601  29.243  1.00  0.00    -0.206 F 
ATOM     66  C   UNL A   1      44.085  35.503  32.271  1.00  0.00     0.060 A 
BRANCH  66  67
ATOM     67  S   UNL A   1      44.202  37.200  32.872  1.00  0.00     0.124 S 
ATOM     68  O   UNL A   1      43.170  37.216  33.904  1.00  0.00    -0.237 OA
ATOM     69  O   UNL A   1      45.579  37.268  33.351  1.00  0.00    -0.237 OA
ATOM     70  O   UNL A   1      43.915  38.002  31.686  1.00  0.00    -0.744 OA
ENDBRANCH  66  67
ENDBRANCH  45  59
BRANCH  46  71
ATOM     71  C   UNL A   1      42.703  23.605  27.712  1.00  0.00     0.058 A 
ATOM     72  C   UNL A   1      42.908  23.373  26.344  1.00  0.00     0.135 A 
ATOM     73  C   UNL A   1      42.364  22.507  28.519  1.00  0.00     0.135 A 
ATOM     74  F   UNL A   1      43.229  24.390  25.532  1.00  0.00    -0.206 F 
ATOM     75  C   UNL A   1      42.765  22.104  25.791  1.00  0.00     0.059 A 
ATOM     76  C   UNL A   1      42.240  21.224  27.992  1.00  0.00     0.059 A 
ATOM     77  F   UNL A   1      42.176  22.673  29.837  1.00  0.00    -0.206 F 
ATOM     78  C   UNL A   1      42.432  21.035  26.624  1.00  0.00     0.060 A 
BRANCH  78  79
ATOM     79  S   UNL A   1      42.297  19.384  25.903  1.00  0.00     0.124 S 
ATOM     80  O   UNL A   1      42.888  18.558  26.950  1.00  0.00    -0.237 OA
ATOM     81  O   UNL A   1      40.857  19.246  25.716  1.00  0.00    -0.237 OA
ATOM     82  O   UNL A   1      43.073  19.493  24.671  1.00  0.00    -0.744 OA
ENDBRANCH  78  79
ENDBRANCH  46  71
BRANCH  58  83
ATOM     83  C   UNL A   1      48.009  26.988  30.724  1.00  0.00     0.058 A 
ATOM     84  C   UNL A   1      49.055  27.089  29.794  1.00  0.00     0.135 A 
ATOM     85  C   UNL A   1      48.320  26.543  32.019  1.00  0.00     0.135 A 
ATOM     86  F   UNL A   1      48.809  27.505  28.542  1.00  0.00    -0.206 F 
ATOM     87  C   UNL A   1      50.359  26.741  30.130  1.00  0.00     0.059 A 
ATOM     88  C   UNL A   1      49.622  26.216  32.384  1.00  0.00     0.059 A 
ATOM     89  F   UNL A   1      47.358  26.440  32.948  1.00  0.00    -0.206 F 
ATOM     90  C   UNL A   1      50.633  26.307  31.429  1.00  0.00     0.060 A 
BRANCH  90  91
ATOM     91  S   UNL A   1      52.335  25.893  31.862  1.00  0.00     0.124 S 
ATOM     92  O   UNL A   1      53.065  26.400  30.705  1.00  0.00    -0.237 OA
ATOM     93  O   UNL A   1      52.529  26.630  33.107  1.00  0.00    -0.237 OA
ATOM     94  O   UNL A   1      52.307  24.440  31.999  1.00  0.00    -0.744 OA
ENDBRANCH  90  91
ENDBRANCH  58  83
ENDBRANCH  32  33
ENDBRANCH  24  27
ENDBRANCH  22  23
ENDBRANCH   1  22
TORSDOF 16
ENDMDL
