MODEL 1
REMARK VINA RESULT:     -11.9      0.000      0.000
REMARK SMILES O=C(NCCCCNC(=O)c1ccc(-c2c3nc(c(-c4c(F)cc(S(=O)(=O)[O-])cc4F)c4ccc([nH]4)c(-c4c(F)cc(S(=O)(=O)[O-])cc4F)c4nc(c(-c5c(F)cc(S(=O)(=O)[O-])cc5F)c5ccc2[nH]5)C=C4)C=C3)cc1)C1=NN(c2ccccc2-c2ccccc2)[C@@H](c2ccccc2)C1
REMARK SMILES IDX 6 1 5 2 4 3 3 4 1 5 2 6 77 8 78 9 99 10 79 11 92 12 80 13
REMARK SMILES IDX 81 14 85 15 82 16 84 17 83 18 86 19 87 20 91 21 88 22 90 23
REMARK SMILES IDX 89 24 93 25 94 26 98 27 95 28 97 29 96 30 7 31 8 32 9 33
REMARK SMILES IDX 10 35 11 36 12 37 76 38 13 39 75 40 14 41 15 42 16 43 69 44
REMARK SMILES IDX 17 45 74 46 68 47 70 48 18 49 73 50 67 51 66 52 19 54 53 55
REMARK SMILES IDX 32 56 52 57 33 58 36 59 51 60 71 61 34 62 35 63 50 65 72 66
REMARK SMILES IDX 37 67 20 68 21 69 30 70 22 71 23 72 29 73 31 74 24 75 25 76
REMARK SMILES IDX 26 77 27 78 28 79 54 80 55 81 64 82 56 83 57 84 63 85 65 86
REMARK SMILES IDX 58 87 59 88 60 89 61 90 62 91 38 92 39 93 48 94 40 95 41 96
REMARK SMILES IDX 47 97 49 98 42 99 43 100 44 101 45 102 46 103
REMARK H PARENT 3 7 8 34 70 53 36 64
REMARK Flexibility Score: inf
ROOT
ATOM      1  C   UNL A   1      35.713  33.735  29.061  1.00  0.00     0.023 C 
ENDROOT
BRANCH   1   2
ATOM      2  C   UNL A   1      34.297  33.151  29.067  1.00  0.00     0.023 C 
BRANCH   2   3
ATOM      3  C   UNL A   1      34.019  32.096  28.000  1.00  0.00     0.116 C 
BRANCH   3   4
ATOM      4  N   UNL A   1      35.159  31.223  27.771  1.00  0.00    -0.351 N 
ATOM      5  O   UNL A   1      36.205  29.348  27.005  1.00  0.00    -0.268 OA
ATOM      6  C   UNL A   1      35.182  30.002  27.136  1.00  0.00     0.267 C 
ATOM      7  H   UNL A   1      36.025  31.546  28.113  1.00  0.00     0.163 HD
BRANCH   6   8
ATOM      8  C   UNL A   1      33.888  29.416  26.645  1.00  0.00     0.128 C 
ATOM      9  N   UNL A   1      33.361  29.713  25.499  1.00  0.00    -0.171 NA
ATOM     10  C   UNL A   1      33.146  28.451  27.508  1.00  0.00     0.096 C 
ATOM     11  N   UNL A   1      32.136  29.118  25.491  1.00  0.00    -0.257 N 
ATOM     12  C   UNL A   1      31.866  28.302  26.679  1.00  0.00     0.144 C 
BRANCH  11  13
ATOM     13  C   UNL A   1      31.227  29.451  24.490  1.00  0.00     0.068 A 
ATOM     14  C   UNL A   1      30.337  30.515  24.744  1.00  0.00     0.028 A 
ATOM     15  C   UNL A   1      31.123  28.776  23.247  1.00  0.00     0.007 A 
ATOM     16  C   UNL A   1      29.411  30.951  23.796  1.00  0.00     0.002 A 
ATOM     17  C   UNL A   1      30.182  29.236  22.298  1.00  0.00     0.011 A 
ATOM     18  C   UNL A   1      29.341  30.315  22.565  1.00  0.00     0.001 A 
BRANCH  15  19
ATOM     19  C   UNL A   1      31.865  27.540  22.932  1.00  0.00    -0.016 A 
ATOM     20  C   UNL A   1      33.268  27.508  22.948  1.00  0.00     0.009 A 
ATOM     21  C   UNL A   1      31.178  26.360  22.592  1.00  0.00     0.009 A 
ATOM     22  C   UNL A   1      33.962  26.330  22.659  1.00  0.00     0.001 A 
ATOM     23  C   UNL A   1      31.870  25.182  22.305  1.00  0.00     0.001 A 
ATOM     24  C   UNL A   1      33.262  25.167  22.342  1.00  0.00     0.000 A 
ENDBRANCH  15  19
ENDBRANCH  11  13
BRANCH  12  25
ATOM     25  C   UNL A   1      31.544  26.866  26.303  1.00  0.00    -0.023 A 
ATOM     26  C   UNL A   1      30.224  26.441  26.081  1.00  0.00     0.006 A 
ATOM     27  C   UNL A   1      32.576  25.919  26.214  1.00  0.00     0.006 A 
ATOM     28  C   UNL A   1      29.946  25.107  25.778  1.00  0.00     0.000 A 
ATOM     29  C   UNL A   1      32.297  24.585  25.913  1.00  0.00     0.000 A 
ATOM     30  C   UNL A   1      30.982  24.179  25.695  1.00  0.00     0.000 A 
ENDBRANCH  12  25
ENDBRANCH   6   8
ENDBRANCH   3   4
ENDBRANCH   2   3
ENDBRANCH   1   2
BRANCH   1  31
ATOM     31  C   UNL A   1      36.614  33.314  30.222  1.00  0.00     0.116 C 
BRANCH  31  32
ATOM     32  N   UNL A   1      36.068  32.220  31.006  1.00  0.00    -0.352 N 
ATOM     33  C   UNL A   1      36.581  30.964  31.227  1.00  0.00     0.251 C 
ATOM     34  H   UNL A   1      35.205  32.404  31.442  1.00  0.00     0.163 HD
ATOM     35  O   UNL A   1      35.908  30.140  31.841  1.00  0.00    -0.269 OA
BRANCH  33  36
ATOM     36  C   UNL A   1      37.915  30.586  30.705  1.00  0.00     0.039 A 
ATOM     37  C   UNL A   1      38.924  30.273  31.623  1.00  0.00     0.014 A 
ATOM     38  C   UNL A   1      38.192  30.572  29.335  1.00  0.00     0.014 A 
ATOM     39  C   UNL A   1      40.189  29.889  31.169  1.00  0.00     0.010 A 
ATOM     40  C   UNL A   1      39.442  30.149  28.880  1.00  0.00     0.010 A 
ATOM     41  C   UNL A   1      40.450  29.802  29.793  1.00  0.00    -0.014 A 
BRANCH  41  42
ATOM     42  C   UNL A   1      41.774  29.359  29.290  1.00  0.00     0.031 A 
ATOM     43  C   UNL A   1      42.911  30.338  29.197  1.00  0.00     0.074 A 
ATOM     44  C   UNL A   1      41.939  28.092  28.865  1.00  0.00     0.049 A 
ATOM     45  N   UNL A   1      44.098  30.176  28.671  1.00  0.00    -0.248 NA
ATOM     46  C   UNL A   1      42.673  31.681  29.748  1.00  0.00     0.031 C 
ATOM     47  C   UNL A   1      40.907  27.053  28.871  1.00  0.00     0.029 A 
ATOM     48  N   UNL A   1      43.037  27.465  28.330  1.00  0.00    -0.354 N 
ATOM     49  C   UNL A   1      44.739  31.402  28.798  1.00  0.00     0.074 A 
ATOM     50  C   UNL A   1      43.805  32.302  29.443  1.00  0.00     0.031 C 
ATOM     51  C   UNL A   1      41.422  25.918  28.370  1.00  0.00     0.029 A 
ATOM     52  C   UNL A   1      42.812  26.153  27.990  1.00  0.00     0.049 A 
ATOM     53  H   UNL A   1      43.904  27.914  28.203  1.00  0.00     0.167 HD
ATOM     54  C   UNL A   1      45.991  31.747  28.414  1.00  0.00     0.037 A 
ATOM     55  C   UNL A   1      43.633  25.244  27.430  1.00  0.00     0.037 A 
ATOM     56  C   UNL A   1      46.931  30.848  27.801  1.00  0.00     0.049 A 
ATOM     57  C   UNL A   1      45.047  25.627  27.101  1.00  0.00     0.074 A 
ATOM     58  C   UNL A   1      48.214  31.111  27.351  1.00  0.00     0.029 A 
ATOM     59  N   UNL A   1      46.698  29.501  27.573  1.00  0.00    -0.354 N 
ATOM     60  N   UNL A   1      45.629  26.797  27.209  1.00  0.00    -0.248 NA
ATOM     61  C   UNL A   1      45.921  24.564  26.583  1.00  0.00     0.031 C 
ATOM     62  C   UNL A   1      48.761  29.919  26.861  1.00  0.00     0.029 A 
ATOM     63  C   UNL A   1      47.820  28.913  27.016  1.00  0.00     0.049 A 
ATOM     64  H   UNL A   1      45.857  29.031  27.778  1.00  0.00     0.167 HD
ATOM     65  C   UNL A   1      46.939  26.609  26.787  1.00  0.00     0.074 A 
ATOM     66  C   UNL A   1      47.070  25.211  26.432  1.00  0.00     0.031 C 
ATOM     67  C   UNL A   1      47.941  27.516  26.696  1.00  0.00     0.037 A 
BRANCH  54  68
ATOM     68  C   UNL A   1      46.410  33.168  28.647  1.00  0.00     0.058 A 
ATOM     69  C   UNL A   1      46.233  34.151  27.661  1.00  0.00     0.135 A 
ATOM     70  C   UNL A   1      46.981  33.554  29.870  1.00  0.00     0.135 A 
ATOM     71  F   UNL A   1      45.709  33.825  26.470  1.00  0.00    -0.206 F 
ATOM     72  C   UNL A   1      46.631  35.467  27.871  1.00  0.00     0.059 A 
ATOM     73  C   UNL A   1      47.373  34.868  30.106  1.00  0.00     0.059 A 
ATOM     74  F   UNL A   1      47.173  32.648  30.842  1.00  0.00    -0.206 F 
ATOM     75  C   UNL A   1      47.208  35.813  29.093  1.00  0.00     0.060 A 
BRANCH  75  76
ATOM     76  S   UNL A   1      47.733  37.521  29.362  1.00  0.00     0.124 S 
ATOM     77  O   UNL A   1      48.574  37.380  30.547  1.00  0.00    -0.237 OA
ATOM     78  O   UNL A   1      48.435  37.840  28.123  1.00  0.00    -0.237 OA
ATOM     79  O   UNL A   1      46.473  38.230  29.563  1.00  0.00    -0.744 OA
ENDBRANCH  75  76
ENDBRANCH  54  68
BRANCH  55  80
ATOM     80  C   UNL A   1      43.145  23.868  27.169  1.00  0.00     0.058 A 
ATOM     81  C   UNL A   1      42.995  22.950  28.217  1.00  0.00     0.135 A 
ATOM     82  C   UNL A   1      42.820  23.449  25.872  1.00  0.00     0.135 A 
ATOM     83  F   UNL A   1      43.299  23.311  29.473  1.00  0.00    -0.206 F 
ATOM     84  C   UNL A   1      42.553  21.652  27.988  1.00  0.00     0.059 A 
ATOM     85  C   UNL A   1      42.362  22.160  25.619  1.00  0.00     0.059 A 
ATOM     86  F   UNL A   1      42.933  24.300  24.840  1.00  0.00    -0.206 F 
ATOM     87  C   UNL A   1      42.244  21.265  26.684  1.00  0.00     0.060 A 
BRANCH  87  88
ATOM     88  S   UNL A   1      41.625  19.594  26.383  1.00  0.00     0.124 S 
ATOM     89  O   UNL A   1      42.010  18.915  27.614  1.00  0.00    -0.237 OA
ATOM     90  O   UNL A   1      40.195  19.813  26.195  1.00  0.00    -0.237 OA
ATOM     91  O   UNL A   1      42.349  19.191  25.180  1.00  0.00    -0.744 OA
ENDBRANCH  87  88
ENDBRANCH  55  80
BRANCH  67  92
ATOM     92  C   UNL A   1      49.275  27.015  26.233  1.00  0.00     0.058 A 
ATOM     93  C   UNL A   1      49.693  27.175  24.904  1.00  0.00     0.135 A 
ATOM     94  C   UNL A   1      50.155  26.400  27.135  1.00  0.00     0.135 A 
ATOM     95  F   UNL A   1      48.881  27.753  24.005  1.00  0.00    -0.206 F 
ATOM     96  C   UNL A   1      50.939  26.727  24.479  1.00  0.00     0.059 A 
ATOM     97  C   UNL A   1      51.409  25.952  26.734  1.00  0.00     0.059 A 
ATOM     98  F   UNL A   1      49.797  26.227  28.417  1.00  0.00    -0.206 F 
ATOM     99  C   UNL A   1      51.789  26.111  25.400  1.00  0.00     0.060 A 
BRANCH  99 100
ATOM    100  S   UNL A   1      53.418  25.554  24.858  1.00  0.00     0.124 S 
ATOM    101  O   UNL A   1      53.303  25.678  23.410  1.00  0.00    -0.237 OA
ATOM    102  O   UNL A   1      54.316  26.506  25.506  1.00  0.00    -0.237 OA
ATOM    103  O   UNL A   1      53.491  24.189  25.371  1.00  0.00    -0.744 OA
ENDBRANCH  99 100
ENDBRANCH  67  92
ENDBRANCH  41  42
ENDBRANCH  33  36
ENDBRANCH  31  32
ENDBRANCH   1  31
TORSDOF 17
ENDMDL
MODEL 2
REMARK VINA RESULT:     -11.3      5.912      8.283
REMARK SMILES O=C(NCCCCNC(=O)c1ccc(-c2c3nc(c(-c4c(F)cc(S(=O)(=O)[O-])cc4F)c4ccc([nH]4)c(-c4c(F)cc(S(=O)(=O)[O-])cc4F)c4nc(c(-c5c(F)cc(S(=O)(=O)[O-])cc5F)c5ccc2[nH]5)C=C4)C=C3)cc1)C1=NN(c2ccccc2-c2ccccc2)[C@@H](c2ccccc2)C1
REMARK SMILES IDX 6 1 5 2 4 3 3 4 1 5 2 6 77 8 78 9 99 10 79 11 92 12 80 13
REMARK SMILES IDX 81 14 85 15 82 16 84 17 83 18 86 19 87 20 91 21 88 22 90 23
REMARK SMILES IDX 89 24 93 25 94 26 98 27 95 28 97 29 96 30 7 31 8 32 9 33
REMARK SMILES IDX 10 35 11 36 12 37 76 38 13 39 75 40 14 41 15 42 16 43 69 44
REMARK SMILES IDX 17 45 74 46 68 47 70 48 18 49 73 50 67 51 66 52 19 54 53 55
REMARK SMILES IDX 32 56 52 57 33 58 36 59 51 60 71 61 34 62 35 63 50 65 72 66
REMARK SMILES IDX 37 67 20 68 21 69 30 70 22 71 23 72 29 73 31 74 24 75 25 76
REMARK SMILES IDX 26 77 27 78 28 79 54 80 55 81 64 82 56 83 57 84 63 85 65 86
REMARK SMILES IDX 58 87 59 88 60 89 61 90 62 91 38 92 39 93 48 94 40 95 41 96
REMARK SMILES IDX 47 97 49 98 42 99 43 100 44 101 45 102 46 103
REMARK H PARENT 3 7 8 34 70 53 36 64
REMARK Flexibility Score: inf
ROOT
ATOM      1  C   UNL A   1      31.936  32.393  27.535  1.00  0.00     0.023 C 
ENDROOT
BRANCH   1   2
ATOM      2  C   UNL A   1      31.308  31.801  26.270  1.00  0.00     0.023 C 
BRANCH   2   3
ATOM      3  C   UNL A   1      31.935  30.499  25.776  1.00  0.00     0.116 C 
BRANCH   3   4
ATOM      4  N   UNL A   1      33.183  30.189  26.456  1.00  0.00    -0.351 N 
ATOM      5  O   UNL A   1      34.893  28.837  27.119  1.00  0.00    -0.268 OA
ATOM      6  C   UNL A   1      33.846  28.985  26.509  1.00  0.00     0.267 C 
ATOM      7  H   UNL A   1      33.606  30.936  26.939  1.00  0.00     0.163 HD
BRANCH   6   8
ATOM      8  C   UNL A   1      33.226  27.786  25.849  1.00  0.00     0.128 C 
ATOM      9  N   UNL A   1      33.617  27.321  24.705  1.00  0.00    -0.171 NA
ATOM     10  C   UNL A   1      32.091  27.085  26.517  1.00  0.00     0.096 C 
ATOM     11  N   UNL A   1      32.720  26.352  24.373  1.00  0.00    -0.257 N 
ATOM     12  C   UNL A   1      31.712  26.099  25.407  1.00  0.00     0.144 C 
BRANCH  11  13
ATOM     13  C   UNL A   1      32.733  25.827  23.082  1.00  0.00     0.068 A 
ATOM     14  C   UNL A   1      31.908  26.444  22.119  1.00  0.00     0.028 A 
ATOM     15  C   UNL A   1      33.500  24.703  22.683  1.00  0.00     0.007 A 
ATOM     16  C   UNL A   1      31.872  26.020  20.791  1.00  0.00     0.002 A 
ATOM     17  C   UNL A   1      33.454  24.293  21.332  1.00  0.00     0.011 A 
ATOM     18  C   UNL A   1      32.656  24.947  20.395  1.00  0.00     0.001 A 
BRANCH  15  19
ATOM     19  C   UNL A   1      34.258  23.862  23.630  1.00  0.00    -0.016 A 
ATOM     20  C   UNL A   1      33.992  22.489  23.758  1.00  0.00     0.009 A 
ATOM     21  C   UNL A   1      35.260  24.424  24.442  1.00  0.00     0.009 A 
ATOM     22  C   UNL A   1      34.722  21.699  24.650  1.00  0.00     0.001 A 
ATOM     23  C   UNL A   1      35.991  23.635  25.331  1.00  0.00     0.001 A 
ATOM     24  C   UNL A   1      35.724  22.272  25.432  1.00  0.00     0.000 A 
ENDBRANCH  15  19
ENDBRANCH  11  13
BRANCH  12  25
ATOM     25  C   UNL A   1      31.724  24.646  25.850  1.00  0.00    -0.023 A 
ATOM     26  C   UNL A   1      30.860  23.696  25.281  1.00  0.00     0.006 A 
ATOM     27  C   UNL A   1      32.584  24.236  26.881  1.00  0.00     0.006 A 
ATOM     28  C   UNL A   1      30.858  22.374  25.731  1.00  0.00     0.000 A 
ATOM     29  C   UNL A   1      32.578  22.916  27.332  1.00  0.00     0.000 A 
ATOM     30  C   UNL A   1      31.716  21.985  26.757  1.00  0.00     0.000 A 
ENDBRANCH  12  25
ENDBRANCH   6   8
ENDBRANCH   3   4
ENDBRANCH   2   3
ENDBRANCH   1   2
BRANCH   1  31
ATOM     31  C   UNL A   1      32.959  33.507  27.316  1.00  0.00     0.116 C 
BRANCH  31  32
ATOM     32  N   UNL A   1      32.620  34.742  28.000  1.00  0.00    -0.352 N 
ATOM     33  C   UNL A   1      33.138  35.268  29.160  1.00  0.00     0.251 C 
ATOM     34  H   UNL A   1      31.917  35.282  27.571  1.00  0.00     0.163 HD
ATOM     35  O   UNL A   1      32.639  36.284  29.635  1.00  0.00    -0.269 OA
BRANCH  33  36
ATOM     36  C   UNL A   1      34.265  34.604  29.858  1.00  0.00     0.039 A 
ATOM     37  C   UNL A   1      34.008  33.963  31.074  1.00  0.00     0.014 A 
ATOM     38  C   UNL A   1      35.567  34.637  29.349  1.00  0.00     0.014 A 
ATOM     39  C   UNL A   1      35.040  33.306  31.751  1.00  0.00     0.010 A 
ATOM     40  C   UNL A   1      36.588  33.946  30.003  1.00  0.00     0.010 A 
ATOM     41  C   UNL A   1      36.333  33.273  31.208  1.00  0.00    -0.014 A 
BRANCH  41  42
ATOM     42  C   UNL A   1      37.434  32.548  31.890  1.00  0.00     0.031 A 
ATOM     43  C   UNL A   1      37.934  33.022  33.226  1.00  0.00     0.074 A 
ATOM     44  C   UNL A   1      38.020  31.498  31.284  1.00  0.00     0.049 A 
ATOM     45  N   UNL A   1      38.961  32.602  33.918  1.00  0.00    -0.248 NA
ATOM     46  C   UNL A   1      37.195  34.128  33.853  1.00  0.00     0.031 C 
ATOM     47  C   UNL A   1      37.651  30.959  29.973  1.00  0.00     0.029 A 
ATOM     48  N   UNL A   1      39.064  30.702  31.687  1.00  0.00    -0.354 N 
ATOM     49  C   UNL A   1      39.013  33.409  35.047  1.00  0.00     0.074 A 
ATOM     50  C   UNL A   1      37.918  34.352  34.942  1.00  0.00     0.031 C 
ATOM     51  C   UNL A   1      38.451  29.919  29.684  1.00  0.00     0.029 A 
ATOM     52  C   UNL A   1      39.401  29.730  30.777  1.00  0.00     0.049 A 
ATOM     53  H   UNL A   1      39.527  30.819  32.548  1.00  0.00     0.167 HD
ATOM     54  C   UNL A   1      39.892  33.369  36.078  1.00  0.00     0.037 A 
ATOM     55  C   UNL A   1      40.369  28.796  30.817  1.00  0.00     0.037 A 
ATOM     56  C   UNL A   1      40.961  32.415  36.199  1.00  0.00     0.049 A 
ATOM     57  C   UNL A   1      41.270  28.714  32.016  1.00  0.00     0.074 A 
ATOM     58  C   UNL A   1      41.920  32.311  37.193  1.00  0.00     0.029 A 
ATOM     59  N   UNL A   1      41.199  31.382  35.307  1.00  0.00    -0.354 N 
ATOM     60  N   UNL A   1      41.317  29.499  33.065  1.00  0.00    -0.248 NA
ATOM     61  C   UNL A   1      42.242  27.611  32.044  1.00  0.00     0.031 C 
ATOM     62  C   UNL A   1      42.731  31.207  36.907  1.00  0.00     0.029 A 
ATOM     63  C   UNL A   1      42.269  30.619  35.740  1.00  0.00     0.049 A 
ATOM     64  H   UNL A   1      40.681  31.215  34.486  1.00  0.00     0.167 HD
ATOM     65  C   UNL A   1      42.311  28.979  33.883  1.00  0.00     0.074 A 
ATOM     66  C   UNL A   1      42.835  27.806  33.215  1.00  0.00     0.031 C 
ATOM     67  C   UNL A   1      42.756  29.439  35.078  1.00  0.00     0.037 A 
BRANCH  54  68
ATOM     68  C   UNL A   1      39.726  34.399  37.156  1.00  0.00     0.058 A 
ATOM     69  C   UNL A   1      39.047  34.103  38.347  1.00  0.00     0.135 A 
ATOM     70  C   UNL A   1      40.261  35.687  37.002  1.00  0.00     0.135 A 
ATOM     71  F   UNL A   1      38.503  32.890  38.530  1.00  0.00    -0.206 F 
ATOM     72  C   UNL A   1      38.883  35.060  39.344  1.00  0.00     0.059 A 
ATOM     73  C   UNL A   1      40.121  36.655  37.992  1.00  0.00     0.059 A 
ATOM     74  F   UNL A   1      40.916  36.018  35.878  1.00  0.00    -0.206 F 
ATOM     75  C   UNL A   1      39.415  36.335  39.153  1.00  0.00     0.060 A 
BRANCH  75  76
ATOM     76  S   UNL A   1      39.194  37.580  40.443  1.00  0.00     0.124 S 
ATOM     77  O   UNL A   1      38.168  38.431  39.848  1.00  0.00    -0.237 OA
ATOM     78  O   UNL A   1      38.768  36.782  41.589  1.00  0.00    -0.237 OA
ATOM     79  O   UNL A   1      40.520  38.178  40.560  1.00  0.00    -0.744 OA
ENDBRANCH  75  76
ENDBRANCH  54  68
BRANCH  55  80
ATOM     80  C   UNL A   1      40.522  27.840  29.693  1.00  0.00     0.058 A 
ATOM     81  C   UNL A   1      41.557  27.992  28.760  1.00  0.00     0.135 A 
ATOM     82  C   UNL A   1      39.641  26.762  29.534  1.00  0.00     0.135 A 
ATOM     83  F   UNL A   1      42.418  29.013  28.875  1.00  0.00    -0.206 F 
ATOM     84  C   UNL A   1      41.706  27.114  27.692  1.00  0.00     0.059 A 
ATOM     85  C   UNL A   1      39.778  25.862  28.483  1.00  0.00     0.059 A 
ATOM     86  F   UNL A   1      38.646  26.569  30.414  1.00  0.00    -0.206 F 
ATOM     87  C   UNL A   1      40.807  26.054  27.559  1.00  0.00     0.060 A 
BRANCH  87  88
ATOM     88  S   UNL A   1      41.021  24.882  26.201  1.00  0.00     0.124 S 
ATOM     89  O   UNL A   1      41.330  25.775  25.092  1.00  0.00    -0.237 OA
ATOM     90  O   UNL A   1      42.120  24.045  26.672  1.00  0.00    -0.237 OA
ATOM     91  O   UNL A   1      39.723  24.215  26.139  1.00  0.00    -0.744 OA
ENDBRANCH  87  88
ENDBRANCH  55  80
BRANCH  67  92
ATOM     92  C   UNL A   1      43.833  28.647  35.755  1.00  0.00     0.058 A 
ATOM     93  C   UNL A   1      45.190  28.930  35.544  1.00  0.00     0.135 A 
ATOM     94  C   UNL A   1      43.501  27.619  36.650  1.00  0.00     0.135 A 
ATOM     95  F   UNL A   1      45.553  29.901  34.692  1.00  0.00    -0.206 F 
ATOM     96  C   UNL A   1      46.188  28.207  36.188  1.00  0.00     0.059 A 
ATOM     97  C   UNL A   1      44.483  26.889  37.312  1.00  0.00     0.059 A 
ATOM     98  F   UNL A   1      42.215  27.315  36.884  1.00  0.00    -0.206 F 
ATOM     99  C   UNL A   1      45.825  27.184  37.067  1.00  0.00     0.060 A 
BRANCH  99 100
ATOM    100  S   UNL A   1      47.118  26.263  37.927  1.00  0.00     0.124 S 
ATOM    101  O   UNL A   1      48.324  26.832  37.336  1.00  0.00    -0.237 OA
ATOM    102  O   UNL A   1      46.878  26.601  39.327  1.00  0.00    -0.237 OA
ATOM    103  O   UNL A   1      46.833  24.877  37.568  1.00  0.00    -0.744 OA
ENDBRANCH  99 100
ENDBRANCH  67  92
ENDBRANCH  41  42
ENDBRANCH  33  36
ENDBRANCH  31  32
ENDBRANCH   1  31
TORSDOF 17
ENDMDL
MODEL 3
REMARK VINA RESULT:     -11.3      3.602     10.708
REMARK SMILES O=C(NCCCCNC(=O)c1ccc(-c2c3nc(c(-c4c(F)cc(S(=O)(=O)[O-])cc4F)c4ccc([nH]4)c(-c4c(F)cc(S(=O)(=O)[O-])cc4F)c4nc(c(-c5c(F)cc(S(=O)(=O)[O-])cc5F)c5ccc2[nH]5)C=C4)C=C3)cc1)C1=NN(c2ccccc2-c2ccccc2)[C@@H](c2ccccc2)C1
REMARK SMILES IDX 6 1 5 2 4 3 3 4 1 5 2 6 77 8 78 9 99 10 79 11 92 12 80 13
REMARK SMILES IDX 81 14 85 15 82 16 84 17 83 18 86 19 87 20 91 21 88 22 90 23
REMARK SMILES IDX 89 24 93 25 94 26 98 27 95 28 97 29 96 30 7 31 8 32 9 33
REMARK SMILES IDX 10 35 11 36 12 37 76 38 13 39 75 40 14 41 15 42 16 43 69 44
REMARK SMILES IDX 17 45 74 46 68 47 70 48 18 49 73 50 67 51 66 52 19 54 53 55
REMARK SMILES IDX 32 56 52 57 33 58 36 59 51 60 71 61 34 62 35 63 50 65 72 66
REMARK SMILES IDX 37 67 20 68 21 69 30 70 22 71 23 72 29 73 31 74 24 75 25 76
REMARK SMILES IDX 26 77 27 78 28 79 54 80 55 81 64 82 56 83 57 84 63 85 65 86
REMARK SMILES IDX 58 87 59 88 60 89 61 90 62 91 38 92 39 93 48 94 40 95 41 96
REMARK SMILES IDX 47 97 49 98 42 99 43 100 44 101 45 102 46 103
REMARK H PARENT 3 7 8 34 70 53 36 64
REMARK Flexibility Score: inf
ROOT
ATOM      1  C   UNL A   1      35.093  32.328  31.536  1.00  0.00     0.023 C 
ENDROOT
BRANCH   1   2
ATOM      2  C   UNL A   1      34.690  33.804  31.478  1.00  0.00     0.023 C 
BRANCH   2   3
ATOM      3  C   UNL A   1      35.511  34.743  32.357  1.00  0.00     0.116 C 
BRANCH   3   4
ATOM      4  N   UNL A   1      35.466  34.371  33.762  1.00  0.00    -0.351 N 
ATOM      5  O   UNL A   1      36.276  33.444  35.681  1.00  0.00    -0.268 OA
ATOM      6  C   UNL A   1      36.423  33.712  34.498  1.00  0.00     0.267 C 
ATOM      7  H   UNL A   1      34.648  34.623  34.248  1.00  0.00     0.163 HD
BRANCH   6   8
ATOM      8  C   UNL A   1      37.672  33.239  33.808  1.00  0.00     0.128 C 
ATOM      9  N   UNL A   1      38.605  34.039  33.397  1.00  0.00    -0.171 NA
ATOM     10  C   UNL A   1      37.864  31.781  33.557  1.00  0.00     0.096 C 
ATOM     11  N   UNL A   1      39.472  33.263  32.689  1.00  0.00    -0.257 N 
ATOM     12  C   UNL A   1      39.134  31.836  32.702  1.00  0.00     0.144 C 
BRANCH  11  13
ATOM     13  C   UNL A   1      40.457  33.875  31.918  1.00  0.00     0.068 A 
ATOM     14  C   UNL A   1      40.159  34.130  30.563  1.00  0.00     0.028 A 
ATOM     15  C   UNL A   1      41.742  34.234  32.398  1.00  0.00     0.007 A 
ATOM     16  C   UNL A   1      41.061  34.769  29.713  1.00  0.00     0.002 A 
ATOM     17  C   UNL A   1      42.639  34.886  31.523  1.00  0.00     0.011 A 
ATOM     18  C   UNL A   1      42.301  35.158  30.198  1.00  0.00     0.001 A 
BRANCH  15  19
ATOM     19  C   UNL A   1      42.240  33.859  33.736  1.00  0.00    -0.016 A 
ATOM     20  C   UNL A   1      41.614  34.323  34.903  1.00  0.00     0.009 A 
ATOM     21  C   UNL A   1      43.372  33.033  33.872  1.00  0.00     0.009 A 
ATOM     22  C   UNL A   1      42.087  33.954  36.165  1.00  0.00     0.001 A 
ATOM     23  C   UNL A   1      43.844  32.662  35.132  1.00  0.00     0.001 A 
ATOM     24  C   UNL A   1      43.198  33.120  36.278  1.00  0.00     0.000 A 
ENDBRANCH  15  19
ENDBRANCH  11  13
BRANCH  12  25
ATOM     25  C   UNL A   1      40.278  31.000  33.250  1.00  0.00    -0.023 A 
ATOM     26  C   UNL A   1      41.216  30.387  32.403  1.00  0.00     0.006 A 
ATOM     27  C   UNL A   1      40.390  30.792  34.635  1.00  0.00     0.006 A 
ATOM     28  C   UNL A   1      42.235  29.590  32.926  1.00  0.00     0.000 A 
ATOM     29  C   UNL A   1      41.407  29.991  35.156  1.00  0.00     0.000 A 
ATOM     30  C   UNL A   1      42.329  29.390  34.302  1.00  0.00     0.000 A 
ENDBRANCH  12  25
ENDBRANCH   6   8
ENDBRANCH   3   4
ENDBRANCH   2   3
ENDBRANCH   1   2
BRANCH   1  31
ATOM     31  C   UNL A   1      35.902  31.808  30.348  1.00  0.00     0.116 C 
BRANCH  31  32
ATOM     32  N   UNL A   1      35.160  30.884  29.509  1.00  0.00    -0.352 N 
ATOM     33  C   UNL A   1      35.626  29.881  28.692  1.00  0.00     0.251 C 
ATOM     34  H   UNL A   1      34.182  30.990  29.528  1.00  0.00     0.163 HD
ATOM     35  O   UNL A   1      34.835  29.272  27.977  1.00  0.00    -0.269 OA
BRANCH  33  36
ATOM     36  C   UNL A   1      37.071  29.554  28.640  1.00  0.00     0.039 A 
ATOM     37  C   UNL A   1      37.743  29.703  27.422  1.00  0.00     0.014 A 
ATOM     38  C   UNL A   1      37.756  29.069  29.758  1.00  0.00     0.014 A 
ATOM     39  C   UNL A   1      39.110  29.427  27.339  1.00  0.00     0.010 A 
ATOM     40  C   UNL A   1      39.130  28.833  29.686  1.00  0.00     0.010 A 
ATOM     41  C   UNL A   1      39.819  29.011  28.476  1.00  0.00    -0.014 A 
BRANCH  41  42
ATOM     42  C   UNL A   1      41.279  28.751  28.419  1.00  0.00     0.031 A 
ATOM     43  C   UNL A   1      41.786  27.387  28.041  1.00  0.00     0.074 A 
ATOM     44  C   UNL A   1      42.146  29.722  28.760  1.00  0.00     0.049 A 
ATOM     45  N   UNL A   1      43.011  26.930  28.055  1.00  0.00    -0.248 NA
ATOM     46  C   UNL A   1      40.780  26.403  27.613  1.00  0.00     0.031 C 
ATOM     47  C   UNL A   1      41.782  31.078  29.177  1.00  0.00     0.029 A 
ATOM     48  N   UNL A   1      43.518  29.713  28.823  1.00  0.00    -0.354 N 
ATOM     49  C   UNL A   1      42.924  25.599  27.668  1.00  0.00     0.074 A 
ATOM     50  C   UNL A   1      41.522  25.318  27.436  1.00  0.00     0.031 C 
ATOM     51  C   UNL A   1      42.901  31.771  29.446  1.00  0.00     0.029 A 
ATOM     52  C   UNL A   1      44.059  30.905  29.241  1.00  0.00     0.049 A 
ATOM     53  H   UNL A   1      44.062  28.927  28.590  1.00  0.00     0.167 HD
ATOM     54  C   UNL A   1      43.919  24.692  27.520  1.00  0.00     0.037 A 
ATOM     55  C   UNL A   1      45.343  31.258  29.440  1.00  0.00     0.037 A 
ATOM     56  C   UNL A   1      45.315  24.975  27.721  1.00  0.00     0.049 A 
ATOM     57  C   UNL A   1      46.434  30.260  29.177  1.00  0.00     0.074 A 
ATOM     58  C   UNL A   1      46.396  24.116  27.622  1.00  0.00     0.029 A 
ATOM     59  N   UNL A   1      45.826  26.224  28.040  1.00  0.00    -0.354 N 
ATOM     60  N   UNL A   1      46.330  28.999  28.832  1.00  0.00    -0.248 NA
ATOM     61  C   UNL A   1      47.819  30.735  29.319  1.00  0.00     0.031 C 
ATOM     62  C   UNL A   1      47.564  24.848  27.870  1.00  0.00     0.029 A 
ATOM     63  C   UNL A   1      47.207  26.165  28.113  1.00  0.00     0.049 A 
ATOM     64  H   UNL A   1      45.287  27.033  28.191  1.00  0.00     0.167 HD
ATOM     65  C   UNL A   1      47.632  28.534  28.702  1.00  0.00     0.074 A 
ATOM     66  C   UNL A   1      48.509  29.649  28.994  1.00  0.00     0.031 C 
ATOM     67  C   UNL A   1      48.063  27.291  28.376  1.00  0.00     0.037 A 
BRANCH  54  68
ATOM     68  C   UNL A   1      43.523  23.301  27.122  1.00  0.00     0.058 A 
ATOM     69  C   UNL A   1      43.695  22.843  25.808  1.00  0.00     0.135 A 
ATOM     70  C   UNL A   1      42.977  22.416  28.064  1.00  0.00     0.135 A 
ATOM     71  F   UNL A   1      44.196  23.661  24.868  1.00  0.00    -0.206 F 
ATOM     72  C   UNL A   1      43.318  21.558  25.433  1.00  0.00     0.059 A 
ATOM     73  C   UNL A   1      42.606  21.121  27.715  1.00  0.00     0.059 A 
ATOM     74  F   UNL A   1      42.790  22.811  29.334  1.00  0.00    -0.206 F 
ATOM     75  C   UNL A   1      42.766  20.708  26.392  1.00  0.00     0.060 A 
BRANCH  75  76
ATOM     76  S   UNL A   1      42.267  19.041  25.903  1.00  0.00     0.124 S 
ATOM     77  O   UNL A   1      40.826  19.209  25.742  1.00  0.00    -0.237 OA
ATOM     78  O   UNL A   1      43.022  18.828  24.672  1.00  0.00    -0.237 OA
ATOM     79  O   UNL A   1      42.684  18.222  27.038  1.00  0.00    -0.744 OA
ENDBRANCH  75  76
ENDBRANCH  54  68
BRANCH  55  80
ATOM     80  C   UNL A   1      45.671  32.631  29.891  1.00  0.00     0.058 A 
ATOM     81  C   UNL A   1      45.942  32.897  31.240  1.00  0.00     0.135 A 
ATOM     82  C   UNL A   1      45.721  33.699  28.984  1.00  0.00     0.135 A 
ATOM     83  F   UNL A   1      45.901  31.904  32.140  1.00  0.00    -0.206 F 
ATOM     84  C   UNL A   1      46.237  34.181  31.683  1.00  0.00     0.059 A 
ATOM     85  C   UNL A   1      46.028  34.991  29.400  1.00  0.00     0.059 A 
ATOM     86  F   UNL A   1      45.485  33.487  27.680  1.00  0.00    -0.206 F 
ATOM     87  C   UNL A   1      46.273  35.224  30.755  1.00  0.00     0.060 A 
BRANCH  87  88
ATOM     88  S   UNL A   1      46.700  36.888  31.313  1.00  0.00     0.124 S 
ATOM     89  O   UNL A   1      46.984  37.555  30.048  1.00  0.00    -0.237 OA
ATOM     90  O   UNL A   1      45.487  37.315  32.002  1.00  0.00    -0.237 OA
ATOM     91  O   UNL A   1      47.851  36.654  32.181  1.00  0.00    -0.744 OA
ENDBRANCH  87  88
ENDBRANCH  55  80
BRANCH  67  92
ATOM     92  C   UNL A   1      49.544  27.085  28.279  1.00  0.00     0.058 A 
ATOM     93  C   UNL A   1      50.310  26.753  29.406  1.00  0.00     0.135 A 
ATOM     94  C   UNL A   1      50.195  27.187  27.042  1.00  0.00     0.135 A 
ATOM     95  F   UNL A   1      49.729  26.650  30.612  1.00  0.00    -0.206 F 
ATOM     96  C   UNL A   1      51.682  26.543  29.311  1.00  0.00     0.059 A 
ATOM     97  C   UNL A   1      51.564  26.973  26.922  1.00  0.00     0.059 A 
ATOM     98  F   UNL A   1      49.501  27.501  25.937  1.00  0.00    -0.206 F 
ATOM     99  C   UNL A   1      52.301  26.661  28.066  1.00  0.00     0.060 A 
BRANCH  99 100
ATOM    100  S   UNL A   1      54.077  26.361  27.935  1.00  0.00     0.124 S 
ATOM    101  O   UNL A   1      54.406  25.957  29.297  1.00  0.00    -0.237 OA
ATOM    102  O   UNL A   1      54.152  25.308  26.926  1.00  0.00    -0.237 OA
ATOM    103  O   UNL A   1      54.603  27.657  27.516  1.00  0.00    -0.744 OA
ENDBRANCH  99 100
ENDBRANCH  67  92
ENDBRANCH  41  42
ENDBRANCH  33  36
ENDBRANCH  31  32
ENDBRANCH   1  31
TORSDOF 17
ENDMDL
