MODEL 1
REMARK VINA RESULT:     -12.0      0.000      0.000
REMARK SMILES O=C(C[C@H](Cc1ccc(Cl)cc1)C(=O)Nc1cc(Cl)ccc1Cl)NCCCCNC(=O)c1ccc(-c2c3nc(c(-c4c(F)cc(S(=O)(=O)[O-])cc4F)c4ccc([nH]4)c(-c4c(F)cc(S(=O)(=O)[O-])cc4F)c4nc(c(-c5c(F)cc(S(=O)(=O)[O-])cc5F)c5ccc2[nH]5)C=C4)C=C3)cc1
REMARK SMILES IDX 26 1 25 2 24 3 1 4 2 5 3 7 4 8 13 9 14 10 15 11 16 13 17 14
REMARK SMILES IDX 22 15 18 16 21 17 23 18 19 19 20 20 5 21 6 22 7 23 12 24
REMARK SMILES IDX 8 25 11 26 9 27 10 28 27 29 28 30 29 31 30 32 31 34 32 35
REMARK SMILES IDX 33 36 97 37 34 38 96 39 35 40 36 41 37 42 90 43 38 44 95 45
REMARK SMILES IDX 89 46 91 47 39 48 94 49 88 50 87 51 40 53 74 54 53 55 73 56
REMARK SMILES IDX 54 57 57 58 72 59 92 60 55 61 56 62 71 64 93 65 58 66 41 67
REMARK SMILES IDX 42 68 51 69 43 70 44 71 50 72 52 73 45 74 46 75 47 76 48 77
REMARK SMILES IDX 49 78 75 79 76 80 85 81 77 82 78 83 84 84 86 85 79 86 80 87
REMARK SMILES IDX 81 88 82 89 83 90 59 91 60 92 69 93 61 94 62 95 68 96 70 97
REMARK SMILES IDX 63 98 64 99 65 100 66 101 67 102
REMARK H PARENT 24 6 15 12 29 33 91 52 57 63
REMARK Flexibility Score: inf
ROOT
ATOM      1  C   UNL A   1      38.460  23.388  26.224  1.00  0.00     0.023 C 
ENDROOT
BRANCH   1   2
ATOM      2  C   UNL A   1      37.313  22.612  25.581  1.00  0.00     0.116 C 
BRANCH   2   3
ATOM      3  N   UNL A   1      36.130  23.433  25.414  1.00  0.00    -0.356 N 
ATOM      4  O   UNL A   1      36.345  23.545  23.147  1.00  0.00    -0.275 OA
ATOM      5  C   UNL A   1      35.724  23.828  24.169  1.00  0.00     0.220 C 
ATOM      6  H   UNL A   1      35.611  23.708  26.205  1.00  0.00     0.163 HD
BRANCH   5   7
ATOM      7  C   UNL A   1      34.497  24.706  24.124  1.00  0.00     0.113 C 
BRANCH   7   8
ATOM      8  C   UNL A   1      33.379  24.362  23.111  1.00  0.00     0.092 C 
BRANCH   8   9
ATOM      9  C   UNL A   1      33.146  25.720  22.267  1.00  0.00     0.228 C 
ATOM     10  O   UNL A   1      33.695  25.828  21.164  1.00  0.00    -0.274 OA
ATOM     11  N   UNL A   1      32.216  26.706  22.632  1.00  0.00    -0.324 N 
ATOM     12  H   UNL A   1      31.694  27.133  21.915  1.00  0.00     0.169 HD
BRANCH  11  13
ATOM     13  C   UNL A   1      31.982  27.123  23.953  1.00  0.00     0.061 A 
ATOM     14  C   UNL A   1      32.785  28.619  24.284  1.00  0.00     0.048 A 
ATOM     15  C   UNL A   1      31.218  26.309  25.295  1.00  0.00     0.064 A 
ATOM     16  C   UNL A   1      32.981  29.360  26.148  1.00  0.00     0.043 A 
ATOM     17  C   UNL A   1      31.293  26.910  26.992  1.00  0.00     0.024 A 
ATOM     18  Cl  UNL A   1      30.470  24.780  25.016  1.00  0.00    -0.082 Cl
ATOM     19  Cl  UNL A   1      33.768  30.778  26.928  1.00  0.00    -0.084 Cl
ATOM     20  C   UNL A   1      32.155  28.408  27.460  1.00  0.00     0.022 A 
ENDBRANCH  11  13
ENDBRANCH   8   9
BRANCH   8  21
ATOM     21  C   UNL A   1      33.262  22.833  22.514  1.00  0.00     0.049 C 
BRANCH  21  22
ATOM     22  C   UNL A   1      32.163  21.747  23.128  1.00  0.00    -0.047 A 
ATOM     23  C   UNL A   1      32.804  21.447  24.721  1.00  0.00     0.005 A 
ATOM     24  C   UNL A   1      31.828  20.428  21.938  1.00  0.00     0.005 A 
ATOM     25  C   UNL A   1      33.496  19.847  25.060  1.00  0.00     0.021 A 
ATOM     26  C   UNL A   1      32.390  18.753  22.178  1.00  0.00     0.021 A 
ATOM     27  C   UNL A   1      33.309  18.358  23.698  1.00  0.00     0.041 A 
ATOM     28  Cl  UNL A   1      33.811  16.622  23.497  1.00  0.00    -0.084 Cl
ENDBRANCH  21  22
ENDBRANCH   8  21
ENDBRANCH   7   8
ENDBRANCH   5   7
ENDBRANCH   2   3
ENDBRANCH   1   2
BRANCH   1  29
ATOM     29  C   UNL A   1      39.600  22.507  26.735  1.00  0.00     0.023 C 
BRANCH  29  30
ATOM     30  C   UNL A   1      40.868  23.263  27.108  1.00  0.00     0.116 C 
BRANCH  30  31
ATOM     31  N   UNL A   1      41.316  24.156  26.051  1.00  0.00    -0.352 N 
ATOM     32  C   UNL A   1      41.466  25.522  26.081  1.00  0.00     0.251 C 
ATOM     33  H   UNL A   1      41.544  23.722  25.198  1.00  0.00     0.163 HD
ATOM     34  O   UNL A   1      41.676  26.137  25.040  1.00  0.00    -0.269 OA
BRANCH  32  35
ATOM     35  C   UNL A   1      41.341  26.245  27.365  1.00  0.00     0.039 A 
ATOM     36  C   UNL A   1      42.386  27.071  27.780  1.00  0.00     0.014 A 
ATOM     37  C   UNL A   1      40.187  26.126  28.146  1.00  0.00     0.014 A 
ATOM     38  C   UNL A   1      42.246  27.827  28.945  1.00  0.00     0.010 A 
ATOM     39  C   UNL A   1      40.012  26.952  29.252  1.00  0.00     0.010 A 
ATOM     40  C   UNL A   1      41.041  27.810  29.668  1.00  0.00    -0.014 A 
BRANCH  40  41
ATOM     41  C   UNL A   1      40.843  28.686  30.852  1.00  0.00     0.031 A 
ATOM     42  C   UNL A   1      39.795  29.768  30.833  1.00  0.00     0.074 A 
ATOM     43  C   UNL A   1      41.638  28.538  31.932  1.00  0.00     0.049 A 
ATOM     44  N   UNL A   1      39.507  30.652  31.752  1.00  0.00    -0.248 NA
ATOM     45  C   UNL A   1      38.977  29.883  29.614  1.00  0.00     0.031 C 
ATOM     46  C   UNL A   1      42.718  27.556  32.057  1.00  0.00     0.029 A 
ATOM     47  N   UNL A   1      41.668  29.213  33.127  1.00  0.00    -0.354 N 
ATOM     48  C   UNL A   1      38.481  31.427  31.225  1.00  0.00     0.074 A 
ATOM     49  C   UNL A   1      38.242  30.952  29.880  1.00  0.00     0.031 C 
ATOM     50  C   UNL A   1      43.281  27.671  33.269  1.00  0.00     0.029 A 
ATOM     51  C   UNL A   1      42.647  28.771  33.988  1.00  0.00     0.049 A 
ATOM     52  H   UNL A   1      41.047  29.944  33.349  1.00  0.00     0.167 HD
ATOM     53  C   UNL A   1      37.781  32.425  31.817  1.00  0.00     0.037 A 
ATOM     54  C   UNL A   1      43.009  29.213  35.209  1.00  0.00     0.037 A 
ATOM     55  C   UNL A   1      38.029  32.894  33.158  1.00  0.00     0.049 A 
ATOM     56  C   UNL A   1      42.252  30.358  35.825  1.00  0.00     0.074 A 
ATOM     57  C   UNL A   1      37.353  33.876  33.860  1.00  0.00     0.029 A 
ATOM     58  N   UNL A   1      39.034  32.428  33.992  1.00  0.00    -0.354 N 
ATOM     59  N   UNL A   1      41.241  31.037  35.337  1.00  0.00    -0.248 NA
ATOM     60  C   UNL A   1      42.678  30.795  37.162  1.00  0.00     0.031 C 
ATOM     61  C   UNL A   1      37.997  34.058  35.087  1.00  0.00     0.029 A 
ATOM     62  C   UNL A   1      39.019  33.128  35.189  1.00  0.00     0.049 A 
ATOM     63  H   UNL A   1      39.666  31.707  33.767  1.00  0.00     0.167 HD
ATOM     64  C   UNL A   1      40.890  31.957  36.319  1.00  0.00     0.074 A 
ATOM     65  C   UNL A   1      41.785  31.736  37.435  1.00  0.00     0.031 C 
ATOM     66  C   UNL A   1      39.912  32.897  36.299  1.00  0.00     0.037 A 
BRANCH  53  67
ATOM     67  C   UNL A   1      36.688  33.087  31.019  1.00  0.00     0.058 A 
ATOM     68  C   UNL A   1      36.970  34.002  29.991  1.00  0.00     0.135 A 
ATOM     69  C   UNL A   1      35.340  32.767  31.252  1.00  0.00     0.135 A 
ATOM     70  F   UNL A   1      38.238  34.359  29.730  1.00  0.00    -0.206 F 
ATOM     71  C   UNL A   1      35.957  34.598  29.246  1.00  0.00     0.059 A 
ATOM     72  C   UNL A   1      34.313  33.320  30.492  1.00  0.00     0.059 A 
ATOM     73  F   UNL A   1      35.009  31.899  32.221  1.00  0.00    -0.206 F 
ATOM     74  C   UNL A   1      34.632  34.246  29.502  1.00  0.00     0.060 A 
BRANCH  74  75
ATOM     75  S   UNL A   1      33.334  35.017  28.513  1.00  0.00     0.124 S 
ATOM     76  O   UNL A   1      32.710  33.853  27.890  1.00  0.00    -0.237 OA
ATOM     77  O   UNL A   1      32.535  35.697  29.528  1.00  0.00    -0.237 OA
ATOM     78  O   UNL A   1      34.069  35.893  27.606  1.00  0.00    -0.744 OA
ENDBRANCH  74  75
ENDBRANCH  53  67
BRANCH  54  79
ATOM     79  C   UNL A   1      44.150  28.575  35.926  1.00  0.00     0.058 A 
ATOM     80  C   UNL A   1      45.461  29.054  35.786  1.00  0.00     0.135 A 
ATOM     81  C   UNL A   1      43.948  27.469  36.766  1.00  0.00     0.135 A 
ATOM     82  F   UNL A   1      45.712  30.104  34.989  1.00  0.00    -0.206 F 
ATOM     83  C   UNL A   1      46.533  28.447  36.435  1.00  0.00     0.059 A 
ATOM     84  C   UNL A   1      44.997  26.869  37.454  1.00  0.00     0.059 A 
ATOM     85  F   UNL A   1      42.711  26.977  36.948  1.00  0.00    -0.206 F 
ATOM     86  C   UNL A   1      46.289  27.358  37.273  1.00  0.00     0.060 A 
BRANCH  86  87
ATOM     87  S   UNL A   1      47.679  26.610  38.147  1.00  0.00     0.124 S 
ATOM     88  O   UNL A   1      48.814  27.098  37.372  1.00  0.00    -0.237 OA
ATOM     89  O   UNL A   1      47.531  27.172  39.487  1.00  0.00    -0.237 OA
ATOM     90  O   UNL A   1      47.413  25.179  38.043  1.00  0.00    -0.744 OA
ENDBRANCH  86  87
ENDBRANCH  54  79
BRANCH  66  91
ATOM     91  C   UNL A   1      39.717  33.731  37.539  1.00  0.00     0.058 A 
ATOM     92  C   UNL A   1      38.872  33.331  38.586  1.00  0.00     0.135 A 
ATOM     93  C   UNL A   1      40.435  34.929  37.704  1.00  0.00     0.135 A 
ATOM     94  F   UNL A   1      38.157  32.199  38.484  1.00  0.00    -0.206 F 
ATOM     95  C   UNL A   1      38.720  34.102  39.735  1.00  0.00     0.059 A 
ATOM     96  C   UNL A   1      40.331  35.693  38.861  1.00  0.00     0.059 A 
ATOM     97  F   UNL A   1      41.267  35.358  36.741  1.00  0.00    -0.206 F 
ATOM     98  C   UNL A   1      39.462  35.278  39.866  1.00  0.00     0.060 A 
BRANCH  98  99
ATOM     99  S   UNL A   1      39.284  36.244  41.380  1.00  0.00     0.124 S 
ATOM    100  O   UNL A   1      38.020  35.740  41.907  1.00  0.00    -0.237 OA
ATOM    101  O   UNL A   1      40.479  35.867  42.129  1.00  0.00    -0.237 OA
ATOM    102  O   UNL A   1      39.259  37.624  40.903  1.00  0.00    -0.744 OA
ENDBRANCH  98  99
ENDBRANCH  66  91
ENDBRANCH  40  41
ENDBRANCH  32  35
ENDBRANCH  30  31
ENDBRANCH  29  30
ENDBRANCH   1  29
TORSDOF 19
ENDMDL
MODEL 2
REMARK VINA RESULT:     -12.0      0.627      8.064
REMARK SMILES O=C(C[C@H](Cc1ccc(Cl)cc1)C(=O)Nc1cc(Cl)ccc1Cl)NCCCCNC(=O)c1ccc(-c2c3nc(c(-c4c(F)cc(S(=O)(=O)[O-])cc4F)c4ccc([nH]4)c(-c4c(F)cc(S(=O)(=O)[O-])cc4F)c4nc(c(-c5c(F)cc(S(=O)(=O)[O-])cc5F)c5ccc2[nH]5)C=C4)C=C3)cc1
REMARK SMILES IDX 26 1 25 2 24 3 1 4 2 5 3 7 4 8 13 9 14 10 15 11 16 13 17 14
REMARK SMILES IDX 22 15 18 16 21 17 23 18 19 19 20 20 5 21 6 22 7 23 12 24
REMARK SMILES IDX 8 25 11 26 9 27 10 28 27 29 28 30 29 31 30 32 31 34 32 35
REMARK SMILES IDX 33 36 97 37 34 38 96 39 35 40 36 41 37 42 90 43 38 44 95 45
REMARK SMILES IDX 89 46 91 47 39 48 94 49 88 50 87 51 40 53 74 54 53 55 73 56
REMARK SMILES IDX 54 57 57 58 72 59 92 60 55 61 56 62 71 64 93 65 58 66 41 67
REMARK SMILES IDX 42 68 51 69 43 70 44 71 50 72 52 73 45 74 46 75 47 76 48 77
REMARK SMILES IDX 49 78 75 79 76 80 85 81 77 82 78 83 84 84 86 85 79 86 80 87
REMARK SMILES IDX 81 88 82 89 83 90 59 91 60 92 69 93 61 94 62 95 68 96 70 97
REMARK SMILES IDX 63 98 64 99 65 100 66 101 67 102
REMARK H PARENT 24 6 15 12 29 33 91 52 57 63
REMARK Flexibility Score: inf
ROOT
ATOM      1  C   UNL A   1      38.475  23.222  26.193  1.00  0.00     0.023 C 
ENDROOT
BRANCH   1   2
ATOM      2  C   UNL A   1      37.453  22.455  25.356  1.00  0.00     0.116 C 
BRANCH   2   3
ATOM      3  N   UNL A   1      36.253  23.233  25.119  1.00  0.00    -0.356 N 
ATOM      4  O   UNL A   1      36.664  23.463  22.888  1.00  0.00    -0.275 OA
ATOM      5  C   UNL A   1      35.942  23.670  23.860  1.00  0.00     0.220 C 
ATOM      6  H   UNL A   1      35.655  23.448  25.871  1.00  0.00     0.163 HD
BRANCH   5   7
ATOM      7  C   UNL A   1      34.686  24.498  23.743  1.00  0.00     0.113 C 
BRANCH   7   8
ATOM      8  C   UNL A   1      33.455  23.876  23.041  1.00  0.00     0.092 C 
BRANCH   8   9
ATOM      9  C   UNL A   1      32.873  25.052  22.097  1.00  0.00     0.228 C 
ATOM     10  O   UNL A   1      33.313  25.154  20.946  1.00  0.00    -0.274 OA
ATOM     11  N   UNL A   1      31.771  25.849  22.447  1.00  0.00    -0.324 N 
ATOM     12  H   UNL A   1      31.123  26.073  21.740  1.00  0.00     0.169 HD
BRANCH  11  13
ATOM     13  C   UNL A   1      31.533  26.348  23.739  1.00  0.00     0.061 A 
ATOM     14  C   UNL A   1      32.033  27.999  23.868  1.00  0.00     0.048 A 
ATOM     15  C   UNL A   1      31.030  25.546  25.204  1.00  0.00     0.064 A 
ATOM     16  C   UNL A   1      32.180  28.956  25.636  1.00  0.00     0.043 A 
ATOM     17  C   UNL A   1      31.079  26.325  26.828  1.00  0.00     0.024 A 
ATOM     18  Cl  UNL A   1      30.595  23.878  25.125  1.00  0.00    -0.082 Cl
ATOM     19  Cl  UNL A   1      32.706  30.575  26.219  1.00  0.00    -0.084 Cl
ATOM     20  C   UNL A   1      31.643  28.004  27.089  1.00  0.00     0.022 A 
ENDBRANCH  11  13
ENDBRANCH   8   9
BRANCH   8  21
ATOM     21  C   UNL A   1      33.444  22.270  22.684  1.00  0.00     0.049 C 
BRANCH  21  22
ATOM     22  C   UNL A   1      32.176  21.293  23.136  1.00  0.00    -0.047 A 
ATOM     23  C   UNL A   1      32.475  21.083  24.842  1.00  0.00     0.005 A 
ATOM     24  C   UNL A   1      31.993  19.905  21.992  1.00  0.00     0.005 A 
ATOM     25  C   UNL A   1      32.980  19.480  25.414  1.00  0.00     0.021 A 
ATOM     26  C   UNL A   1      32.387  18.227  22.448  1.00  0.00     0.021 A 
ATOM     27  C   UNL A   1      32.964  17.903  24.142  1.00  0.00     0.041 A 
ATOM     28  Cl  UNL A   1      33.380  16.132  24.158  1.00  0.00    -0.084 Cl
ENDBRANCH  21  22
ENDBRANCH   8  21
ENDBRANCH   7   8
ENDBRANCH   5   7
ENDBRANCH   2   3
ENDBRANCH   1   2
BRANCH   1  29
ATOM     29  C   UNL A   1      39.508  22.332  26.883  1.00  0.00     0.023 C 
BRANCH  29  30
ATOM     30  C   UNL A   1      40.829  23.022  27.199  1.00  0.00     0.116 C 
BRANCH  30  31
ATOM     31  N   UNL A   1      41.316  23.827  26.090  1.00  0.00    -0.352 N 
ATOM     32  C   UNL A   1      41.531  25.183  26.037  1.00  0.00     0.251 C 
ATOM     33  H   UNL A   1      41.521  23.332  25.264  1.00  0.00     0.163 HD
ATOM     34  O   UNL A   1      41.768  25.724  24.961  1.00  0.00    -0.269 OA
BRANCH  32  35
ATOM     35  C   UNL A   1      41.446  25.987  27.276  1.00  0.00     0.039 A 
ATOM     36  C   UNL A   1      42.459  26.904  27.559  1.00  0.00     0.014 A 
ATOM     37  C   UNL A   1      40.357  25.854  28.143  1.00  0.00     0.014 A 
ATOM     38  C   UNL A   1      42.348  27.731  28.678  1.00  0.00     0.010 A 
ATOM     39  C   UNL A   1      40.202  26.745  29.201  1.00  0.00     0.010 A 
ATOM     40  C   UNL A   1      41.198  27.692  29.484  1.00  0.00    -0.014 A 
BRANCH  40  41
ATOM     41  C   UNL A   1      41.022  28.637  30.618  1.00  0.00     0.031 A 
ATOM     42  C   UNL A   1      41.882  28.518  31.849  1.00  0.00     0.074 A 
ATOM     43  C   UNL A   1      40.057  29.578  30.559  1.00  0.00     0.049 A 
ATOM     44  N   UNL A   1      41.846  29.222  32.951  1.00  0.00    -0.248 NA
ATOM     45  C   UNL A   1      42.902  27.457  31.851  1.00  0.00     0.031 C 
ATOM     46  C   UNL A   1      39.130  29.767  29.440  1.00  0.00     0.029 A 
ATOM     47  N   UNL A   1      39.688  30.547  31.459  1.00  0.00    -0.354 N 
ATOM     48  C   UNL A   1      42.832  28.691  33.773  1.00  0.00     0.074 A 
ATOM     49  C   UNL A   1      43.403  27.563  33.072  1.00  0.00     0.031 C 
ATOM     50  C   UNL A   1      38.325  30.806  29.707  1.00  0.00     0.029 A 
ATOM     51  C   UNL A   1      38.631  31.321  31.037  1.00  0.00     0.049 A 
ATOM     52  H   UNL A   1      40.137  30.676  32.326  1.00  0.00     0.167 HD
ATOM     53  C   UNL A   1      43.243  29.121  34.991  1.00  0.00     0.037 A 
ATOM     54  C   UNL A   1      37.970  32.319  31.656  1.00  0.00     0.037 A 
ATOM     55  C   UNL A   1      42.665  30.245  35.683  1.00  0.00     0.049 A 
ATOM     56  C   UNL A   1      38.411  32.745  33.031  1.00  0.00     0.074 A 
ATOM     57  C   UNL A   1      43.034  30.780  36.905  1.00  0.00     0.029 A 
ATOM     58  N   UNL A   1      41.592  30.996  35.227  1.00  0.00    -0.354 N 
ATOM     59  N   UNL A   1      39.388  32.272  33.767  1.00  0.00    -0.248 NA
ATOM     60  C   UNL A   1      37.665  33.844  33.658  1.00  0.00     0.031 C 
ATOM     61  C   UNL A   1      42.136  31.804  37.223  1.00  0.00     0.029 A 
ATOM     62  C   UNL A   1      41.262  31.968  36.160  1.00  0.00     0.049 A 
ATOM     63  H   UNL A   1      41.131  30.859  34.368  1.00  0.00     0.167 HD
ATOM     64  C   UNL A   1      39.396  33.038  34.928  1.00  0.00     0.074 A 
ATOM     65  C   UNL A   1      38.336  34.015  34.788  1.00  0.00     0.031 C 
ATOM     66  C   UNL A   1      40.209  32.942  36.010  1.00  0.00     0.037 A 
BRANCH  53  67
ATOM     67  C   UNL A   1      44.366  28.370  35.660  1.00  0.00     0.058 A 
ATOM     68  C   UNL A   1      44.123  27.290  36.525  1.00  0.00     0.135 A 
ATOM     69  C   UNL A   1      45.705  28.703  35.394  1.00  0.00     0.135 A 
ATOM     70  F   UNL A   1      42.864  26.933  36.827  1.00  0.00    -0.206 F 
ATOM     71  C   UNL A   1      45.163  26.589  37.127  1.00  0.00     0.059 A 
ATOM     72  C   UNL A   1      46.761  27.990  35.954  1.00  0.00     0.059 A 
ATOM     73  F   UNL A   1      45.999  29.725  34.576  1.00  0.00    -0.206 F 
ATOM     74  C   UNL A   1      46.480  26.944  36.830  1.00  0.00     0.060 A 
BRANCH  74  75
ATOM     75  S   UNL A   1      47.815  26.012  37.608  1.00  0.00     0.124 S 
ATOM     76  O   UNL A   1      48.691  25.751  36.469  1.00  0.00    -0.237 OA
ATOM     77  O   UNL A   1      48.322  26.962  38.593  1.00  0.00    -0.237 OA
ATOM     78  O   UNL A   1      47.140  24.842  38.159  1.00  0.00    -0.744 OA
ENDBRANCH  74  75
ENDBRANCH  53  67
BRANCH  54  79
ATOM     79  C   UNL A   1      36.815  32.979  30.984  1.00  0.00     0.058 A 
ATOM     80  C   UNL A   1      36.996  33.812  29.869  1.00  0.00     0.135 A 
ATOM     81  C   UNL A   1      35.503  32.790  31.448  1.00  0.00     0.135 A 
ATOM     82  F   UNL A   1      38.229  34.034  29.390  1.00  0.00    -0.206 F 
ATOM     83  C   UNL A   1      35.923  34.450  29.253  1.00  0.00     0.059 A 
ATOM     84  C   UNL A   1      34.412  33.386  30.827  1.00  0.00     0.059 A 
ATOM     85  F   UNL A   1      35.270  31.992  32.503  1.00  0.00    -0.206 F 
ATOM     86  C   UNL A   1      34.633  34.225  29.736  1.00  0.00     0.060 A 
BRANCH  86  87
ATOM     87  S   UNL A   1      33.245  35.018  28.898  1.00  0.00     0.124 S 
ATOM     88  O   UNL A   1      32.368  35.340  30.018  1.00  0.00    -0.237 OA
ATOM     89  O   UNL A   1      33.893  36.152  28.247  1.00  0.00    -0.237 OA
ATOM     90  O   UNL A   1      32.758  33.980  27.995  1.00  0.00    -0.744 OA
ENDBRANCH  86  87
ENDBRANCH  54  79
BRANCH  66  91
ATOM     91  C   UNL A   1      40.024  33.950  37.115  1.00  0.00     0.058 A 
ATOM     92  C   UNL A   1      40.555  35.248  37.041  1.00  0.00     0.135 A 
ATOM     93  C   UNL A   1      39.255  33.626  38.246  1.00  0.00     0.135 A 
ATOM     94  F   UNL A   1      41.302  35.614  35.988  1.00  0.00    -0.206 F 
ATOM     95  C   UNL A   1      40.357  36.175  38.060  1.00  0.00     0.059 A 
ATOM     96  C   UNL A   1      39.009  34.549  39.255  1.00  0.00     0.059 A 
ATOM     97  F   UNL A   1      38.713  32.403  38.368  1.00  0.00    -0.206 F 
ATOM     98  C   UNL A   1      39.575  35.818  39.160  1.00  0.00     0.060 A 
BRANCH  98  99
ATOM     99  S   UNL A   1      39.294  37.046  40.453  1.00  0.00     0.124 S 
ATOM    100  O   UNL A   1      38.460  36.303  41.392  1.00  0.00    -0.237 OA
ATOM    101  O   UNL A   1      40.653  37.335  40.902  1.00  0.00    -0.237 OA
ATOM    102  O   UNL A   1      38.627  38.136  39.748  1.00  0.00    -0.744 OA
ENDBRANCH  98  99
ENDBRANCH  66  91
ENDBRANCH  40  41
ENDBRANCH  32  35
ENDBRANCH  30  31
ENDBRANCH  29  30
ENDBRANCH   1  29
TORSDOF 19
ENDMDL
MODEL 3
REMARK VINA RESULT:     -11.8      5.946     10.563
REMARK SMILES O=C(C[C@H](Cc1ccc(Cl)cc1)C(=O)Nc1cc(Cl)ccc1Cl)NCCCCNC(=O)c1ccc(-c2c3nc(c(-c4c(F)cc(S(=O)(=O)[O-])cc4F)c4ccc([nH]4)c(-c4c(F)cc(S(=O)(=O)[O-])cc4F)c4nc(c(-c5c(F)cc(S(=O)(=O)[O-])cc5F)c5ccc2[nH]5)C=C4)C=C3)cc1
REMARK SMILES IDX 26 1 25 2 24 3 1 4 2 5 3 7 4 8 13 9 14 10 15 11 16 13 17 14
REMARK SMILES IDX 22 15 18 16 21 17 23 18 19 19 20 20 5 21 6 22 7 23 12 24
REMARK SMILES IDX 8 25 11 26 9 27 10 28 27 29 28 30 29 31 30 32 31 34 32 35
REMARK SMILES IDX 33 36 97 37 34 38 96 39 35 40 36 41 37 42 90 43 38 44 95 45
REMARK SMILES IDX 89 46 91 47 39 48 94 49 88 50 87 51 40 53 74 54 53 55 73 56
REMARK SMILES IDX 54 57 57 58 72 59 92 60 55 61 56 62 71 64 93 65 58 66 41 67
REMARK SMILES IDX 42 68 51 69 43 70 44 71 50 72 52 73 45 74 46 75 47 76 48 77
REMARK SMILES IDX 49 78 75 79 76 80 85 81 77 82 78 83 84 84 86 85 79 86 80 87
REMARK SMILES IDX 81 88 82 89 83 90 59 91 60 92 69 93 61 94 62 95 68 96 70 97
REMARK SMILES IDX 63 98 64 99 65 100 66 101 67 102
REMARK H PARENT 24 6 15 12 29 33 91 52 57 63
REMARK Flexibility Score: inf
ROOT
ATOM      1  C   UNL A   1      38.167  22.752  25.987  1.00  0.00     0.023 C 
ENDROOT
BRANCH   1   2
ATOM      2  C   UNL A   1      36.970  22.076  25.321  1.00  0.00     0.116 C 
BRANCH   2   3
ATOM      3  N   UNL A   1      35.905  23.017  25.037  1.00  0.00    -0.356 N 
ATOM      4  O   UNL A   1      36.506  23.269  22.853  1.00  0.00    -0.275 OA
ATOM      5  C   UNL A   1      35.748  23.537  23.782  1.00  0.00     0.220 C 
ATOM      6  H   UNL A   1      35.286  23.284  25.756  1.00  0.00     0.163 HD
BRANCH   5   7
ATOM      7  C   UNL A   1      34.624  24.531  23.616  1.00  0.00     0.113 C 
BRANCH   7   8
ATOM      8  C   UNL A   1      33.374  24.104  22.812  1.00  0.00     0.092 C 
BRANCH   8   9
ATOM      9  C   UNL A   1      32.931  25.425  21.992  1.00  0.00     0.228 C 
ATOM     10  O   UNL A   1      33.404  25.603  20.863  1.00  0.00    -0.274 OA
ATOM     11  N   UNL A   1      31.907  26.288  22.413  1.00  0.00    -0.324 N 
ATOM     12  H   UNL A   1      31.300  26.649  21.728  1.00  0.00     0.169 HD
BRANCH  11  13
ATOM     13  C   UNL A   1      31.692  26.669  23.749  1.00  0.00     0.061 A 
ATOM     14  C   UNL A   1      32.297  28.263  24.043  1.00  0.00     0.048 A 
ATOM     15  C   UNL A   1      31.127  25.759  25.126  1.00  0.00     0.064 A 
ATOM     16  C   UNL A   1      32.493  29.027  25.899  1.00  0.00     0.043 A 
ATOM     17  C   UNL A   1      31.214  26.367  26.820  1.00  0.00     0.024 A 
ATOM     18  Cl  UNL A   1      30.586  24.140  24.879  1.00  0.00    -0.082 Cl
ATOM     19  Cl  UNL A   1      33.118  30.542  26.643  1.00  0.00    -0.084 Cl
ATOM     20  C   UNL A   1      31.884  27.971  27.249  1.00  0.00     0.022 A 
ENDBRANCH  11  13
ENDBRANCH   8   9
BRANCH   8  21
ATOM     21  C   UNL A   1      33.240  22.556  22.271  1.00  0.00     0.049 C 
BRANCH  21  22
ATOM     22  C   UNL A   1      32.170  21.488  22.964  1.00  0.00    -0.047 A 
ATOM     23  C   UNL A   1      32.861  21.265  24.551  1.00  0.00     0.005 A 
ATOM     24  C   UNL A   1      31.817  20.113  21.845  1.00  0.00     0.005 A 
ATOM     25  C   UNL A   1      33.579  19.689  24.940  1.00  0.00     0.021 A 
ATOM     26  C   UNL A   1      32.404  18.456  22.143  1.00  0.00     0.021 A 
ATOM     27  C   UNL A   1      33.370  18.139  23.652  1.00  0.00     0.041 A 
ATOM     28  Cl  UNL A   1      33.885  16.400  23.513  1.00  0.00    -0.084 Cl
ENDBRANCH  21  22
ENDBRANCH   8  21
ENDBRANCH   7   8
ENDBRANCH   5   7
ENDBRANCH   2   3
ENDBRANCH   1   2
BRANCH   1  29
ATOM     29  C   UNL A   1      39.229  21.779  26.496  1.00  0.00     0.023 C 
BRANCH  29  30
ATOM     30  C   UNL A   1      39.633  20.701  25.499  1.00  0.00     0.116 C 
BRANCH  30  31
ATOM     31  N   UNL A   1      40.405  19.633  26.114  1.00  0.00    -0.352 N 
ATOM     32  C   UNL A   1      41.662  19.686  26.668  1.00  0.00     0.251 C 
ATOM     33  H   UNL A   1      39.966  18.753  26.139  1.00  0.00     0.163 HD
ATOM     34  O   UNL A   1      42.239  18.647  26.975  1.00  0.00    -0.269 OA
BRANCH  32  35
ATOM     35  C   UNL A   1      42.324  20.995  26.860  1.00  0.00     0.039 A 
ATOM     36  C   UNL A   1      42.718  21.724  25.738  1.00  0.00     0.014 A 
ATOM     37  C   UNL A   1      42.533  21.510  28.142  1.00  0.00     0.014 A 
ATOM     38  C   UNL A   1      43.264  22.999  25.901  1.00  0.00     0.010 A 
ATOM     39  C   UNL A   1      42.986  22.817  28.297  1.00  0.00     0.010 A 
ATOM     40  C   UNL A   1      43.361  23.576  27.178  1.00  0.00    -0.014 A 
BRANCH  40  41
ATOM     41  C   UNL A   1      43.846  24.970  27.356  1.00  0.00     0.031 A 
ATOM     42  C   UNL A   1      45.297  25.307  27.130  1.00  0.00     0.074 A 
ATOM     43  C   UNL A   1      42.988  25.928  27.764  1.00  0.00     0.049 A 
ATOM     44  N   UNL A   1      45.909  26.453  27.276  1.00  0.00    -0.248 NA
ATOM     45  C   UNL A   1      46.178  24.208  26.703  1.00  0.00     0.031 C 
ATOM     46  C   UNL A   1      41.568  25.719  28.058  1.00  0.00     0.029 A 
ATOM     47  N   UNL A   1      43.181  27.265  28.009  1.00  0.00    -0.354 N 
ATOM     48  C   UNL A   1      47.241  26.215  26.962  1.00  0.00     0.074 A 
ATOM     49  C   UNL A   1      47.363  24.802  26.684  1.00  0.00     0.031 C 
ATOM     50  C   UNL A   1      41.015  26.888  28.411  1.00  0.00     0.029 A 
ATOM     51  C   UNL A   1      42.047  27.920  28.430  1.00  0.00     0.049 A 
ATOM     52  H   UNL A   1      44.051  27.713  27.895  1.00  0.00     0.167 HD
ATOM     53  C   UNL A   1      48.266  27.099  26.886  1.00  0.00     0.037 A 
ATOM     54  C   UNL A   1      41.859  29.201  28.806  1.00  0.00     0.037 A 
ATOM     55  C   UNL A   1      48.136  28.506  27.169  1.00  0.00     0.049 A 
ATOM     56  C   UNL A   1      43.024  30.152  28.764  1.00  0.00     0.074 A 
ATOM     57  C   UNL A   1      49.106  29.489  27.087  1.00  0.00     0.029 A 
ATOM     58  N   UNL A   1      46.974  29.128  27.600  1.00  0.00    -0.354 N 
ATOM     59  N   UNL A   1      44.264  29.922  28.403  1.00  0.00    -0.248 NA
ATOM     60  C   UNL A   1      42.766  31.539  29.173  1.00  0.00     0.031 C 
ATOM     61  C   UNL A   1      48.552  30.689  27.543  1.00  0.00     0.029 A 
ATOM     62  C   UNL A   1      47.212  30.476  27.823  1.00  0.00     0.049 A 
ATOM     63  H   UNL A   1      46.107  28.679  27.729  1.00  0.00     0.167 HD
ATOM     64  C   UNL A   1      44.925  31.142  28.509  1.00  0.00     0.074 A 
ATOM     65  C   UNL A   1      43.942  32.109  28.952  1.00  0.00     0.031 C 
ATOM     66  C   UNL A   1      46.226  31.435  28.259  1.00  0.00     0.037 A 
BRANCH  53  67
ATOM     67  C   UNL A   1      49.621  26.571  26.491  1.00  0.00     0.058 A 
ATOM     68  C   UNL A   1      50.498  26.001  27.430  1.00  0.00     0.135 A 
ATOM     69  C   UNL A   1      50.031  26.592  25.147  1.00  0.00     0.135 A 
ATOM     70  F   UNL A   1      50.168  25.965  28.731  1.00  0.00    -0.206 F 
ATOM     71  C   UNL A   1      51.741  25.501  27.057  1.00  0.00     0.059 A 
ATOM     72  C   UNL A   1      51.254  26.060  24.746  1.00  0.00     0.059 A 
ATOM     73  F   UNL A   1      49.237  27.123  24.206  1.00  0.00    -0.206 F 
ATOM     74  C   UNL A   1      52.107  25.530  25.711  1.00  0.00     0.060 A 
BRANCH  74  75
ATOM     75  S   UNL A   1      53.717  24.861  25.246  1.00  0.00     0.124 S 
ATOM     76  O   UNL A   1      53.997  25.600  24.018  1.00  0.00    -0.237 OA
ATOM     77  O   UNL A   1      54.542  25.210  26.398  1.00  0.00    -0.237 OA
ATOM     78  O   UNL A   1      53.458  23.435  25.073  1.00  0.00    -0.744 OA
ENDBRANCH  74  75
ENDBRANCH  53  67
BRANCH  54  79
ATOM     79  C   UNL A   1      40.516  29.656  29.264  1.00  0.00     0.058 A 
ATOM     80  C   UNL A   1      39.458  29.837  28.361  1.00  0.00     0.135 A 
ATOM     81  C   UNL A   1      40.265  29.921  30.620  1.00  0.00     0.135 A 
ATOM     82  F   UNL A   1      39.645  29.606  27.052  1.00  0.00    -0.206 F 
ATOM     83  C   UNL A   1      38.208  30.285  28.780  1.00  0.00     0.059 A 
ATOM     84  C   UNL A   1      39.015  30.333  31.068  1.00  0.00     0.059 A 
ATOM     85  F   UNL A   1      41.238  29.751  31.531  1.00  0.00    -0.206 F 
ATOM     86  C   UNL A   1      37.995  30.524  30.138  1.00  0.00     0.060 A 
BRANCH  86  87
ATOM     87  S   UNL A   1      36.357  31.056  30.677  1.00  0.00     0.124 S 
ATOM     88  O   UNL A   1      36.039  30.057  31.691  1.00  0.00    -0.237 OA
ATOM     89  O   UNL A   1      36.624  32.404  31.169  1.00  0.00    -0.237 OA
ATOM     90  O   UNL A   1      35.562  30.989  29.455  1.00  0.00    -0.744 OA
ENDBRANCH  86  87
ENDBRANCH  54  79
BRANCH  66  91
ATOM     91  C   UNL A   1      46.661  32.870  28.408  1.00  0.00     0.058 A 
ATOM     92  C   UNL A   1      47.249  33.356  29.587  1.00  0.00     0.135 A 
ATOM     93  C   UNL A   1      46.537  33.761  27.328  1.00  0.00     0.135 A 
ATOM     94  F   UNL A   1      47.389  32.552  30.653  1.00  0.00    -0.206 F 
ATOM     95  C   UNL A   1      47.666  34.678  29.701  1.00  0.00     0.059 A 
ATOM     96  C   UNL A   1      46.986  35.074  27.405  1.00  0.00     0.059 A 
ATOM     97  F   UNL A   1      45.992  33.351  26.171  1.00  0.00    -0.206 F 
ATOM     98  C   UNL A   1      47.538  35.528  28.600  1.00  0.00     0.060 A 
BRANCH  98  99
ATOM     99  S   UNL A   1      48.122  37.229  28.752  1.00  0.00     0.124 S 
ATOM    100  O   UNL A   1      49.562  37.064  28.580  1.00  0.00    -0.237 OA
ATOM    101  O   UNL A   1      47.424  37.893  27.656  1.00  0.00    -0.237 OA
ATOM    102  O   UNL A   1      47.692  37.619  30.092  1.00  0.00    -0.744 OA
ENDBRANCH  98  99
ENDBRANCH  66  91
ENDBRANCH  40  41
ENDBRANCH  32  35
ENDBRANCH  30  31
ENDBRANCH  29  30
ENDBRANCH   1  29
TORSDOF 19
ENDMDL
