MODEL 1
REMARK VINA RESULT:     -11.0      0.000      0.000
REMARK SMILES COC(=O)CNC(=O)N1[C@@H](C(=O)NCCCCNC(=O)c2ccc(-c3c4nc(c(-c5c(F)cc(S(=O)(=O)[O-])cc5F)c5ccc([nH]5)c(-c5c(F)cc(S(=O)(=O)[O-])cc5F)c5nc(c(-c6c(F)cc(S(=O)(=O)[O-])cc6F)c6ccc3[nH]6)C=C5)C=C4)cc2)CC[C@@H]2CCCC[C@H]21
REMARK SMILES IDX 15 1 14 2 13 3 11 4 12 5 10 7 9 8 94 9 87 10 89 11 93 12
REMARK SMILES IDX 88 13 90 14 92 15 91 16 7 17 6 18 8 20 5 21 3 22 4 23 2 24
REMARK SMILES IDX 1 25 16 26 17 27 18 28 19 29 20 31 21 32 22 33 86 34 23 35
REMARK SMILES IDX 85 36 24 37 25 38 26 39 79 40 27 41 84 42 78 43 80 44 28 45
REMARK SMILES IDX 83 46 77 47 76 48 29 50 63 51 42 52 62 53 43 54 46 55 61 56
REMARK SMILES IDX 81 57 44 58 45 59 60 61 82 62 47 63 30 64 31 65 40 66 32 67
REMARK SMILES IDX 33 68 39 69 41 70 34 71 35 72 36 73 37 74 38 75 64 76 65 77
REMARK SMILES IDX 74 78 66 79 67 80 73 81 75 82 68 83 69 84 70 85 71 86 72 87
REMARK SMILES IDX 48 88 49 89 58 90 50 91 51 92 57 93 59 94 52 95 53 96 54 97
REMARK SMILES IDX 55 98 56 99
REMARK H PARENT 13 6 6 19 18 30 80 49 46 60
REMARK Flexibility Score: inf
ROOT
ATOM      1  C   UNL A   1      31.609  27.080  26.784  1.00  0.00     0.023 C 
ENDROOT
BRANCH   1   2
ATOM      2  C   UNL A   1      31.658  25.723  26.085  1.00  0.00     0.116 C 
BRANCH   2   3
ATOM      3  N   UNL A   1      32.649  25.736  25.026  1.00  0.00    -0.354 N 
ATOM      4  C   UNL A   1      33.076  24.724  24.225  1.00  0.00     0.242 C 
ATOM      5  O   UNL A   1      34.077  24.928  23.530  1.00  0.00    -0.273 OA
ATOM      6  H   UNL A   1      33.075  26.608  24.863  1.00  0.00     0.163 HD
BRANCH   4   7
ATOM      7  C   UNL A   1      32.428  23.318  24.255  1.00  0.00     0.176 C 
ATOM      8  N   UNL A   1      33.084  22.301  25.115  1.00  0.00    -0.310 N 
ATOM      9  C   UNL A   1      32.668  20.886  24.880  1.00  0.00     0.091 C 
ATOM     10  C   UNL A   1      32.336  22.901  22.771  1.00  0.00     0.036 C 
ATOM     11  C   UNL A   1      32.750  20.513  23.382  1.00  0.00     0.012 C 
ATOM     12  C   UNL A   1      33.359  19.802  25.736  1.00  0.00     0.025 C 
ATOM     13  C   UNL A   1      31.886  21.471  22.562  1.00  0.00     0.008 C 
ATOM     14  C   UNL A   1      32.298  19.071  23.098  1.00  0.00     0.006 C 
ATOM     15  C   UNL A   1      32.836  18.399  25.446  1.00  0.00     0.002 C 
ATOM     16  C   UNL A   1      33.008  18.051  23.977  1.00  0.00     0.000 C 
BRANCH   8  17
ATOM     17  C   UNL A   1      33.808  22.606  26.242  1.00  0.00     0.318 C 
ATOM     18  N   UNL A   1      35.143  22.740  26.244  1.00  0.00    -0.327 N 
ATOM     19  H   UNL A   1      35.526  22.643  27.145  1.00  0.00     0.166 HD
ATOM     20  O   UNL A   1      33.278  22.724  27.350  1.00  0.00    -0.249 OA
BRANCH  18  21
ATOM     21  C   UNL A   1      36.163  22.996  25.232  1.00  0.00     0.240 C 
BRANCH  21  22
ATOM     22  C   UNL A   1      37.369  22.067  25.284  1.00  0.00     0.325 C 
ATOM     23  O   UNL A   1      38.229  22.132  26.156  1.00  0.00    -0.250 OA
BRANCH  22  24
ATOM     24  O   UNL A   1      37.286  21.074  24.356  1.00  0.00    -0.468 OA
ATOM     25  C   UNL A   1      37.091  19.773  24.912  1.00  0.00     0.282 C 
ENDBRANCH  22  24
ENDBRANCH  21  22
ENDBRANCH  18  21
ENDBRANCH   8  17
ENDBRANCH   4   7
ENDBRANCH   2   3
ENDBRANCH   1   2
BRANCH   1  26
ATOM     26  C   UNL A   1      32.595  28.110  26.230  1.00  0.00     0.023 C 
BRANCH  26  27
ATOM     27  C   UNL A   1      33.702  28.519  27.194  1.00  0.00     0.116 C 
BRANCH  27  28
ATOM     28  N   UNL A   1      33.587  29.906  27.616  1.00  0.00    -0.352 N 
ATOM     29  C   UNL A   1      34.518  30.684  28.263  1.00  0.00     0.251 C 
ATOM     30  H   UNL A   1      32.731  30.347  27.411  1.00  0.00     0.163 HD
ATOM     31  O   UNL A   1      34.206  31.788  28.699  1.00  0.00    -0.269 OA
BRANCH  29  32
ATOM     32  C   UNL A   1      35.886  30.162  28.450  1.00  0.00     0.039 A 
ATOM     33  C   UNL A   1      36.785  30.221  27.385  1.00  0.00     0.014 A 
ATOM     34  C   UNL A   1      36.284  29.651  29.689  1.00  0.00     0.014 A 
ATOM     35  C   UNL A   1      38.109  29.826  27.582  1.00  0.00     0.010 A 
ATOM     36  C   UNL A   1      37.619  29.325  29.902  1.00  0.00     0.010 A 
ATOM     37  C   UNL A   1      38.545  29.408  28.851  1.00  0.00    -0.014 A 
BRANCH  37  38
ATOM     38  C   UNL A   1      39.965  29.057  29.101  1.00  0.00     0.031 A 
ATOM     39  C   UNL A   1      40.908  30.088  29.656  1.00  0.00     0.074 A 
ATOM     40  C   UNL A   1      40.418  27.834  28.762  1.00  0.00     0.049 A 
ATOM     41  N   UNL A   1      42.194  29.997  29.873  1.00  0.00    -0.248 NA
ATOM     42  C   UNL A   1      40.335  31.403  29.983  1.00  0.00     0.031 C 
ATOM     43  C   UNL A   1      39.611  26.767  28.164  1.00  0.00     0.029 A 
ATOM     44  N   UNL A   1      41.672  27.284  28.858  1.00  0.00    -0.354 N 
ATOM     45  C   UNL A   1      42.588  31.244  30.345  1.00  0.00     0.074 A 
ATOM     46  C   UNL A   1      41.414  32.089  30.335  1.00  0.00     0.031 C 
ATOM     47  C   UNL A   1      40.385  25.688  27.965  1.00  0.00     0.029 A 
ATOM     48  C   UNL A   1      41.748  25.994  28.388  1.00  0.00     0.049 A 
ATOM     49  H   UNL A   1      42.444  27.768  29.230  1.00  0.00     0.167 HD
ATOM     50  C   UNL A   1      43.811  31.640  30.772  1.00  0.00     0.037 A 
ATOM     51  C   UNL A   1      42.798  25.155  28.301  1.00  0.00     0.037 A 
ATOM     52  C   UNL A   1      44.967  30.784  30.808  1.00  0.00     0.049 A 
ATOM     53  C   UNL A   1      44.145  25.614  28.794  1.00  0.00     0.074 A 
ATOM     54  C   UNL A   1      46.235  31.071  31.282  1.00  0.00     0.029 A 
ATOM     55  N   UNL A   1      44.996  29.474  30.355  1.00  0.00    -0.354 N 
ATOM     56  N   UNL A   1      44.484  26.776  29.300  1.00  0.00    -0.248 NA
ATOM     57  C   UNL A   1      45.248  24.647  28.713  1.00  0.00     0.031 C 
ATOM     58  C   UNL A   1      47.042  29.946  31.079  1.00  0.00     0.029 A 
ATOM     59  C   UNL A   1      46.265  28.943  30.521  1.00  0.00     0.049 A 
ATOM     60  H   UNL A   1      44.229  28.992  29.970  1.00  0.00     0.167 HD
ATOM     61  C   UNL A   1      45.831  26.671  29.621  1.00  0.00     0.074 A 
ATOM     62  C   UNL A   1      46.243  25.329  29.263  1.00  0.00     0.031 C 
ATOM     63  C   UNL A   1      46.655  27.601  30.167  1.00  0.00     0.037 A 
BRANCH  50  64
ATOM     64  C   UNL A   1      43.957  33.062  31.241  1.00  0.00     0.058 A 
ATOM     65  C   UNL A   1      44.324  34.092  30.361  1.00  0.00     0.135 A 
ATOM     66  C   UNL A   1      43.698  33.404  32.578  1.00  0.00     0.135 A 
ATOM     67  F   UNL A   1      44.599  33.820  29.076  1.00  0.00    -0.206 F 
ATOM     68  C   UNL A   1      44.458  35.407  30.796  1.00  0.00     0.059 A 
ATOM     69  C   UNL A   1      43.800  34.718  33.029  1.00  0.00     0.059 A 
ATOM     70  F   UNL A   1      43.345  32.458  33.462  1.00  0.00    -0.206 F 
ATOM     71  C   UNL A   1      44.195  35.710  32.132  1.00  0.00     0.060 A 
BRANCH  71  72
ATOM     72  S   UNL A   1      44.370  37.420  32.681  1.00  0.00     0.124 S 
ATOM     73  O   UNL A   1      43.331  37.507  33.702  1.00  0.00    -0.237 OA
ATOM     74  O   UNL A   1      45.744  37.452  33.171  1.00  0.00    -0.237 OA
ATOM     75  O   UNL A   1      44.125  38.194  31.468  1.00  0.00    -0.744 OA
ENDBRANCH  71  72
ENDBRANCH  50  64
BRANCH  51  76
ATOM     76  C   UNL A   1      42.613  23.788  27.747  1.00  0.00     0.058 A 
ATOM     77  C   UNL A   1      42.484  22.678  28.596  1.00  0.00     0.135 A 
ATOM     78  C   UNL A   1      42.544  23.564  26.364  1.00  0.00     0.135 A 
ATOM     79  F   UNL A   1      42.548  22.841  29.927  1.00  0.00    -0.206 F 
ATOM     80  C   UNL A   1      42.311  21.393  28.094  1.00  0.00     0.059 A 
ATOM     81  C   UNL A   1      42.347  22.290  25.839  1.00  0.00     0.059 A 
ATOM     82  F   UNL A   1      42.644  24.594  25.509  1.00  0.00    -0.206 F 
ATOM     83  C   UNL A   1      42.241  21.209  26.712  1.00  0.00     0.060 A 
BRANCH  83  84
ATOM     84  S   UNL A   1      41.967  19.543  26.072  1.00  0.00     0.124 S 
ATOM     85  O   UNL A   1      40.528  19.554  25.831  1.00  0.00    -0.237 OA
ATOM     86  O   UNL A   1      42.813  19.527  24.883  1.00  0.00    -0.237 OA
ATOM     87  O   UNL A   1      42.419  18.686  27.163  1.00  0.00    -0.744 OA
ENDBRANCH  83  84
ENDBRANCH  51  76
BRANCH  63  88
ATOM     88  C   UNL A   1      48.075  27.193  30.441  1.00  0.00     0.058 A 
ATOM     89  C   UNL A   1      49.112  27.481  29.541  1.00  0.00     0.135 A 
ATOM     90  C   UNL A   1      48.409  26.555  31.646  1.00  0.00     0.135 A 
ATOM     91  F   UNL A   1      48.845  28.084  28.372  1.00  0.00    -0.206 F 
ATOM     92  C   UNL A   1      50.430  27.132  29.817  1.00  0.00     0.059 A 
ATOM     93  C   UNL A   1      49.723  26.220  31.955  1.00  0.00     0.059 A 
ATOM     94  F   UNL A   1      47.454  26.265  32.546  1.00  0.00    -0.206 F 
ATOM     95  C   UNL A   1      50.726  26.503  31.029  1.00  0.00     0.060 A 
BRANCH  95  96
ATOM     96  S   UNL A   1      52.445  26.088  31.392  1.00  0.00     0.124 S 
ATOM     97  O   UNL A   1      53.035  26.085  30.059  1.00  0.00    -0.237 OA
ATOM     98  O   UNL A   1      52.854  27.183  32.266  1.00  0.00    -0.237 OA
ATOM     99  O   UNL A   1      52.349  24.783  32.040  1.00  0.00    -0.744 OA
ENDBRANCH  95  96
ENDBRANCH  63  88
ENDBRANCH  37  38
ENDBRANCH  29  32
ENDBRANCH  27  28
ENDBRANCH  26  27
ENDBRANCH   1  26
TORSDOF 18
ENDMDL
MODEL 2
REMARK VINA RESULT:     -11.0      1.088      2.421
REMARK SMILES COC(=O)CNC(=O)N1[C@@H](C(=O)NCCCCNC(=O)c2ccc(-c3c4nc(c(-c5c(F)cc(S(=O)(=O)[O-])cc5F)c5ccc([nH]5)c(-c5c(F)cc(S(=O)(=O)[O-])cc5F)c5nc(c(-c6c(F)cc(S(=O)(=O)[O-])cc6F)c6ccc3[nH]6)C=C5)C=C4)cc2)CC[C@@H]2CCCC[C@H]21
REMARK SMILES IDX 15 1 14 2 13 3 11 4 12 5 10 7 9 8 94 9 87 10 89 11 93 12
REMARK SMILES IDX 88 13 90 14 92 15 91 16 7 17 6 18 8 20 5 21 3 22 4 23 2 24
REMARK SMILES IDX 1 25 16 26 17 27 18 28 19 29 20 31 21 32 22 33 86 34 23 35
REMARK SMILES IDX 85 36 24 37 25 38 26 39 79 40 27 41 84 42 78 43 80 44 28 45
REMARK SMILES IDX 83 46 77 47 76 48 29 50 63 51 42 52 62 53 43 54 46 55 61 56
REMARK SMILES IDX 81 57 44 58 45 59 60 61 82 62 47 63 30 64 31 65 40 66 32 67
REMARK SMILES IDX 33 68 39 69 41 70 34 71 35 72 36 73 37 74 38 75 64 76 65 77
REMARK SMILES IDX 74 78 66 79 67 80 73 81 75 82 68 83 69 84 70 85 71 86 72 87
REMARK SMILES IDX 48 88 49 89 58 90 50 91 51 92 57 93 59 94 52 95 53 96 54 97
REMARK SMILES IDX 55 98 56 99
REMARK H PARENT 13 6 6 19 18 30 80 49 46 60
REMARK Flexibility Score: inf
ROOT
ATOM      1  C   UNL A   1      31.200  27.535  26.437  1.00  0.00     0.023 C 
ENDROOT
BRANCH   1   2
ATOM      2  C   UNL A   1      31.259  26.206  25.687  1.00  0.00     0.116 C 
BRANCH   2   3
ATOM      3  N   UNL A   1      31.160  25.096  26.616  1.00  0.00    -0.354 N 
ATOM      4  C   UNL A   1      31.895  23.955  26.685  1.00  0.00     0.242 C 
ATOM      5  O   UNL A   1      31.493  23.060  27.438  1.00  0.00    -0.273 OA
ATOM      6  H   UNL A   1      30.455  25.183  27.297  1.00  0.00     0.163 HD
BRANCH   4   7
ATOM      7  C   UNL A   1      33.123  23.707  25.776  1.00  0.00     0.176 C 
ATOM      8  N   UNL A   1      33.870  22.443  25.998  1.00  0.00    -0.310 N 
ATOM      9  C   UNL A   1      35.223  22.370  25.368  1.00  0.00     0.091 C 
ATOM     10  C   UNL A   1      33.993  24.972  25.944  1.00  0.00     0.036 C 
ATOM     11  C   UNL A   1      36.077  23.611  25.713  1.00  0.00     0.012 C 
ATOM     12  C   UNL A   1      36.039  21.080  25.611  1.00  0.00     0.025 C 
ATOM     13  C   UNL A   1      35.346  24.880  25.273  1.00  0.00     0.008 C 
ATOM     14  C   UNL A   1      37.466  23.585  25.055  1.00  0.00     0.006 C 
ATOM     15  C   UNL A   1      37.385  21.091  24.895  1.00  0.00     0.002 C 
ATOM     16  C   UNL A   1      38.216  22.289  25.323  1.00  0.00     0.000 C 
BRANCH   8  17
ATOM     17  C   UNL A   1      33.300  21.294  26.491  1.00  0.00     0.318 C 
ATOM     18  N   UNL A   1      32.489  20.508  25.768  1.00  0.00    -0.327 N 
ATOM     19  H   UNL A   1      31.931  19.928  26.333  1.00  0.00     0.166 HD
ATOM     20  O   UNL A   1      33.456  20.935  27.661  1.00  0.00    -0.249 OA
BRANCH  18  21
ATOM     21  C   UNL A   1      32.234  20.305  24.345  1.00  0.00     0.240 C 
BRANCH  21  22
ATOM     22  C   UNL A   1      32.604  18.926  23.814  1.00  0.00     0.325 C 
ATOM     23  O   UNL A   1      32.191  18.484  22.748  1.00  0.00    -0.250 OA
BRANCH  22  24
ATOM     24  O   UNL A   1      33.561  18.327  24.577  1.00  0.00    -0.468 OA
ATOM     25  C   UNL A   1      34.252  17.266  23.917  1.00  0.00     0.282 C 
ENDBRANCH  22  24
ENDBRANCH  21  22
ENDBRANCH  18  21
ENDBRANCH   8  17
ENDBRANCH   4   7
ENDBRANCH   2   3
ENDBRANCH   1   2
BRANCH   1  26
ATOM     26  C   UNL A   1      32.209  27.657  27.581  1.00  0.00     0.023 C 
BRANCH  26  27
ATOM     27  C   UNL A   1      33.494  28.395  27.224  1.00  0.00     0.116 C 
BRANCH  27  28
ATOM     28  N   UNL A   1      33.403  29.825  27.478  1.00  0.00    -0.352 N 
ATOM     29  C   UNL A   1      34.348  30.657  28.028  1.00  0.00     0.251 C 
ATOM     30  H   UNL A   1      32.554  30.252  27.223  1.00  0.00     0.163 HD
ATOM     31  O   UNL A   1      34.056  31.810  28.330  1.00  0.00    -0.269 OA
BRANCH  29  32
ATOM     32  C   UNL A   1      35.708  30.138  28.275  1.00  0.00     0.039 A 
ATOM     33  C   UNL A   1      36.637  30.150  27.234  1.00  0.00     0.014 A 
ATOM     34  C   UNL A   1      36.068  29.678  29.545  1.00  0.00     0.014 A 
ATOM     35  C   UNL A   1      37.953  29.758  27.484  1.00  0.00     0.010 A 
ATOM     36  C   UNL A   1      37.395  29.356  29.808  1.00  0.00     0.010 A 
ATOM     37  C   UNL A   1      38.351  29.392  28.782  1.00  0.00    -0.014 A 
BRANCH  37  38
ATOM     38  C   UNL A   1      39.762  29.046  29.085  1.00  0.00     0.031 A 
ATOM     39  C   UNL A   1      40.676  30.077  29.688  1.00  0.00     0.074 A 
ATOM     40  C   UNL A   1      40.235  27.829  28.753  1.00  0.00     0.049 A 
ATOM     41  N   UNL A   1      41.953  29.991  29.957  1.00  0.00    -0.248 NA
ATOM     42  C   UNL A   1      40.082  31.386  30.004  1.00  0.00     0.031 C 
ATOM     43  C   UNL A   1      39.459  26.764  28.112  1.00  0.00     0.029 A 
ATOM     44  N   UNL A   1      41.487  27.285  28.895  1.00  0.00    -0.354 N 
ATOM     45  C   UNL A   1      42.319  31.235  30.456  1.00  0.00     0.074 A 
ATOM     46  C   UNL A   1      41.141  32.074  30.406  1.00  0.00     0.031 C 
ATOM     47  C   UNL A   1      40.247  25.690  27.935  1.00  0.00     0.029 A 
ATOM     48  C   UNL A   1      41.590  26.000  28.416  1.00  0.00     0.049 A 
ATOM     49  H   UNL A   1      42.241  27.770  29.303  1.00  0.00     0.167 HD
ATOM     50  C   UNL A   1      43.521  31.634  30.936  1.00  0.00     0.037 A 
ATOM     51  C   UNL A   1      42.648  25.168  28.364  1.00  0.00     0.037 A 
ATOM     52  C   UNL A   1      44.680  30.784  31.011  1.00  0.00     0.049 A 
ATOM     53  C   UNL A   1      43.970  25.629  28.916  1.00  0.00     0.074 A 
ATOM     54  C   UNL A   1      45.926  31.073  31.539  1.00  0.00     0.029 A 
ATOM     55  N   UNL A   1      44.735  29.478  30.547  1.00  0.00    -0.354 N 
ATOM     56  N   UNL A   1      44.282  26.788  29.446  1.00  0.00    -0.248 NA
ATOM     57  C   UNL A   1      45.081  24.669  28.870  1.00  0.00     0.031 C 
ATOM     58  C   UNL A   1      46.747  29.954  31.358  1.00  0.00     0.029 A 
ATOM     59  C   UNL A   1      45.999  28.953  30.759  1.00  0.00     0.049 A 
ATOM     60  H   UNL A   1      43.987  28.995  30.127  1.00  0.00     0.167 HD
ATOM     61  C   UNL A   1      45.616  26.688  29.821  1.00  0.00     0.074 A 
ATOM     62  C   UNL A   1      46.050  25.351  29.467  1.00  0.00     0.031 C 
ATOM     63  C   UNL A   1      46.411  27.616  30.408  1.00  0.00     0.037 A 
BRANCH  50  64
ATOM     64  C   UNL A   1      43.640  33.052  31.424  1.00  0.00     0.058 A 
ATOM     65  C   UNL A   1      43.945  34.107  30.550  1.00  0.00     0.135 A 
ATOM     66  C   UNL A   1      43.417  33.364  32.775  1.00  0.00     0.135 A 
ATOM     67  F   UNL A   1      44.184  33.864  29.252  1.00  0.00    -0.206 F 
ATOM     68  C   UNL A   1      44.054  35.418  31.003  1.00  0.00     0.059 A 
ATOM     69  C   UNL A   1      43.494  34.672  33.245  1.00  0.00     0.059 A 
ATOM     70  F   UNL A   1      43.123  32.393  33.654  1.00  0.00    -0.206 F 
ATOM     71  C   UNL A   1      43.828  35.691  32.353  1.00  0.00     0.060 A 
BRANCH  71  72
ATOM     72  S   UNL A   1      43.969  37.397  32.924  1.00  0.00     0.124 S 
ATOM     73  O   UNL A   1      43.805  38.136  31.677  1.00  0.00    -0.237 OA
ATOM     74  O   UNL A   1      42.865  37.501  33.872  1.00  0.00    -0.237 OA
ATOM     75  O   UNL A   1      45.303  37.449  33.514  1.00  0.00    -0.744 OA
ENDBRANCH  71  72
ENDBRANCH  50  64
BRANCH  51  76
ATOM     76  C   UNL A   1      42.493  23.805  27.790  1.00  0.00     0.058 A 
ATOM     77  C   UNL A   1      42.356  22.684  28.623  1.00  0.00     0.135 A 
ATOM     78  C   UNL A   1      42.462  23.597  26.403  1.00  0.00     0.135 A 
ATOM     79  F   UNL A   1      42.385  22.832  29.956  1.00  0.00    -0.206 F 
ATOM     80  C   UNL A   1      42.211  21.403  28.102  1.00  0.00     0.059 A 
ATOM     81  C   UNL A   1      42.294  22.327  25.858  1.00  0.00     0.059 A 
ATOM     82  F   UNL A   1      42.571  24.638  25.563  1.00  0.00    -0.206 F 
ATOM     83  C   UNL A   1      42.179  21.234  26.716  1.00  0.00     0.060 A 
BRANCH  83  84
ATOM     84  S   UNL A   1      41.941  19.573  26.050  1.00  0.00     0.124 S 
ATOM     85  O   UNL A   1      42.399  18.743  27.158  1.00  0.00    -0.237 OA
ATOM     86  O   UNL A   1      40.505  19.550  25.787  1.00  0.00    -0.237 OA
ATOM     87  O   UNL A   1      42.787  19.565  24.860  1.00  0.00    -0.744 OA
ENDBRANCH  83  84
ENDBRANCH  51  76
BRANCH  63  88
ATOM     88  C   UNL A   1      47.821  27.214  30.736  1.00  0.00     0.058 A 
ATOM     89  C   UNL A   1      48.143  26.569  31.940  1.00  0.00     0.135 A 
ATOM     90  C   UNL A   1      48.854  27.428  29.810  1.00  0.00     0.135 A 
ATOM     91  F   UNL A   1      47.194  26.345  32.863  1.00  0.00    -0.206 F 
ATOM     92  C   UNL A   1      49.444  26.167  32.223  1.00  0.00     0.059 A 
ATOM     93  C   UNL A   1      50.157  27.012  30.060  1.00  0.00     0.059 A 
ATOM     94  F   UNL A   1      48.597  28.034  28.639  1.00  0.00    -0.206 F 
ATOM     95  C   UNL A   1      50.445  26.391  31.275  1.00  0.00     0.060 A 
BRANCH  95  96
ATOM     96  S   UNL A   1      52.123  25.832  31.637  1.00  0.00     0.124 S 
ATOM     97  O   UNL A   1      52.768  25.975  30.336  1.00  0.00    -0.237 OA
ATOM     98  O   UNL A   1      52.552  26.775  32.665  1.00  0.00    -0.237 OA
ATOM     99  O   UNL A   1      51.931  24.460  32.096  1.00  0.00    -0.744 OA
ENDBRANCH  95  96
ENDBRANCH  63  88
ENDBRANCH  37  38
ENDBRANCH  29  32
ENDBRANCH  27  28
ENDBRANCH  26  27
ENDBRANCH   1  26
TORSDOF 18
ENDMDL
MODEL 3
REMARK VINA RESULT:     -10.9      4.799     10.231
REMARK SMILES COC(=O)CNC(=O)N1[C@@H](C(=O)NCCCCNC(=O)c2ccc(-c3c4nc(c(-c5c(F)cc(S(=O)(=O)[O-])cc5F)c5ccc([nH]5)c(-c5c(F)cc(S(=O)(=O)[O-])cc5F)c5nc(c(-c6c(F)cc(S(=O)(=O)[O-])cc6F)c6ccc3[nH]6)C=C5)C=C4)cc2)CC[C@@H]2CCCC[C@H]21
REMARK SMILES IDX 15 1 14 2 13 3 11 4 12 5 10 7 9 8 94 9 87 10 89 11 93 12
REMARK SMILES IDX 88 13 90 14 92 15 91 16 7 17 6 18 8 20 5 21 3 22 4 23 2 24
REMARK SMILES IDX 1 25 16 26 17 27 18 28 19 29 20 31 21 32 22 33 86 34 23 35
REMARK SMILES IDX 85 36 24 37 25 38 26 39 79 40 27 41 84 42 78 43 80 44 28 45
REMARK SMILES IDX 83 46 77 47 76 48 29 50 63 51 42 52 62 53 43 54 46 55 61 56
REMARK SMILES IDX 81 57 44 58 45 59 60 61 82 62 47 63 30 64 31 65 40 66 32 67
REMARK SMILES IDX 33 68 39 69 41 70 34 71 35 72 36 73 37 74 38 75 64 76 65 77
REMARK SMILES IDX 74 78 66 79 67 80 73 81 75 82 68 83 69 84 70 85 71 86 72 87
REMARK SMILES IDX 48 88 49 89 58 90 50 91 51 92 57 93 59 94 52 95 53 96 54 97
REMARK SMILES IDX 55 98 56 99
REMARK H PARENT 13 6 6 19 18 30 80 49 46 60
REMARK Flexibility Score: inf
ROOT
ATOM      1  C   UNL A   1      38.409  22.717  26.093  1.00  0.00     0.023 C 
ENDROOT
BRANCH   1   2
ATOM      2  C   UNL A   1      37.536  21.700  25.361  1.00  0.00     0.116 C 
BRANCH   2   3
ATOM      3  N   UNL A   1      37.117  22.226  24.076  1.00  0.00    -0.354 N 
ATOM      4  C   UNL A   1      35.989  22.907  23.744  1.00  0.00     0.242 C 
ATOM      5  O   UNL A   1      35.754  23.076  22.542  1.00  0.00    -0.273 OA
ATOM      6  H   UNL A   1      37.743  22.065  23.334  1.00  0.00     0.163 HD
BRANCH   4   7
ATOM      7  C   UNL A   1      34.955  23.359  24.804  1.00  0.00     0.176 C 
ATOM      8  N   UNL A   1      33.523  23.159  24.464  1.00  0.00    -0.310 N 
ATOM      9  C   UNL A   1      32.544  23.893  25.321  1.00  0.00     0.091 C 
ATOM     10  C   UNL A   1      35.317  24.832  25.097  1.00  0.00     0.036 C 
ATOM     11  C   UNL A   1      32.905  25.392  25.437  1.00  0.00     0.012 C 
ATOM     12  C   UNL A   1      31.048  23.732  24.970  1.00  0.00     0.025 C 
ATOM     13  C   UNL A   1      34.322  25.542  25.989  1.00  0.00     0.008 C 
ATOM     14  C   UNL A   1      31.935  26.174  26.339  1.00  0.00     0.006 C 
ATOM     15  C   UNL A   1      30.133  24.490  25.926  1.00  0.00     0.002 C 
ATOM     16  C   UNL A   1      30.479  25.969  25.948  1.00  0.00     0.000 C 
BRANCH   8  17
ATOM     17  C   UNL A   1      33.067  22.171  23.626  1.00  0.00     0.318 C 
ATOM     18  N   UNL A   1      33.038  20.874  23.968  1.00  0.00    -0.327 N 
ATOM     19  H   UNL A   1      32.992  20.282  23.183  1.00  0.00     0.166 HD
ATOM     20  O   UNL A   1      32.700  22.407  22.472  1.00  0.00    -0.249 OA
BRANCH  18  21
ATOM     21  C   UNL A   1      33.057  20.128  25.222  1.00  0.00     0.240 C 
BRANCH  21  22
ATOM     22  C   UNL A   1      32.953  18.615  25.075  1.00  0.00     0.325 C 
ATOM     23  O   UNL A   1      32.294  17.911  25.832  1.00  0.00    -0.250 OA
BRANCH  22  24
ATOM     24  O   UNL A   1      33.536  18.175  23.925  1.00  0.00    -0.468 OA
ATOM     25  C   UNL A   1      33.739  16.762  23.879  1.00  0.00     0.282 C 
ENDBRANCH  22  24
ENDBRANCH  21  22
ENDBRANCH  18  21
ENDBRANCH   8  17
ENDBRANCH   4   7
ENDBRANCH   2   3
ENDBRANCH   1   2
BRANCH   1  26
ATOM     26  C   UNL A   1      39.698  22.136  26.676  1.00  0.00     0.023 C 
BRANCH  26  27
ATOM     27  C   UNL A   1      40.701  23.173  27.170  1.00  0.00     0.116 C 
BRANCH  27  28
ATOM     28  N   UNL A   1      41.311  23.919  26.080  1.00  0.00    -0.352 N 
ATOM     29  C   UNL A   1      41.634  25.253  26.032  1.00  0.00     0.251 C 
ATOM     30  H   UNL A   1      41.521  23.399  25.271  1.00  0.00     0.163 HD
ATOM     31  O   UNL A   1      41.992  25.766  24.976  1.00  0.00    -0.269 OA
BRANCH  29  32
ATOM     32  C   UNL A   1      41.517  26.066  27.259  1.00  0.00     0.039 A 
ATOM     33  C   UNL A   1      42.527  26.979  27.565  1.00  0.00     0.014 A 
ATOM     34  C   UNL A   1      40.392  25.949  28.079  1.00  0.00     0.014 A 
ATOM     35  C   UNL A   1      42.378  27.824  28.666  1.00  0.00     0.010 A 
ATOM     36  C   UNL A   1      40.213  26.840  29.132  1.00  0.00     0.010 A 
ATOM     37  C   UNL A   1      41.203  27.785  29.437  1.00  0.00    -0.014 A 
BRANCH  37  38
ATOM     38  C   UNL A   1      40.991  28.727  30.564  1.00  0.00     0.031 A 
ATOM     39  C   UNL A   1      41.815  28.600  31.815  1.00  0.00     0.074 A 
ATOM     40  C   UNL A   1      40.011  29.649  30.486  1.00  0.00     0.049 A 
ATOM     41  N   UNL A   1      41.729  29.277  32.931  1.00  0.00    -0.248 NA
ATOM     42  C   UNL A   1      42.852  27.557  31.824  1.00  0.00     0.031 C 
ATOM     43  C   UNL A   1      39.109  29.832  29.346  1.00  0.00     0.029 A 
ATOM     44  N   UNL A   1      39.599  30.597  31.388  1.00  0.00    -0.354 N 
ATOM     45  C   UNL A   1      42.687  28.732  33.779  1.00  0.00     0.074 A 
ATOM     46  C   UNL A   1      43.307  27.636  33.066  1.00  0.00     0.031 C 
ATOM     47  C   UNL A   1      38.264  30.842  29.610  1.00  0.00     0.029 A 
ATOM     48  C   UNL A   1      38.539  31.356  30.948  1.00  0.00     0.049 A 
ATOM     49  H   UNL A   1      40.022  30.722  32.268  1.00  0.00     0.167 HD
ATOM     50  C   UNL A   1      43.034  29.125  35.028  1.00  0.00     0.037 A 
ATOM     51  C   UNL A   1      37.862  32.348  31.557  1.00  0.00     0.037 A 
ATOM     52  C   UNL A   1      42.434  30.236  35.718  1.00  0.00     0.049 A 
ATOM     53  C   UNL A   1      38.275  32.777  32.939  1.00  0.00     0.074 A 
ATOM     54  C   UNL A   1      42.758  30.755  36.958  1.00  0.00     0.029 A 
ATOM     55  N   UNL A   1      41.387  31.001  35.226  1.00  0.00    -0.354 N 
ATOM     56  N   UNL A   1      39.228  32.293  33.700  1.00  0.00    -0.248 NA
ATOM     57  C   UNL A   1      37.529  33.889  33.542  1.00  0.00     0.031 C 
ATOM     58  C   UNL A   1      41.882  31.810  37.234  1.00  0.00     0.029 A 
ATOM     59  C   UNL A   1      41.041  31.977  36.145  1.00  0.00     0.049 A 
ATOM     60  H   UNL A   1      40.953  30.870  34.352  1.00  0.00     0.167 HD
ATOM     61  C   UNL A   1      39.214  33.058  34.860  1.00  0.00     0.074 A 
ATOM     62  C   UNL A   1      38.165  34.044  34.696  1.00  0.00     0.031 C 
ATOM     63  C   UNL A   1      39.999  32.957  35.961  1.00  0.00     0.037 A 
BRANCH  50  64
ATOM     64  C   UNL A   1      44.120  28.351  35.724  1.00  0.00     0.058 A 
ATOM     65  C   UNL A   1      45.475  28.684  35.570  1.00  0.00     0.135 A 
ATOM     66  C   UNL A   1      43.801  27.284  36.580  1.00  0.00     0.135 A 
ATOM     67  F   UNL A   1      45.838  29.684  34.752  1.00  0.00    -0.206 F 
ATOM     68  C   UNL A   1      46.478  27.967  36.216  1.00  0.00     0.059 A 
ATOM     69  C   UNL A   1      44.786  26.571  37.257  1.00  0.00     0.059 A 
ATOM     70  F   UNL A   1      42.521  26.924  36.763  1.00  0.00    -0.206 F 
ATOM     71  C   UNL A   1      46.124  26.911  37.056  1.00  0.00     0.060 A 
BRANCH  71  72
ATOM     72  S   UNL A   1      47.436  25.994  37.889  1.00  0.00     0.124 S 
ATOM     73  O   UNL A   1      46.899  24.637  37.870  1.00  0.00    -0.237 OA
ATOM     74  O   UNL A   1      48.584  26.234  37.021  1.00  0.00    -0.237 OA
ATOM     75  O   UNL A   1      47.508  26.622  39.205  1.00  0.00    -0.744 OA
ENDBRANCH  71  72
ENDBRANCH  50  64
BRANCH  51  76
ATOM     76  C   UNL A   1      36.738  33.021  30.853  1.00  0.00     0.058 A 
ATOM     77  C   UNL A   1      35.406  32.769  31.215  1.00  0.00     0.135 A 
ATOM     78  C   UNL A   1      36.972  33.939  29.818  1.00  0.00     0.135 A 
ATOM     79  F   UNL A   1      35.132  31.895  32.196  1.00  0.00    -0.206 F 
ATOM     80  C   UNL A   1      34.345  33.390  30.566  1.00  0.00     0.059 A 
ATOM     81  C   UNL A   1      35.927  34.591  29.170  1.00  0.00     0.059 A 
ATOM     82  F   UNL A   1      38.228  34.229  29.445  1.00  0.00    -0.206 F 
ATOM     83  C   UNL A   1      34.615  34.302  29.545  1.00  0.00     0.060 A 
BRANCH  83  84
ATOM     84  S   UNL A   1      33.232  35.141  28.742  1.00  0.00     0.124 S 
ATOM     85  O   UNL A   1      33.911  36.223  28.039  1.00  0.00    -0.237 OA
ATOM     86  O   UNL A   1      32.678  34.083  27.902  1.00  0.00    -0.237 OA
ATOM     87  O   UNL A   1      32.389  35.545  29.863  1.00  0.00    -0.744 OA
ENDBRANCH  83  84
ENDBRANCH  51  76
BRANCH  63  88
ATOM     88  C   UNL A   1      39.780  33.955  37.063  1.00  0.00     0.058 A 
ATOM     89  C   UNL A   1      39.022  33.643  38.202  1.00  0.00     0.135 A 
ATOM     90  C   UNL A   1      40.381  35.223  37.002  1.00  0.00     0.135 A 
ATOM     91  F   UNL A   1      38.420  32.447  38.307  1.00  0.00    -0.206 F 
ATOM     92  C   UNL A   1      38.852  34.559  39.235  1.00  0.00     0.059 A 
ATOM     93  C   UNL A   1      40.246  36.145  38.033  1.00  0.00     0.059 A 
ATOM     94  F   UNL A   1      41.123  35.568  35.937  1.00  0.00    -0.206 F 
ATOM     95  C   UNL A   1      39.470  35.808  39.142  1.00  0.00     0.060 A 
BRANCH  95  96
ATOM     96  S   UNL A   1      39.273  36.976  40.505  1.00  0.00     0.124 S 
ATOM     97  O   UNL A   1      38.411  36.226  41.412  1.00  0.00    -0.237 OA
ATOM     98  O   UNL A   1      40.649  37.171  40.951  1.00  0.00    -0.237 OA
ATOM     99  O   UNL A   1      38.658  38.138  39.869  1.00  0.00    -0.744 OA
ENDBRANCH  95  96
ENDBRANCH  63  88
ENDBRANCH  37  38
ENDBRANCH  29  32
ENDBRANCH  27  28
ENDBRANCH  26  27
ENDBRANCH   1  26
TORSDOF 18
ENDMDL
