MODEL 1
REMARK VINA RESULT:     -10.6      0.000      0.000
REMARK SMILES CC(C)(C)N(CC(=O)NCCCCNC(=O)c1ccc(-c2c3nc(c(-c4c(F)cc(S(=O)(=O)[O-])cc4F)c4ccc([nH]4)c(-c4c(F)cc(S(=O)(=O)[O-])cc4F)c4nc(c(-c5c(F)cc(S(=O)(=O)[O-])cc5F)c5ccc2[nH]5)C=C4)C=C3)cc1)C(=O)N1CC[C@H](C[NH3+])C1
REMARK SMILES IDX 10 1 9 2 7 3 8 4 6 6 5 7 2 8 1 9 3 10 4 11 83 12 84 13 85 14
REMARK SMILES IDX 86 15 91 16 87 17 88 18 89 19 90 20 11 24 12 25 13 26 14 27
REMARK SMILES IDX 15 28 16 30 17 31 18 32 82 33 19 34 81 35 20 36 21 37 22 38
REMARK SMILES IDX 75 39 23 40 80 41 74 42 76 43 24 44 79 45 73 46 72 47 25 49
REMARK SMILES IDX 59 50 38 51 58 52 39 53 42 54 57 55 77 56 40 57 41 58 56 60
REMARK SMILES IDX 78 61 43 62 26 63 27 64 36 65 28 66 29 67 35 68 37 69 30 70
REMARK SMILES IDX 31 71 32 72 33 73 34 74 60 75 61 76 70 77 62 78 63 79 69 80
REMARK SMILES IDX 71 81 64 82 65 83 66 84 67 85 68 86 44 87 45 88 54 89 46 90
REMARK SMILES IDX 47 91 53 92 55 93 48 94 49 95 50 96 51 97 52 98
REMARK H PARENT 9 5 90 21 90 22 90 23 14 29 76 48 42 59
REMARK Flexibility Score: inf
ROOT
ATOM      1  C   UNL A   1      32.552  29.750  25.754  1.00  0.00     0.116 C 
ENDROOT
BRANCH   1   2
ATOM      2  N   UNL A   1      33.306  29.617  24.533  1.00  0.00    -0.355 N 
ATOM      3  C   UNL A   1      33.700  28.492  23.874  1.00  0.00     0.239 C 
ATOM      4  O   UNL A   1      34.067  28.638  22.700  1.00  0.00    -0.273 OA
ATOM      5  H   UNL A   1      33.575  30.465  24.113  1.00  0.00     0.163 HD
BRANCH   3   6
ATOM      6  C   UNL A   1      33.583  27.069  24.460  1.00  0.00     0.221 C 
BRANCH   6   7
ATOM      7  N   UNL A   1      32.823  26.010  23.761  1.00  0.00    -0.311 N 
BRANCH   7   8
ATOM      8  C   UNL A   1      31.318  26.161  23.573  1.00  0.00     0.037 C 
ATOM      9  C   UNL A   1      30.897  27.089  22.398  1.00  0.00     0.034 C 
ATOM     10  C   UNL A   1      30.630  26.730  24.836  1.00  0.00     0.034 C 
ATOM     11  C   UNL A   1      30.685  24.787  23.234  1.00  0.00     0.034 C 
ENDBRANCH   7   8
BRANCH   7  12
ATOM     12  C   UNL A   1      33.492  25.101  22.910  1.00  0.00     0.320 C 
ATOM     13  O   UNL A   1      33.827  25.387  21.760  1.00  0.00    -0.248 OA
BRANCH  12  14
ATOM     14  N   UNL A   1      33.970  23.942  23.480  1.00  0.00    -0.324 N 
ATOM     15  C   UNL A   1      33.446  22.611  23.251  1.00  0.00     0.122 C 
ATOM     16  C   UNL A   1      35.398  23.815  23.731  1.00  0.00     0.130 C 
ATOM     17  C   UNL A   1      34.171  21.808  24.316  1.00  0.00     0.033 C 
ATOM     18  C   UNL A   1      35.599  22.376  24.245  1.00  0.00     0.065 C 
BRANCH  18  19
ATOM     19  C   UNL A   1      36.365  22.349  25.567  1.00  0.00     0.264 C 
BRANCH  19  20
ATOM     20  N   UNL A   1      35.511  22.665  26.707  1.00  0.00    -0.357 N 
ATOM     21  H   UNL A   1      35.265  21.805  27.195  1.00  0.00     0.344 HD
ATOM     22  H   UNL A   1      34.663  23.126  26.379  1.00  0.00     0.344 HD
ATOM     23  H   UNL A   1      36.011  23.286  27.343  1.00  0.00     0.344 HD
ENDBRANCH  19  20
ENDBRANCH  18  19
ENDBRANCH  12  14
ENDBRANCH   7  12
ENDBRANCH   6   7
ENDBRANCH   3   6
ENDBRANCH   1   2
BRANCH   1  24
ATOM     24  C   UNL A   1      33.394  30.118  26.971  1.00  0.00     0.023 C 
BRANCH  24  25
ATOM     25  C   UNL A   1      34.443  29.090  27.385  1.00  0.00     0.023 C 
BRANCH  25  26
ATOM     26  C   UNL A   1      35.693  29.649  28.058  1.00  0.00     0.116 C 
BRANCH  26  27
ATOM     27  N   UNL A   1      35.481  30.145  29.411  1.00  0.00    -0.352 N 
ATOM     28  C   UNL A   1      36.421  30.460  30.369  1.00  0.00     0.251 C 
ATOM     29  H   UNL A   1      34.541  30.273  29.676  1.00  0.00     0.163 HD
ATOM     30  O   UNL A   1      36.069  30.834  31.480  1.00  0.00    -0.269 OA
BRANCH  28  31
ATOM     31  C   UNL A   1      37.855  30.286  30.055  1.00  0.00     0.039 A 
ATOM     32  C   UNL A   1      38.701  29.772  31.041  1.00  0.00     0.014 A 
ATOM     33  C   UNL A   1      38.344  30.556  28.774  1.00  0.00     0.014 A 
ATOM     34  C   UNL A   1      40.017  29.437  30.713  1.00  0.00     0.010 A 
ATOM     35  C   UNL A   1      39.630  30.151  28.431  1.00  0.00     0.010 A 
ATOM     36  C   UNL A   1      40.475  29.575  29.393  1.00  0.00    -0.014 A 
BRANCH  36  37
ATOM     37  C   UNL A   1      41.824  29.107  28.985  1.00  0.00     0.031 A 
ATOM     38  C   UNL A   1      42.965  30.083  28.902  1.00  0.00     0.074 A 
ATOM     39  C   UNL A   1      41.999  27.827  28.601  1.00  0.00     0.049 A 
ATOM     40  N   UNL A   1      44.183  29.894  28.463  1.00  0.00    -0.248 NA
ATOM     41  C   UNL A   1      42.691  31.462  29.339  1.00  0.00     0.031 C 
ATOM     42  C   UNL A   1      40.955  26.798  28.578  1.00  0.00     0.029 A 
ATOM     43  N   UNL A   1      43.114  27.173  28.141  1.00  0.00    -0.354 N 
ATOM     44  C   UNL A   1      44.811  31.131  28.546  1.00  0.00     0.074 A 
ATOM     45  C   UNL A   1      43.825  32.073  29.033  1.00  0.00     0.031 C 
ATOM     46  C   UNL A   1      41.485  25.642  28.147  1.00  0.00     0.029 A 
ATOM     47  C   UNL A   1      42.893  25.851  27.830  1.00  0.00     0.049 A 
ATOM     48  H   UNL A   1      43.991  27.610  28.042  1.00  0.00     0.167 HD
ATOM     49  C   UNL A   1      46.096  31.449  28.265  1.00  0.00     0.037 A 
ATOM     50  C   UNL A   1      43.731  24.917  27.339  1.00  0.00     0.037 A 
ATOM     51  C   UNL A   1      47.083  30.500  27.821  1.00  0.00     0.049 A 
ATOM     52  C   UNL A   1      45.163  25.285  27.066  1.00  0.00     0.074 A 
ATOM     53  C   UNL A   1      48.428  30.708  27.575  1.00  0.00     0.029 A 
ATOM     54  N   UNL A   1      46.831  29.160  27.564  1.00  0.00    -0.354 N 
ATOM     55  N   UNL A   1      45.754  26.448  27.207  1.00  0.00    -0.248 NA
ATOM     56  C   UNL A   1      46.043  24.217  26.574  1.00  0.00     0.031 C 
ATOM     57  C   UNL A   1      48.984  29.500  27.140  1.00  0.00     0.029 A 
ATOM     58  C   UNL A   1      47.994  28.531  27.152  1.00  0.00     0.049 A 
ATOM     59  H   UNL A   1      45.956  28.721  27.660  1.00  0.00     0.167 HD
ATOM     60  C   UNL A   1      47.080  26.245  26.844  1.00  0.00     0.074 A 
ATOM     61  C   UNL A   1      47.207  24.847  26.487  1.00  0.00     0.031 C 
ATOM     62  C   UNL A   1      48.102  27.135  26.810  1.00  0.00     0.037 A 
BRANCH  49  63
ATOM     63  C   UNL A   1      46.510  32.884  28.443  1.00  0.00     0.058 A 
ATOM     64  C   UNL A   1      46.420  33.809  27.391  1.00  0.00     0.135 A 
ATOM     65  C   UNL A   1      46.984  33.343  29.682  1.00  0.00     0.135 A 
ATOM     66  F   UNL A   1      45.989  33.419  26.182  1.00  0.00    -0.206 F 
ATOM     67  C   UNL A   1      46.820  35.131  27.551  1.00  0.00     0.059 A 
ATOM     68  C   UNL A   1      47.365  34.668  29.872  1.00  0.00     0.059 A 
ATOM     69  F   UNL A   1      47.090  32.500  30.721  1.00  0.00    -0.206 F 
ATOM     70  C   UNL A   1      47.296  35.550  28.794  1.00  0.00     0.060 A 
BRANCH  70  71
ATOM     71  S   UNL A   1      47.818  37.268  28.985  1.00  0.00     0.124 S 
ATOM     72  O   UNL A   1      49.269  37.141  28.889  1.00  0.00    -0.237 OA
ATOM     73  O   UNL A   1      47.165  37.923  27.857  1.00  0.00    -0.237 OA
ATOM     74  O   UNL A   1      47.305  37.634  30.301  1.00  0.00    -0.744 OA
ENDBRANCH  70  71
ENDBRANCH  49  63
BRANCH  50  75
ATOM     75  C   UNL A   1      43.241  23.532  27.105  1.00  0.00     0.058 A 
ATOM     76  C   UNL A   1      42.905  23.099  25.814  1.00  0.00     0.135 A 
ATOM     77  C   UNL A   1      43.115  22.613  28.158  1.00  0.00     0.135 A 
ATOM     78  F   UNL A   1      43.003  23.945  24.777  1.00  0.00    -0.206 F 
ATOM     79  C   UNL A   1      42.446  21.808  25.575  1.00  0.00     0.059 A 
ATOM     80  C   UNL A   1      42.680  21.310  27.941  1.00  0.00     0.059 A 
ATOM     81  F   UNL A   1      43.442  22.975  29.409  1.00  0.00    -0.206 F 
ATOM     82  C   UNL A   1      42.338  20.919  26.646  1.00  0.00     0.060 A 
BRANCH  82  83
ATOM     83  S   UNL A   1      41.791  19.230  26.318  1.00  0.00     0.124 S 
ATOM     84  O   UNL A   1      41.943  18.613  27.631  1.00  0.00    -0.237 OA
ATOM     85  O   UNL A   1      40.419  19.432  25.862  1.00  0.00    -0.237 OA
ATOM     86  O   UNL A   1      42.723  18.771  25.292  1.00  0.00    -0.744 OA
ENDBRANCH  82  83
ENDBRANCH  50  75
BRANCH  62  87
ATOM     87  C   UNL A   1      49.453  26.620  26.403  1.00  0.00     0.058 A 
ATOM     88  C   UNL A   1      49.947  26.799  25.103  1.00  0.00     0.135 A 
ATOM     89  C   UNL A   1      50.285  25.991  27.343  1.00  0.00     0.135 A 
ATOM     90  F   UNL A   1      49.188  27.390  24.166  1.00  0.00    -0.206 F 
ATOM     91  C   UNL A   1      51.215  26.355  24.742  1.00  0.00     0.059 A 
ATOM     92  C   UNL A   1      51.565  25.559  27.010  1.00  0.00     0.059 A 
ATOM     93  F   UNL A   1      49.861  25.804  28.603  1.00  0.00    -0.206 F 
ATOM     94  C   UNL A   1      52.017  25.737  25.703  1.00  0.00     0.060 A 
BRANCH  94  95
ATOM     95  S   UNL A   1      53.676  25.201  25.235  1.00  0.00     0.124 S 
ATOM     96  O   UNL A   1      54.497  25.883  26.229  1.00  0.00    -0.237 OA
ATOM     97  O   UNL A   1      53.588  23.750  25.372  1.00  0.00    -0.237 OA
ATOM     98  O   UNL A   1      53.814  25.685  23.865  1.00  0.00    -0.744 OA
ENDBRANCH  94  95
ENDBRANCH  62  87
ENDBRANCH  36  37
ENDBRANCH  28  31
ENDBRANCH  26  27
ENDBRANCH  25  26
ENDBRANCH  24  25
ENDBRANCH   1  24
TORSDOF 20
ENDMDL
MODEL 2
REMARK VINA RESULT:     -10.4      1.425      8.524
REMARK SMILES CC(C)(C)N(CC(=O)NCCCCNC(=O)c1ccc(-c2c3nc(c(-c4c(F)cc(S(=O)(=O)[O-])cc4F)c4ccc([nH]4)c(-c4c(F)cc(S(=O)(=O)[O-])cc4F)c4nc(c(-c5c(F)cc(S(=O)(=O)[O-])cc5F)c5ccc2[nH]5)C=C4)C=C3)cc1)C(=O)N1CC[C@H](C[NH3+])C1
REMARK SMILES IDX 10 1 9 2 7 3 8 4 6 6 5 7 2 8 1 9 3 10 4 11 83 12 84 13 85 14
REMARK SMILES IDX 86 15 91 16 87 17 88 18 89 19 90 20 11 24 12 25 13 26 14 27
REMARK SMILES IDX 15 28 16 30 17 31 18 32 82 33 19 34 81 35 20 36 21 37 22 38
REMARK SMILES IDX 75 39 23 40 80 41 74 42 76 43 24 44 79 45 73 46 72 47 25 49
REMARK SMILES IDX 59 50 38 51 58 52 39 53 42 54 57 55 77 56 40 57 41 58 56 60
REMARK SMILES IDX 78 61 43 62 26 63 27 64 36 65 28 66 29 67 35 68 37 69 30 70
REMARK SMILES IDX 31 71 32 72 33 73 34 74 60 75 61 76 70 77 62 78 63 79 69 80
REMARK SMILES IDX 71 81 64 82 65 83 66 84 67 85 68 86 44 87 45 88 54 89 46 90
REMARK SMILES IDX 47 91 53 92 55 93 48 94 49 95 50 96 51 97 52 98
REMARK H PARENT 9 5 90 21 90 22 90 23 14 29 76 48 42 59
REMARK Flexibility Score: inf
ROOT
ATOM      1  C   UNL A   1      33.057  30.699  26.919  1.00  0.00     0.116 C 
ENDROOT
BRANCH   1   2
ATOM      2  N   UNL A   1      32.160  29.647  27.327  1.00  0.00    -0.355 N 
ATOM      3  C   UNL A   1      32.029  28.381  26.840  1.00  0.00     0.239 C 
ATOM      4  O   UNL A   1      31.410  27.578  27.551  1.00  0.00    -0.273 OA
ATOM      5  H   UNL A   1      31.554  29.877  28.067  1.00  0.00     0.163 HD
BRANCH   3   6
ATOM      6  C   UNL A   1      32.713  27.882  25.550  1.00  0.00     0.221 C 
BRANCH   6   7
ATOM      7  N   UNL A   1      32.069  26.874  24.680  1.00  0.00    -0.311 N 
BRANCH   7   8
ATOM      8  C   UNL A   1      30.912  27.286  23.777  1.00  0.00     0.037 C 
ATOM      9  C   UNL A   1      30.694  28.820  23.655  1.00  0.00     0.034 C 
ATOM     10  C   UNL A   1      29.565  26.697  24.256  1.00  0.00     0.034 C 
ATOM     11  C   UNL A   1      31.177  26.810  22.325  1.00  0.00     0.034 C 
ENDBRANCH   7   8
BRANCH   7  12
ATOM     12  C   UNL A   1      32.753  25.682  24.351  1.00  0.00     0.320 C 
ATOM     13  O   UNL A   1      33.841  25.674  23.774  1.00  0.00    -0.248 OA
BRANCH  12  14
ATOM     14  N   UNL A   1      32.275  24.512  24.899  1.00  0.00    -0.324 N 
ATOM     15  C   UNL A   1      32.842  23.194  24.700  1.00  0.00     0.122 C 
ATOM     16  C   UNL A   1      31.694  24.543  26.234  1.00  0.00     0.130 C 
ATOM     17  C   UNL A   1      31.773  22.305  25.308  1.00  0.00     0.033 C 
ATOM     18  C   UNL A   1      31.387  23.074  26.582  1.00  0.00     0.065 C 
BRANCH  18  19
ATOM     19  C   UNL A   1      29.935  22.890  27.025  1.00  0.00     0.264 C 
BRANCH  19  20
ATOM     20  N   UNL A   1      29.168  24.127  26.932  1.00  0.00    -0.357 N 
ATOM     21  H   UNL A   1      29.627  24.854  27.480  1.00  0.00     0.344 HD
ATOM     22  H   UNL A   1      28.226  23.971  27.293  1.00  0.00     0.344 HD
ATOM     23  H   UNL A   1      29.114  24.420  25.956  1.00  0.00     0.344 HD
ENDBRANCH  19  20
ENDBRANCH  18  19
ENDBRANCH  12  14
ENDBRANCH   7  12
ENDBRANCH   6   7
ENDBRANCH   3   6
ENDBRANCH   1   2
BRANCH   1  24
ATOM     24  C   UNL A   1      34.385  30.715  27.669  1.00  0.00     0.023 C 
BRANCH  24  25
ATOM     25  C   UNL A   1      34.931  32.096  28.017  1.00  0.00     0.023 C 
BRANCH  25  26
ATOM     26  C   UNL A   1      35.917  32.147  29.181  1.00  0.00     0.116 C 
BRANCH  26  27
ATOM     27  N   UNL A   1      35.706  31.126  30.198  1.00  0.00    -0.352 N 
ATOM     28  C   UNL A   1      36.597  30.188  30.673  1.00  0.00     0.251 C 
ATOM     29  H   UNL A   1      34.808  31.104  30.600  1.00  0.00     0.163 HD
ATOM     30  O   UNL A   1      36.244  29.370  31.512  1.00  0.00    -0.269 OA
BRANCH  28  31
ATOM     31  C   UNL A   1      37.965  30.146  30.114  1.00  0.00     0.039 A 
ATOM     32  C   UNL A   1      39.051  30.195  30.991  1.00  0.00     0.014 A 
ATOM     33  C   UNL A   1      38.172  29.985  28.741  1.00  0.00     0.014 A 
ATOM     34  C   UNL A   1      40.342  29.982  30.501  1.00  0.00     0.010 A 
ATOM     35  C   UNL A   1      39.448  29.696  28.268  1.00  0.00     0.010 A 
ATOM     36  C   UNL A   1      40.544  29.680  29.145  1.00  0.00    -0.014 A 
BRANCH  36  37
ATOM     37  C   UNL A   1      41.887  29.321  28.621  1.00  0.00     0.031 A 
ATOM     38  C   UNL A   1      42.172  27.910  28.187  1.00  0.00     0.074 A 
ATOM     39  C   UNL A   1      42.872  30.242  28.623  1.00  0.00     0.049 A 
ATOM     40  N   UNL A   1      43.305  27.375  27.809  1.00  0.00    -0.248 NA
ATOM     41  C   UNL A   1      41.042  26.967  28.216  1.00  0.00     0.031 C 
ATOM     42  C   UNL A   1      42.736  31.628  29.077  1.00  0.00     0.029 A 
ATOM     43  N   UNL A   1      44.188  30.146  28.247  1.00  0.00    -0.354 N 
ATOM     44  C   UNL A   1      43.031  26.033  27.579  1.00  0.00     0.074 A 
ATOM     45  C   UNL A   1      41.636  25.824  27.907  1.00  0.00     0.031 C 
ATOM     46  C   UNL A   1      43.914  32.257  28.933  1.00  0.00     0.029 A 
ATOM     47  C   UNL A   1      44.897  31.314  28.411  1.00  0.00     0.049 A 
ATOM     48  H   UNL A   1      44.587  29.320  27.891  1.00  0.00     0.167 HD
ATOM     49  C   UNL A   1      43.858  25.066  27.116  1.00  0.00     0.037 A 
ATOM     50  C   UNL A   1      46.194  31.589  28.174  1.00  0.00     0.037 A 
ATOM     51  C   UNL A   1      45.233  25.289  26.753  1.00  0.00     0.049 A 
ATOM     52  C   UNL A   1      47.086  30.509  27.628  1.00  0.00     0.074 A 
ATOM     53  C   UNL A   1      46.136  24.392  26.210  1.00  0.00     0.029 A 
ATOM     54  N   UNL A   1      45.902  26.497  26.890  1.00  0.00    -0.354 N 
ATOM     55  N   UNL A   1      46.795  29.258  27.361  1.00  0.00    -0.248 NA
ATOM     56  C   UNL A   1      48.481  30.876  27.345  1.00  0.00     0.031 C 
ATOM     57  C   UNL A   1      47.359  25.050  26.045  1.00  0.00     0.029 A 
ATOM     58  C   UNL A   1      47.208  26.367  26.451  1.00  0.00     0.049 A 
ATOM     59  H   UNL A   1      45.506  27.324  27.246  1.00  0.00     0.167 HD
ATOM     60  C   UNL A   1      47.961  28.696  26.857  1.00  0.00     0.074 A 
ATOM     61  C   UNL A   1      48.961  29.744  26.846  1.00  0.00     0.031 C 
ATOM     62  C   UNL A   1      48.186  27.425  26.439  1.00  0.00     0.037 A 
BRANCH  49  63
ATOM     63  C   UNL A   1      43.291  23.682  26.966  1.00  0.00     0.058 A 
ATOM     64  C   UNL A   1      43.093  22.845  28.075  1.00  0.00     0.135 A 
ATOM     65  C   UNL A   1      42.925  23.193  25.702  1.00  0.00     0.135 A 
ATOM     66  F   UNL A   1      43.442  23.257  29.304  1.00  0.00    -0.206 F 
ATOM     67  C   UNL A   1      42.586  21.559  27.934  1.00  0.00     0.059 A 
ATOM     68  C   UNL A   1      42.391  21.918  25.540  1.00  0.00     0.059 A 
ATOM     69  F   UNL A   1      43.093  23.952  24.608  1.00  0.00    -0.206 F 
ATOM     70  C   UNL A   1      42.242  21.102  26.661  1.00  0.00     0.060 A 
BRANCH  70  71
ATOM     71  S   UNL A   1      41.591  19.427  26.490  1.00  0.00     0.124 S 
ATOM     72  O   UNL A   1      42.462  18.883  25.453  1.00  0.00    -0.237 OA
ATOM     73  O   UNL A   1      41.782  18.877  27.828  1.00  0.00    -0.237 OA
ATOM     74  O   UNL A   1      40.203  19.640  26.096  1.00  0.00    -0.744 OA
ENDBRANCH  70  71
ENDBRANCH  49  63
BRANCH  50  75
ATOM     75  C   UNL A   1      46.719  32.959  28.421  1.00  0.00     0.058 A 
ATOM     76  C   UNL A   1      47.412  33.258  29.602  1.00  0.00     0.135 A 
ATOM     77  C   UNL A   1      46.552  33.987  27.480  1.00  0.00     0.135 A 
ATOM     78  F   UNL A   1      47.590  32.309  30.534  1.00  0.00    -0.206 F 
ATOM     79  C   UNL A   1      47.911  34.533  29.852  1.00  0.00     0.059 A 
ATOM     80  C   UNL A   1      47.061  35.263  27.697  1.00  0.00     0.059 A 
ATOM     81  F   UNL A   1      45.911  33.745  26.326  1.00  0.00    -0.206 F 
ATOM     82  C   UNL A   1      47.731  35.530  28.891  1.00  0.00     0.060 A 
BRANCH  82  83
ATOM     83  S   UNL A   1      48.427  37.167  29.200  1.00  0.00     0.124 S 
ATOM     84  O   UNL A   1      49.726  36.830  29.771  1.00  0.00    -0.237 OA
ATOM     85  O   UNL A   1      48.449  37.751  27.862  1.00  0.00    -0.237 OA
ATOM     86  O   UNL A   1      47.467  37.769  30.122  1.00  0.00    -0.744 OA
ENDBRANCH  82  83
ENDBRANCH  50  75
BRANCH  62  87
ATOM     87  C   UNL A   1      49.553  27.106  25.906  1.00  0.00     0.058 A 
ATOM     88  C   UNL A   1      50.546  26.540  26.719  1.00  0.00     0.135 A 
ATOM     89  C   UNL A   1      49.853  27.317  24.550  1.00  0.00     0.135 A 
ATOM     90  F   UNL A   1      50.309  26.324  28.023  1.00  0.00    -0.206 F 
ATOM     91  C   UNL A   1      51.798  26.209  26.211  1.00  0.00     0.059 A 
ATOM     92  C   UNL A   1      51.090  26.972  24.016  1.00  0.00     0.059 A 
ATOM     93  F   UNL A   1      48.934  27.847  23.729  1.00  0.00    -0.206 F 
ATOM     94  C   UNL A   1      52.060  26.428  24.858  1.00  0.00     0.060 A 
BRANCH  94  95
ATOM     95  S   UNL A   1      53.674  25.958  24.199  1.00  0.00     0.124 S 
ATOM     96  O   UNL A   1      53.856  24.635  24.785  1.00  0.00    -0.237 OA
ATOM     97  O   UNL A   1      53.446  25.988  22.757  1.00  0.00    -0.237 OA
ATOM     98  O   UNL A   1      54.563  26.999  24.707  1.00  0.00    -0.744 OA
ENDBRANCH  94  95
ENDBRANCH  62  87
ENDBRANCH  36  37
ENDBRANCH  28  31
ENDBRANCH  26  27
ENDBRANCH  25  26
ENDBRANCH  24  25
ENDBRANCH   1  24
TORSDOF 20
ENDMDL
MODEL 3
REMARK VINA RESULT:     -10.3      6.358     10.940
REMARK SMILES CC(C)(C)N(CC(=O)NCCCCNC(=O)c1ccc(-c2c3nc(c(-c4c(F)cc(S(=O)(=O)[O-])cc4F)c4ccc([nH]4)c(-c4c(F)cc(S(=O)(=O)[O-])cc4F)c4nc(c(-c5c(F)cc(S(=O)(=O)[O-])cc5F)c5ccc2[nH]5)C=C4)C=C3)cc1)C(=O)N1CC[C@H](C[NH3+])C1
REMARK SMILES IDX 10 1 9 2 7 3 8 4 6 6 5 7 2 8 1 9 3 10 4 11 83 12 84 13 85 14
REMARK SMILES IDX 86 15 91 16 87 17 88 18 89 19 90 20 11 24 12 25 13 26 14 27
REMARK SMILES IDX 15 28 16 30 17 31 18 32 82 33 19 34 81 35 20 36 21 37 22 38
REMARK SMILES IDX 75 39 23 40 80 41 74 42 76 43 24 44 79 45 73 46 72 47 25 49
REMARK SMILES IDX 59 50 38 51 58 52 39 53 42 54 57 55 77 56 40 57 41 58 56 60
REMARK SMILES IDX 78 61 43 62 26 63 27 64 36 65 28 66 29 67 35 68 37 69 30 70
REMARK SMILES IDX 31 71 32 72 33 73 34 74 60 75 61 76 70 77 62 78 63 79 69 80
REMARK SMILES IDX 71 81 64 82 65 83 66 84 67 85 68 86 44 87 45 88 54 89 46 90
REMARK SMILES IDX 47 91 53 92 55 93 48 94 49 95 50 96 51 97 52 98
REMARK H PARENT 9 5 90 21 90 22 90 23 14 29 76 48 42 59
REMARK Flexibility Score: inf
ROOT
ATOM      1  C   UNL A   1      34.202  29.074  27.247  1.00  0.00     0.116 C 
ENDROOT
BRANCH   1   2
ATOM      2  N   UNL A   1      32.933  28.582  27.724  1.00  0.00    -0.355 N 
ATOM      3  C   UNL A   1      31.882  28.070  27.026  1.00  0.00     0.239 C 
ATOM      4  O   UNL A   1      31.039  27.440  27.678  1.00  0.00    -0.273 OA
ATOM      5  H   UNL A   1      32.810  28.620  28.700  1.00  0.00     0.163 HD
BRANCH   3   6
ATOM      6  C   UNL A   1      31.768  28.120  25.487  1.00  0.00     0.221 C 
BRANCH   6   7
ATOM      7  N   UNL A   1      31.895  26.896  24.668  1.00  0.00    -0.311 N 
BRANCH   7   8
ATOM      8  C   UNL A   1      30.783  26.520  23.696  1.00  0.00     0.037 C 
ATOM      9  C   UNL A   1      31.024  25.202  22.907  1.00  0.00     0.034 C 
ATOM     10  C   UNL A   1      30.544  27.619  22.634  1.00  0.00     0.034 C 
ATOM     11  C   UNL A   1      29.461  26.278  24.471  1.00  0.00     0.034 C 
ENDBRANCH   7   8
BRANCH   7  12
ATOM     12  C   UNL A   1      33.167  26.318  24.448  1.00  0.00     0.320 C 
ATOM     13  O   UNL A   1      34.064  26.894  23.833  1.00  0.00    -0.248 OA
BRANCH  12  14
ATOM     14  N   UNL A   1      33.462  25.167  25.145  1.00  0.00    -0.324 N 
ATOM     15  C   UNL A   1      32.622  24.553  26.153  1.00  0.00     0.122 C 
ATOM     16  C   UNL A   1      34.191  24.101  24.473  1.00  0.00     0.130 C 
ATOM     17  C   UNL A   1      33.556  23.506  26.734  1.00  0.00     0.033 C 
ATOM     18  C   UNL A   1      34.237  22.935  25.479  1.00  0.00     0.065 C 
BRANCH  18  19
ATOM     19  C   UNL A   1      35.664  22.433  25.698  1.00  0.00     0.264 C 
BRANCH  19  20
ATOM     20  N   UNL A   1      36.483  23.395  26.426  1.00  0.00    -0.357 N 
ATOM     21  H   UNL A   1      36.325  23.287  27.428  1.00  0.00     0.344 HD
ATOM     22  H   UNL A   1      36.230  24.342  26.141  1.00  0.00     0.344 HD
ATOM     23  H   UNL A   1      37.468  23.230  26.217  1.00  0.00     0.344 HD
ENDBRANCH  19  20
ENDBRANCH  18  19
ENDBRANCH  12  14
ENDBRANCH   7  12
ENDBRANCH   6   7
ENDBRANCH   3   6
ENDBRANCH   1   2
BRANCH   1  24
ATOM     24  C   UNL A   1      34.605  30.426  27.825  1.00  0.00     0.023 C 
BRANCH  24  25
ATOM     25  C   UNL A   1      33.503  31.480  27.873  1.00  0.00     0.023 C 
BRANCH  25  26
ATOM     26  C   UNL A   1      33.852  32.835  27.262  1.00  0.00     0.116 C 
BRANCH  26  27
ATOM     27  N   UNL A   1      33.077  33.951  27.787  1.00  0.00    -0.352 N 
ATOM     28  C   UNL A   1      33.294  34.686  28.932  1.00  0.00     0.251 C 
ATOM     29  H   UNL A   1      32.295  34.217  27.250  1.00  0.00     0.163 HD
ATOM     30  O   UNL A   1      32.519  35.579  29.250  1.00  0.00    -0.269 OA
BRANCH  28  31
ATOM     31  C   UNL A   1      34.442  34.346  29.799  1.00  0.00     0.039 A 
ATOM     32  C   UNL A   1      34.203  33.655  30.990  1.00  0.00     0.014 A 
ATOM     33  C   UNL A   1      35.750  34.639  29.402  1.00  0.00     0.014 A 
ATOM     34  C   UNL A   1      35.282  33.172  31.735  1.00  0.00     0.010 A 
ATOM     35  C   UNL A   1      36.819  34.091  30.103  1.00  0.00     0.010 A 
ATOM     36  C   UNL A   1      36.596  33.342  31.269  1.00  0.00    -0.014 A 
BRANCH  36  37
ATOM     37  C   UNL A   1      37.753  32.728  31.969  1.00  0.00     0.031 A 
ATOM     38  C   UNL A   1      38.447  31.535  31.372  1.00  0.00     0.074 A 
ATOM     39  C   UNL A   1      38.118  33.186  33.183  1.00  0.00     0.049 A 
ATOM     40  N   UNL A   1      39.398  30.793  31.879  1.00  0.00    -0.248 NA
ATOM     41  C   UNL A   1      37.987  31.098  30.043  1.00  0.00     0.031 C 
ATOM     42  C   UNL A   1      37.484  34.298  33.896  1.00  0.00     0.029 A 
ATOM     43  N   UNL A   1      39.102  32.764  34.042  1.00  0.00    -0.354 N 
ATOM     44  C   UNL A   1      39.632  29.790  30.947  1.00  0.00     0.074 A 
ATOM     45  C   UNL A   1      38.691  29.990  29.865  1.00  0.00     0.031 C 
ATOM     46  C   UNL A   1      38.107  34.481  35.072  1.00  0.00     0.029 A 
ATOM     47  C   UNL A   1      39.160  33.482  35.214  1.00  0.00     0.049 A 
ATOM     48  H   UNL A   1      39.709  32.017  33.838  1.00  0.00     0.167 HD
ATOM     49  C   UNL A   1      40.561  28.805  30.977  1.00  0.00     0.037 A 
ATOM     50  C   UNL A   1      39.967  33.345  36.284  1.00  0.00     0.037 A 
ATOM     51  C   UNL A   1      41.521  28.636  32.035  1.00  0.00     0.049 A 
ATOM     52  C   UNL A   1      41.013  32.265  36.281  1.00  0.00     0.074 A 
ATOM     53  C   UNL A   1      42.547  27.712  32.128  1.00  0.00     0.029 A 
ATOM     54  N   UNL A   1      41.578  29.413  33.184  1.00  0.00    -0.354 N 
ATOM     55  N   UNL A   1      41.259  31.361  35.363  1.00  0.00    -0.248 NA
ATOM     56  C   UNL A   1      41.896  32.189  37.453  1.00  0.00     0.031 C 
ATOM     57  C   UNL A   1      43.206  27.912  33.345  1.00  0.00     0.029 A 
ATOM     58  C   UNL A   1      42.615  28.984  33.994  1.00  0.00     0.049 A 
ATOM     59  H   UNL A   1      40.971  30.159  33.391  1.00  0.00     0.167 HD
ATOM     60  C   UNL A   1      42.339  30.624  35.836  1.00  0.00     0.074 A 
ATOM     61  C   UNL A   1      42.705  31.194  37.116  1.00  0.00     0.031 C 
ATOM     62  C   UNL A   1      42.970  29.571  35.261  1.00  0.00     0.037 A 
BRANCH  49  63
ATOM     63  C   UNL A   1      40.588  27.843  29.822  1.00  0.00     0.058 A 
ATOM     64  C   UNL A   1      41.561  27.934  28.815  1.00  0.00     0.135 A 
ATOM     65  C   UNL A   1      39.643  26.810  29.730  1.00  0.00     0.135 A 
ATOM     66  F   UNL A   1      42.478  28.913  28.846  1.00  0.00    -0.206 F 
ATOM     67  C   UNL A   1      41.575  27.055  27.737  1.00  0.00     0.059 A 
ATOM     68  C   UNL A   1      39.654  25.903  28.673  1.00  0.00     0.059 A 
ATOM     69  F   UNL A   1      38.690  26.678  30.666  1.00  0.00    -0.206 F 
ATOM     70  C   UNL A   1      40.614  26.046  27.672  1.00  0.00     0.060 A 
BRANCH  70  71
ATOM     71  S   UNL A   1      40.639  24.917  26.264  1.00  0.00     0.124 S 
ATOM     72  O   UNL A   1      39.225  24.575  26.143  1.00  0.00    -0.237 OA
ATOM     73  O   UNL A   1      41.180  25.754  25.199  1.00  0.00    -0.237 OA
ATOM     74  O   UNL A   1      41.510  23.835  26.711  1.00  0.00    -0.744 OA
ENDBRANCH  70  71
ENDBRANCH  49  63
BRANCH  50  75
ATOM     75  C   UNL A   1      39.837  34.278  37.435  1.00  0.00     0.058 A 
ATOM     76  C   UNL A   1      39.032  33.950  38.536  1.00  0.00     0.135 A 
ATOM     77  C   UNL A   1      40.523  35.501  37.466  1.00  0.00     0.135 A 
ATOM     78  F   UNL A   1      38.352  32.794  38.548  1.00  0.00    -0.206 F 
ATOM     79  C   UNL A   1      38.899  34.809  39.622  1.00  0.00     0.059 A 
ATOM     80  C   UNL A   1      40.423  36.367  38.550  1.00  0.00     0.059 A 
ATOM     81  F   UNL A   1      41.320  35.851  36.444  1.00  0.00    -0.206 F 
ATOM     82  C   UNL A   1      39.600  36.016  39.620  1.00  0.00     0.060 A 
BRANCH  82  83
ATOM     83  S   UNL A   1      39.461  37.101  41.057  1.00  0.00     0.124 S 
ATOM     84  O   UNL A   1      38.552  38.128  40.563  1.00  0.00    -0.237 OA
ATOM     85  O   UNL A   1      38.920  36.201  42.072  1.00  0.00    -0.237 OA
ATOM     86  O   UNL A   1      40.839  37.531  41.285  1.00  0.00    -0.744 OA
ENDBRANCH  82  83
ENDBRANCH  50  75
BRANCH  62  87
ATOM     87  C   UNL A   1      44.142  28.985  35.996  1.00  0.00     0.058 A 
ATOM     88  C   UNL A   1      44.005  27.862  36.824  1.00  0.00     0.135 A 
ATOM     89  C   UNL A   1      45.428  29.523  35.823  1.00  0.00     0.135 A 
ATOM     90  F   UNL A   1      42.795  27.315  37.026  1.00  0.00    -0.206 F 
ATOM     91  C   UNL A   1      45.101  27.299  37.471  1.00  0.00     0.059 A 
ATOM     92  C   UNL A   1      46.541  28.963  36.442  1.00  0.00     0.059 A 
ATOM     93  F   UNL A   1      45.614  30.592  35.034  1.00  0.00    -0.206 F 
ATOM     94  C   UNL A   1      46.365  27.857  37.273  1.00  0.00     0.060 A 
BRANCH  94  95
ATOM     95  S   UNL A   1      47.786  27.095  38.085  1.00  0.00     0.124 S 
ATOM     96  O   UNL A   1      48.771  27.089  37.009  1.00  0.00    -0.237 OA
ATOM     97  O   UNL A   1      48.053  28.018  39.184  1.00  0.00    -0.237 OA
ATOM     98  O   UNL A   1      47.284  25.784  38.486  1.00  0.00    -0.744 OA
ENDBRANCH  94  95
ENDBRANCH  62  87
ENDBRANCH  36  37
ENDBRANCH  28  31
ENDBRANCH  26  27
ENDBRANCH  25  26
ENDBRANCH  24  25
ENDBRANCH   1  24
TORSDOF 20
ENDMDL
