MODEL 1
REMARK VINA RESULT:     -12.4      0.000      0.000
REMARK SMILES COc1ccc2c(CC(=O)NCCCCNC(=O)c3ccc(-c4c5nc(c(-c6c(F)cc(S(=O)(=O)[O-])cc6F)c6ccc([nH]6)c(-c6c(F)cc(S(=O)(=O)[O-])cc6F)c6nc(c(-c7c(F)cc(S(=O)(=O)[O-])cc7F)c7ccc4[nH]7)C=C6)C=C5)cc3)c(C(=O)c3cc(C)ccn3)[nH]c2c1
REMARK SMILES IDX 13 1 12 2 11 3 9 4 10 5 8 7 7 8 3 9 4 10 97 11 5 12 96 13
REMARK SMILES IDX 6 14 95 15 85 16 2 18 1 19 86 20 87 21 88 22 89 23 94 24
REMARK SMILES IDX 90 25 93 26 91 27 92 28 14 29 15 30 16 31 17 32 18 34 19 35
REMARK SMILES IDX 20 36 84 37 21 38 83 39 22 40 23 41 24 42 77 43 25 44 82 45
REMARK SMILES IDX 76 46 78 47 26 48 81 49 75 50 74 51 27 53 61 54 40 55 60 56
REMARK SMILES IDX 41 57 44 58 59 59 79 60 42 61 43 62 58 64 80 65 45 66 28 67
REMARK SMILES IDX 29 68 38 69 30 70 31 71 37 72 39 73 32 74 33 75 34 76 35 77
REMARK SMILES IDX 36 78 62 79 63 80 72 81 64 82 65 83 71 84 73 85 66 86 67 87
REMARK SMILES IDX 68 88 69 89 70 90 46 91 47 92 56 93 48 94 49 95 55 96 57 97
REMARK SMILES IDX 50 98 51 99 52 100 53 101 54 102
REMARK H PARENT 11 6 95 17 16 33 78 52 44 63
REMARK Flexibility Score: inf
ROOT
ATOM      1  C   UNL A   1      32.344  26.604  26.367  1.00  0.00     0.023 C 
ENDROOT
BRANCH   1   2
ATOM      2  C   UNL A   1      33.467  26.283  25.382  1.00  0.00     0.116 C 
BRANCH   2   3
ATOM      3  N   UNL A   1      34.429  25.342  25.915  1.00  0.00    -0.356 N 
ATOM      4  C   UNL A   1      35.215  24.435  25.264  1.00  0.00     0.224 C 
ATOM      5  O   UNL A   1      36.106  23.890  25.923  1.00  0.00    -0.275 OA
ATOM      6  H   UNL A   1      34.532  25.360  26.894  1.00  0.00     0.163 HD
BRANCH   4   7
ATOM      7  C   UNL A   1      35.093  24.209  23.760  1.00  0.00     0.138 C 
BRANCH   7   8
ATOM      8  C   UNL A   1      33.960  23.312  23.335  1.00  0.00    -0.002 A 
ATOM      9  C   UNL A   1      32.846  19.340  24.210  1.00  0.00     0.120 A 
ATOM     10  C   UNL A   1      33.949  19.817  24.914  1.00  0.00     0.047 A 
ATOM     11  C   UNL A   1      32.202  20.143  23.262  1.00  0.00     0.073 A 
ATOM     12  C   UNL A   1      34.406  21.126  24.715  1.00  0.00     0.014 A 
ATOM     13  C   UNL A   1      32.663  21.454  23.091  1.00  0.00     0.050 A 
ATOM     14  C   UNL A   1      33.749  21.968  23.792  1.00  0.00     0.004 A 
ATOM     15  N   UNL A   1      32.213  22.452  22.261  1.00  0.00    -0.351 N 
ATOM     16  C   UNL A   1      32.905  23.626  22.475  1.00  0.00     0.093 A 
ATOM     17  H   UNL A   1      31.493  22.343  21.599  1.00  0.00     0.167 HD
BRANCH   9  18
ATOM     18  O   UNL A   1      32.338  18.073  24.343  1.00  0.00    -0.497 OA
ATOM     19  C   UNL A   1      33.031  17.076  23.598  1.00  0.00     0.278 C 
ENDBRANCH   9  18
BRANCH  16  20
ATOM     20  C   UNL A   1      32.579  24.920  21.881  1.00  0.00     0.227 C 
ATOM     21  O   UNL A   1      33.196  25.400  20.935  1.00  0.00    -0.285 OA
BRANCH  20  22
ATOM     22  C   UNL A   1      31.515  25.753  22.501  1.00  0.00     0.113 A 
ATOM     23  C   UNL A   1      31.412  27.100  22.166  1.00  0.00     0.036 A 
ATOM     24  N   UNL A   1      30.675  25.119  23.354  1.00  0.00    -0.253 NA
ATOM     25  C   UNL A   1      30.384  27.849  22.741  1.00  0.00    -0.047 A 
ATOM     26  C   UNL A   1      29.671  25.856  23.871  1.00  0.00     0.112 A 
ATOM     27  C   UNL A   1      30.211  29.303  22.425  1.00  0.00     0.044 C 
ATOM     28  C   UNL A   1      29.489  27.204  23.600  1.00  0.00     0.023 A 
ENDBRANCH  20  22
ENDBRANCH  16  20
ENDBRANCH   7   8
ENDBRANCH   4   7
ENDBRANCH   2   3
ENDBRANCH   1   2
BRANCH   1  29
ATOM     29  C   UNL A   1      32.314  28.051  26.866  1.00  0.00     0.023 C 
BRANCH  29  30
ATOM     30  C   UNL A   1      33.675  28.688  27.121  1.00  0.00     0.116 C 
BRANCH  30  31
ATOM     31  N   UNL A   1      33.592  30.034  27.671  1.00  0.00    -0.352 N 
ATOM     32  C   UNL A   1      34.565  30.737  28.344  1.00  0.00     0.251 C 
ATOM     33  H   UNL A   1      32.733  30.498  27.545  1.00  0.00     0.163 HD
ATOM     34  O   UNL A   1      34.314  31.836  28.832  1.00  0.00    -0.269 OA
BRANCH  32  35
ATOM     35  C   UNL A   1      35.903  30.133  28.512  1.00  0.00     0.039 A 
ATOM     36  C   UNL A   1      36.791  30.143  27.433  1.00  0.00     0.014 A 
ATOM     37  C   UNL A   1      36.298  29.616  29.749  1.00  0.00     0.014 A 
ATOM     38  C   UNL A   1      38.107  29.711  27.617  1.00  0.00     0.010 A 
ATOM     39  C   UNL A   1      37.623  29.242  29.945  1.00  0.00     0.010 A 
ATOM     40  C   UNL A   1      38.544  29.299  28.886  1.00  0.00    -0.014 A 
BRANCH  40  41
ATOM     41  C   UNL A   1      39.962  28.947  29.150  1.00  0.00     0.031 A 
ATOM     42  C   UNL A   1      40.909  29.992  29.668  1.00  0.00     0.074 A 
ATOM     43  C   UNL A   1      40.418  27.721  28.824  1.00  0.00     0.049 A 
ATOM     44  N   UNL A   1      42.206  29.933  29.811  1.00  0.00    -0.248 NA
ATOM     45  C   UNL A   1      40.318  31.285  30.049  1.00  0.00     0.031 C 
ATOM     46  C   UNL A   1      39.605  26.632  28.276  1.00  0.00     0.029 A 
ATOM     47  N   UNL A   1      41.683  27.191  28.880  1.00  0.00    -0.354 N 
ATOM     48  C   UNL A   1      42.593  31.185  30.271  1.00  0.00     0.074 A 
ATOM     49  C   UNL A   1      41.396  31.995  30.352  1.00  0.00     0.031 C 
ATOM     50  C   UNL A   1      40.390  25.566  28.052  1.00  0.00     0.029 A 
ATOM     51  C   UNL A   1      41.767  25.905  28.400  1.00  0.00     0.049 A 
ATOM     52  H   UNL A   1      42.458  27.686  29.232  1.00  0.00     0.167 HD
ATOM     53  C   UNL A   1      43.832  31.617  30.607  1.00  0.00     0.037 A 
ATOM     54  C   UNL A   1      42.833  25.098  28.239  1.00  0.00     0.037 A 
ATOM     55  C   UNL A   1      45.014  30.797  30.555  1.00  0.00     0.049 A 
ATOM     56  C   UNL A   1      44.198  25.595  28.629  1.00  0.00     0.074 A 
ATOM     57  C   UNL A   1      46.306  31.125  30.927  1.00  0.00     0.029 A 
ATOM     58  N   UNL A   1      45.047  29.485  30.107  1.00  0.00    -0.354 N 
ATOM     59  N   UNL A   1      44.539  26.768  29.105  1.00  0.00    -0.248 NA
ATOM     60  C   UNL A   1      45.322  24.663  28.462  1.00  0.00     0.031 C 
ATOM     61  C   UNL A   1      47.126  30.021  30.678  1.00  0.00     0.029 A 
ATOM     62  C   UNL A   1      46.339  28.992  30.184  1.00  0.00     0.049 A 
ATOM     63  H   UNL A   1      44.268  28.980  29.781  1.00  0.00     0.167 HD
ATOM     64  C   UNL A   1      45.912  26.706  29.321  1.00  0.00     0.074 A 
ATOM     65  C   UNL A   1      46.338  25.379  28.925  1.00  0.00     0.031 C 
ATOM     66  C   UNL A   1      46.741  27.661  29.807  1.00  0.00     0.037 A 
BRANCH  53  67
ATOM     67  C   UNL A   1      43.970  33.042  31.062  1.00  0.00     0.058 A 
ATOM     68  C   UNL A   1      43.797  33.402  32.408  1.00  0.00     0.135 A 
ATOM     69  C   UNL A   1      44.309  34.054  30.150  1.00  0.00     0.135 A 
ATOM     70  F   UNL A   1      43.458  32.474  33.317  1.00  0.00    -0.206 F 
ATOM     71  C   UNL A   1      43.923  34.722  32.828  1.00  0.00     0.059 A 
ATOM     72  C   UNL A   1      44.463  35.377  30.552  1.00  0.00     0.059 A 
ATOM     73  F   UNL A   1      44.486  33.763  28.852  1.00  0.00    -0.206 F 
ATOM     74  C   UNL A   1      44.251  35.703  31.892  1.00  0.00     0.060 A 
BRANCH  74  75
ATOM     75  S   UNL A   1      44.408  37.413  32.451  1.00  0.00     0.124 S 
ATOM     76  O   UNL A   1      43.561  37.407  33.639  1.00  0.00    -0.237 OA
ATOM     77  O   UNL A   1      45.842  37.534  32.697  1.00  0.00    -0.237 OA
ATOM     78  O   UNL A   1      43.903  38.187  31.322  1.00  0.00    -0.744 OA
ENDBRANCH  74  75
ENDBRANCH  53  67
BRANCH  54  79
ATOM     79  C   UNL A   1      42.648  23.727  27.695  1.00  0.00     0.058 A 
ATOM     80  C   UNL A   1      42.532  22.625  28.555  1.00  0.00     0.135 A 
ATOM     81  C   UNL A   1      42.562  23.493  26.314  1.00  0.00     0.135 A 
ATOM     82  F   UNL A   1      42.615  22.799  29.882  1.00  0.00    -0.206 F 
ATOM     83  C   UNL A   1      42.345  21.336  28.066  1.00  0.00     0.059 A 
ATOM     84  C   UNL A   1      42.355  22.216  25.802  1.00  0.00     0.059 A 
ATOM     85  F   UNL A   1      42.652  24.517  25.452  1.00  0.00    -0.206 F 
ATOM     86  C   UNL A   1      42.256  21.141  26.686  1.00  0.00     0.060 A 
BRANCH  86  87
ATOM     87  S   UNL A   1      41.957  19.473  26.063  1.00  0.00     0.124 S 
ATOM     88  O   UNL A   1      42.795  19.450  24.870  1.00  0.00    -0.237 OA
ATOM     89  O   UNL A   1      42.407  18.642  27.175  1.00  0.00    -0.237 OA
ATOM     90  O   UNL A   1      40.516  19.459  25.825  1.00  0.00    -0.744 OA
ENDBRANCH  86  87
ENDBRANCH  54  79
BRANCH  66  91
ATOM     91  C   UNL A   1      48.188  27.304  29.986  1.00  0.00     0.058 A 
ATOM     92  C   UNL A   1      49.120  27.466  28.950  1.00  0.00     0.135 A 
ATOM     93  C   UNL A   1      48.663  26.883  31.239  1.00  0.00     0.135 A 
ATOM     94  F   UNL A   1      48.713  27.858  27.732  1.00  0.00    -0.206 F 
ATOM     95  C   UNL A   1      50.475  27.223  29.150  1.00  0.00     0.059 A 
ATOM     96  C   UNL A   1      50.015  26.653  31.466  1.00  0.00     0.059 A 
ATOM     97  F   UNL A   1      47.810  26.720  32.264  1.00  0.00    -0.206 F 
ATOM     98  C   UNL A   1      50.914  26.824  30.414  1.00  0.00     0.060 A 
BRANCH  98  99
ATOM     99  S   UNL A   1      52.683  26.583  30.683  1.00  0.00     0.124 S 
ATOM    100  O   UNL A   1      53.051  27.827  31.352  1.00  0.00    -0.237 OA
ATOM    101  O   UNL A   1      52.714  25.384  31.515  1.00  0.00    -0.237 OA
ATOM    102  O   UNL A   1      53.211  26.415  29.333  1.00  0.00    -0.744 OA
ENDBRANCH  98  99
ENDBRANCH  66  91
ENDBRANCH  40  41
ENDBRANCH  32  35
ENDBRANCH  30  31
ENDBRANCH  29  30
ENDBRANCH   1  29
TORSDOF 18
ENDMDL
MODEL 2
REMARK VINA RESULT:     -12.1      3.160      9.509
REMARK SMILES COc1ccc2c(CC(=O)NCCCCNC(=O)c3ccc(-c4c5nc(c(-c6c(F)cc(S(=O)(=O)[O-])cc6F)c6ccc([nH]6)c(-c6c(F)cc(S(=O)(=O)[O-])cc6F)c6nc(c(-c7c(F)cc(S(=O)(=O)[O-])cc7F)c7ccc4[nH]7)C=C6)C=C5)cc3)c(C(=O)c3cc(C)ccn3)[nH]c2c1
REMARK SMILES IDX 13 1 12 2 11 3 9 4 10 5 8 7 7 8 3 9 4 10 97 11 5 12 96 13
REMARK SMILES IDX 6 14 95 15 85 16 2 18 1 19 86 20 87 21 88 22 89 23 94 24
REMARK SMILES IDX 90 25 93 26 91 27 92 28 14 29 15 30 16 31 17 32 18 34 19 35
REMARK SMILES IDX 20 36 84 37 21 38 83 39 22 40 23 41 24 42 77 43 25 44 82 45
REMARK SMILES IDX 76 46 78 47 26 48 81 49 75 50 74 51 27 53 61 54 40 55 60 56
REMARK SMILES IDX 41 57 44 58 59 59 79 60 42 61 43 62 58 64 80 65 45 66 28 67
REMARK SMILES IDX 29 68 38 69 30 70 31 71 37 72 39 73 32 74 33 75 34 76 35 77
REMARK SMILES IDX 36 78 62 79 63 80 72 81 64 82 65 83 71 84 73 85 66 86 67 87
REMARK SMILES IDX 68 88 69 89 70 90 46 91 47 92 56 93 48 94 49 95 55 96 57 97
REMARK SMILES IDX 50 98 51 99 52 100 53 101 54 102
REMARK H PARENT 11 6 95 17 16 33 78 52 44 63
REMARK Flexibility Score: inf
ROOT
ATOM      1  C   UNL A   1      34.670  24.015  24.026  1.00  0.00     0.023 C 
ENDROOT
BRANCH   1   2
ATOM      2  C   UNL A   1      33.637  23.405  23.079  1.00  0.00     0.116 C 
BRANCH   2   3
ATOM      3  N   UNL A   1      33.001  24.391  22.234  1.00  0.00    -0.356 N 
ATOM      4  C   UNL A   1      31.813  25.046  22.398  1.00  0.00     0.224 C 
ATOM      5  O   UNL A   1      31.587  25.995  21.641  1.00  0.00    -0.275 OA
ATOM      6  H   UNL A   1      33.499  24.625  21.417  1.00  0.00     0.163 HD
BRANCH   4   7
ATOM      7  C   UNL A   1      30.874  24.714  23.553  1.00  0.00     0.138 C 
BRANCH   7   8
ATOM      8  C   UNL A   1      31.132  25.472  24.829  1.00  0.00    -0.002 A 
ATOM      9  C   UNL A   1      31.768  29.531  25.779  1.00  0.00     0.120 A 
ATOM     10  C   UNL A   1      31.469  29.272  24.444  1.00  0.00     0.047 A 
ATOM     11  C   UNL A   1      31.875  28.485  26.702  1.00  0.00     0.073 A 
ATOM     12  C   UNL A   1      31.227  27.962  24.011  1.00  0.00     0.014 A 
ATOM     13  C   UNL A   1      31.611  27.184  26.253  1.00  0.00     0.050 A 
ATOM     14  C   UNL A   1      31.291  26.895  24.932  1.00  0.00     0.004 A 
ATOM     15  N   UNL A   1      31.621  25.992  26.935  1.00  0.00    -0.351 N 
ATOM     16  C   UNL A   1      31.216  24.953  26.123  1.00  0.00     0.093 A 
ATOM     17  H   UNL A   1      31.883  25.892  27.879  1.00  0.00     0.167 HD
BRANCH   9  18
ATOM     18  O   UNL A   1      32.020  30.781  26.282  1.00  0.00    -0.497 OA
ATOM     19  C   UNL A   1      33.061  30.829  27.254  1.00  0.00     0.278 C 
ENDBRANCH   9  18
BRANCH  16  20
ATOM     20  C   UNL A   1      30.958  23.585  26.566  1.00  0.00     0.227 C 
ATOM     21  O   UNL A   1      29.967  23.263  27.212  1.00  0.00    -0.285 OA
BRANCH  20  22
ATOM     22  C   UNL A   1      31.985  22.538  26.315  1.00  0.00     0.113 A 
ATOM     23  C   UNL A   1      31.759  21.572  25.339  1.00  0.00     0.036 A 
ATOM     24  N   UNL A   1      33.117  22.615  27.056  1.00  0.00    -0.253 NA
ATOM     25  C   UNL A   1      32.755  20.621  25.104  1.00  0.00    -0.047 A 
ATOM     26  C   UNL A   1      34.075  21.706  26.789  1.00  0.00     0.112 A 
ATOM     27  C   UNL A   1      32.581  19.554  24.068  1.00  0.00     0.044 C 
ATOM     28  C   UNL A   1      33.941  20.704  25.839  1.00  0.00     0.023 A 
ENDBRANCH  20  22
ENDBRANCH  16  20
ENDBRANCH   7   8
ENDBRANCH   4   7
ENDBRANCH   2   3
ENDBRANCH   1   2
BRANCH   1  29
ATOM     29  C   UNL A   1      36.021  23.297  24.062  1.00  0.00     0.023 C 
BRANCH  29  30
ATOM     30  C   UNL A   1      36.932  23.666  25.227  1.00  0.00     0.116 C 
BRANCH  30  31
ATOM     31  N   UNL A   1      38.076  22.778  25.374  1.00  0.00    -0.352 N 
ATOM     32  C   UNL A   1      39.261  23.022  26.028  1.00  0.00     0.251 C 
ATOM     33  H   UNL A   1      37.991  21.893  24.951  1.00  0.00     0.163 HD
ATOM     34  O   UNL A   1      40.176  22.203  25.987  1.00  0.00    -0.269 OA
BRANCH  32  35
ATOM     35  C   UNL A   1      39.437  24.302  26.745  1.00  0.00     0.039 A 
ATOM     36  C   UNL A   1      38.892  24.442  28.025  1.00  0.00     0.014 A 
ATOM     37  C   UNL A   1      40.190  25.335  26.180  1.00  0.00     0.014 A 
ATOM     38  C   UNL A   1      39.174  25.587  28.773  1.00  0.00     0.010 A 
ATOM     39  C   UNL A   1      40.517  26.447  26.949  1.00  0.00     0.010 A 
ATOM     40  C   UNL A   1      40.025  26.578  28.257  1.00  0.00    -0.014 A 
BRANCH  40  41
ATOM     41  C   UNL A   1      40.443  27.750  29.066  1.00  0.00     0.031 A 
ATOM     42  C   UNL A   1      41.726  27.702  29.847  1.00  0.00     0.074 A 
ATOM     43  C   UNL A   1      39.620  28.811  29.180  1.00  0.00     0.049 A 
ATOM     44  N   UNL A   1      42.187  28.546  30.731  1.00  0.00    -0.248 NA
ATOM     45  C   UNL A   1      42.589  26.531  29.623  1.00  0.00     0.031 C 
ATOM     46  C   UNL A   1      38.329  28.960  28.502  1.00  0.00     0.029 A 
ATOM     47  N   UNL A   1      39.732  29.956  29.929  1.00  0.00    -0.354 N 
ATOM     48  C   UNL A   1      43.378  28.000  31.190  1.00  0.00     0.074 A 
ATOM     49  C   UNL A   1      43.553  26.734  30.510  1.00  0.00     0.031 C 
ATOM     50  C   UNL A   1      37.774  30.129  28.862  1.00  0.00     0.029 A 
ATOM     51  C   UNL A   1      38.646  30.794  29.827  1.00  0.00     0.049 A 
ATOM     52  H   UNL A   1      40.517  30.159  30.487  1.00  0.00     0.167 HD
ATOM     53  C   UNL A   1      44.253  28.513  32.088  1.00  0.00     0.037 A 
ATOM     54  C   UNL A   1      38.374  31.956  30.453  1.00  0.00     0.037 A 
ATOM     55  C   UNL A   1      44.091  29.787  32.735  1.00  0.00     0.049 A 
ATOM     56  C   UNL A   1      39.365  32.511  31.437  1.00  0.00     0.074 A 
ATOM     57  C   UNL A   1      44.949  30.419  33.618  1.00  0.00     0.029 A 
ATOM     58  N   UNL A   1      42.999  30.626  32.568  1.00  0.00    -0.354 N 
ATOM     59  N   UNL A   1      40.510  32.003  31.826  1.00  0.00    -0.248 NA
ATOM     60  C   UNL A   1      39.032  33.797  32.068  1.00  0.00     0.031 C 
ATOM     61  C   UNL A   1      44.364  31.629  34.006  1.00  0.00     0.029 A 
ATOM     62  C   UNL A   1      43.157  31.766  33.338  1.00  0.00     0.049 A 
ATOM     63  H   UNL A   1      42.225  30.438  31.989  1.00  0.00     0.167 HD
ATOM     64  C   UNL A   1      41.047  32.918  32.724  1.00  0.00     0.074 A 
ATOM     65  C   UNL A   1      40.103  34.012  32.821  1.00  0.00     0.031 C 
ATOM     66  C   UNL A   1      42.217  32.857  33.404  1.00  0.00     0.037 A 
BRANCH  53  67
ATOM     67  C   UNL A   1      45.468  27.692  32.419  1.00  0.00     0.058 A 
ATOM     68  C   UNL A   1      45.423  26.671  33.381  1.00  0.00     0.135 A 
ATOM     69  C   UNL A   1      46.681  27.909  31.747  1.00  0.00     0.135 A 
ATOM     70  F   UNL A   1      44.291  26.433  34.062  1.00  0.00    -0.206 F 
ATOM     71  C   UNL A   1      46.549  25.914  33.688  1.00  0.00     0.059 A 
ATOM     72  C   UNL A   1      47.813  27.148  32.022  1.00  0.00     0.059 A 
ATOM     73  F   UNL A   1      46.777  28.873  30.818  1.00  0.00    -0.206 F 
ATOM     74  C   UNL A   1      47.741  26.163  33.007  1.00  0.00     0.060 A 
BRANCH  74  75
ATOM     75  S   UNL A   1      49.195  25.175  33.418  1.00  0.00     0.124 S 
ATOM     76  O   UNL A   1      49.699  24.837  32.091  1.00  0.00    -0.237 OA
ATOM     77  O   UNL A   1      50.009  26.115  34.183  1.00  0.00    -0.237 OA
ATOM     78  O   UNL A   1      48.643  24.062  34.184  1.00  0.00    -0.744 OA
ENDBRANCH  74  75
ENDBRANCH  53  67
BRANCH  54  79
ATOM     79  C   UNL A   1      37.110  32.679  30.153  1.00  0.00     0.058 A 
ATOM     80  C   UNL A   1      35.958  32.457  30.922  1.00  0.00     0.135 A 
ATOM     81  C   UNL A   1      37.032  33.617  29.112  1.00  0.00     0.135 A 
ATOM     82  F   UNL A   1      35.983  31.565  31.924  1.00  0.00    -0.206 F 
ATOM     83  C   UNL A   1      34.770  33.133  30.666  1.00  0.00     0.059 A 
ATOM     84  C   UNL A   1      35.860  34.320  28.850  1.00  0.00     0.059 A 
ATOM     85  F   UNL A   1      38.111  33.875  28.358  1.00  0.00    -0.206 F 
ATOM     86  C   UNL A   1      34.731  34.065  29.628  1.00  0.00     0.060 A 
BRANCH  86  87
ATOM     87  S   UNL A   1      33.200  34.979  29.339  1.00  0.00     0.124 S 
ATOM     88  O   UNL A   1      32.584  34.947  30.660  1.00  0.00    -0.237 OA
ATOM     89  O   UNL A   1      33.695  36.279  28.896  1.00  0.00    -0.237 OA
ATOM     90  O   UNL A   1      32.530  34.191  28.309  1.00  0.00    -0.744 OA
ENDBRANCH  86  87
ENDBRANCH  54  79
BRANCH  66  91
ATOM     91  C   UNL A   1      42.577  34.021  34.281  1.00  0.00     0.058 A 
ATOM     92  C   UNL A   1      42.337  34.004  35.662  1.00  0.00     0.135 A 
ATOM     93  C   UNL A   1      43.257  35.127  33.743  1.00  0.00     0.135 A 
ATOM     94  F   UNL A   1      41.684  32.973  36.220  1.00  0.00    -0.206 F 
ATOM     95  C   UNL A   1      42.758  35.045  36.483  1.00  0.00     0.059 A 
ATOM     96  C   UNL A   1      43.703  36.169  34.548  1.00  0.00     0.059 A 
ATOM     97  F   UNL A   1      43.516  35.186  32.426  1.00  0.00    -0.206 F 
ATOM     98  C   UNL A   1      43.447  36.120  35.918  1.00  0.00     0.060 A 
BRANCH  98  99
ATOM     99  S   UNL A   1      44.054  37.430  37.002  1.00  0.00     0.124 S 
ATOM    100  O   UNL A   1      42.990  37.504  37.998  1.00  0.00    -0.237 OA
ATOM    101  O   UNL A   1      45.325  36.886  37.472  1.00  0.00    -0.237 OA
ATOM    102  O   UNL A   1      44.164  38.582  36.113  1.00  0.00    -0.744 OA
ENDBRANCH  98  99
ENDBRANCH  66  91
ENDBRANCH  40  41
ENDBRANCH  32  35
ENDBRANCH  30  31
ENDBRANCH  29  30
ENDBRANCH   1  29
TORSDOF 18
ENDMDL
MODEL 3
REMARK VINA RESULT:     -12.1      1.185      2.171
REMARK SMILES COc1ccc2c(CC(=O)NCCCCNC(=O)c3ccc(-c4c5nc(c(-c6c(F)cc(S(=O)(=O)[O-])cc6F)c6ccc([nH]6)c(-c6c(F)cc(S(=O)(=O)[O-])cc6F)c6nc(c(-c7c(F)cc(S(=O)(=O)[O-])cc7F)c7ccc4[nH]7)C=C6)C=C5)cc3)c(C(=O)c3cc(C)ccn3)[nH]c2c1
REMARK SMILES IDX 13 1 12 2 11 3 9 4 10 5 8 7 7 8 3 9 4 10 97 11 5 12 96 13
REMARK SMILES IDX 6 14 95 15 85 16 2 18 1 19 86 20 87 21 88 22 89 23 94 24
REMARK SMILES IDX 90 25 93 26 91 27 92 28 14 29 15 30 16 31 17 32 18 34 19 35
REMARK SMILES IDX 20 36 84 37 21 38 83 39 22 40 23 41 24 42 77 43 25 44 82 45
REMARK SMILES IDX 76 46 78 47 26 48 81 49 75 50 74 51 27 53 61 54 40 55 60 56
REMARK SMILES IDX 41 57 44 58 59 59 79 60 42 61 43 62 58 64 80 65 45 66 28 67
REMARK SMILES IDX 29 68 38 69 30 70 31 71 37 72 39 73 32 74 33 75 34 76 35 77
REMARK SMILES IDX 36 78 62 79 63 80 72 81 64 82 65 83 71 84 73 85 66 86 67 87
REMARK SMILES IDX 68 88 69 89 70 90 46 91 47 92 56 93 48 94 49 95 55 96 57 97
REMARK SMILES IDX 50 98 51 99 52 100 53 101 54 102
REMARK H PARENT 11 6 95 17 16 33 78 52 44 63
REMARK Flexibility Score: inf
ROOT
ATOM      1  C   UNL A   1      32.290  26.556  26.339  1.00  0.00     0.023 C 
ENDROOT
BRANCH   1   2
ATOM      2  C   UNL A   1      30.874  26.100  25.990  1.00  0.00     0.116 C 
BRANCH   2   3
ATOM      3  N   UNL A   1      30.645  24.703  26.291  1.00  0.00    -0.356 N 
ATOM      4  C   UNL A   1      30.711  23.612  25.471  1.00  0.00     0.224 C 
ATOM      5  O   UNL A   1      30.677  22.502  26.011  1.00  0.00    -0.275 OA
ATOM      6  H   UNL A   1      30.407  24.510  27.227  1.00  0.00     0.163 HD
BRANCH   4   7
ATOM      7  C   UNL A   1      30.958  23.755  23.973  1.00  0.00     0.138 C 
BRANCH   7   8
ATOM      8  C   UNL A   1      32.394  23.981  23.577  1.00  0.00    -0.002 A 
ATOM      9  C   UNL A   1      36.052  22.112  24.534  1.00  0.00     0.120 A 
ATOM     10  C   UNL A   1      34.917  21.506  25.067  1.00  0.00     0.047 A 
ATOM     11  C   UNL A   1      35.945  23.279  23.768  1.00  0.00     0.073 A 
ATOM     12  C   UNL A   1      33.644  22.031  24.809  1.00  0.00     0.014 A 
ATOM     13  C   UNL A   1      34.663  23.777  23.507  1.00  0.00     0.050 A 
ATOM     14  C   UNL A   1      33.509  23.185  24.007  1.00  0.00     0.004 A 
ATOM     15  N   UNL A   1      34.268  24.873  22.779  1.00  0.00    -0.351 N 
ATOM     16  C   UNL A   1      32.892  24.951  22.705  1.00  0.00     0.093 A 
ATOM     17  H   UNL A   1      34.886  25.519  22.366  1.00  0.00     0.167 HD
BRANCH   9  18
ATOM     18  O   UNL A   1      37.331  21.665  24.740  1.00  0.00    -0.497 OA
ATOM     19  C   UNL A   1      37.458  20.249  24.823  1.00  0.00     0.278 C 
ENDBRANCH   9  18
BRANCH  16  20
ATOM     20  C   UNL A   1      32.142  25.896  21.881  1.00  0.00     0.227 C 
ATOM     21  O   UNL A   1      32.032  25.785  20.664  1.00  0.00    -0.285 OA
BRANCH  20  22
ATOM     22  C   UNL A   1      31.561  27.108  22.517  1.00  0.00     0.113 A 
ATOM     23  C   UNL A   1      30.179  27.272  22.550  1.00  0.00     0.036 A 
ATOM     24  N   UNL A   1      32.440  27.983  23.062  1.00  0.00    -0.253 NA
ATOM     25  C   UNL A   1      29.661  28.404  23.182  1.00  0.00    -0.047 A 
ATOM     26  C   UNL A   1      31.915  29.051  23.693  1.00  0.00     0.112 A 
ATOM     27  C   UNL A   1      28.185  28.645  23.258  1.00  0.00     0.044 C 
ATOM     28  C   UNL A   1      30.553  29.303  23.776  1.00  0.00     0.023 A 
ENDBRANCH  20  22
ENDBRANCH  16  20
ENDBRANCH   7   8
ENDBRANCH   4   7
ENDBRANCH   2   3
ENDBRANCH   1   2
BRANCH   1  29
ATOM     29  C   UNL A   1      32.371  27.838  27.172  1.00  0.00     0.023 C 
BRANCH  29  30
ATOM     30  C   UNL A   1      33.677  28.615  27.056  1.00  0.00     0.116 C 
BRANCH  30  31
ATOM     31  N   UNL A   1      33.599  29.966  27.594  1.00  0.00    -0.352 N 
ATOM     32  C   UNL A   1      34.574  30.673  28.260  1.00  0.00     0.251 C 
ATOM     33  H   UNL A   1      32.741  30.431  27.466  1.00  0.00     0.163 HD
ATOM     34  O   UNL A   1      34.326  31.777  28.738  1.00  0.00    -0.269 OA
BRANCH  32  35
ATOM     35  C   UNL A   1      35.911  30.068  28.431  1.00  0.00     0.039 A 
ATOM     36  C   UNL A   1      36.821  30.124  27.371  1.00  0.00     0.014 A 
ATOM     37  C   UNL A   1      36.284  29.504  29.654  1.00  0.00     0.014 A 
ATOM     38  C   UNL A   1      38.134  29.690  27.564  1.00  0.00     0.010 A 
ATOM     39  C   UNL A   1      37.607  29.127  29.862  1.00  0.00     0.010 A 
ATOM     40  C   UNL A   1      38.548  29.230  28.825  1.00  0.00    -0.014 A 
BRANCH  40  41
ATOM     41  C   UNL A   1      39.962  28.873  29.102  1.00  0.00     0.031 A 
ATOM     42  C   UNL A   1      40.908  29.915  29.628  1.00  0.00     0.074 A 
ATOM     43  C   UNL A   1      40.416  27.644  28.784  1.00  0.00     0.049 A 
ATOM     44  N   UNL A   1      42.204  29.851  29.783  1.00  0.00    -0.248 NA
ATOM     45  C   UNL A   1      40.319  31.212  30.000  1.00  0.00     0.031 C 
ATOM     46  C   UNL A   1      39.604  26.557  28.230  1.00  0.00     0.029 A 
ATOM     47  N   UNL A   1      41.678  27.110  28.853  1.00  0.00    -0.354 N 
ATOM     48  C   UNL A   1      42.591  31.103  30.243  1.00  0.00     0.074 A 
ATOM     49  C   UNL A   1      41.396  31.917  30.312  1.00  0.00     0.031 C 
ATOM     50  C   UNL A   1      40.387  25.487  28.016  1.00  0.00     0.029 A 
ATOM     51  C   UNL A   1      41.762  25.822  28.376  1.00  0.00     0.049 A 
ATOM     52  H   UNL A   1      42.452  27.602  29.211  1.00  0.00     0.167 HD
ATOM     53  C   UNL A   1      43.829  31.531  30.590  1.00  0.00     0.037 A 
ATOM     54  C   UNL A   1      42.827  25.011  28.228  1.00  0.00     0.037 A 
ATOM     55  C   UNL A   1      45.007  30.706  30.552  1.00  0.00     0.049 A 
ATOM     56  C   UNL A   1      44.189  25.503  28.629  1.00  0.00     0.074 A 
ATOM     57  C   UNL A   1      46.297  31.030  30.935  1.00  0.00     0.029 A 
ATOM     58  N   UNL A   1      45.040  29.393  30.107  1.00  0.00    -0.354 N 
ATOM     59  N   UNL A   1      44.531  26.676  29.106  1.00  0.00    -0.248 NA
ATOM     60  C   UNL A   1      45.312  24.566  28.475  1.00  0.00     0.031 C 
ATOM     61  C   UNL A   1      47.115  29.922  30.697  1.00  0.00     0.029 A 
ATOM     62  C   UNL A   1      46.329  28.896  30.197  1.00  0.00     0.049 A 
ATOM     63  H   UNL A   1      44.262  28.890  29.774  1.00  0.00     0.167 HD
ATOM     64  C   UNL A   1      45.901  26.609  29.335  1.00  0.00     0.074 A 
ATOM     65  C   UNL A   1      46.325  25.280  28.946  1.00  0.00     0.031 C 
ATOM     66  C   UNL A   1      46.729  27.561  29.827  1.00  0.00     0.037 A 
BRANCH  53  67
ATOM     67  C   UNL A   1      43.968  32.956  31.044  1.00  0.00     0.058 A 
ATOM     68  C   UNL A   1      44.080  34.011  30.125  1.00  0.00     0.135 A 
ATOM     69  C   UNL A   1      43.960  33.275  32.411  1.00  0.00     0.135 A 
ATOM     70  F   UNL A   1      44.108  33.759  28.807  1.00  0.00    -0.206 F 
ATOM     71  C   UNL A   1      44.211  35.330  30.546  1.00  0.00     0.059 A 
ATOM     72  C   UNL A   1      44.066  34.589  32.854  1.00  0.00     0.059 A 
ATOM     73  F   UNL A   1      43.855  32.303  33.331  1.00  0.00    -0.206 F 
ATOM     74  C   UNL A   1      44.209  35.609  31.913  1.00  0.00     0.060 A 
BRANCH  74  75
ATOM     75  S   UNL A   1      44.383  37.325  32.446  1.00  0.00     0.124 S 
ATOM     76  O   UNL A   1      44.367  38.028  31.167  1.00  0.00    -0.237 OA
ATOM     77  O   UNL A   1      43.205  37.516  33.287  1.00  0.00    -0.237 OA
ATOM     78  O   UNL A   1      45.660  37.333  33.152  1.00  0.00    -0.744 OA
ENDBRANCH  74  75
ENDBRANCH  53  67
BRANCH  54  79
ATOM     79  C   UNL A   1      42.641  23.639  27.685  1.00  0.00     0.058 A 
ATOM     80  C   UNL A   1      42.656  23.408  26.302  1.00  0.00     0.135 A 
ATOM     81  C   UNL A   1      42.469  22.534  28.532  1.00  0.00     0.135 A 
ATOM     82  F   UNL A   1      42.812  24.434  25.452  1.00  0.00    -0.206 F 
ATOM     83  C   UNL A   1      42.497  22.130  25.775  1.00  0.00     0.059 A 
ATOM     84  C   UNL A   1      42.328  21.244  28.030  1.00  0.00     0.059 A 
ATOM     85  F   UNL A   1      42.463  22.702  29.864  1.00  0.00    -0.206 F 
ATOM     86  C   UNL A   1      42.335  21.053  26.648  1.00  0.00     0.060 A 
BRANCH  86  87
ATOM     87  S   UNL A   1      42.187  19.391  25.957  1.00  0.00     0.124 S 
ATOM     88  O   UNL A   1      43.025  19.490  24.768  1.00  0.00    -0.237 OA
ATOM     89  O   UNL A   1      42.708  18.559  27.037  1.00  0.00    -0.237 OA
ATOM     90  O   UNL A   1      40.753  19.258  25.712  1.00  0.00    -0.744 OA
ENDBRANCH  86  87
ENDBRANCH  54  79
BRANCH  66  91
ATOM     91  C   UNL A   1      48.174  27.199  30.020  1.00  0.00     0.058 A 
ATOM     92  C   UNL A   1      49.140  27.482  29.045  1.00  0.00     0.135 A 
ATOM     93  C   UNL A   1      48.607  26.648  31.238  1.00  0.00     0.135 A 
ATOM     94  F   UNL A   1      48.774  28.001  27.863  1.00  0.00    -0.206 F 
ATOM     95  C   UNL A   1      50.490  27.230  29.268  1.00  0.00     0.059 A 
ATOM     96  C   UNL A   1      49.953  26.406  31.489  1.00  0.00     0.059 A 
ATOM     97  F   UNL A   1      47.719  26.366  32.206  1.00  0.00    -0.206 F 
ATOM     98  C   UNL A   1      50.887  26.699  30.497  1.00  0.00     0.060 A 
BRANCH  98  99
ATOM     99  S   UNL A   1      52.648  26.445  30.805  1.00  0.00     0.124 S 
ATOM    100  O   UNL A   1      52.633  25.245  31.634  1.00  0.00    -0.237 OA
ATOM    101  O   UNL A   1      53.182  26.276  29.456  1.00  0.00    -0.237 OA
ATOM    102  O   UNL A   1      53.054  27.672  31.482  1.00  0.00    -0.744 OA
ENDBRANCH  98  99
ENDBRANCH  66  91
ENDBRANCH  40  41
ENDBRANCH  32  35
ENDBRANCH  30  31
ENDBRANCH  29  30
ENDBRANCH   1  29
TORSDOF 18
ENDMDL
