MODEL 1
REMARK VINA RESULT:     -11.9      0.000      0.000
REMARK SMILES O=C(CCN1C(=O)[C@@H]2[C@@H](C1=O)[C@H]1c3ccccc3[C@]2(Br)c2ccccc21)NCCCCNC(=O)c1ccc(-c2c3nc(c(-c4c(F)cc(S(=O)(=O)[O-])cc4F)c4ccc([nH]4)c(-c4c(F)cc(S(=O)(=O)[O-])cc4F)c4nc(c(-c5c(F)cc(S(=O)(=O)[O-])cc5F)c5ccc2[nH]5)C=C4)C=C3)cc1
REMARK SMILES IDX 30 1 29 2 28 3 27 4 1 5 2 6 3 8 4 9 5 10 6 11 10 12 7 13
REMARK SMILES IDX 8 14 9 15 11 16 19 17 12 18 21 19 20 20 18 21 26 22 13 23
REMARK SMILES IDX 22 24 17 25 25 26 14 27 23 28 16 29 24 30 15 31 31 32 32 33
REMARK SMILES IDX 33 34 34 36 35 37 36 38 100 39 37 40 99 41 38 42 39 43 40 44
REMARK SMILES IDX 93 45 41 46 98 47 92 48 94 49 42 50 97 51 91 52 90 53 43 55
REMARK SMILES IDX 77 56 56 57 76 58 57 59 60 60 75 61 95 62 58 63 59 64 74 66
REMARK SMILES IDX 96 67 61 68 44 69 45 70 54 71 46 72 47 73 53 74 55 75 48 76
REMARK SMILES IDX 49 77 50 78 51 79 52 80 78 81 79 82 88 83 80 84 81 85 87 86
REMARK SMILES IDX 89 87 82 88 83 89 84 90 85 91 86 92 62 93 63 94 72 95 64 96
REMARK SMILES IDX 65 97 71 98 73 99 66 100 67 101 68 102 69 103 70 104
REMARK H PARENT 27 7 32 35 94 54 60 65
REMARK Flexibility Score: inf
ROOT
ATOM      1  C   UNL A   1      33.635  33.339  28.020  1.00  0.00     0.023 C 
ENDROOT
BRANCH   1   2
ATOM      2  C   UNL A   1      33.990  34.839  27.994  1.00  0.00     0.023 C 
BRANCH   2   3
ATOM      3  C   UNL A   1      33.357  35.763  29.054  1.00  0.00     0.116 C 
BRANCH   3   4
ATOM      4  N   UNL A   1      33.944  35.682  30.393  1.00  0.00    -0.356 N 
ATOM      5  O   UNL A   1      32.530  37.224  31.367  1.00  0.00    -0.275 OA
ATOM      6  C   UNL A   1      33.429  36.392  31.466  1.00  0.00     0.221 C 
ATOM      7  H   UNL A   1      34.730  35.106  30.535  1.00  0.00     0.163 HD
BRANCH   6   8
ATOM      8  C   UNL A   1      34.053  36.089  32.819  1.00  0.00     0.122 C 
BRANCH   8   9
ATOM      9  C   UNL A   1      34.499  34.630  32.948  1.00  0.00     0.138 C 
BRANCH   9  10
ATOM     10  N   UNL A   1      35.940  34.475  33.012  1.00  0.00    -0.281 N 
ATOM     11  C   UNL A   1      36.653  34.380  34.208  1.00  0.00     0.235 C 
ATOM     12  C   UNL A   1      36.758  34.292  31.895  1.00  0.00     0.234 C 
ATOM     13  O   UNL A   1      36.209  34.265  35.324  1.00  0.00    -0.274 OA
ATOM     14  C   UNL A   1      38.094  34.508  33.784  1.00  0.00     0.118 C 
ATOM     15  C   UNL A   1      37.975  33.679  32.493  1.00  0.00     0.105 C 
ATOM     16  O   UNL A   1      36.469  34.381  30.720  1.00  0.00    -0.274 OA
ATOM     17  C   UNL A   1      39.335  34.042  34.551  1.00  0.00     0.088 C 
ATOM     18  C   UNL A   1      39.359  33.294  31.976  1.00  0.00     0.063 C 
ATOM     19  C   UNL A   1      40.527  34.620  33.740  1.00  0.00    -0.022 A 
ATOM     20  Br  UNL A   1      39.292  34.664  36.377  1.00  0.00    -0.074 Br
ATOM     21  C   UNL A   1      39.474  32.534  34.361  1.00  0.00    -0.022 A 
ATOM     22  C   UNL A   1      40.472  34.274  32.346  1.00  0.00    -0.035 A 
ATOM     23  C   UNL A   1      39.613  32.130  32.967  1.00  0.00    -0.035 A 
ATOM     24  C   UNL A   1      41.703  35.159  34.260  1.00  0.00     0.006 A 
ATOM     25  C   UNL A   1      39.429  31.587  35.340  1.00  0.00     0.006 A 
ATOM     26  C   UNL A   1      41.561  34.505  31.510  1.00  0.00     0.005 A 
ATOM     27  C   UNL A   1      39.792  30.819  32.579  1.00  0.00     0.005 A 
ATOM     28  C   UNL A   1      42.791  35.377  33.414  1.00  0.00     0.000 A 
ATOM     29  C   UNL A   1      39.531  30.283  34.920  1.00  0.00     0.000 A 
ATOM     30  C   UNL A   1      42.718  35.062  32.052  1.00  0.00     0.000 A 
ATOM     31  C   UNL A   1      39.751  29.886  33.587  1.00  0.00     0.000 A 
ENDBRANCH   9  10
ENDBRANCH   8   9
ENDBRANCH   6   8
ENDBRANCH   3   4
ENDBRANCH   2   3
ENDBRANCH   1   2
BRANCH   1  32
ATOM     32  C   UNL A   1      34.669  32.315  28.538  1.00  0.00     0.116 C 
BRANCH  32  33
ATOM     33  N   UNL A   1      34.703  31.973  29.959  1.00  0.00    -0.352 N 
ATOM     34  C   UNL A   1      35.630  31.230  30.702  1.00  0.00     0.251 C 
ATOM     35  H   UNL A   1      33.947  32.324  30.482  1.00  0.00     0.163 HD
ATOM     36  O   UNL A   1      35.529  31.225  31.928  1.00  0.00    -0.269 OA
BRANCH  34  37
ATOM     37  C   UNL A   1      36.741  30.421  30.097  1.00  0.00     0.039 A 
ATOM     38  C   UNL A   1      37.109  29.177  30.599  1.00  0.00     0.014 A 
ATOM     39  C   UNL A   1      37.374  30.816  28.920  1.00  0.00     0.014 A 
ATOM     40  C   UNL A   1      38.332  28.566  30.188  1.00  0.00     0.010 A 
ATOM     41  C   UNL A   1      38.491  30.094  28.411  1.00  0.00     0.010 A 
ATOM     42  C   UNL A   1      39.118  29.052  29.127  1.00  0.00    -0.014 A 
BRANCH  42  43
ATOM     43  C   UNL A   1      40.583  28.622  28.828  1.00  0.00     0.031 A 
ATOM     44  C   UNL A   1      41.749  29.613  29.059  1.00  0.00     0.074 A 
ATOM     45  C   UNL A   1      40.999  27.379  28.455  1.00  0.00     0.049 A 
ATOM     46  N   UNL A   1      42.986  29.593  28.603  1.00  0.00    -0.248 NA
ATOM     47  C   UNL A   1      41.483  30.782  29.911  1.00  0.00     0.031 C 
ATOM     48  C   UNL A   1      40.171  26.190  28.282  1.00  0.00     0.029 A 
ATOM     49  N   UNL A   1      42.276  26.902  28.166  1.00  0.00    -0.354 N 
ATOM     50  C   UNL A   1      43.586  30.786  29.017  1.00  0.00     0.074 A 
ATOM     51  C   UNL A   1      42.578  31.510  29.757  1.00  0.00     0.031 C 
ATOM     52  C   UNL A   1      40.945  25.127  28.015  1.00  0.00     0.029 A 
ATOM     53  C   UNL A   1      42.325  25.562  27.831  1.00  0.00     0.049 A 
ATOM     54  H   UNL A   1      43.078  27.472  28.197  1.00  0.00     0.167 HD
ATOM     55  C   UNL A   1      44.849  31.252  28.831  1.00  0.00     0.037 A 
ATOM     56  C   UNL A   1      43.310  24.759  27.361  1.00  0.00     0.037 A 
ATOM     57  C   UNL A   1      45.935  30.514  28.234  1.00  0.00     0.049 A 
ATOM     58  C   UNL A   1      44.683  25.300  27.059  1.00  0.00     0.074 A 
ATOM     59  C   UNL A   1      47.241  30.931  28.018  1.00  0.00     0.029 A 
ATOM     60  N   UNL A   1      45.867  29.201  27.805  1.00  0.00    -0.354 N 
ATOM     61  N   UNL A   1      45.167  26.494  27.290  1.00  0.00    -0.248 NA
ATOM     62  C   UNL A   1      45.634  24.391  26.392  1.00  0.00     0.031 C 
ATOM     63  C   UNL A   1      47.950  29.885  27.419  1.00  0.00     0.029 A 
ATOM     64  C   UNL A   1      47.100  28.800  27.310  1.00  0.00     0.049 A 
ATOM     65  H   UNL A   1      45.063  28.634  27.844  1.00  0.00     0.167 HD
ATOM     66  C   UNL A   1      46.472  26.478  26.801  1.00  0.00     0.074 A 
ATOM     67  C   UNL A   1      46.715  25.152  26.280  1.00  0.00     0.031 C 
ATOM     68  C   UNL A   1      47.376  27.487  26.785  1.00  0.00     0.037 A 
BRANCH  55  69
ATOM     69  C   UNL A   1      45.149  32.674  29.250  1.00  0.00     0.058 A 
ATOM     70  C   UNL A   1      45.763  32.993  30.471  1.00  0.00     0.135 A 
ATOM     71  C   UNL A   1      44.867  33.736  28.369  1.00  0.00     0.135 A 
ATOM     72  F   UNL A   1      46.048  32.025  31.357  1.00  0.00    -0.206 F 
ATOM     73  C   UNL A   1      46.047  34.311  30.821  1.00  0.00     0.059 A 
ATOM     74  C   UNL A   1      45.174  35.056  28.682  1.00  0.00     0.059 A 
ATOM     75  F   UNL A   1      44.295  33.490  27.179  1.00  0.00    -0.206 F 
ATOM     76  C   UNL A   1      45.748  35.335  29.919  1.00  0.00     0.060 A 
BRANCH  76  77
ATOM     77  S   UNL A   1      46.109  37.039  30.398  1.00  0.00     0.124 S 
ATOM     78  O   UNL A   1      46.811  36.842  31.662  1.00  0.00    -0.237 OA
ATOM     79  O   UNL A   1      46.929  37.507  29.285  1.00  0.00    -0.237 OA
ATOM     80  O   UNL A   1      44.789  37.652  30.503  1.00  0.00    -0.744 OA
ENDBRANCH  76  77
ENDBRANCH  55  69
BRANCH  56  81
ATOM     81  C   UNL A   1      43.008  23.326  27.052  1.00  0.00     0.058 A 
ATOM     82  C   UNL A   1      42.861  22.878  25.729  1.00  0.00     0.135 A 
ATOM     83  C   UNL A   1      42.882  22.373  28.076  1.00  0.00     0.135 A 
ATOM     84  F   UNL A   1      42.925  23.753  24.713  1.00  0.00    -0.206 F 
ATOM     85  C   UNL A   1      42.636  21.535  25.432  1.00  0.00     0.059 A 
ATOM     86  C   UNL A   1      42.693  21.021  27.804  1.00  0.00     0.059 A 
ATOM     87  F   UNL A   1      42.992  22.748  29.360  1.00  0.00    -0.206 F 
ATOM     88  C   UNL A   1      42.577  20.611  26.477  1.00  0.00     0.060 A 
BRANCH  88  89
ATOM     89  S   UNL A   1      42.421  18.855  26.077  1.00  0.00     0.124 S 
ATOM     90  O   UNL A   1      41.020  18.762  25.689  1.00  0.00    -0.237 OA
ATOM     91  O   UNL A   1      43.395  18.704  24.999  1.00  0.00    -0.237 OA
ATOM     92  O   UNL A   1      42.777  18.193  27.328  1.00  0.00    -0.744 OA
ENDBRANCH  88  89
ENDBRANCH  56  81
BRANCH  68  93
ATOM     93  C   UNL A   1      48.740  27.219  26.206  1.00  0.00     0.058 A 
ATOM     94  C   UNL A   1      49.823  26.841  27.017  1.00  0.00     0.135 A 
ATOM     95  C   UNL A   1      48.956  27.273  24.819  1.00  0.00     0.135 A 
ATOM     96  F   UNL A   1      49.678  26.777  28.349  1.00  0.00    -0.206 F 
ATOM     97  C   UNL A   1      51.072  26.545  26.475  1.00  0.00     0.059 A 
ATOM     98  C   UNL A   1      50.189  26.957  24.254  1.00  0.00     0.059 A 
ATOM     99  F   UNL A   1      47.955  27.618  23.993  1.00  0.00    -0.206 F 
ATOM    100  C   UNL A   1      51.245  26.602  25.091  1.00  0.00     0.060 A 
BRANCH 100 101
ATOM    101  S   UNL A   1      52.862  26.180  24.404  1.00  0.00     0.124 S 
ATOM    102  O   UNL A   1      52.637  26.381  22.976  1.00  0.00    -0.237 OA
ATOM    103  O   UNL A   1      53.738  27.151  25.050  1.00  0.00    -0.237 OA
ATOM    104  O   UNL A   1      53.058  24.794  24.817  1.00  0.00    -0.744 OA
ENDBRANCH 100 101
ENDBRANCH  68  93
ENDBRANCH  42  43
ENDBRANCH  34  37
ENDBRANCH  32  33
ENDBRANCH   1  32
TORSDOF 16
ENDMDL
MODEL 2
REMARK VINA RESULT:     -11.9      4.942      8.090
REMARK SMILES O=C(CCN1C(=O)[C@@H]2[C@@H](C1=O)[C@H]1c3ccccc3[C@]2(Br)c2ccccc21)NCCCCNC(=O)c1ccc(-c2c3nc(c(-c4c(F)cc(S(=O)(=O)[O-])cc4F)c4ccc([nH]4)c(-c4c(F)cc(S(=O)(=O)[O-])cc4F)c4nc(c(-c5c(F)cc(S(=O)(=O)[O-])cc5F)c5ccc2[nH]5)C=C4)C=C3)cc1
REMARK SMILES IDX 30 1 29 2 28 3 27 4 1 5 2 6 3 8 4 9 5 10 6 11 10 12 7 13
REMARK SMILES IDX 8 14 9 15 11 16 19 17 12 18 21 19 20 20 18 21 26 22 13 23
REMARK SMILES IDX 22 24 17 25 25 26 14 27 23 28 16 29 24 30 15 31 31 32 32 33
REMARK SMILES IDX 33 34 34 36 35 37 36 38 100 39 37 40 99 41 38 42 39 43 40 44
REMARK SMILES IDX 93 45 41 46 98 47 92 48 94 49 42 50 97 51 91 52 90 53 43 55
REMARK SMILES IDX 77 56 56 57 76 58 57 59 60 60 75 61 95 62 58 63 59 64 74 66
REMARK SMILES IDX 96 67 61 68 44 69 45 70 54 71 46 72 47 73 53 74 55 75 48 76
REMARK SMILES IDX 49 77 50 78 51 79 52 80 78 81 79 82 88 83 80 84 81 85 87 86
REMARK SMILES IDX 89 87 82 88 83 89 84 90 85 91 86 92 62 93 63 94 72 95 64 96
REMARK SMILES IDX 65 97 71 98 73 99 66 100 67 101 68 102 69 103 70 104
REMARK H PARENT 27 7 32 35 94 54 60 65
REMARK Flexibility Score: inf
ROOT
ATOM      1  C   UNL A   1      33.637  32.816  27.802  1.00  0.00     0.023 C 
ENDROOT
BRANCH   1   2
ATOM      2  C   UNL A   1      33.578  31.295  27.553  1.00  0.00     0.023 C 
BRANCH   2   3
ATOM      3  C   UNL A   1      32.332  30.711  26.856  1.00  0.00     0.116 C 
BRANCH   3   4
ATOM      4  N   UNL A   1      31.990  29.336  27.221  1.00  0.00    -0.356 N 
ATOM      5  O   UNL A   1      32.243  28.456  25.104  1.00  0.00    -0.275 OA
ATOM      6  C   UNL A   1      32.033  28.298  26.304  1.00  0.00     0.221 C 
ATOM      7  H   UNL A   1      31.719  29.143  28.148  1.00  0.00     0.163 HD
BRANCH   6   8
ATOM      8  C   UNL A   1      31.797  26.907  26.870  1.00  0.00     0.122 C 
BRANCH   8   9
ATOM      9  C   UNL A   1      30.817  26.088  26.026  1.00  0.00     0.138 C 
BRANCH   9  10
ATOM     10  N   UNL A   1      31.357  24.811  25.598  1.00  0.00    -0.281 N 
ATOM     11  C   UNL A   1      31.871  24.579  24.321  1.00  0.00     0.235 C 
ATOM     12  C   UNL A   1      31.526  23.710  26.442  1.00  0.00     0.234 C 
ATOM     13  O   UNL A   1      32.083  25.390  23.454  1.00  0.00    -0.274 OA
ATOM     14  C   UNL A   1      32.048  23.083  24.266  1.00  0.00     0.118 C 
ATOM     15  C   UNL A   1      32.543  22.908  25.711  1.00  0.00     0.105 C 
ATOM     16  O   UNL A   1      31.133  23.560  27.580  1.00  0.00    -0.274 OA
ATOM     17  C   UNL A   1      32.967  22.288  23.334  1.00  0.00     0.088 C 
ATOM     18  C   UNL A   1      33.171  21.528  25.897  1.00  0.00     0.063 C 
ATOM     19  C   UNL A   1      32.576  20.805  23.583  1.00  0.00    -0.022 A 
ATOM     20  Br  UNL A   1      32.728  22.834  21.498  1.00  0.00    -0.074 Br
ATOM     21  C   UNL A   1      34.389  22.377  23.879  1.00  0.00    -0.022 A 
ATOM     22  C   UNL A   1      32.613  20.445  24.973  1.00  0.00    -0.035 A 
ATOM     23  C   UNL A   1      34.532  21.849  25.230  1.00  0.00    -0.035 A 
ATOM     24  C   UNL A   1      32.481  19.799  22.622  1.00  0.00     0.006 A 
ATOM     25  C   UNL A   1      35.464  22.929  23.249  1.00  0.00     0.006 A 
ATOM     26  C   UNL A   1      32.517  19.115  25.368  1.00  0.00     0.005 A 
ATOM     27  C   UNL A   1      35.741  21.796  25.893  1.00  0.00     0.005 A 
ATOM     28  C   UNL A   1      32.395  18.467  23.031  1.00  0.00     0.000 A 
ATOM     29  C   UNL A   1      36.640  22.935  23.961  1.00  0.00     0.000 A 
ATOM     30  C   UNL A   1      32.404  18.129  24.389  1.00  0.00     0.000 A 
ATOM     31  C   UNL A   1      36.810  22.352  25.232  1.00  0.00     0.000 A 
ENDBRANCH   9  10
ENDBRANCH   8   9
ENDBRANCH   6   8
ENDBRANCH   3   4
ENDBRANCH   2   3
ENDBRANCH   1   2
BRANCH   1  32
ATOM     32  C   UNL A   1      34.552  33.375  28.913  1.00  0.00     0.116 C 
BRANCH  32  33
ATOM     33  N   UNL A   1      34.410  32.889  30.284  1.00  0.00    -0.352 N 
ATOM     34  C   UNL A   1      35.194  31.995  31.026  1.00  0.00     0.251 C 
ATOM     35  H   UNL A   1      33.632  33.249  30.768  1.00  0.00     0.163 HD
ATOM     36  O   UNL A   1      34.964  31.874  32.229  1.00  0.00    -0.269 OA
BRANCH  34  37
ATOM     37  C   UNL A   1      36.297  31.158  30.446  1.00  0.00     0.039 A 
ATOM     38  C   UNL A   1      36.631  29.912  30.965  1.00  0.00     0.014 A 
ATOM     39  C   UNL A   1      36.955  31.528  29.275  1.00  0.00     0.014 A 
ATOM     40  C   UNL A   1      37.847  29.271  30.578  1.00  0.00     0.010 A 
ATOM     41  C   UNL A   1      38.064  30.778  28.790  1.00  0.00     0.010 A 
ATOM     42  C   UNL A   1      38.659  29.731  29.525  1.00  0.00    -0.014 A 
BRANCH  42  43
ATOM     43  C   UNL A   1      40.118  29.268  29.252  1.00  0.00     0.031 A 
ATOM     44  C   UNL A   1      41.305  30.223  29.529  1.00  0.00     0.074 A 
ATOM     45  C   UNL A   1      40.510  28.021  28.866  1.00  0.00     0.049 A 
ATOM     46  N   UNL A   1      42.551  30.179  29.102  1.00  0.00    -0.248 NA
ATOM     47  C   UNL A   1      41.048  31.383  30.396  1.00  0.00     0.031 C 
ATOM     48  C   UNL A   1      39.656  26.857  28.651  1.00  0.00     0.029 A 
ATOM     49  N   UNL A   1      41.782  27.515  28.598  1.00  0.00    -0.354 N 
ATOM     50  C   UNL A   1      43.171  31.348  29.552  1.00  0.00     0.074 A 
ATOM     51  C   UNL A   1      42.165  32.085  30.281  1.00  0.00     0.031 C 
ATOM     52  C   UNL A   1      40.409  25.779  28.384  1.00  0.00     0.029 A 
ATOM     53  C   UNL A   1      41.803  26.181  28.240  1.00  0.00     0.049 A 
ATOM     54  H   UNL A   1      42.597  28.064  28.658  1.00  0.00     0.167 HD
ATOM     55  C   UNL A   1      44.450  31.784  29.403  1.00  0.00     0.037 A 
ATOM     56  C   UNL A   1      42.779  25.361  27.778  1.00  0.00     0.037 A 
ATOM     57  C   UNL A   1      45.531  31.028  28.818  1.00  0.00     0.049 A 
ATOM     58  C   UNL A   1      44.172  25.871  27.518  1.00  0.00     0.074 A 
ATOM     59  C   UNL A   1      46.852  31.414  28.640  1.00  0.00     0.029 A 
ATOM     60  N   UNL A   1      45.439  29.725  28.363  1.00  0.00    -0.354 N 
ATOM     61  N   UNL A   1      44.681  27.047  27.782  1.00  0.00    -0.248 NA
ATOM     62  C   UNL A   1      45.114  24.949  26.856  1.00  0.00     0.031 C 
ATOM     63  C   UNL A   1      47.547  30.360  28.039  1.00  0.00     0.029 A 
ATOM     64  C   UNL A   1      46.673  29.301  27.890  1.00  0.00     0.049 A 
ATOM     65  H   UNL A   1      44.619  29.179  28.373  1.00  0.00     0.167 HD
ATOM     66  C   UNL A   1      45.997  27.005  27.324  1.00  0.00     0.074 A 
ATOM     67  C   UNL A   1      46.217  25.683  26.784  1.00  0.00     0.031 C 
ATOM     68  C   UNL A   1      46.926  27.990  27.347  1.00  0.00     0.037 A 
BRANCH  55  69
ATOM     69  C   UNL A   1      44.777  33.189  29.856  1.00  0.00     0.058 A 
ATOM     70  C   UNL A   1      45.296  33.477  31.127  1.00  0.00     0.135 A 
ATOM     71  C   UNL A   1      44.621  34.265  28.960  1.00  0.00     0.135 A 
ATOM     72  F   UNL A   1      45.458  32.495  32.029  1.00  0.00    -0.206 F 
ATOM     73  C   UNL A   1      45.609  34.780  31.509  1.00  0.00     0.059 A 
ATOM     74  C   UNL A   1      44.960  35.569  29.306  1.00  0.00     0.059 A 
ATOM     75  F   UNL A   1      44.145  34.048  27.723  1.00  0.00    -0.206 F 
ATOM     76  C   UNL A   1      45.436  35.819  30.591  1.00  0.00     0.060 A 
BRANCH  76  77
ATOM     77  S   UNL A   1      45.831  37.503  31.109  1.00  0.00     0.124 S 
ATOM     78  O   UNL A   1      44.932  38.285  30.266  1.00  0.00    -0.237 OA
ATOM     79  O   UNL A   1      45.503  37.476  32.531  1.00  0.00    -0.237 OA
ATOM     80  O   UNL A   1      47.252  37.632  30.798  1.00  0.00    -0.744 OA
ENDBRANCH  76  77
ENDBRANCH  55  69
BRANCH  56  81
ATOM     81  C   UNL A   1      42.447  23.942  27.435  1.00  0.00     0.058 A 
ATOM     82  C   UNL A   1      42.161  23.555  26.115  1.00  0.00     0.135 A 
ATOM     83  C   UNL A   1      42.430  22.941  28.421  1.00  0.00     0.135 A 
ATOM     84  F   UNL A   1      42.117  24.477  25.141  1.00  0.00    -0.206 F 
ATOM     85  C   UNL A   1      41.907  22.227  25.782  1.00  0.00     0.059 A 
ATOM     86  C   UNL A   1      42.215  21.603  28.107  1.00  0.00     0.059 A 
ATOM     87  F   UNL A   1      42.675  23.257  29.703  1.00  0.00    -0.206 F 
ATOM     88  C   UNL A   1      41.960  21.254  26.783  1.00  0.00     0.060 A 
BRANCH  88  89
ATOM     89  S   UNL A   1      41.764  19.518  26.319  1.00  0.00     0.124 S 
ATOM     90  O   UNL A   1      40.333  19.440  26.056  1.00  0.00    -0.237 OA
ATOM     91  O   UNL A   1      42.635  19.417  25.151  1.00  0.00    -0.237 OA
ATOM     92  O   UNL A   1      42.231  18.800  27.501  1.00  0.00    -0.744 OA
ENDBRANCH  88  89
ENDBRANCH  56  81
BRANCH  68  93
ATOM     93  C   UNL A   1      48.297  27.696  26.796  1.00  0.00     0.058 A 
ATOM     94  C   UNL A   1      49.363  27.324  27.630  1.00  0.00     0.135 A 
ATOM     95  C   UNL A   1      48.535  27.722  25.411  1.00  0.00     0.135 A 
ATOM     96  F   UNL A   1      49.196  27.287  28.962  1.00  0.00    -0.206 F 
ATOM     97  C   UNL A   1      50.616  27.003  27.115  1.00  0.00     0.059 A 
ATOM     98  C   UNL A   1      49.773  27.382  24.872  1.00  0.00     0.059 A 
ATOM     99  F   UNL A   1      47.551  28.061  24.563  1.00  0.00    -0.206 F 
ATOM    100  C   UNL A   1      50.812  27.031  25.732  1.00  0.00     0.060 A 
BRANCH 100 101
ATOM    101  S   UNL A   1      52.435  26.580  25.079  1.00  0.00     0.124 S 
ATOM    102  O   UNL A   1      52.496  25.157  25.401  1.00  0.00    -0.237 OA
ATOM    103  O   UNL A   1      52.301  26.904  23.663  1.00  0.00    -0.237 OA
ATOM    104  O   UNL A   1      53.353  27.431  25.829  1.00  0.00    -0.744 OA
ENDBRANCH 100 101
ENDBRANCH  68  93
ENDBRANCH  42  43
ENDBRANCH  34  37
ENDBRANCH  32  33
ENDBRANCH   1  32
TORSDOF 16
ENDMDL
MODEL 3
REMARK VINA RESULT:     -11.3      5.152     11.262
REMARK SMILES O=C(CCN1C(=O)[C@@H]2[C@@H](C1=O)[C@H]1c3ccccc3[C@]2(Br)c2ccccc21)NCCCCNC(=O)c1ccc(-c2c3nc(c(-c4c(F)cc(S(=O)(=O)[O-])cc4F)c4ccc([nH]4)c(-c4c(F)cc(S(=O)(=O)[O-])cc4F)c4nc(c(-c5c(F)cc(S(=O)(=O)[O-])cc5F)c5ccc2[nH]5)C=C4)C=C3)cc1
REMARK SMILES IDX 30 1 29 2 28 3 27 4 1 5 2 6 3 8 4 9 5 10 6 11 10 12 7 13
REMARK SMILES IDX 8 14 9 15 11 16 19 17 12 18 21 19 20 20 18 21 26 22 13 23
REMARK SMILES IDX 22 24 17 25 25 26 14 27 23 28 16 29 24 30 15 31 31 32 32 33
REMARK SMILES IDX 33 34 34 36 35 37 36 38 100 39 37 40 99 41 38 42 39 43 40 44
REMARK SMILES IDX 93 45 41 46 98 47 92 48 94 49 42 50 97 51 91 52 90 53 43 55
REMARK SMILES IDX 77 56 56 57 76 58 57 59 60 60 75 61 95 62 58 63 59 64 74 66
REMARK SMILES IDX 96 67 61 68 44 69 45 70 54 71 46 72 47 73 53 74 55 75 48 76
REMARK SMILES IDX 49 77 50 78 51 79 52 80 78 81 79 82 88 83 80 84 81 85 87 86
REMARK SMILES IDX 89 87 82 88 83 89 84 90 85 91 86 92 62 93 63 94 72 95 64 96
REMARK SMILES IDX 65 97 71 98 73 99 66 100 67 101 68 102 69 103 70 104
REMARK H PARENT 27 7 32 35 94 54 60 65
REMARK Flexibility Score: inf
ROOT
ATOM      1  C   UNL A   1      35.422  30.612  27.802  1.00  0.00     0.023 C 
ENDROOT
BRANCH   1   2
ATOM      2  C   UNL A   1      34.316  30.291  26.776  1.00  0.00     0.023 C 
BRANCH   2   3
ATOM      3  C   UNL A   1      32.849  30.297  27.251  1.00  0.00     0.116 C 
BRANCH   3   4
ATOM      4  N   UNL A   1      32.280  28.983  27.557  1.00  0.00    -0.356 N 
ATOM      5  O   UNL A   1      31.632  28.493  25.397  1.00  0.00    -0.275 OA
ATOM      6  C   UNL A   1      31.764  28.157  26.572  1.00  0.00     0.221 C 
ATOM      7  H   UNL A   1      32.263  28.678  28.494  1.00  0.00     0.163 HD
BRANCH   6   8
ATOM      8  C   UNL A   1      31.348  26.767  27.027  1.00  0.00     0.122 C 
BRANCH   8   9
ATOM      9  C   UNL A   1      30.518  26.027  25.974  1.00  0.00     0.138 C 
BRANCH   9  10
ATOM     10  N   UNL A   1      31.109  24.770  25.557  1.00  0.00    -0.281 N 
ATOM     11  C   UNL A   1      31.684  24.565  24.302  1.00  0.00     0.235 C 
ATOM     12  C   UNL A   1      31.272  23.665  26.397  1.00  0.00     0.234 C 
ATOM     13  O   UNL A   1      31.910  25.390  23.452  1.00  0.00    -0.274 OA
ATOM     14  C   UNL A   1      31.902  23.075  24.240  1.00  0.00     0.118 C 
ATOM     15  C   UNL A   1      32.340  22.897  25.703  1.00  0.00     0.105 C 
ATOM     16  O   UNL A   1      30.835  23.492  27.516  1.00  0.00    -0.274 OA
ATOM     17  C   UNL A   1      32.881  22.314  23.341  1.00  0.00     0.088 C 
ATOM     18  C   UNL A   1      32.996  21.532  25.903  1.00  0.00     0.063 C 
ATOM     19  C   UNL A   1      32.519  20.819  23.558  1.00  0.00    -0.022 A 
ATOM     20  Br  UNL A   1      32.706  22.873  21.501  1.00  0.00    -0.074 Br
ATOM     21  C   UNL A   1      34.276  22.434  23.946  1.00  0.00    -0.022 A 
ATOM     22  C   UNL A   1      32.506  20.445  24.945  1.00  0.00    -0.035 A 
ATOM     23  C   UNL A   1      34.375  21.896  25.298  1.00  0.00    -0.035 A 
ATOM     24  C   UNL A   1      32.492  19.821  22.585  1.00  0.00     0.006 A 
ATOM     25  C   UNL A   1      35.362  23.021  23.368  1.00  0.00     0.006 A 
ATOM     26  C   UNL A   1      32.430  19.108  25.323  1.00  0.00     0.005 A 
ATOM     27  C   UNL A   1      35.555  21.867  26.011  1.00  0.00     0.005 A 
ATOM     28  C   UNL A   1      32.425  18.483  22.977  1.00  0.00     0.000 A 
ATOM     29  C   UNL A   1      36.506  23.051  24.130  1.00  0.00     0.000 A 
ATOM     30  C   UNL A   1      32.385  18.130  24.331  1.00  0.00     0.000 A 
ATOM     31  C   UNL A   1      36.637  22.458  25.401  1.00  0.00     0.000 A 
ENDBRANCH   9  10
ENDBRANCH   8   9
ENDBRANCH   6   8
ENDBRANCH   3   4
ENDBRANCH   2   3
ENDBRANCH   1   2
BRANCH   1  32
ATOM     32  C   UNL A   1      35.924  29.508  28.758  1.00  0.00     0.116 C 
BRANCH  32  33
ATOM     33  N   UNL A   1      35.819  29.696  30.203  1.00  0.00    -0.352 N 
ATOM     34  C   UNL A   1      36.785  30.047  31.155  1.00  0.00     0.251 C 
ATOM     35  H   UNL A   1      34.917  29.552  30.570  1.00  0.00     0.163 HD
ATOM     36  O   UNL A   1      36.413  30.313  32.297  1.00  0.00    -0.269 OA
BRANCH  34  37
ATOM     37  C   UNL A   1      38.260  30.108  30.878  1.00  0.00     0.039 A 
ATOM     38  C   UNL A   1      38.820  31.092  30.071  1.00  0.00     0.014 A 
ATOM     39  C   UNL A   1      39.159  29.260  31.520  1.00  0.00     0.014 A 
ATOM     40  C   UNL A   1      40.163  30.964  29.604  1.00  0.00     0.010 A 
ATOM     41  C   UNL A   1      40.540  29.261  31.176  1.00  0.00     0.010 A 
ATOM     42  C   UNL A   1      41.055  29.985  30.079  1.00  0.00    -0.014 A 
BRANCH  42  43
ATOM     43  C   UNL A   1      42.407  29.605  29.411  1.00  0.00     0.031 A 
ATOM     44  C   UNL A   1      42.588  28.217  28.750  1.00  0.00     0.074 A 
ATOM     45  C   UNL A   1      43.482  30.425  29.244  1.00  0.00     0.049 A 
ATOM     46  N   UNL A   1      43.686  27.571  28.413  1.00  0.00    -0.248 NA
ATOM     47  C   UNL A   1      41.369  27.457  28.434  1.00  0.00     0.031 C 
ATOM     48  C   UNL A   1      43.587  31.828  29.630  1.00  0.00     0.029 A 
ATOM     49  N   UNL A   1      44.727  30.178  28.665  1.00  0.00    -0.354 N 
ATOM     50  C   UNL A   1      43.288  26.309  27.963  1.00  0.00     0.074 A 
ATOM     51  C   UNL A   1      41.848  26.276  28.074  1.00  0.00     0.031 C 
ATOM     52  C   UNL A   1      44.757  32.334  29.208  1.00  0.00     0.029 A 
ATOM     53  C   UNL A   1      45.580  31.265  28.657  1.00  0.00     0.049 A 
ATOM     54  H   UNL A   1      44.977  29.301  28.293  1.00  0.00     0.167 HD
ATOM     55  C   UNL A   1      44.021  25.269  27.485  1.00  0.00     0.037 A 
ATOM     56  C   UNL A   1      46.886  31.415  28.328  1.00  0.00     0.037 A 
ATOM     57  C   UNL A   1      45.437  25.296  27.213  1.00  0.00     0.049 A 
ATOM     58  C   UNL A   1      47.724  30.240  27.894  1.00  0.00     0.074 A 
ATOM     59  C   UNL A   1      46.239  24.274  26.726  1.00  0.00     0.029 A 
ATOM     60  N   UNL A   1      46.256  26.403  27.352  1.00  0.00    -0.354 N 
ATOM     61  N   UNL A   1      47.354  29.007  27.658  1.00  0.00    -0.248 NA
ATOM     62  C   UNL A   1      49.171  30.471  27.724  1.00  0.00     0.031 C 
ATOM     63  C   UNL A   1      47.549  24.750  26.611  1.00  0.00     0.029 A 
ATOM     64  C   UNL A   1      47.553  26.082  26.977  1.00  0.00     0.049 A 
ATOM     65  H   UNL A   1      45.961  27.287  27.670  1.00  0.00     0.167 HD
ATOM     66  C   UNL A   1      48.516  28.320  27.309  1.00  0.00     0.074 A 
ATOM     67  C   UNL A   1      49.601  29.275  27.344  1.00  0.00     0.031 C 
ATOM     68  C   UNL A   1      48.656  27.009  26.999  1.00  0.00     0.037 A 
BRANCH  55  69
ATOM     69  C   UNL A   1      43.313  23.955  27.243  1.00  0.00     0.058 A 
ATOM     70  C   UNL A   1      43.147  22.985  28.244  1.00  0.00     0.135 A 
ATOM     71  C   UNL A   1      42.731  23.697  25.987  1.00  0.00     0.135 A 
ATOM     72  F   UNL A   1      43.687  23.169  29.459  1.00  0.00    -0.206 F 
ATOM     73  C   UNL A   1      42.470  21.792  27.998  1.00  0.00     0.059 A 
ATOM     74  C   UNL A   1      42.020  22.529  25.729  1.00  0.00     0.059 A 
ATOM     75  F   UNL A   1      42.842  24.595  24.996  1.00  0.00    -0.206 F 
ATOM     76  C   UNL A   1      41.911  21.574  26.736  1.00  0.00     0.060 A 
BRANCH  76  77
ATOM     77  S   UNL A   1      41.051  20.016  26.432  1.00  0.00     0.124 S 
ATOM     78  O   UNL A   1      41.001  19.445  27.774  1.00  0.00    -0.237 OA
ATOM     79  O   UNL A   1      39.773  20.466  25.888  1.00  0.00    -0.237 OA
ATOM     80  O   UNL A   1      41.923  19.323  25.488  1.00  0.00    -0.744 OA
ENDBRANCH  76  77
ENDBRANCH  55  69
BRANCH  56  81
ATOM     81  C   UNL A   1      47.535  32.755  28.480  1.00  0.00     0.058 A 
ATOM     82  C   UNL A   1      48.141  33.141  29.687  1.00  0.00     0.135 A 
ATOM     83  C   UNL A   1      47.578  33.667  27.413  1.00  0.00     0.135 A 
ATOM     84  F   UNL A   1      48.089  32.330  30.754  1.00  0.00    -0.206 F 
ATOM     85  C   UNL A   1      48.796  34.365  29.817  1.00  0.00     0.059 A 
ATOM     86  C   UNL A   1      48.256  34.878  27.507  1.00  0.00     0.059 A 
ATOM     87  F   UNL A   1      46.997  33.359  26.243  1.00  0.00    -0.206 F 
ATOM     88  C   UNL A   1      48.867  35.216  28.712  1.00  0.00     0.060 A 
BRANCH  88  89
ATOM     89  S   UNL A   1      49.834  36.738  28.849  1.00  0.00     0.124 S 
ATOM     90  O   UNL A   1      50.352  36.883  27.495  1.00  0.00    -0.237 OA
ATOM     91  O   UNL A   1      48.818  37.706  29.253  1.00  0.00    -0.237 OA
ATOM     92  O   UNL A   1      50.822  36.416  29.874  1.00  0.00    -0.744 OA
ENDBRANCH  88  89
ENDBRANCH  56  81
BRANCH  68  93
ATOM     93  C   UNL A   1      50.027  26.499  26.642  1.00  0.00     0.058 A 
ATOM     94  C   UNL A   1      50.906  26.002  27.618  1.00  0.00     0.135 A 
ATOM     95  C   UNL A   1      50.447  26.443  25.301  1.00  0.00     0.135 A 
ATOM     96  F   UNL A   1      50.561  26.034  28.915  1.00  0.00    -0.206 F 
ATOM     97  C   UNL A   1      52.154  25.484  27.281  1.00  0.00     0.059 A 
ATOM     98  C   UNL A   1      51.680  25.907  24.940  1.00  0.00     0.059 A 
ATOM     99  F   UNL A   1      49.645  26.895  24.324  1.00  0.00    -0.206 F 
ATOM    100  C   UNL A   1      52.532  25.436  25.937  1.00  0.00     0.060 A 
BRANCH 100 101
ATOM    101  S   UNL A   1      54.140  24.729  25.516  1.00  0.00     0.124 S 
ATOM    102  O   UNL A   1      53.775  23.365  25.148  1.00  0.00    -0.237 OA
ATOM    103  O   UNL A   1      54.578  25.585  24.418  1.00  0.00    -0.237 OA
ATOM    104  O   UNL A   1      54.905  24.861  26.751  1.00  0.00    -0.744 OA
ENDBRANCH 100 101
ENDBRANCH  68  93
ENDBRANCH  42  43
ENDBRANCH  34  37
ENDBRANCH  32  33
ENDBRANCH   1  32
TORSDOF 16
ENDMDL
