MODEL 1
REMARK VINA RESULT:     -11.0      0.000      0.000
REMARK SMILES C[C@@H]1SC[C@H](C(=O)NCCCCNC(=O)c2ccc(-c3c4nc(c(-c5c(F)cc(S(=O)(=O)[O-])cc5F)c5ccc([nH]5)c(-c5c(F)cc(S(=O)(=O)[O-])cc5F)c5nc(c(-c6c(F)cc(S(=O)(=O)[O-])cc6F)c6ccc3[nH]6)C=C5)C=C4)cc2)N1C(=O)N(C)[C@@H](C)Cc1cccs1
REMARK SMILES IDX 9 1 8 2 6 3 7 4 5 6 1 7 2 8 3 9 82 10 4 11 83 12 84 13 85 14
REMARK SMILES IDX 86 15 87 16 88 17 89 18 90 19 91 20 94 21 92 22 93 23 10 24
REMARK SMILES IDX 11 25 12 26 13 27 14 28 15 30 16 31 17 32 81 33 18 34 80 35
REMARK SMILES IDX 19 36 20 37 21 38 74 39 22 40 79 41 73 42 75 43 23 44 78 45
REMARK SMILES IDX 72 46 71 47 24 49 58 50 37 51 57 52 38 53 41 54 56 55 76 56
REMARK SMILES IDX 39 57 40 58 55 60 77 61 42 62 25 63 26 64 35 65 27 66 28 67
REMARK SMILES IDX 34 68 36 69 29 70 30 71 31 72 32 73 33 74 59 75 60 76 69 77
REMARK SMILES IDX 61 78 62 79 68 80 70 81 63 82 64 83 65 84 66 85 67 86 43 87
REMARK SMILES IDX 44 88 53 89 45 90 46 91 52 92 54 93 47 94 48 95 49 96 50 97
REMARK SMILES IDX 51 98
REMARK H PARENT 8 5 13 29 75 48 41 59
REMARK Flexibility Score: inf
ROOT
ATOM      1  C   UNL A   1      34.991  24.373  25.579  1.00  0.00     0.116 C 
ENDROOT
BRANCH   1   2
ATOM      2  N   UNL A   1      34.730  24.713  24.200  1.00  0.00    -0.354 N 
ATOM      3  C   UNL A   1      33.996  25.732  23.672  1.00  0.00     0.243 C 
ATOM      4  O   UNL A   1      33.745  25.667  22.462  1.00  0.00    -0.273 OA
ATOM      5  H   UNL A   1      35.146  24.115  23.538  1.00  0.00     0.163 HD
BRANCH   3   6
ATOM      6  C   UNL A   1      33.292  26.791  24.551  1.00  0.00     0.187 C 
ATOM      7  C   UNL A   1      30.169  28.286  23.736  1.00  0.00     0.043 C 
ATOM      8  C   UNL A   1      31.191  28.028  24.838  1.00  0.00     0.142 C 
ATOM      9  S   UNL A   1      32.498  29.289  24.677  1.00  0.00    -0.135 SA
ATOM     10  N   UNL A   1      31.823  26.713  24.784  1.00  0.00    -0.300 N 
ATOM     11  C   UNL A   1      33.644  28.138  23.918  1.00  0.00     0.107 C 
BRANCH  10  12
ATOM     12  C   UNL A   1      31.364  25.492  25.249  1.00  0.00     0.321 C 
ATOM     13  O   UNL A   1      31.287  25.333  26.472  1.00  0.00    -0.248 OA
BRANCH  12  14
ATOM     14  N   UNL A   1      31.072  24.423  24.425  1.00  0.00    -0.325 N 
ATOM     15  C   UNL A   1      30.269  24.381  23.210  1.00  0.00     0.149 C 
BRANCH  14  16
ATOM     16  C   UNL A   1      31.632  23.084  24.793  1.00  0.00     0.088 C 
ATOM     17  C   UNL A   1      30.832  22.425  25.929  1.00  0.00     0.031 C 
BRANCH  16  18
ATOM     18  C   UNL A   1      31.847  22.085  23.625  1.00  0.00     0.071 C 
BRANCH  18  19
ATOM     19  C   UNL A   1      32.688  20.878  23.957  1.00  0.00     0.007 A 
ATOM     20  C   UNL A   1      33.836  20.847  24.727  1.00  0.00     0.015 A 
ATOM     21  S   UNL A   1      32.346  19.328  23.306  1.00  0.00    -0.149 S 
ATOM     22  C   UNL A   1      34.338  19.526  24.905  1.00  0.00     0.012 A 
ATOM     23  C   UNL A   1      33.574  18.593  24.241  1.00  0.00     0.065 A 
ENDBRANCH  18  19
ENDBRANCH  16  18
ENDBRANCH  14  16
ENDBRANCH  12  14
ENDBRANCH  10  12
ENDBRANCH   3   6
ENDBRANCH   1   2
BRANCH   1  24
ATOM     24  C   UNL A   1      36.029  23.259  25.688  1.00  0.00     0.023 C 
BRANCH  24  25
ATOM     25  C   UNL A   1      37.441  23.658  25.255  1.00  0.00     0.023 C 
BRANCH  25  26
ATOM     26  C   UNL A   1      38.352  24.123  26.384  1.00  0.00     0.116 C 
BRANCH  26  27
ATOM     27  N   UNL A   1      39.764  23.975  26.064  1.00  0.00    -0.352 N 
ATOM     28  C   UNL A   1      40.823  24.756  26.460  1.00  0.00     0.251 C 
ATOM     29  H   UNL A   1      39.992  23.212  25.485  1.00  0.00     0.163 HD
ATOM     30  O   UNL A   1      41.937  24.574  25.975  1.00  0.00    -0.269 OA
BRANCH  28  31
ATOM     31  C   UNL A   1      40.602  25.832  27.449  1.00  0.00     0.039 A 
ATOM     32  C   UNL A   1      39.815  25.570  28.571  1.00  0.00     0.014 A 
ATOM     33  C   UNL A   1      41.205  27.082  27.284  1.00  0.00     0.014 A 
ATOM     34  C   UNL A   1      39.688  26.542  29.565  1.00  0.00     0.010 A 
ATOM     35  C   UNL A   1      41.143  28.017  28.311  1.00  0.00     0.010 A 
ATOM     36  C   UNL A   1      40.384  27.759  29.463  1.00  0.00    -0.014 A 
BRANCH  36  37
ATOM     37  C   UNL A   1      40.334  28.771  30.549  1.00  0.00     0.031 A 
ATOM     38  C   UNL A   1      41.249  28.646  31.738  1.00  0.00     0.074 A 
ATOM     39  C   UNL A   1      39.418  29.759  30.500  1.00  0.00     0.049 A 
ATOM     40  N   UNL A   1      41.305  29.382  32.818  1.00  0.00    -0.248 NA
ATOM     41  C   UNL A   1      42.211  27.531  31.723  1.00  0.00     0.031 C 
ATOM     42  C   UNL A   1      38.442  29.956  29.426  1.00  0.00     0.029 A 
ATOM     43  N   UNL A   1      39.151  30.780  31.378  1.00  0.00    -0.354 N 
ATOM     44  C   UNL A   1      42.292  28.813  33.614  1.00  0.00     0.074 A 
ATOM     45  C   UNL A   1      42.772  27.639  32.918  1.00  0.00     0.031 C 
ATOM     46  C   UNL A   1      37.698  31.041  29.698  1.00  0.00     0.029 A 
ATOM     47  C   UNL A   1      38.115  31.594  30.982  1.00  0.00     0.049 A 
ATOM     48  H   UNL A   1      39.655  30.917  32.213  1.00  0.00     0.167 HD
ATOM     49  C   UNL A   1      42.773  29.245  34.804  1.00  0.00     0.037 A 
ATOM     50  C   UNL A   1      37.557  32.659  31.590  1.00  0.00     0.037 A 
ATOM     51  C   UNL A   1      42.307  30.429  35.478  1.00  0.00     0.049 A 
ATOM     52  C   UNL A   1      38.107  33.117  32.914  1.00  0.00     0.074 A 
ATOM     53  C   UNL A   1      42.770  30.984  36.658  1.00  0.00     0.029 A 
ATOM     54  N   UNL A   1      41.274  31.241  35.033  1.00  0.00    -0.354 N 
ATOM     55  N   UNL A   1      39.088  32.607  33.620  1.00  0.00    -0.248 NA
ATOM     56  C   UNL A   1      37.480  34.299  33.523  1.00  0.00     0.031 C 
ATOM     57  C   UNL A   1      41.985  32.103  36.952  1.00  0.00     0.029 A 
ATOM     58  C   UNL A   1      41.070  32.279  35.927  1.00  0.00     0.049 A 
ATOM     59  H   UNL A   1      40.761  31.098  34.205  1.00  0.00     0.167 HD
ATOM     60  C   UNL A   1      39.217  33.424  34.739  1.00  0.00     0.074 A 
ATOM     61  C   UNL A   1      38.222  34.467  34.610  1.00  0.00     0.031 C 
ATOM     62  C   UNL A   1      40.083  33.320  35.777  1.00  0.00     0.037 A 
BRANCH  49  63
ATOM     63  C   UNL A   1      43.864  28.438  35.455  1.00  0.00     0.058 A 
ATOM     64  C   UNL A   1      43.575  27.396  36.351  1.00  0.00     0.135 A 
ATOM     65  C   UNL A   1      45.212  28.676  35.143  1.00  0.00     0.135 A 
ATOM     66  F   UNL A   1      42.305  27.134  36.697  1.00  0.00    -0.206 F 
ATOM     67  C   UNL A   1      44.583  26.636  36.932  1.00  0.00     0.059 A 
ATOM     68  C   UNL A   1      46.237  27.908  35.690  1.00  0.00     0.059 A 
ATOM     69  F   UNL A   1      45.546  29.661  34.294  1.00  0.00    -0.206 F 
ATOM     70  C   UNL A   1      45.912  26.897  36.594  1.00  0.00     0.060 A 
BRANCH  70  71
ATOM     71  S   UNL A   1      47.207  25.889  37.344  1.00  0.00     0.124 S 
ATOM     72  O   UNL A   1      46.456  24.700  37.741  1.00  0.00    -0.237 OA
ATOM     73  O   UNL A   1      48.140  25.707  36.237  1.00  0.00    -0.237 OA
ATOM     74  O   UNL A   1      47.693  26.718  38.442  1.00  0.00    -0.744 OA
ENDBRANCH  70  71
ENDBRANCH  49  63
BRANCH  50  75
ATOM     75  C   UNL A   1      36.424  33.379  30.947  1.00  0.00     0.058 A 
ATOM     76  C   UNL A   1      36.623  34.163  29.800  1.00  0.00     0.135 A 
ATOM     77  C   UNL A   1      35.121  33.298  31.462  1.00  0.00     0.135 A 
ATOM     78  F   UNL A   1      37.851  34.277  29.272  1.00  0.00    -0.206 F 
ATOM     79  C   UNL A   1      35.578  34.861  29.203  1.00  0.00     0.059 A 
ATOM     80  C   UNL A   1      34.054  33.963  30.866  1.00  0.00     0.059 A 
ATOM     81  F   UNL A   1      34.871  32.545  32.546  1.00  0.00    -0.206 F 
ATOM     82  C   UNL A   1      34.296  34.753  29.743  1.00  0.00     0.060 A 
BRANCH  82  83
ATOM     83  S   UNL A   1      32.941  35.635  28.938  1.00  0.00     0.124 S 
ATOM     84  O   UNL A   1      32.133  36.039  30.083  1.00  0.00    -0.237 OA
ATOM     85  O   UNL A   1      33.643  36.707  28.240  1.00  0.00    -0.237 OA
ATOM     86  O   UNL A   1      32.347  34.619  28.074  1.00  0.00    -0.744 OA
ENDBRANCH  82  83
ENDBRANCH  50  75
BRANCH  62  87
ATOM     87  C   UNL A   1      40.031  34.386  36.836  1.00  0.00     0.058 A 
ATOM     88  C   UNL A   1      40.764  35.577  36.725  1.00  0.00     0.135 A 
ATOM     89  C   UNL A   1      39.188  34.237  37.950  1.00  0.00     0.135 A 
ATOM     90  F   UNL A   1      41.590  35.769  35.683  1.00  0.00    -0.206 F 
ATOM     91  C   UNL A   1      40.681  36.575  37.692  1.00  0.00     0.059 A 
ATOM     92  C   UNL A   1      39.066  35.233  38.913  1.00  0.00     0.059 A 
ATOM     93  F   UNL A   1      38.456  33.122  38.100  1.00  0.00    -0.206 F 
ATOM     94  C   UNL A   1      39.825  36.394  38.781  1.00  0.00     0.060 A 
BRANCH  94  95
ATOM     95  S   UNL A   1      39.697  37.712  40.008  1.00  0.00     0.124 S 
ATOM     96  O   UNL A   1      40.897  38.493  39.728  1.00  0.00    -0.237 OA
ATOM     97  O   UNL A   1      38.431  38.346  39.655  1.00  0.00    -0.237 OA
ATOM     98  O   UNL A   1      39.698  36.995  41.280  1.00  0.00    -0.744 OA
ENDBRANCH  94  95
ENDBRANCH  62  87
ENDBRANCH  36  37
ENDBRANCH  28  31
ENDBRANCH  26  27
ENDBRANCH  25  26
ENDBRANCH  24  25
ENDBRANCH   1  24
TORSDOF 19
ENDMDL
MODEL 2
REMARK VINA RESULT:     -11.0      1.244      3.466
REMARK SMILES C[C@@H]1SC[C@H](C(=O)NCCCCNC(=O)c2ccc(-c3c4nc(c(-c5c(F)cc(S(=O)(=O)[O-])cc5F)c5ccc([nH]5)c(-c5c(F)cc(S(=O)(=O)[O-])cc5F)c5nc(c(-c6c(F)cc(S(=O)(=O)[O-])cc6F)c6ccc3[nH]6)C=C5)C=C4)cc2)N1C(=O)N(C)[C@@H](C)Cc1cccs1
REMARK SMILES IDX 9 1 8 2 6 3 7 4 5 6 1 7 2 8 3 9 82 10 4 11 83 12 84 13 85 14
REMARK SMILES IDX 86 15 87 16 88 17 89 18 90 19 91 20 94 21 92 22 93 23 10 24
REMARK SMILES IDX 11 25 12 26 13 27 14 28 15 30 16 31 17 32 81 33 18 34 80 35
REMARK SMILES IDX 19 36 20 37 21 38 74 39 22 40 79 41 73 42 75 43 23 44 78 45
REMARK SMILES IDX 72 46 71 47 24 49 58 50 37 51 57 52 38 53 41 54 56 55 76 56
REMARK SMILES IDX 39 57 40 58 55 60 77 61 42 62 25 63 26 64 35 65 27 66 28 67
REMARK SMILES IDX 34 68 36 69 29 70 30 71 31 72 32 73 33 74 59 75 60 76 69 77
REMARK SMILES IDX 61 78 62 79 68 80 70 81 63 82 64 83 65 84 66 85 67 86 43 87
REMARK SMILES IDX 44 88 53 89 45 90 46 91 52 92 54 93 47 94 48 95 49 96 50 97
REMARK SMILES IDX 51 98
REMARK H PARENT 8 5 13 29 75 48 41 59
REMARK Flexibility Score: inf
ROOT
ATOM      1  C   UNL A   1      36.945  23.558  25.947  1.00  0.00     0.116 C 
ENDROOT
BRANCH   1   2
ATOM      2  N   UNL A   1      35.781  23.122  26.683  1.00  0.00    -0.354 N 
ATOM      3  C   UNL A   1      34.497  22.943  26.266  1.00  0.00     0.243 C 
ATOM      4  O   UNL A   1      33.643  22.780  27.147  1.00  0.00    -0.273 OA
ATOM      5  H   UNL A   1      35.940  22.924  27.634  1.00  0.00     0.163 HD
BRANCH   3   6
ATOM      6  C   UNL A   1      34.059  23.173  24.801  1.00  0.00     0.187 C 
ATOM      7  C   UNL A   1      30.690  23.724  23.801  1.00  0.00     0.043 C 
ATOM      8  C   UNL A   1      32.157  23.832  23.396  1.00  0.00     0.142 C 
ATOM      9  S   UNL A   1      32.680  22.192  22.795  1.00  0.00    -0.135 SA
ATOM     10  N   UNL A   1      33.057  24.226  24.476  1.00  0.00    -0.300 N 
ATOM     11  C   UNL A   1      33.558  21.814  24.312  1.00  0.00     0.107 C 
BRANCH  10  12
ATOM     12  C   UNL A   1      33.344  25.487  24.971  1.00  0.00     0.321 C 
ATOM     13  O   UNL A   1      34.520  25.741  25.255  1.00  0.00    -0.248 OA
BRANCH  12  14
ATOM     14  N   UNL A   1      32.379  26.437  25.244  1.00  0.00    -0.325 N 
ATOM     15  C   UNL A   1      31.539  26.594  26.424  1.00  0.00     0.149 C 
BRANCH  14  16
ATOM     16  C   UNL A   1      32.113  27.480  24.202  1.00  0.00     0.088 C 
ATOM     17  C   UNL A   1      30.648  27.945  24.225  1.00  0.00     0.031 C 
BRANCH  16  18
ATOM     18  C   UNL A   1      33.074  28.699  24.190  1.00  0.00     0.071 C 
BRANCH  18  19
ATOM     19  C   UNL A   1      33.359  29.306  25.542  1.00  0.00     0.007 A 
ATOM     20  C   UNL A   1      34.406  28.999  26.391  1.00  0.00     0.015 A 
ATOM     21  S   UNL A   1      32.302  30.449  26.262  1.00  0.00    -0.149 S 
ATOM     22  C   UNL A   1      34.421  29.818  27.556  1.00  0.00     0.012 A 
ATOM     23  C   UNL A   1      33.367  30.703  27.575  1.00  0.00     0.065 A 
ENDBRANCH  18  19
ENDBRANCH  16  18
ENDBRANCH  14  16
ENDBRANCH  12  14
ENDBRANCH  10  12
ENDBRANCH   3   6
ENDBRANCH   1   2
BRANCH   1  24
ATOM     24  C   UNL A   1      37.842  22.378  25.580  1.00  0.00     0.023 C 
BRANCH  24  25
ATOM     25  C   UNL A   1      39.045  22.180  26.504  1.00  0.00     0.023 C 
BRANCH  25  26
ATOM     26  C   UNL A   1      39.694  23.466  26.999  1.00  0.00     0.116 C 
BRANCH  26  27
ATOM     27  N   UNL A   1      40.625  24.033  26.035  1.00  0.00    -0.352 N 
ATOM     28  C   UNL A   1      41.296  25.232  26.087  1.00  0.00     0.251 C 
ATOM     29  H   UNL A   1      40.798  23.484  25.236  1.00  0.00     0.163 HD
ATOM     30  O   UNL A   1      41.932  25.623  25.112  1.00  0.00    -0.269 OA
BRANCH  28  31
ATOM     31  C   UNL A   1      41.218  26.054  27.312  1.00  0.00     0.039 A 
ATOM     32  C   UNL A   1      42.227  26.983  27.570  1.00  0.00     0.014 A 
ATOM     33  C   UNL A   1      40.130  25.932  28.181  1.00  0.00     0.014 A 
ATOM     34  C   UNL A   1      42.110  27.840  28.666  1.00  0.00     0.010 A 
ATOM     35  C   UNL A   1      39.976  26.838  29.224  1.00  0.00     0.010 A 
ATOM     36  C   UNL A   1      40.964  27.803  29.479  1.00  0.00    -0.014 A 
BRANCH  36  37
ATOM     37  C   UNL A   1      40.778  28.764  30.597  1.00  0.00     0.031 A 
ATOM     38  C   UNL A   1      41.607  28.635  31.847  1.00  0.00     0.074 A 
ATOM     39  C   UNL A   1      39.817  29.706  30.514  1.00  0.00     0.049 A 
ATOM     40  N   UNL A   1      41.542  29.327  32.954  1.00  0.00    -0.248 NA
ATOM     41  C   UNL A   1      42.626  27.573  31.863  1.00  0.00     0.031 C 
ATOM     42  C   UNL A   1      38.914  29.897  29.377  1.00  0.00     0.029 A 
ATOM     43  N   UNL A   1      39.429  30.673  31.408  1.00  0.00    -0.354 N 
ATOM     44  C   UNL A   1      42.496  28.776  33.802  1.00  0.00     0.074 A 
ATOM     45  C   UNL A   1      43.090  27.659  33.101  1.00  0.00     0.031 C 
ATOM     46  C   UNL A   1      38.095  30.930  29.632  1.00  0.00     0.029 A 
ATOM     47  C   UNL A   1      38.383  31.449  30.965  1.00  0.00     0.049 A 
ATOM     48  H   UNL A   1      39.861  30.800  32.284  1.00  0.00     0.167 HD
ATOM     49  C   UNL A   1      42.862  29.181  35.041  1.00  0.00     0.037 A 
ATOM     50  C   UNL A   1      37.725  32.458  31.568  1.00  0.00     0.037 A 
ATOM     51  C   UNL A   1      42.284  30.311  35.722  1.00  0.00     0.049 A 
ATOM     52  C   UNL A   1      38.148  32.886  32.948  1.00  0.00     0.074 A 
ATOM     53  C   UNL A   1      42.627  30.838  36.955  1.00  0.00     0.029 A 
ATOM     54  N   UNL A   1      41.244  31.086  35.230  1.00  0.00    -0.354 N 
ATOM     55  N   UNL A   1      39.100  32.398  33.707  1.00  0.00    -0.248 NA
ATOM     56  C   UNL A   1      37.415  34.008  33.552  1.00  0.00     0.031 C 
ATOM     57  C   UNL A   1      41.762  31.901  37.231  1.00  0.00     0.029 A 
ATOM     58  C   UNL A   1      40.919  32.074  36.145  1.00  0.00     0.049 A 
ATOM     59  H   UNL A   1      40.803  30.953  34.360  1.00  0.00     0.167 HD
ATOM     60  C   UNL A   1      39.100  33.172  34.863  1.00  0.00     0.074 A 
ATOM     61  C   UNL A   1      38.062  34.168  34.698  1.00  0.00     0.031 C 
ATOM     62  C   UNL A   1      39.891  33.069  35.960  1.00  0.00     0.037 A 
BRANCH  49  63
ATOM     63  C   UNL A   1      43.944  28.404  35.743  1.00  0.00     0.058 A 
ATOM     64  C   UNL A   1      45.303  28.709  35.565  1.00  0.00     0.135 A 
ATOM     65  C   UNL A   1      43.617  27.374  36.639  1.00  0.00     0.135 A 
ATOM     66  F   UNL A   1      45.674  29.673  34.708  1.00  0.00    -0.206 F 
ATOM     67  C   UNL A   1      46.299  28.005  36.233  1.00  0.00     0.059 A 
ATOM     68  C   UNL A   1      44.596  26.676  37.341  1.00  0.00     0.059 A 
ATOM     69  F   UNL A   1      42.333  27.038  36.845  1.00  0.00    -0.206 F 
ATOM     70  C   UNL A   1      45.937  26.992  37.121  1.00  0.00     0.060 A 
BRANCH  70  71
ATOM     71  S   UNL A   1      47.242  26.102  37.992  1.00  0.00     0.124 S 
ATOM     72  O   UNL A   1      47.851  25.341  36.905  1.00  0.00    -0.237 OA
ATOM     73  O   UNL A   1      48.052  27.189  38.534  1.00  0.00    -0.237 OA
ATOM     74  O   UNL A   1      46.516  25.312  38.981  1.00  0.00    -0.744 OA
ENDBRANCH  70  71
ENDBRANCH  49  63
BRANCH  50  75
ATOM     75  C   UNL A   1      36.605  33.145  30.868  1.00  0.00     0.058 A 
ATOM     76  C   UNL A   1      36.852  34.053  29.827  1.00  0.00     0.135 A 
ATOM     77  C   UNL A   1      35.267  32.909  31.222  1.00  0.00     0.135 A 
ATOM     78  F   UNL A   1      38.114  34.317  29.454  1.00  0.00    -0.206 F 
ATOM     79  C   UNL A   1      35.818  34.721  29.180  1.00  0.00     0.059 A 
ATOM     80  C   UNL A   1      34.214  33.543  30.571  1.00  0.00     0.059 A 
ATOM     81  F   UNL A   1      34.974  32.035  32.199  1.00  0.00    -0.206 F 
ATOM     82  C   UNL A   1      34.501  34.459  29.559  1.00  0.00     0.060 A 
BRANCH  82  83
ATOM     83  S   UNL A   1      33.165  35.305  28.688  1.00  0.00     0.124 S 
ATOM     84  O   UNL A   1      32.415  35.886  29.795  1.00  0.00    -0.237 OA
ATOM     85  O   UNL A   1      33.895  36.246  27.845  1.00  0.00    -0.237 OA
ATOM     86  O   UNL A   1      32.495  34.224  27.971  1.00  0.00    -0.744 OA
ENDBRANCH  82  83
ENDBRANCH  50  75
BRANCH  62  87
ATOM     87  C   UNL A   1      39.701  34.085  37.052  1.00  0.00     0.058 A 
ATOM     88  C   UNL A   1      38.931  33.812  38.193  1.00  0.00     0.135 A 
ATOM     89  C   UNL A   1      40.350  35.330  36.981  1.00  0.00     0.135 A 
ATOM     90  F   UNL A   1      38.285  32.640  38.308  1.00  0.00    -0.206 F 
ATOM     91  C   UNL A   1      38.793  34.745  39.216  1.00  0.00     0.059 A 
ATOM     92  C   UNL A   1      40.249  36.266  38.005  1.00  0.00     0.059 A 
ATOM     93  F   UNL A   1      41.107  35.638  35.917  1.00  0.00    -0.206 F 
ATOM     94  C   UNL A   1      39.459  35.968  39.114  1.00  0.00     0.060 A 
BRANCH  94  95
ATOM     95  S   UNL A   1      39.301  37.154  40.466  1.00  0.00     0.124 S 
ATOM     96  O   UNL A   1      38.571  36.374  41.459  1.00  0.00    -0.237 OA
ATOM     97  O   UNL A   1      40.695  37.447  40.788  1.00  0.00    -0.237 OA
ATOM     98  O   UNL A   1      38.559  38.258  39.866  1.00  0.00    -0.744 OA
ENDBRANCH  94  95
ENDBRANCH  62  87
ENDBRANCH  36  37
ENDBRANCH  28  31
ENDBRANCH  26  27
ENDBRANCH  25  26
ENDBRANCH  24  25
ENDBRANCH   1  24
TORSDOF 19
ENDMDL
MODEL 3
REMARK VINA RESULT:     -11.0      1.230      8.717
REMARK SMILES C[C@@H]1SC[C@H](C(=O)NCCCCNC(=O)c2ccc(-c3c4nc(c(-c5c(F)cc(S(=O)(=O)[O-])cc5F)c5ccc([nH]5)c(-c5c(F)cc(S(=O)(=O)[O-])cc5F)c5nc(c(-c6c(F)cc(S(=O)(=O)[O-])cc6F)c6ccc3[nH]6)C=C5)C=C4)cc2)N1C(=O)N(C)[C@@H](C)Cc1cccs1
REMARK SMILES IDX 9 1 8 2 6 3 7 4 5 6 1 7 2 8 3 9 82 10 4 11 83 12 84 13 85 14
REMARK SMILES IDX 86 15 87 16 88 17 89 18 90 19 91 20 94 21 92 22 93 23 10 24
REMARK SMILES IDX 11 25 12 26 13 27 14 28 15 30 16 31 17 32 81 33 18 34 80 35
REMARK SMILES IDX 19 36 20 37 21 38 74 39 22 40 79 41 73 42 75 43 23 44 78 45
REMARK SMILES IDX 72 46 71 47 24 49 58 50 37 51 57 52 38 53 41 54 56 55 76 56
REMARK SMILES IDX 39 57 40 58 55 60 77 61 42 62 25 63 26 64 35 65 27 66 28 67
REMARK SMILES IDX 34 68 36 69 29 70 30 71 31 72 32 73 33 74 59 75 60 76 69 77
REMARK SMILES IDX 61 78 62 79 68 80 70 81 63 82 64 83 65 84 66 85 67 86 43 87
REMARK SMILES IDX 44 88 53 89 45 90 46 91 52 92 54 93 47 94 48 95 49 96 50 97
REMARK SMILES IDX 51 98
REMARK H PARENT 8 5 13 29 75 48 41 59
REMARK Flexibility Score: inf
ROOT
ATOM      1  C   UNL A   1      37.598  21.620  25.212  1.00  0.00     0.116 C 
ENDROOT
BRANCH   1   2
ATOM      2  N   UNL A   1      36.556  21.863  26.183  1.00  0.00    -0.354 N 
ATOM      3  C   UNL A   1      35.202  21.813  26.045  1.00  0.00     0.243 C 
ATOM      4  O   UNL A   1      34.531  22.285  26.972  1.00  0.00    -0.273 OA
ATOM      5  H   UNL A   1      36.874  22.103  27.083  1.00  0.00     0.163 HD
BRANCH   3   6
ATOM      6  C   UNL A   1      34.515  21.426  24.716  1.00  0.00     0.187 C 
ATOM      7  C   UNL A   1      31.304  22.595  23.728  1.00  0.00     0.043 C 
ATOM      8  C   UNL A   1      32.603  21.941  23.265  1.00  0.00     0.142 C 
ATOM      9  S   UNL A   1      32.482  20.161  23.641  1.00  0.00    -0.135 SA
ATOM     10  N   UNL A   1      33.806  22.459  23.911  1.00  0.00    -0.300 N 
ATOM     11  C   UNL A   1      33.548  20.297  25.075  1.00  0.00     0.107 C 
BRANCH  10  12
ATOM     12  C   UNL A   1      34.547  23.591  23.619  1.00  0.00     0.321 C 
ATOM     13  O   UNL A   1      35.593  23.447  22.977  1.00  0.00    -0.248 OA
BRANCH  12  14
ATOM     14  N   UNL A   1      34.226  24.853  24.081  1.00  0.00    -0.325 N 
ATOM     15  C   UNL A   1      34.187  25.359  25.447  1.00  0.00     0.149 C 
BRANCH  14  16
ATOM     16  C   UNL A   1      33.847  25.891  23.070  1.00  0.00     0.088 C 
ATOM     17  C   UNL A   1      33.007  25.294  21.930  1.00  0.00     0.031 C 
BRANCH  16  18
ATOM     18  C   UNL A   1      33.180  27.178  23.626  1.00  0.00     0.071 C 
BRANCH  18  19
ATOM     19  C   UNL A   1      31.674  27.210  23.538  1.00  0.00     0.007 A 
ATOM     20  C   UNL A   1      30.784  26.336  24.136  1.00  0.00     0.015 A 
ATOM     21  S   UNL A   1      30.847  28.348  22.557  1.00  0.00    -0.149 S 
ATOM     22  C   UNL A   1      29.426  26.702  23.911  1.00  0.00     0.012 A 
ATOM     23  C   UNL A   1      29.321  27.826  23.123  1.00  0.00     0.065 A 
ENDBRANCH  18  19
ENDBRANCH  16  18
ENDBRANCH  14  16
ENDBRANCH  12  14
ENDBRANCH  10  12
ENDBRANCH   3   6
ENDBRANCH   1   2
BRANCH   1  24
ATOM     24  C   UNL A   1      38.979  21.897  25.802  1.00  0.00     0.023 C 
BRANCH  24  25
ATOM     25  C   UNL A   1      39.054  23.137  26.695  1.00  0.00     0.023 C 
BRANCH  25  26
ATOM     26  C   UNL A   1      40.459  23.525  27.139  1.00  0.00     0.116 C 
BRANCH  26  27
ATOM     27  N   UNL A   1      41.213  24.198  26.092  1.00  0.00    -0.352 N 
ATOM     28  C   UNL A   1      41.534  25.529  25.981  1.00  0.00     0.251 C 
ATOM     29  H   UNL A   1      41.538  23.621  25.363  1.00  0.00     0.163 HD
ATOM     30  O   UNL A   1      42.052  25.954  24.952  1.00  0.00    -0.269 OA
BRANCH  28  31
ATOM     31  C   UNL A   1      41.222  26.446  27.097  1.00  0.00     0.039 A 
ATOM     32  C   UNL A   1      40.235  26.084  28.016  1.00  0.00     0.014 A 
ATOM     33  C   UNL A   1      41.930  27.641  27.255  1.00  0.00     0.014 A 
ATOM     34  C   UNL A   1      40.007  26.889  29.134  1.00  0.00     0.010 A 
ATOM     35  C   UNL A   1      41.757  28.397  28.408  1.00  0.00     0.010 A 
ATOM     36  C   UNL A   1      40.794  28.031  29.361  1.00  0.00    -0.014 A 
BRANCH  36  37
ATOM     37  C   UNL A   1      40.628  28.852  30.588  1.00  0.00     0.031 A 
ATOM     38  C   UNL A   1      39.574  29.925  30.639  1.00  0.00     0.074 A 
ATOM     39  C   UNL A   1      41.471  28.679  31.626  1.00  0.00     0.049 A 
ATOM     40  N   UNL A   1      39.323  30.791  31.586  1.00  0.00    -0.248 NA
ATOM     41  C   UNL A   1      38.703  30.059  29.460  1.00  0.00     0.031 C 
ATOM     42  C   UNL A   1      42.566  27.708  31.675  1.00  0.00     0.029 A 
ATOM     43  N   UNL A   1      41.547  29.322  32.837  1.00  0.00    -0.354 N 
ATOM     44  C   UNL A   1      38.281  31.579  31.114  1.00  0.00     0.074 A 
ATOM     45  C   UNL A   1      37.981  31.125  29.774  1.00  0.00     0.031 C 
ATOM     46  C   UNL A   1      43.189  27.804  32.861  1.00  0.00     0.029 A 
ATOM     47  C   UNL A   1      42.567  28.869  33.641  1.00  0.00     0.049 A 
ATOM     48  H   UNL A   1      40.928  30.039  33.105  1.00  0.00     0.167 HD
ATOM     49  C   UNL A   1      37.617  32.575  31.748  1.00  0.00     0.037 A 
ATOM     50  C   UNL A   1      42.963  29.273  34.864  1.00  0.00     0.037 A 
ATOM     51  C   UNL A   1      37.905  33.005  33.092  1.00  0.00     0.049 A 
ATOM     52  C   UNL A   1      42.212  30.384  35.547  1.00  0.00     0.074 A 
ATOM     53  C   UNL A   1      37.251  33.964  33.846  1.00  0.00     0.029 A 
ATOM     54  N   UNL A   1      38.929  32.504  33.883  1.00  0.00    -0.354 N 
ATOM     55  N   UNL A   1      41.183  31.072  35.111  1.00  0.00    -0.248 NA
ATOM     56  C   UNL A   1      42.667  30.770  36.890  1.00  0.00     0.031 C 
ATOM     57  C   UNL A   1      37.910  34.078  35.073  1.00  0.00     0.029 A 
ATOM     58  C   UNL A   1      38.938  33.151  35.108  1.00  0.00     0.049 A 
ATOM     59  H   UNL A   1      39.556  31.796  33.612  1.00  0.00     0.167 HD
ATOM     60  C   UNL A   1      40.849  31.949  36.138  1.00  0.00     0.074 A 
ATOM     61  C   UNL A   1      41.777  31.697  37.220  1.00  0.00     0.031 C 
ATOM     62  C   UNL A   1      39.862  32.878  36.182  1.00  0.00     0.037 A 
BRANCH  49  63
ATOM     63  C   UNL A   1      36.508  33.266  31.002  1.00  0.00     0.058 A 
ATOM     64  C   UNL A   1      35.158  33.055  31.326  1.00  0.00     0.135 A 
ATOM     65  C   UNL A   1      36.798  34.186  29.982  1.00  0.00     0.135 A 
ATOM     66  F   UNL A   1      34.822  32.174  32.282  1.00  0.00    -0.206 F 
ATOM     67  C   UNL A   1      34.136  33.713  30.652  1.00  0.00     0.059 A 
ATOM     68  C   UNL A   1      35.793  34.879  29.313  1.00  0.00     0.059 A 
ATOM     69  F   UNL A   1      38.071  34.426  29.628  1.00  0.00    -0.206 F 
ATOM     70  C   UNL A   1      34.462  34.625  29.648  1.00  0.00     0.060 A 
BRANCH  70  71
ATOM     71  S   UNL A   1      33.124  35.484  28.795  1.00  0.00     0.124 S 
ATOM     72  O   UNL A   1      33.867  36.418  27.954  1.00  0.00    -0.237 OA
ATOM     73  O   UNL A   1      32.454  34.395  28.091  1.00  0.00    -0.237 OA
ATOM     74  O   UNL A   1      32.359  36.089  29.880  1.00  0.00    -0.744 OA
ENDBRANCH  70  71
ENDBRANCH  49  63
BRANCH  50  75
ATOM     75  C   UNL A   1      44.119  28.614  35.531  1.00  0.00     0.058 A 
ATOM     76  C   UNL A   1      43.929  27.536  36.408  1.00  0.00     0.135 A 
ATOM     77  C   UNL A   1      45.436  29.047  35.307  1.00  0.00     0.135 A 
ATOM     78  F   UNL A   1      42.690  27.088  36.660  1.00  0.00    -0.206 F 
ATOM     79  C   UNL A   1      44.998  26.926  37.058  1.00  0.00     0.059 A 
ATOM     80  C   UNL A   1      46.524  28.435  35.922  1.00  0.00     0.059 A 
ATOM     81  F   UNL A   1      45.675  30.063  34.462  1.00  0.00    -0.206 F 
ATOM     82  C   UNL A   1      46.292  27.383  36.808  1.00  0.00     0.060 A 
BRANCH  82  83
ATOM     83  S   UNL A   1      47.674  26.561  37.629  1.00  0.00     0.124 S 
ATOM     84  O   UNL A   1      47.006  25.436  38.273  1.00  0.00    -0.237 OA
ATOM     85  O   UNL A   1      48.546  26.230  36.506  1.00  0.00    -0.237 OA
ATOM     86  O   UNL A   1      48.188  27.588  38.529  1.00  0.00    -0.744 OA
ENDBRANCH  82  83
ENDBRANCH  50  75
BRANCH  62  87
ATOM     87  C   UNL A   1      39.698  33.660  37.456  1.00  0.00     0.058 A 
ATOM     88  C   UNL A   1      40.392  34.858  37.684  1.00  0.00     0.135 A 
ATOM     89  C   UNL A   1      38.787  33.233  38.437  1.00  0.00     0.135 A 
ATOM     90  F   UNL A   1      41.279  35.308  36.782  1.00  0.00    -0.206 F 
ATOM     91  C   UNL A   1      40.206  35.595  38.850  1.00  0.00     0.059 A 
ATOM     92  C   UNL A   1      38.563  33.969  39.596  1.00  0.00     0.059 A 
ATOM     93  F   UNL A   1      38.089  32.100  38.264  1.00  0.00    -0.206 F 
ATOM     94  C   UNL A   1      39.286  35.143  39.798  1.00  0.00     0.060 A 
BRANCH  94  95
ATOM     95  S   UNL A   1      39.026  36.128  41.288  1.00  0.00     0.124 S 
ATOM     96  O   UNL A   1      38.828  37.461  40.729  1.00  0.00    -0.237 OA
ATOM     97  O   UNL A   1      37.843  35.504  41.873  1.00  0.00    -0.237 OA
ATOM     98  O   UNL A   1      40.262  35.941  42.041  1.00  0.00    -0.744 OA
ENDBRANCH  94  95
ENDBRANCH  62  87
ENDBRANCH  36  37
ENDBRANCH  28  31
ENDBRANCH  26  27
ENDBRANCH  25  26
ENDBRANCH  24  25
ENDBRANCH   1  24
TORSDOF 19
ENDMDL
