MODEL 1
REMARK VINA RESULT:     -12.4      0.000      0.000
REMARK SMILES O=C(CC[C@@]1(c2ccccc2)NC(=O)N(CC(=O)Nc2cccc(F)c2)C1=O)NCCCCNC(=O)c1ccc(-c2c3nc(c(-c4c(F)cc(S(=O)(=O)[O-])cc4F)c4ccc([nH]4)c(-c4c(F)cc(S(=O)(=O)[O-])cc4F)c4nc(c(-c5c(F)cc(S(=O)(=O)[O-])cc5F)c5ccc2[nH]5)C=C4)C=C3)cc1
REMARK SMILES IDX 30 1 29 2 1 3 2 4 3 6 4 7 5 8 12 9 27 10 13 11 15 13 28 14
REMARK SMILES IDX 14 15 6 16 7 17 11 18 8 19 10 20 9 21 16 22 17 23 18 24
REMARK SMILES IDX 19 25 20 27 21 28 26 29 22 30 24 31 23 32 25 33 31 34 32 35
REMARK SMILES IDX 33 36 34 37 35 38 36 40 37 41 38 42 102 43 39 44 101 45
REMARK SMILES IDX 40 46 41 47 42 48 95 49 43 50 100 51 94 52 96 53 44 54 99 55
REMARK SMILES IDX 93 56 92 57 45 59 79 60 58 61 78 62 59 63 62 64 77 65 97 66
REMARK SMILES IDX 60 67 61 68 76 70 98 71 63 72 46 73 47 74 56 75 48 76 49 77
REMARK SMILES IDX 55 78 57 79 50 80 51 81 52 82 53 83 54 84 80 85 81 86 90 87
REMARK SMILES IDX 82 88 83 89 89 90 91 91 84 92 85 93 86 94 87 95 88 96 64 97
REMARK SMILES IDX 65 98 74 99 66 100 67 101 73 102 75 103 68 104 69 105 70 106
REMARK SMILES IDX 71 107 72 108
REMARK H PARENT 29 5 12 12 19 26 34 39 96 58 62 69
REMARK Flexibility Score: inf
ROOT
ATOM      1  C   UNL A   1      30.691  26.147  26.412  1.00  0.00     0.116 C 
ENDROOT
BRANCH   1   2
ATOM      2  N   UNL A   1      31.596  25.017  26.373  1.00  0.00    -0.356 N 
ATOM      3  O   UNL A   1      30.212  23.441  27.276  1.00  0.00    -0.275 OA
ATOM      4  C   UNL A   1      31.309  23.750  26.817  1.00  0.00     0.220 C 
ATOM      5  H   UNL A   1      32.493  25.169  25.997  1.00  0.00     0.163 HD
BRANCH   4   6
ATOM      6  C   UNL A   1      32.476  22.755  26.848  1.00  0.00     0.103 C 
BRANCH   6   7
ATOM      7  C   UNL A   1      33.952  23.149  26.655  1.00  0.00     0.053 C 
BRANCH   7   8
ATOM      8  C   UNL A   1      34.578  23.070  25.239  1.00  0.00     0.147 C 
ATOM      9  N   UNL A   1      33.915  22.027  24.452  1.00  0.00    -0.319 N 
ATOM     10  C   UNL A   1      34.070  24.302  24.421  1.00  0.00     0.261 C 
ATOM     11  C   UNL A   1      33.155  22.518  23.429  1.00  0.00     0.325 C 
ATOM     12  H   UNL A   1      34.009  21.065  24.642  1.00  0.00     0.166 HD
ATOM     13  N   UNL A   1      33.119  23.867  23.529  1.00  0.00    -0.252 N 
ATOM     14  O   UNL A   1      34.379  25.467  24.627  1.00  0.00    -0.271 OA
ATOM     15  O   UNL A   1      32.542  21.795  22.662  1.00  0.00    -0.248 OA
BRANCH   8  16
ATOM     16  C   UNL A   1      36.102  22.873  25.257  1.00  0.00    -0.013 A 
ATOM     17  C   UNL A   1      36.674  21.654  24.853  1.00  0.00     0.007 A 
ATOM     18  C   UNL A   1      36.960  23.811  25.873  1.00  0.00     0.007 A 
ATOM     19  C   UNL A   1      37.995  21.334  25.193  1.00  0.00     0.000 A 
ATOM     20  C   UNL A   1      38.268  23.483  26.230  1.00  0.00     0.000 A 
ATOM     21  C   UNL A   1      38.777  22.232  25.914  1.00  0.00     0.000 A 
ENDBRANCH   8  16
BRANCH  13  22
ATOM     22  C   UNL A   1      32.191  24.681  22.776  1.00  0.00     0.230 C 
BRANCH  22  23
ATOM     23  C   UNL A   1      32.744  25.940  22.067  1.00  0.00     0.244 C 
ATOM     24  O   UNL A   1      33.861  25.869  21.532  1.00  0.00    -0.273 OA
ATOM     25  N   UNL A   1      32.046  27.086  21.793  1.00  0.00    -0.324 N 
ATOM     26  H   UNL A   1      32.457  27.602  21.063  1.00  0.00     0.170 HD
BRANCH  25  27
ATOM     27  C   UNL A   1      30.891  27.711  22.292  1.00  0.00     0.044 A 
ATOM     28  C   UNL A   1      30.780  29.104  22.218  1.00  0.00     0.026 A 
ATOM     29  C   UNL A   1      29.900  27.040  22.977  1.00  0.00     0.065 A 
ATOM     30  C   UNL A   1      29.651  29.768  22.732  1.00  0.00     0.005 A 
ATOM     31  C   UNL A   1      28.760  27.681  23.448  1.00  0.00     0.125 A 
ATOM     32  C   UNL A   1      28.621  29.048  23.329  1.00  0.00     0.039 A 
ATOM     33  F   UNL A   1      27.807  26.960  24.055  1.00  0.00    -0.207 F 
ENDBRANCH  25  27
ENDBRANCH  22  23
ENDBRANCH  13  22
ENDBRANCH   7   8
ENDBRANCH   6   7
ENDBRANCH   4   6
ENDBRANCH   1   2
BRANCH   1  34
ATOM     34  C   UNL A   1      31.386  27.443  26.836  1.00  0.00     0.023 C 
BRANCH  34  35
ATOM     35  C   UNL A   1      32.429  28.028  25.870  1.00  0.00     0.023 C 
BRANCH  35  36
ATOM     36  C   UNL A   1      33.727  28.548  26.484  1.00  0.00     0.116 C 
BRANCH  36  37
ATOM     37  N   UNL A   1      33.598  29.875  27.060  1.00  0.00    -0.352 N 
ATOM     38  C   UNL A   1      34.455  30.585  27.870  1.00  0.00     0.251 C 
ATOM     39  H   UNL A   1      32.761  30.342  26.835  1.00  0.00     0.163 HD
ATOM     40  O   UNL A   1      34.073  31.646  28.357  1.00  0.00    -0.269 OA
BRANCH  38  41
ATOM     41  C   UNL A   1      35.817  30.084  28.183  1.00  0.00     0.039 A 
ATOM     42  C   UNL A   1      36.806  30.171  27.196  1.00  0.00     0.014 A 
ATOM     43  C   UNL A   1      36.123  29.498  29.414  1.00  0.00     0.014 A 
ATOM     44  C   UNL A   1      38.110  29.741  27.469  1.00  0.00     0.010 A 
ATOM     45  C   UNL A   1      37.440  29.134  29.708  1.00  0.00     0.010 A 
ATOM     46  C   UNL A   1      38.451  29.256  28.742  1.00  0.00    -0.014 A 
BRANCH  46  47
ATOM     47  C   UNL A   1      39.860  28.902  29.081  1.00  0.00     0.031 A 
ATOM     48  C   UNL A   1      40.771  29.913  29.726  1.00  0.00     0.074 A 
ATOM     49  C   UNL A   1      40.339  27.684  28.753  1.00  0.00     0.049 A 
ATOM     50  N   UNL A   1      42.039  29.802  30.037  1.00  0.00    -0.248 NA
ATOM     51  C   UNL A   1      40.190  31.225  30.049  1.00  0.00     0.031 C 
ATOM     52  C   UNL A   1      39.573  26.626  28.091  1.00  0.00     0.029 A 
ATOM     53  N   UNL A   1      41.584  27.130  28.923  1.00  0.00    -0.354 N 
ATOM     54  C   UNL A   1      42.410  31.030  30.575  1.00  0.00     0.074 A 
ATOM     55  C   UNL A   1      41.245  31.886  30.506  1.00  0.00     0.031 C 
ATOM     56  C   UNL A   1      40.356  25.548  27.931  1.00  0.00     0.029 A 
ATOM     57  C   UNL A   1      41.693  25.848  28.435  1.00  0.00     0.049 A 
ATOM     58  H   UNL A   1      42.331  27.607  29.352  1.00  0.00     0.167 HD
ATOM     59  C   UNL A   1      43.605  31.405  31.095  1.00  0.00     0.037 A 
ATOM     60  C   UNL A   1      42.749  25.011  28.384  1.00  0.00     0.037 A 
ATOM     61  C   UNL A   1      44.758  30.543  31.176  1.00  0.00     0.049 A 
ATOM     62  C   UNL A   1      44.072  25.460  28.945  1.00  0.00     0.074 A 
ATOM     63  C   UNL A   1      45.994  30.813  31.740  1.00  0.00     0.029 A 
ATOM     64  N   UNL A   1      44.825  29.251  30.675  1.00  0.00    -0.354 N 
ATOM     65  N   UNL A   1      44.383  26.602  29.511  1.00  0.00    -0.248 NA
ATOM     66  C   UNL A   1      45.187  24.505  28.867  1.00  0.00     0.031 C 
ATOM     67  C   UNL A   1      46.826  29.710  31.525  1.00  0.00     0.029 A 
ATOM     68  C   UNL A   1      46.089  28.725  30.888  1.00  0.00     0.049 A 
ATOM     69  H   UNL A   1      44.084  28.778  30.233  1.00  0.00     0.167 HD
ATOM     70  C   UNL A   1      45.718  26.489  29.886  1.00  0.00     0.074 A 
ATOM     71  C   UNL A   1      46.151  25.165  29.493  1.00  0.00     0.031 C 
ATOM     72  C   UNL A   1      46.511  27.400  30.501  1.00  0.00     0.037 A 
BRANCH  59  73
ATOM     73  C   UNL A   1      43.738  32.813  31.614  1.00  0.00     0.058 A 
ATOM     74  C   UNL A   1      44.233  33.854  30.813  1.00  0.00     0.135 A 
ATOM     75  C   UNL A   1      43.310  33.137  32.912  1.00  0.00     0.135 A 
ATOM     76  F   UNL A   1      44.667  33.603  29.568  1.00  0.00    -0.206 F 
ATOM     77  C   UNL A   1      44.327  35.159  31.289  1.00  0.00     0.059 A 
ATOM     78  C   UNL A   1      43.364  34.441  33.399  1.00  0.00     0.059 A 
ATOM     79  F   UNL A   1      42.824  32.184  33.722  1.00  0.00    -0.206 F 
ATOM     80  C   UNL A   1      43.887  35.443  32.583  1.00  0.00     0.060 A 
BRANCH  80  81
ATOM     81  S   UNL A   1      44.005  37.143  33.179  1.00  0.00     0.124 S 
ATOM     82  O   UNL A   1      44.013  37.890  31.925  1.00  0.00    -0.237 OA
ATOM     83  O   UNL A   1      42.797  37.274  33.986  1.00  0.00    -0.237 OA
ATOM     84  O   UNL A   1      45.259  37.156  33.924  1.00  0.00    -0.744 OA
ENDBRANCH  80  81
ENDBRANCH  59  73
BRANCH  60  85
ATOM     85  C   UNL A   1      42.599  23.654  27.788  1.00  0.00     0.058 A 
ATOM     86  C   UNL A   1      42.413  22.524  28.600  1.00  0.00     0.135 A 
ATOM     87  C   UNL A   1      42.641  23.457  26.399  1.00  0.00     0.135 A 
ATOM     88  F   UNL A   1      42.375  22.657  29.934  1.00  0.00    -0.206 F 
ATOM     89  C   UNL A   1      42.296  21.248  28.059  1.00  0.00     0.059 A 
ATOM     90  C   UNL A   1      42.496  22.194  25.833  1.00  0.00     0.059 A 
ATOM     91  F   UNL A   1      42.804  24.504  25.575  1.00  0.00    -0.206 F 
ATOM     92  C   UNL A   1      42.336  21.093  26.673  1.00  0.00     0.060 A 
BRANCH  92  93
ATOM     93  S   UNL A   1      42.146  19.437  25.981  1.00  0.00     0.124 S 
ATOM     94  O   UNL A   1      42.962  19.525  24.776  1.00  0.00    -0.237 OA
ATOM     95  O   UNL A   1      42.675  18.595  27.050  1.00  0.00    -0.237 OA
ATOM     96  O   UNL A   1      40.707  19.327  25.761  1.00  0.00    -0.744 OA
ENDBRANCH  92  93
ENDBRANCH  60  85
BRANCH  72  97
ATOM     97  C   UNL A   1      47.922  26.988  30.833  1.00  0.00     0.058 A 
ATOM     98  C   UNL A   1      48.970  27.109  29.907  1.00  0.00     0.135 A 
ATOM     99  C   UNL A   1      48.237  26.511  32.117  1.00  0.00     0.135 A 
ATOM    100  F   UNL A   1      48.725  27.553  28.664  1.00  0.00    -0.206 F 
ATOM    101  C   UNL A   1      50.274  26.750  30.233  1.00  0.00     0.059 A 
ATOM    102  C   UNL A   1      49.540  26.176  32.476  1.00  0.00     0.059 A 
ATOM    103  F   UNL A   1      47.276  26.383  33.046  1.00  0.00    -0.206 F 
ATOM    104  C   UNL A   1      50.550  26.288  31.522  1.00  0.00     0.060 A 
BRANCH 104 105
ATOM    105  S   UNL A   1      52.252  25.858  31.941  1.00  0.00     0.124 S 
ATOM    106  O   UNL A   1      52.184  24.402  31.998  1.00  0.00    -0.237 OA
ATOM    107  O   UNL A   1      52.999  26.414  30.816  1.00  0.00    -0.237 OA
ATOM    108  O   UNL A   1      52.469  26.527  33.220  1.00  0.00    -0.744 OA
ENDBRANCH 104 105
ENDBRANCH  72  97
ENDBRANCH  46  47
ENDBRANCH  38  41
ENDBRANCH  36  37
ENDBRANCH  35  36
ENDBRANCH  34  35
ENDBRANCH   1  34
TORSDOF 20
ENDMDL
MODEL 2
REMARK VINA RESULT:     -12.2      4.441      9.887
REMARK SMILES O=C(CC[C@@]1(c2ccccc2)NC(=O)N(CC(=O)Nc2cccc(F)c2)C1=O)NCCCCNC(=O)c1ccc(-c2c3nc(c(-c4c(F)cc(S(=O)(=O)[O-])cc4F)c4ccc([nH]4)c(-c4c(F)cc(S(=O)(=O)[O-])cc4F)c4nc(c(-c5c(F)cc(S(=O)(=O)[O-])cc5F)c5ccc2[nH]5)C=C4)C=C3)cc1
REMARK SMILES IDX 30 1 29 2 1 3 2 4 3 6 4 7 5 8 12 9 27 10 13 11 15 13 28 14
REMARK SMILES IDX 14 15 6 16 7 17 11 18 8 19 10 20 9 21 16 22 17 23 18 24
REMARK SMILES IDX 19 25 20 27 21 28 26 29 22 30 24 31 23 32 25 33 31 34 32 35
REMARK SMILES IDX 33 36 34 37 35 38 36 40 37 41 38 42 102 43 39 44 101 45
REMARK SMILES IDX 40 46 41 47 42 48 95 49 43 50 100 51 94 52 96 53 44 54 99 55
REMARK SMILES IDX 93 56 92 57 45 59 79 60 58 61 78 62 59 63 62 64 77 65 97 66
REMARK SMILES IDX 60 67 61 68 76 70 98 71 63 72 46 73 47 74 56 75 48 76 49 77
REMARK SMILES IDX 55 78 57 79 50 80 51 81 52 82 53 83 54 84 80 85 81 86 90 87
REMARK SMILES IDX 82 88 83 89 89 90 91 91 84 92 85 93 86 94 87 95 88 96 64 97
REMARK SMILES IDX 65 98 74 99 66 100 67 101 73 102 75 103 68 104 69 105 70 106
REMARK SMILES IDX 71 107 72 108
REMARK H PARENT 29 5 12 12 19 26 34 39 96 58 62 69
REMARK Flexibility Score: inf
ROOT
ATOM      1  C   UNL A   1      39.762  22.705  27.093  1.00  0.00     0.116 C 
ENDROOT
BRANCH   1   2
ATOM      2  N   UNL A   1      38.908  21.922  26.224  1.00  0.00    -0.356 N 
ATOM      3  O   UNL A   1      37.405  23.548  25.667  1.00  0.00    -0.275 OA
ATOM      4  C   UNL A   1      37.785  22.383  25.584  1.00  0.00     0.220 C 
ATOM      5  H   UNL A   1      39.153  20.980  26.081  1.00  0.00     0.163 HD
BRANCH   4   6
ATOM      6  C   UNL A   1      36.931  21.334  24.862  1.00  0.00     0.103 C 
BRANCH   6   7
ATOM      7  C   UNL A   1      35.542  21.616  24.259  1.00  0.00     0.053 C 
BRANCH   7   8
ATOM      8  C   UNL A   1      34.278  21.127  25.009  1.00  0.00     0.147 C 
ATOM      9  N   UNL A   1      34.509  21.149  26.456  1.00  0.00    -0.319 N 
ATOM     10  C   UNL A   1      33.213  22.271  24.953  1.00  0.00     0.261 C 
ATOM     11  C   UNL A   1      33.788  22.108  27.108  1.00  0.00     0.325 C 
ATOM     12  H   UNL A   1      35.126  20.532  26.913  1.00  0.00     0.166 HD
ATOM     13  N   UNL A   1      33.158  22.873  26.187  1.00  0.00    -0.252 N 
ATOM     14  O   UNL A   1      32.624  22.643  23.948  1.00  0.00    -0.271 OA
ATOM     15  O   UNL A   1      33.844  22.262  28.317  1.00  0.00    -0.248 OA
BRANCH   8  16
ATOM     16  C   UNL A   1      33.788  19.747  24.543  1.00  0.00    -0.013 A 
ATOM     17  C   UNL A   1      34.624  18.621  24.628  1.00  0.00     0.007 A 
ATOM     18  C   UNL A   1      32.581  19.598  23.822  1.00  0.00     0.007 A 
ATOM     19  C   UNL A   1      34.340  17.460  23.897  1.00  0.00     0.000 A 
ATOM     20  C   UNL A   1      32.311  18.449  23.078  1.00  0.00     0.000 A 
ATOM     21  C   UNL A   1      33.206  17.389  23.094  1.00  0.00     0.000 A 
ENDBRANCH   8  16
BRANCH  13  22
ATOM     22  C   UNL A   1      32.533  24.134  26.516  1.00  0.00     0.230 C 
BRANCH  22  23
ATOM     23  C   UNL A   1      30.994  24.158  26.678  1.00  0.00     0.244 C 
ATOM     24  O   UNL A   1      30.460  23.260  27.346  1.00  0.00    -0.273 OA
ATOM     25  N   UNL A   1      30.159  25.184  26.320  1.00  0.00    -0.324 N 
ATOM     26  H   UNL A   1      29.303  25.148  26.803  1.00  0.00     0.170 HD
BRANCH  25  27
ATOM     27  C   UNL A   1      30.218  26.274  25.436  1.00  0.00     0.044 A 
ATOM     28  C   UNL A   1      29.411  26.273  24.293  1.00  0.00     0.026 A 
ATOM     29  C   UNL A   1      31.127  27.303  25.559  1.00  0.00     0.065 A 
ATOM     30  C   UNL A   1      29.461  27.334  23.371  1.00  0.00     0.005 A 
ATOM     31  C   UNL A   1      31.153  28.378  24.677  1.00  0.00     0.125 A 
ATOM     32  C   UNL A   1      30.322  28.408  23.578  1.00  0.00     0.039 A 
ATOM     33  F   UNL A   1      32.024  29.376  24.887  1.00  0.00    -0.207 F 
ENDBRANCH  25  27
ENDBRANCH  22  23
ENDBRANCH  13  22
ENDBRANCH   7   8
ENDBRANCH   6   7
ENDBRANCH   4   6
ENDBRANCH   1   2
BRANCH   1  34
ATOM     34  C   UNL A   1      40.882  21.874  27.724  1.00  0.00     0.023 C 
BRANCH  34  35
ATOM     35  C   UNL A   1      42.252  21.901  27.028  1.00  0.00     0.023 C 
BRANCH  35  36
ATOM     36  C   UNL A   1      43.060  23.193  27.141  1.00  0.00     0.116 C 
BRANCH  36  37
ATOM     37  N   UNL A   1      42.880  24.083  26.008  1.00  0.00    -0.352 N 
ATOM     38  C   UNL A   1      42.459  25.393  25.959  1.00  0.00     0.251 C 
ATOM     39  H   UNL A   1      43.092  23.684  25.132  1.00  0.00     0.163 HD
ATOM     40  O   UNL A   1      42.244  25.909  24.864  1.00  0.00    -0.269 OA
BRANCH  38  41
ATOM     41  C   UNL A   1      42.239  26.182  27.196  1.00  0.00     0.039 A 
ATOM     42  C   UNL A   1      43.126  27.222  27.494  1.00  0.00     0.014 A 
ATOM     43  C   UNL A   1      41.200  25.889  28.084  1.00  0.00     0.014 A 
ATOM     44  C   UNL A   1      42.928  28.011  28.634  1.00  0.00     0.010 A 
ATOM     45  C   UNL A   1      40.964  26.719  29.183  1.00  0.00     0.010 A 
ATOM     46  C   UNL A   1      41.821  27.793  29.470  1.00  0.00    -0.014 A 
BRANCH  46  47
ATOM     47  C   UNL A   1      41.534  28.695  30.622  1.00  0.00     0.031 A 
ATOM     48  C   UNL A   1      42.333  28.594  31.895  1.00  0.00     0.074 A 
ATOM     49  C   UNL A   1      40.509  29.570  30.545  1.00  0.00     0.049 A 
ATOM     50  N   UNL A   1      42.186  29.252  33.018  1.00  0.00    -0.248 NA
ATOM     51  C   UNL A   1      43.429  27.613  31.918  1.00  0.00     0.031 C 
ATOM     52  C   UNL A   1      39.632  29.742  29.385  1.00  0.00     0.029 A 
ATOM     53  N   UNL A   1      40.024  30.473  31.459  1.00  0.00    -0.354 N 
ATOM     54  C   UNL A   1      43.157  28.757  33.882  1.00  0.00     0.074 A 
ATOM     55  C   UNL A   1      43.857  27.710  33.169  1.00  0.00     0.031 C 
ATOM     56  C   UNL A   1      38.734  30.704  29.649  1.00  0.00     0.029 A 
ATOM     57  C   UNL A   1      38.937  31.187  31.012  1.00  0.00     0.049 A 
ATOM     58  H   UNL A   1      40.418  30.597  32.354  1.00  0.00     0.167 HD
ATOM     59  C   UNL A   1      43.449  29.149  35.146  1.00  0.00     0.037 A 
ATOM     60  C   UNL A   1      38.178  32.116  31.628  1.00  0.00     0.037 A 
ATOM     61  C   UNL A   1      42.759  30.203  35.847  1.00  0.00     0.049 A 
ATOM     62  C   UNL A   1      38.509  32.517  33.041  1.00  0.00     0.074 A 
ATOM     63  C   UNL A   1      43.022  30.712  37.108  1.00  0.00     0.029 A 
ATOM     64  N   UNL A   1      41.667  30.904  35.356  1.00  0.00    -0.354 N 
ATOM     65  N   UNL A   1      39.474  32.084  33.818  1.00  0.00    -0.248 NA
ATOM     66  C   UNL A   1      37.651  33.536  33.662  1.00  0.00     0.031 C 
ATOM     67  C   UNL A   1      42.054  31.676  37.404  1.00  0.00     0.029 A 
ATOM     68  C   UNL A   1      41.227  31.818  36.302  1.00  0.00     0.049 A 
ATOM     69  H   UNL A   1      41.264  30.773  34.469  1.00  0.00     0.167 HD
ATOM     70  C   UNL A   1      39.359  32.802  35.004  1.00  0.00     0.074 A 
ATOM     71  C   UNL A   1      38.239  33.704  34.838  1.00  0.00     0.031 C 
ATOM     72  C   UNL A   1      40.115  32.721  36.126  1.00  0.00     0.037 A 
BRANCH  59  73
ATOM     73  C   UNL A   1      44.562  28.433  35.867  1.00  0.00     0.058 A 
ATOM     74  C   UNL A   1      44.320  27.305  36.668  1.00  0.00     0.135 A 
ATOM     75  C   UNL A   1      45.895  28.845  35.709  1.00  0.00     0.135 A 
ATOM     76  F   UNL A   1      43.066  26.870  36.864  1.00  0.00    -0.206 F 
ATOM     77  C   UNL A   1      45.356  26.630  37.309  1.00  0.00     0.059 A 
ATOM     78  C   UNL A   1      46.950  28.167  36.314  1.00  0.00     0.059 A 
ATOM     79  F   UNL A   1      46.187  29.916  34.953  1.00  0.00    -0.206 F 
ATOM     80  C   UNL A   1      46.669  27.068  37.123  1.00  0.00     0.060 A 
BRANCH  80  81
ATOM     81  S   UNL A   1      47.999  26.173  37.952  1.00  0.00     0.124 S 
ATOM     82  O   UNL A   1      48.330  25.158  36.958  1.00  0.00    -0.237 OA
ATOM     83  O   UNL A   1      49.000  27.217  38.148  1.00  0.00    -0.237 OA
ATOM     84  O   UNL A   1      47.368  25.676  39.170  1.00  0.00    -0.744 OA
ENDBRANCH  80  81
ENDBRANCH  59  73
BRANCH  60  85
ATOM     85  C   UNL A   1      37.035  32.744  30.909  1.00  0.00     0.058 A 
ATOM     86  C   UNL A   1      35.729  32.252  31.058  1.00  0.00     0.135 A 
ATOM     87  C   UNL A   1      37.222  33.844  30.057  1.00  0.00     0.135 A 
ATOM     88  F   UNL A   1      35.497  31.196  31.853  1.00  0.00    -0.206 F 
ATOM     89  C   UNL A   1      34.655  32.812  30.374  1.00  0.00     0.059 A 
ATOM     90  C   UNL A   1      36.159  34.441  29.387  1.00  0.00     0.059 A 
ATOM     91  F   UNL A   1      38.449  34.363  29.888  1.00  0.00    -0.206 F 
ATOM     92  C   UNL A   1      34.880  33.910  29.542  1.00  0.00     0.060 A 
BRANCH  92  93
ATOM     93  S   UNL A   1      33.473  34.653  28.688  1.00  0.00     0.124 S 
ATOM     94  O   UNL A   1      33.061  33.570  27.803  1.00  0.00    -0.237 OA
ATOM     95  O   UNL A   1      32.569  34.953  29.794  1.00  0.00    -0.237 OA
ATOM     96  O   UNL A   1      34.056  35.819  28.031  1.00  0.00    -0.744 OA
ENDBRANCH  92  93
ENDBRANCH  60  85
BRANCH  72  97
ATOM     97  C   UNL A   1      39.791  33.664  37.256  1.00  0.00     0.058 A 
ATOM     98  C   UNL A   1      38.904  33.313  38.285  1.00  0.00     0.135 A 
ATOM     99  C   UNL A   1      40.419  34.918  37.335  1.00  0.00     0.135 A 
ATOM    100  F   UNL A   1      38.270  32.129  38.258  1.00  0.00    -0.206 F 
ATOM    101  C   UNL A   1      38.632  34.181  39.339  1.00  0.00     0.059 A 
ATOM    102  C   UNL A   1      40.187  35.789  38.395  1.00  0.00     0.059 A 
ATOM    103  F   UNL A   1      41.284  35.302  36.383  1.00  0.00    -0.206 F 
ATOM    104  C   UNL A   1      39.282  35.416  39.387  1.00  0.00     0.060 A 
BRANCH 104 105
ATOM    105  S   UNL A   1      38.945  36.517  40.777  1.00  0.00     0.124 S 
ATOM    106  O   UNL A   1      40.254  36.598  41.415  1.00  0.00    -0.237 OA
ATOM    107  O   UNL A   1      38.489  37.732  40.107  1.00  0.00    -0.237 OA
ATOM    108  O   UNL A   1      37.920  35.806  41.535  1.00  0.00    -0.744 OA
ENDBRANCH 104 105
ENDBRANCH  72  97
ENDBRANCH  46  47
ENDBRANCH  38  41
ENDBRANCH  36  37
ENDBRANCH  35  36
ENDBRANCH  34  35
ENDBRANCH   1  34
TORSDOF 20
ENDMDL
MODEL 3
REMARK VINA RESULT:     -12.1      2.326      2.887
REMARK SMILES O=C(CC[C@@]1(c2ccccc2)NC(=O)N(CC(=O)Nc2cccc(F)c2)C1=O)NCCCCNC(=O)c1ccc(-c2c3nc(c(-c4c(F)cc(S(=O)(=O)[O-])cc4F)c4ccc([nH]4)c(-c4c(F)cc(S(=O)(=O)[O-])cc4F)c4nc(c(-c5c(F)cc(S(=O)(=O)[O-])cc5F)c5ccc2[nH]5)C=C4)C=C3)cc1
REMARK SMILES IDX 30 1 29 2 1 3 2 4 3 6 4 7 5 8 12 9 27 10 13 11 15 13 28 14
REMARK SMILES IDX 14 15 6 16 7 17 11 18 8 19 10 20 9 21 16 22 17 23 18 24
REMARK SMILES IDX 19 25 20 27 21 28 26 29 22 30 24 31 23 32 25 33 31 34 32 35
REMARK SMILES IDX 33 36 34 37 35 38 36 40 37 41 38 42 102 43 39 44 101 45
REMARK SMILES IDX 40 46 41 47 42 48 95 49 43 50 100 51 94 52 96 53 44 54 99 55
REMARK SMILES IDX 93 56 92 57 45 59 79 60 58 61 78 62 59 63 62 64 77 65 97 66
REMARK SMILES IDX 60 67 61 68 76 70 98 71 63 72 46 73 47 74 56 75 48 76 49 77
REMARK SMILES IDX 55 78 57 79 50 80 51 81 52 82 53 83 54 84 80 85 81 86 90 87
REMARK SMILES IDX 82 88 83 89 89 90 91 91 84 92 85 93 86 94 87 95 88 96 64 97
REMARK SMILES IDX 65 98 74 99 66 100 67 101 73 102 75 103 68 104 69 105 70 106
REMARK SMILES IDX 71 107 72 108
REMARK H PARENT 29 5 12 12 19 26 34 39 96 58 62 69
REMARK Flexibility Score: inf
ROOT
ATOM      1  C   UNL A   1      31.101  26.198  25.870  1.00  0.00     0.116 C 
ENDROOT
BRANCH   1   2
ATOM      2  N   UNL A   1      32.007  25.103  26.150  1.00  0.00    -0.356 N 
ATOM      3  O   UNL A   1      30.569  23.757  27.306  1.00  0.00    -0.275 OA
ATOM      4  C   UNL A   1      31.693  23.969  26.857  1.00  0.00     0.220 C 
ATOM      5  H   UNL A   1      32.925  25.178  25.805  1.00  0.00     0.163 HD
BRANCH   4   6
ATOM      6  C   UNL A   1      32.856  23.027  27.188  1.00  0.00     0.103 C 
BRANCH   6   7
ATOM      7  C   UNL A   1      34.337  23.352  26.917  1.00  0.00     0.053 C 
BRANCH   7   8
ATOM      8  C   UNL A   1      34.989  22.869  25.598  1.00  0.00     0.147 C 
ATOM      9  N   UNL A   1      34.465  21.552  25.228  1.00  0.00    -0.319 N 
ATOM     10  C   UNL A   1      34.355  23.683  24.423  1.00  0.00     0.261 C 
ATOM     11  C   UNL A   1      33.668  21.576  24.119  1.00  0.00     0.325 C 
ATOM     12  H   UNL A   1      34.666  20.730  25.731  1.00  0.00     0.166 HD
ATOM     13  N   UNL A   1      33.475  22.865  23.755  1.00  0.00    -0.252 N 
ATOM     14  O   UNL A   1      34.523  24.875  24.213  1.00  0.00    -0.271 OA
ATOM     15  O   UNL A   1      33.155  20.570  23.657  1.00  0.00    -0.248 OA
BRANCH   8  16
ATOM     16  C   UNL A   1      36.525  22.865  25.643  1.00  0.00    -0.013 A 
ATOM     17  C   UNL A   1      37.249  21.688  25.388  1.00  0.00     0.007 A 
ATOM     18  C   UNL A   1      37.251  23.968  26.147  1.00  0.00     0.007 A 
ATOM     19  C   UNL A   1      38.593  21.576  25.767  1.00  0.00     0.000 A 
ATOM     20  C   UNL A   1      38.583  23.848  26.544  1.00  0.00     0.000 A 
ATOM     21  C   UNL A   1      39.247  22.641  26.379  1.00  0.00     0.000 A 
ENDBRANCH   8  16
BRANCH  13  22
ATOM     22  C   UNL A   1      32.470  23.263  22.794  1.00  0.00     0.230 C 
BRANCH  22  23
ATOM     23  C   UNL A   1      32.949  23.919  21.478  1.00  0.00     0.244 C 
ATOM     24  O   UNL A   1      33.411  23.186  20.590  1.00  0.00    -0.273 OA
ATOM     25  N   UNL A   1      32.741  25.220  21.100  1.00  0.00    -0.324 N 
ATOM     26  H   UNL A   1      32.815  25.337  20.126  1.00  0.00     0.170 HD
BRANCH  25  27
ATOM     27  C   UNL A   1      32.451  26.428  21.753  1.00  0.00     0.044 A 
ATOM     28  C   UNL A   1      31.120  26.747  22.043  1.00  0.00     0.026 A 
ATOM     29  C   UNL A   1      33.397  27.396  22.018  1.00  0.00     0.065 A 
ATOM     30  C   UNL A   1      30.786  27.961  22.673  1.00  0.00     0.005 A 
ATOM     31  C   UNL A   1      33.083  28.578  22.680  1.00  0.00     0.125 A 
ATOM     32  C   UNL A   1      31.779  28.872  23.016  1.00  0.00     0.039 A 
ATOM     33  F   UNL A   1      34.062  29.451  22.959  1.00  0.00    -0.207 F 
ENDBRANCH  25  27
ENDBRANCH  22  23
ENDBRANCH  13  22
ENDBRANCH   7   8
ENDBRANCH   6   7
ENDBRANCH   4   6
ENDBRANCH   1   2
BRANCH   1  34
ATOM     34  C   UNL A   1      31.580  27.525  26.463  1.00  0.00     0.023 C 
BRANCH  34  35
ATOM     35  C   UNL A   1      33.046  27.602  26.916  1.00  0.00     0.023 C 
BRANCH  35  36
ATOM     36  C   UNL A   1      33.960  28.555  26.148  1.00  0.00     0.116 C 
BRANCH  36  37
ATOM     37  N   UNL A   1      33.785  29.947  26.528  1.00  0.00    -0.352 N 
ATOM     38  C   UNL A   1      34.498  30.728  27.408  1.00  0.00     0.251 C 
ATOM     39  H   UNL A   1      33.034  30.404  26.084  1.00  0.00     0.163 HD
ATOM     40  O   UNL A   1      34.080  31.852  27.681  1.00  0.00    -0.269 OA
BRANCH  38  41
ATOM     41  C   UNL A   1      35.743  30.235  28.049  1.00  0.00     0.039 A 
ATOM     42  C   UNL A   1      36.940  30.304  27.328  1.00  0.00     0.014 A 
ATOM     43  C   UNL A   1      35.742  29.673  29.328  1.00  0.00     0.014 A 
ATOM     44  C   UNL A   1      38.139  29.881  27.914  1.00  0.00     0.010 A 
ATOM     45  C   UNL A   1      36.948  29.316  29.937  1.00  0.00     0.010 A 
ATOM     46  C   UNL A   1      38.162  29.420  29.240  1.00  0.00    -0.014 A 
BRANCH  46  47
ATOM     47  C   UNL A   1      39.446  29.075  29.915  1.00  0.00     0.031 A 
ATOM     48  C   UNL A   1      39.926  29.864  31.105  1.00  0.00     0.074 A 
ATOM     49  C   UNL A   1      40.214  28.083  29.419  1.00  0.00     0.049 A 
ATOM     50  N   UNL A   1      41.043  29.746  31.780  1.00  0.00    -0.248 NA
ATOM     51  C   UNL A   1      39.047  30.940  31.590  1.00  0.00     0.031 C 
ATOM     52  C   UNL A   1      39.885  27.265  28.250  1.00  0.00     0.029 A 
ATOM     53  N   UNL A   1      41.433  27.596  29.826  1.00  0.00    -0.354 N 
ATOM     54  C   UNL A   1      41.007  30.737  32.755  1.00  0.00     0.074 A 
ATOM     55  C   UNL A   1      39.780  31.477  32.555  1.00  0.00     0.031 C 
ATOM     56  C   UNL A   1      40.863  26.368  28.048  1.00  0.00     0.029 A 
ATOM     57  C   UNL A   1      41.912  26.572  29.042  1.00  0.00     0.049 A 
ATOM     58  H   UNL A   1      41.919  27.949  30.607  1.00  0.00     0.167 HD
ATOM     59  C   UNL A   1      41.905  30.996  33.737  1.00  0.00     0.037 A 
ATOM     60  C   UNL A   1      43.070  25.883  29.103  1.00  0.00     0.037 A 
ATOM     61  C   UNL A   1      43.119  30.245  33.942  1.00  0.00     0.049 A 
ATOM     62  C   UNL A   1      44.062  26.206  30.189  1.00  0.00     0.074 A 
ATOM     63  C   UNL A   1      44.062  30.393  34.946  1.00  0.00     0.029 A 
ATOM     64  N   UNL A   1      43.565  29.213  33.129  1.00  0.00    -0.354 N 
ATOM     65  N   UNL A   1      43.978  27.102  31.144  1.00  0.00    -0.248 NA
ATOM     66  C   UNL A   1      45.304  25.420  30.210  1.00  0.00     0.031 C 
ATOM     67  C   UNL A   1      45.106  29.495  34.705  1.00  0.00     0.029 A 
ATOM     68  C   UNL A   1      44.783  28.739  33.591  1.00  0.00     0.049 A 
ATOM     69  H   UNL A   1      43.088  28.869  32.341  1.00  0.00     0.167 HD
ATOM     70  C   UNL A   1      45.140  26.965  31.897  1.00  0.00     0.074 A 
ATOM     71  C   UNL A   1      45.903  25.892  31.295  1.00  0.00     0.031 C 
ATOM     72  C   UNL A   1      45.535  27.663  32.990  1.00  0.00     0.037 A 
BRANCH  59  73
ATOM     73  C   UNL A   1      41.620  32.144  34.669  1.00  0.00     0.058 A 
ATOM     74  C   UNL A   1      40.818  31.989  35.811  1.00  0.00     0.135 A 
ATOM     75  C   UNL A   1      42.203  33.403  34.449  1.00  0.00     0.135 A 
ATOM     76  F   UNL A   1      40.225  30.812  36.068  1.00  0.00    -0.206 F 
ATOM     77  C   UNL A   1      40.580  33.047  36.685  1.00  0.00     0.059 A 
ATOM     78  C   UNL A   1      42.005  34.467  35.326  1.00  0.00     0.059 A 
ATOM     79  F   UNL A   1      42.982  33.610  33.375  1.00  0.00    -0.206 F 
ATOM     80  C   UNL A   1      41.181  34.282  36.435  1.00  0.00     0.060 A 
BRANCH  80  81
ATOM     81  S   UNL A   1      40.872  35.638  37.585  1.00  0.00     0.124 S 
ATOM     82  O   UNL A   1      42.192  36.254  37.671  1.00  0.00    -0.237 OA
ATOM     83  O   UNL A   1      39.855  36.415  36.883  1.00  0.00    -0.237 OA
ATOM     84  O   UNL A   1      40.416  34.962  38.795  1.00  0.00    -0.744 OA
ENDBRANCH  80  81
ENDBRANCH  59  73
BRANCH  60  85
ATOM     85  C   UNL A   1      43.353  24.807  28.113  1.00  0.00     0.058 A 
ATOM     86  C   UNL A   1      42.865  23.505  28.301  1.00  0.00     0.135 A 
ATOM     87  C   UNL A   1      44.117  25.056  26.962  1.00  0.00     0.135 A 
ATOM     88  F   UNL A   1      42.138  23.212  29.389  1.00  0.00    -0.206 F 
ATOM     89  C   UNL A   1      43.142  22.484  27.397  1.00  0.00     0.059 A 
ATOM     90  C   UNL A   1      44.381  24.059  26.028  1.00  0.00     0.059 A 
ATOM     91  F   UNL A   1      44.597  26.287  26.726  1.00  0.00    -0.206 F 
ATOM     92  C   UNL A   1      43.900  22.772  26.261  1.00  0.00     0.060 A 
BRANCH  92  93
ATOM     93  S   UNL A   1      44.221  21.449  25.075  1.00  0.00     0.124 S 
ATOM     94  O   UNL A   1      45.575  21.051  25.439  1.00  0.00    -0.237 OA
ATOM     95  O   UNL A   1      43.166  20.491  25.393  1.00  0.00    -0.237 OA
ATOM     96  O   UNL A   1      44.084  22.114  23.783  1.00  0.00    -0.744 OA
ENDBRANCH  92  93
ENDBRANCH  60  85
BRANCH  72  97
ATOM     97  C   UNL A   1      46.834  27.265  33.641  1.00  0.00     0.058 A 
ATOM     98  C   UNL A   1      48.054  27.864  33.293  1.00  0.00     0.135 A 
ATOM     99  C   UNL A   1      46.848  26.304  34.666  1.00  0.00     0.135 A 
ATOM    100  F   UNL A   1      48.102  28.784  32.316  1.00  0.00    -0.206 F 
ATOM    101  C   UNL A   1      49.245  27.508  33.920  1.00  0.00     0.059 A 
ATOM    102  C   UNL A   1      48.020  25.955  35.329  1.00  0.00     0.059 A 
ATOM    103  F   UNL A   1      45.708  25.705  35.046  1.00  0.00    -0.206 F 
ATOM    104  C   UNL A   1      49.217  26.555  34.940  1.00  0.00     0.060 A 
BRANCH 104 105
ATOM    105  S   UNL A   1      50.763  26.127  35.767  1.00  0.00     0.124 S 
ATOM    106  O   UNL A   1      51.073  24.835  35.165  1.00  0.00    -0.237 OA
ATOM    107  O   UNL A   1      51.637  27.232  35.383  1.00  0.00    -0.237 OA
ATOM    108  O   UNL A   1      50.396  26.090  37.180  1.00  0.00    -0.744 OA
ENDBRANCH 104 105
ENDBRANCH  72  97
ENDBRANCH  46  47
ENDBRANCH  38  41
ENDBRANCH  36  37
ENDBRANCH  35  36
ENDBRANCH  34  35
ENDBRANCH   1  34
TORSDOF 20
ENDMDL
