MODEL 1
REMARK VINA RESULT:     -11.3      0.000      0.000
REMARK SMILES CC[C@H]1CCC[C@@H]([C@@H](Cc2ccccc2)C(=O)NCCCCNC(=O)c2ccc(-c3c4nc(c(-c5c(F)cc(S(=O)(=O)[O-])cc5F)c5ccc([nH]5)c(-c5c(F)cc(S(=O)(=O)[O-])cc5F)c5nc(c(-c6c(F)cc(S(=O)(=O)[O-])cc6F)c6ccc3[nH]6)C=C5)C=C4)cc2)C1
REMARK SMILES IDX 21 1 20 2 19 3 18 4 16 5 17 6 8 8 7 9 3 10 4 11 92 12 5 13
REMARK SMILES IDX 6 14 2 15 1 16 9 17 10 18 11 19 15 20 12 21 14 22 13 23
REMARK SMILES IDX 22 24 23 25 24 26 25 28 26 29 27 30 91 31 28 32 90 33 29 34
REMARK SMILES IDX 30 35 31 36 84 37 32 38 89 39 83 40 85 41 33 42 88 43 82 44
REMARK SMILES IDX 81 45 34 47 68 48 47 49 67 50 48 51 51 52 66 53 86 54 49 55
REMARK SMILES IDX 50 56 65 58 87 59 52 60 35 61 36 62 45 63 37 64 38 65 44 66
REMARK SMILES IDX 46 67 39 68 40 69 41 70 42 71 43 72 69 73 70 74 79 75 71 76
REMARK SMILES IDX 72 77 78 78 80 79 73 80 74 81 75 82 76 83 77 84 53 85 54 86
REMARK SMILES IDX 63 87 55 88 56 89 62 90 64 91 57 92 58 93 59 94 60 95 61 96
REMARK H PARENT 18 7 23 27 85 46 51 57
REMARK Flexibility Score: inf
ROOT
ATOM      1  C   UNL A   1      32.757  28.389  25.930  1.00  0.00     0.023 C 
ENDROOT
BRANCH   1   2
ATOM      2  C   UNL A   1      32.154  26.995  25.852  1.00  0.00     0.023 C 
BRANCH   2   3
ATOM      3  C   UNL A   1      33.137  25.889  25.483  1.00  0.00     0.116 C 
BRANCH   3   4
ATOM      4  N   UNL A   1      33.691  26.017  24.157  1.00  0.00    -0.356 N 
ATOM      5  C   UNL A   1      33.969  25.060  23.240  1.00  0.00     0.223 C 
ATOM      6  O   UNL A   1      33.954  25.425  22.057  1.00  0.00    -0.275 OA
ATOM      7  H   UNL A   1      33.899  26.938  23.877  1.00  0.00     0.163 HD
BRANCH   5   8
ATOM      8  C   UNL A   1      34.229  23.583  23.559  1.00  0.00     0.086 C 
BRANCH   8   9
ATOM      9  C   UNL A   1      33.146  22.451  23.409  1.00  0.00     0.002 C 
ATOM     10  C   UNL A   1      32.365  21.650  25.831  1.00  0.00    -0.011 C 
ATOM     11  C   UNL A   1      30.987  22.273  25.560  1.00  0.00     0.003 C 
ATOM     12  C   UNL A   1      33.218  21.403  24.557  1.00  0.00     0.008 C 
ATOM     13  C   UNL A   1      30.978  23.310  24.448  1.00  0.00     0.001 C 
ATOM     14  C   UNL A   1      31.666  22.766  23.206  1.00  0.00     0.004 C 
BRANCH  10  15
ATOM     15  C   UNL A   1      33.149  22.282  27.003  1.00  0.00     0.000 C 
ATOM     16  C   UNL A   1      34.593  21.860  27.193  1.00  0.00     0.004 C 
ENDBRANCH  10  15
ENDBRANCH   8   9
BRANCH   8  17
ATOM     17  C   UNL A   1      35.675  23.156  23.146  1.00  0.00     0.049 C 
BRANCH  17  18
ATOM     18  C   UNL A   1      36.659  22.814  24.239  1.00  0.00    -0.047 A 
ATOM     19  C   UNL A   1      37.179  21.519  24.375  1.00  0.00     0.004 A 
ATOM     20  C   UNL A   1      37.103  23.816  25.118  1.00  0.00     0.004 A 
ATOM     21  C   UNL A   1      38.167  21.253  25.327  1.00  0.00     0.000 A 
ATOM     22  C   UNL A   1      38.090  23.546  26.070  1.00  0.00     0.000 A 
ATOM     23  C   UNL A   1      38.632  22.267  26.164  1.00  0.00     0.000 A 
ENDBRANCH  17  18
ENDBRANCH   8  17
ENDBRANCH   5   8
ENDBRANCH   3   4
ENDBRANCH   2   3
ENDBRANCH   1   2
BRANCH   1  24
ATOM     24  C   UNL A   1      33.692  28.608  27.106  1.00  0.00     0.116 C 
BRANCH  24  25
ATOM     25  N   UNL A   1      33.627  29.961  27.649  1.00  0.00    -0.352 N 
ATOM     26  C   UNL A   1      34.610  30.675  28.293  1.00  0.00     0.251 C 
ATOM     27  H   UNL A   1      32.765  30.424  27.540  1.00  0.00     0.163 HD
ATOM     28  O   UNL A   1      34.382  31.772  28.774  1.00  0.00    -0.269 OA
BRANCH  26  29
ATOM     29  C   UNL A   1      35.939  30.049  28.413  1.00  0.00     0.039 A 
ATOM     30  C   UNL A   1      36.822  30.130  27.338  1.00  0.00     0.014 A 
ATOM     31  C   UNL A   1      36.336  29.510  29.639  1.00  0.00     0.014 A 
ATOM     32  C   UNL A   1      38.147  29.736  27.520  1.00  0.00     0.010 A 
ATOM     33  C   UNL A   1      37.673  29.209  29.844  1.00  0.00     0.010 A 
ATOM     34  C   UNL A   1      38.589  29.314  28.785  1.00  0.00    -0.014 A 
BRANCH  34  35
ATOM     35  C   UNL A   1      40.005  28.952  29.026  1.00  0.00     0.031 A 
ATOM     36  C   UNL A   1      40.940  29.985  29.590  1.00  0.00     0.074 A 
ATOM     37  C   UNL A   1      40.457  27.735  28.667  1.00  0.00     0.049 A 
ATOM     38  N   UNL A   1      42.229  29.910  29.788  1.00  0.00    -0.248 NA
ATOM     39  C   UNL A   1      40.352  31.290  29.937  1.00  0.00     0.031 C 
ATOM     40  C   UNL A   1      39.653  26.677  28.049  1.00  0.00     0.029 A 
ATOM     41  N   UNL A   1      41.710  27.185  28.760  1.00  0.00    -0.354 N 
ATOM     42  C   UNL A   1      42.608  31.162  30.257  1.00  0.00     0.074 A 
ATOM     43  C   UNL A   1      41.427  31.995  30.255  1.00  0.00     0.031 C 
ATOM     44  C   UNL A   1      40.428  25.597  27.845  1.00  0.00     0.029 A 
ATOM     45  C   UNL A   1      41.786  25.896  28.288  1.00  0.00     0.049 A 
ATOM     46  H   UNL A   1      42.483  27.669  29.132  1.00  0.00     0.167 HD
ATOM     47  C   UNL A   1      43.825  31.571  30.682  1.00  0.00     0.037 A 
ATOM     48  C   UNL A   1      42.835  25.055  28.222  1.00  0.00     0.037 A 
ATOM     49  C   UNL A   1      44.981  30.719  30.727  1.00  0.00     0.049 A 
ATOM     50  C   UNL A   1      44.170  25.517  28.739  1.00  0.00     0.074 A 
ATOM     51  C   UNL A   1      46.246  31.007  31.206  1.00  0.00     0.029 A 
ATOM     52  N   UNL A   1      45.009  29.404  30.284  1.00  0.00    -0.354 N 
ATOM     53  N   UNL A   1      44.498  26.684  29.240  1.00  0.00    -0.248 NA
ATOM     54  C   UNL A   1      45.274  24.550  28.689  1.00  0.00     0.031 C 
ATOM     55  C   UNL A   1      47.047  29.873  31.028  1.00  0.00     0.029 A 
ATOM     56  C   UNL A   1      46.270  28.869  30.469  1.00  0.00     0.049 A 
ATOM     57  H   UNL A   1      44.243  28.924  29.894  1.00  0.00     0.167 HD
ATOM     58  C   UNL A   1      45.841  26.585  29.586  1.00  0.00     0.074 A 
ATOM     59  C   UNL A   1      46.260  25.239  29.248  1.00  0.00     0.031 C 
ATOM     60  C   UNL A   1      46.657  27.522  30.131  1.00  0.00     0.037 A 
BRANCH  47  61
ATOM     61  C   UNL A   1      43.952  32.994  31.146  1.00  0.00     0.058 A 
ATOM     62  C   UNL A   1      43.693  33.358  32.477  1.00  0.00     0.135 A 
ATOM     63  C   UNL A   1      44.338  34.007  30.253  1.00  0.00     0.135 A 
ATOM     64  F   UNL A   1      43.299  32.434  33.367  1.00  0.00    -0.206 F 
ATOM     65  C   UNL A   1      43.776  34.680  32.900  1.00  0.00     0.059 A 
ATOM     66  C   UNL A   1      44.455  35.332  30.660  1.00  0.00     0.059 A 
ATOM     67  F   UNL A   1      44.593  33.714  28.969  1.00  0.00    -0.206 F 
ATOM     68  C   UNL A   1      44.154  35.662  31.982  1.00  0.00     0.060 A 
BRANCH  68  69
ATOM     69  S   UNL A   1      44.255  37.374  32.544  1.00  0.00     0.124 S 
ATOM     70  O   UNL A   1      43.279  37.380  33.630  1.00  0.00    -0.237 OA
ATOM     71  O   UNL A   1      45.652  37.491  32.948  1.00  0.00    -0.237 OA
ATOM     72  O   UNL A   1      43.882  38.142  31.360  1.00  0.00    -0.744 OA
ENDBRANCH  68  69
ENDBRANCH  47  61
BRANCH  48  73
ATOM     73  C   UNL A   1      42.655  23.680  27.685  1.00  0.00     0.058 A 
ATOM     74  C   UNL A   1      42.743  23.432  26.307  1.00  0.00     0.135 A 
ATOM     75  C   UNL A   1      42.412  22.588  28.531  1.00  0.00     0.135 A 
ATOM     76  F   UNL A   1      42.971  24.446  25.457  1.00  0.00    -0.206 F 
ATOM     77  C   UNL A   1      42.580  22.154  25.783  1.00  0.00     0.059 A 
ATOM     78  C   UNL A   1      42.267  21.296  28.033  1.00  0.00     0.059 A 
ATOM     79  F   UNL A   1      42.338  22.769  29.859  1.00  0.00    -0.206 F 
ATOM     80  C   UNL A   1      42.343  21.090  26.656  1.00  0.00     0.060 A 
BRANCH  80  81
ATOM     81  S   UNL A   1      42.185  19.426  25.972  1.00  0.00     0.124 S 
ATOM     82  O   UNL A   1      43.010  19.521  24.773  1.00  0.00    -0.237 OA
ATOM     83  O   UNL A   1      42.717  18.597  27.050  1.00  0.00    -0.237 OA
ATOM     84  O   UNL A   1      40.749  19.294  25.743  1.00  0.00    -0.744 OA
ENDBRANCH  80  81
ENDBRANCH  48  73
BRANCH  60  85
ATOM     85  C   UNL A   1      48.072  27.115  30.421  1.00  0.00     0.058 A 
ATOM     86  C   UNL A   1      49.095  27.301  29.479  1.00  0.00     0.135 A 
ATOM     87  C   UNL A   1      48.417  26.591  31.676  1.00  0.00     0.135 A 
ATOM     88  F   UNL A   1      48.811  27.794  28.262  1.00  0.00    -0.206 F 
ATOM     89  C   UNL A   1      50.412  26.962  29.764  1.00  0.00     0.059 A 
ATOM     90  C   UNL A   1      49.732  26.268  31.992  1.00  0.00     0.059 A 
ATOM     91  F   UNL A   1      47.475  26.405  32.614  1.00  0.00    -0.206 F 
ATOM     92  C   UNL A   1      50.722  26.447  31.025  1.00  0.00     0.060 A 
BRANCH  92  93
ATOM     93  S   UNL A   1      52.441  26.048  31.401  1.00  0.00     0.124 S 
ATOM     94  O   UNL A   1      53.059  26.146  30.083  1.00  0.00    -0.237 OA
ATOM     95  O   UNL A   1      52.806  27.094  32.351  1.00  0.00    -0.237 OA
ATOM     96  O   UNL A   1      52.362  24.702  31.960  1.00  0.00    -0.744 OA
ENDBRANCH  92  93
ENDBRANCH  60  85
ENDBRANCH  34  35
ENDBRANCH  26  29
ENDBRANCH  24  25
ENDBRANCH   1  24
TORSDOF 18
ENDMDL
MODEL 2
REMARK VINA RESULT:     -11.3      2.981      9.424
REMARK SMILES CC[C@H]1CCC[C@@H]([C@@H](Cc2ccccc2)C(=O)NCCCCNC(=O)c2ccc(-c3c4nc(c(-c5c(F)cc(S(=O)(=O)[O-])cc5F)c5ccc([nH]5)c(-c5c(F)cc(S(=O)(=O)[O-])cc5F)c5nc(c(-c6c(F)cc(S(=O)(=O)[O-])cc6F)c6ccc3[nH]6)C=C5)C=C4)cc2)C1
REMARK SMILES IDX 21 1 20 2 19 3 18 4 16 5 17 6 8 8 7 9 3 10 4 11 92 12 5 13
REMARK SMILES IDX 6 14 2 15 1 16 9 17 10 18 11 19 15 20 12 21 14 22 13 23
REMARK SMILES IDX 22 24 23 25 24 26 25 28 26 29 27 30 91 31 28 32 90 33 29 34
REMARK SMILES IDX 30 35 31 36 84 37 32 38 89 39 83 40 85 41 33 42 88 43 82 44
REMARK SMILES IDX 81 45 34 47 68 48 47 49 67 50 48 51 51 52 66 53 86 54 49 55
REMARK SMILES IDX 50 56 65 58 87 59 52 60 35 61 36 62 45 63 37 64 38 65 44 66
REMARK SMILES IDX 46 67 39 68 40 69 41 70 42 71 43 72 69 73 70 74 79 75 71 76
REMARK SMILES IDX 72 77 78 78 80 79 73 80 74 81 75 82 76 83 77 84 53 85 54 86
REMARK SMILES IDX 63 87 55 88 56 89 62 90 64 91 57 92 58 93 59 94 60 95 61 96
REMARK H PARENT 18 7 23 27 85 46 51 57
REMARK Flexibility Score: inf
ROOT
ATOM      1  C   UNL A   1      36.092  23.299  24.061  1.00  0.00     0.023 C 
ENDROOT
BRANCH   1   2
ATOM      2  C   UNL A   1      34.648  23.755  24.203  1.00  0.00     0.023 C 
BRANCH   2   3
ATOM      3  C   UNL A   1      34.430  24.908  25.176  1.00  0.00     0.116 C 
BRANCH   3   4
ATOM      4  N   UNL A   1      33.538  24.593  26.266  1.00  0.00    -0.356 N 
ATOM      5  C   UNL A   1      32.262  24.992  26.480  1.00  0.00     0.223 C 
ATOM      6  O   UNL A   1      31.566  24.230  27.166  1.00  0.00    -0.275 OA
ATOM      7  H   UNL A   1      33.913  24.001  26.956  1.00  0.00     0.163 HD
BRANCH   5   8
ATOM      8  C   UNL A   1      31.621  26.254  25.892  1.00  0.00     0.086 C 
BRANCH   8   9
ATOM      9  C   UNL A   1      30.563  26.237  24.727  1.00  0.00     0.002 C 
ATOM     10  C   UNL A   1      31.276  28.005  22.859  1.00  0.00    -0.011 C 
ATOM     11  C   UNL A   1      31.563  26.836  21.905  1.00  0.00     0.003 C 
ATOM     12  C   UNL A   1      30.377  27.636  24.070  1.00  0.00     0.008 C 
ATOM     13  C   UNL A   1      31.764  25.498  22.599  1.00  0.00     0.001 C 
ATOM     14  C   UNL A   1      30.634  25.231  23.580  1.00  0.00     0.004 C 
BRANCH  10  15
ATOM     15  C   UNL A   1      32.505  28.867  23.225  1.00  0.00     0.000 C 
ATOM     16  C   UNL A   1      33.799  28.147  23.551  1.00  0.00     0.004 C 
ENDBRANCH  10  15
ENDBRANCH   8   9
BRANCH   8  17
ATOM     17  C   UNL A   1      31.351  27.326  26.996  1.00  0.00     0.049 C 
BRANCH  17  18
ATOM     18  C   UNL A   1      32.303  28.494  27.106  1.00  0.00    -0.047 A 
ATOM     19  C   UNL A   1      33.683  28.299  27.250  1.00  0.00     0.004 A 
ATOM     20  C   UNL A   1      31.812  29.807  27.020  1.00  0.00     0.004 A 
ATOM     21  C   UNL A   1      34.554  29.393  27.243  1.00  0.00     0.000 A 
ATOM     22  C   UNL A   1      32.684  30.898  27.016  1.00  0.00     0.000 A 
ATOM     23  C   UNL A   1      34.057  30.689  27.112  1.00  0.00     0.000 A 
ENDBRANCH  17  18
ENDBRANCH   8  17
ENDBRANCH   5   8
ENDBRANCH   3   4
ENDBRANCH   2   3
ENDBRANCH   1   2
BRANCH   1  24
ATOM     24  C   UNL A   1      37.009  23.747  25.185  1.00  0.00     0.116 C 
BRANCH  24  25
ATOM     25  N   UNL A   1      38.127  22.837  25.413  1.00  0.00    -0.352 N 
ATOM     26  C   UNL A   1      39.285  23.061  26.120  1.00  0.00     0.251 C 
ATOM     27  H   UNL A   1      38.042  21.945  25.005  1.00  0.00     0.163 HD
ATOM     28  O   UNL A   1      40.177  22.230  26.151  1.00  0.00    -0.269 OA
BRANCH  26  29
ATOM     29  C   UNL A   1      39.423  24.356  26.808  1.00  0.00     0.039 A 
ATOM     30  C   UNL A   1      38.917  24.491  28.100  1.00  0.00     0.014 A 
ATOM     31  C   UNL A   1      40.172  25.374  26.212  1.00  0.00     0.014 A 
ATOM     32  C   UNL A   1      39.233  25.633  28.834  1.00  0.00     0.010 A 
ATOM     33  C   UNL A   1      40.562  26.462  26.976  1.00  0.00     0.010 A 
ATOM     34  C   UNL A   1      40.092  26.604  28.292  1.00  0.00    -0.014 A 
BRANCH  34  35
ATOM     35  C   UNL A   1      40.500  27.795  29.072  1.00  0.00     0.031 A 
ATOM     36  C   UNL A   1      41.832  27.794  29.769  1.00  0.00     0.074 A 
ATOM     37  C   UNL A   1      39.648  28.828  29.214  1.00  0.00     0.049 A 
ATOM     38  N   UNL A   1      42.341  28.687  30.576  1.00  0.00    -0.248 NA
ATOM     39  C   UNL A   1      42.686  26.613  29.564  1.00  0.00     0.031 C 
ATOM     40  C   UNL A   1      38.303  28.907  28.637  1.00  0.00     0.029 A 
ATOM     41  N   UNL A   1      39.782  30.009  29.899  1.00  0.00    -0.354 N 
ATOM     42  C   UNL A   1      43.558  28.163  30.992  1.00  0.00     0.074 A 
ATOM     43  C   UNL A   1      43.684  26.850  30.400  1.00  0.00     0.031 C 
ATOM     44  C   UNL A   1      37.749  30.086  28.970  1.00  0.00     0.029 A 
ATOM     45  C   UNL A   1      38.684  30.831  29.807  1.00  0.00     0.049 A 
ATOM     46  H   UNL A   1      40.591  30.246  30.409  1.00  0.00     0.167 HD
ATOM     47  C   UNL A   1      44.502  28.738  31.773  1.00  0.00     0.037 A 
ATOM     48  C   UNL A   1      38.462  32.048  30.340  1.00  0.00     0.037 A 
ATOM     49  C   UNL A   1      44.388  30.063  32.315  1.00  0.00     0.049 A 
ATOM     50  C   UNL A   1      39.543  32.685  31.170  1.00  0.00     0.074 A 
ATOM     51  C   UNL A   1      45.313  30.773  33.059  1.00  0.00     0.029 A 
ATOM     52  N   UNL A   1      43.280  30.885  32.162  1.00  0.00    -0.354 N 
ATOM     53  N   UNL A   1      40.716  32.203  31.503  1.00  0.00    -0.248 NA
ATOM     54  C   UNL A   1      39.273  34.031  31.692  1.00  0.00     0.031 C 
ATOM     55  C   UNL A   1      44.754  32.015  33.378  1.00  0.00     0.029 A 
ATOM     56  C   UNL A   1      43.494  32.091  32.804  1.00  0.00     0.049 A 
ATOM     57  H   UNL A   1      42.463  30.644  31.669  1.00  0.00     0.167 HD
ATOM     58  C   UNL A   1      41.336  33.195  32.254  1.00  0.00     0.074 A 
ATOM     59  C   UNL A   1      40.410  34.309  32.316  1.00  0.00     0.031 C 
ATOM     60  C   UNL A   1      42.558  33.186  32.842  1.00  0.00     0.037 A 
BRANCH  47  61
ATOM     61  C   UNL A   1      45.739  27.936  32.064  1.00  0.00     0.058 A 
ATOM     62  C   UNL A   1      45.811  27.072  33.167  1.00  0.00     0.135 A 
ATOM     63  C   UNL A   1      46.866  28.032  31.231  1.00  0.00     0.135 A 
ATOM     64  F   UNL A   1      44.771  26.959  34.008  1.00  0.00    -0.206 F 
ATOM     65  C   UNL A   1      46.968  26.356  33.457  1.00  0.00     0.059 A 
ATOM     66  C   UNL A   1      48.024  27.304  31.486  1.00  0.00     0.059 A 
ATOM     67  F   UNL A   1      46.852  28.847  30.166  1.00  0.00    -0.206 F 
ATOM     68  C   UNL A   1      48.072  26.483  32.612  1.00  0.00     0.060 A 
BRANCH  68  69
ATOM     69  S   UNL A   1      49.568  25.550  33.003  1.00  0.00     0.124 S 
ATOM     70  O   UNL A   1      49.085  24.654  34.049  1.00  0.00    -0.237 OA
ATOM     71  O   UNL A   1      49.888  24.920  31.726  1.00  0.00    -0.237 OA
ATOM     72  O   UNL A   1      50.504  26.581  33.441  1.00  0.00    -0.744 OA
ENDBRANCH  68  69
ENDBRANCH  47  61
BRANCH  48  73
ATOM     73  C   UNL A   1      37.183  32.757  30.070  1.00  0.00     0.058 A 
ATOM     74  C   UNL A   1      36.079  32.594  30.920  1.00  0.00     0.135 A 
ATOM     75  C   UNL A   1      37.042  33.622  28.975  1.00  0.00     0.135 A 
ATOM     76  F   UNL A   1      36.165  31.772  31.979  1.00  0.00    -0.206 F 
ATOM     77  C   UNL A   1      34.875  33.249  30.687  1.00  0.00     0.059 A 
ATOM     78  C   UNL A   1      35.854  34.307  28.733  1.00  0.00     0.059 A 
ATOM     79  F   UNL A   1      38.074  33.828  28.142  1.00  0.00    -0.206 F 
ATOM     80  C   UNL A   1      34.772  34.106  29.589  1.00  0.00     0.060 A 
BRANCH  80  81
ATOM     81  S   UNL A   1      33.221  34.993  29.325  1.00  0.00     0.124 S 
ATOM     82  O   UNL A   1      32.621  34.939  30.653  1.00  0.00    -0.237 OA
ATOM     83  O   UNL A   1      33.687  36.305  28.887  1.00  0.00    -0.237 OA
ATOM     84  O   UNL A   1      32.554  34.200  28.296  1.00  0.00    -0.744 OA
ENDBRANCH  80  81
ENDBRANCH  48  73
BRANCH  60  85
ATOM     85  C   UNL A   1      42.974  34.426  33.578  1.00  0.00     0.058 A 
ATOM     86  C   UNL A   1      42.730  34.579  34.951  1.00  0.00     0.135 A 
ATOM     87  C   UNL A   1      43.676  35.444  32.914  1.00  0.00     0.135 A 
ATOM     88  F   UNL A   1      42.057  33.634  35.628  1.00  0.00    -0.206 F 
ATOM     89  C   UNL A   1      43.154  35.710  35.640  1.00  0.00     0.059 A 
ATOM     90  C   UNL A   1      44.130  36.573  33.588  1.00  0.00     0.059 A 
ATOM     91  F   UNL A   1      43.942  35.338  31.603  1.00  0.00    -0.206 F 
ATOM     92  C   UNL A   1      43.855  36.702  34.949  1.00  0.00     0.060 A 
BRANCH  92  93
ATOM     93  S   UNL A   1      44.435  38.147  35.861  1.00  0.00     0.124 S 
ATOM     94  O   UNL A   1      43.755  37.979  37.140  1.00  0.00    -0.237 OA
ATOM     95  O   UNL A   1      45.881  37.946  35.881  1.00  0.00    -0.237 OA
ATOM     96  O   UNL A   1      43.976  39.268  35.045  1.00  0.00    -0.744 OA
ENDBRANCH  92  93
ENDBRANCH  60  85
ENDBRANCH  34  35
ENDBRANCH  26  29
ENDBRANCH  24  25
ENDBRANCH   1  24
TORSDOF 18
ENDMDL
MODEL 3
REMARK VINA RESULT:     -10.9      4.914     10.490
REMARK SMILES CC[C@H]1CCC[C@@H]([C@@H](Cc2ccccc2)C(=O)NCCCCNC(=O)c2ccc(-c3c4nc(c(-c5c(F)cc(S(=O)(=O)[O-])cc5F)c5ccc([nH]5)c(-c5c(F)cc(S(=O)(=O)[O-])cc5F)c5nc(c(-c6c(F)cc(S(=O)(=O)[O-])cc6F)c6ccc3[nH]6)C=C5)C=C4)cc2)C1
REMARK SMILES IDX 21 1 20 2 19 3 18 4 16 5 17 6 8 8 7 9 3 10 4 11 92 12 5 13
REMARK SMILES IDX 6 14 2 15 1 16 9 17 10 18 11 19 15 20 12 21 14 22 13 23
REMARK SMILES IDX 22 24 23 25 24 26 25 28 26 29 27 30 91 31 28 32 90 33 29 34
REMARK SMILES IDX 30 35 31 36 84 37 32 38 89 39 83 40 85 41 33 42 88 43 82 44
REMARK SMILES IDX 81 45 34 47 68 48 47 49 67 50 48 51 51 52 66 53 86 54 49 55
REMARK SMILES IDX 50 56 65 58 87 59 52 60 35 61 36 62 45 63 37 64 38 65 44 66
REMARK SMILES IDX 46 67 39 68 40 69 41 70 42 71 43 72 69 73 70 74 79 75 71 76
REMARK SMILES IDX 72 77 78 78 80 79 73 80 74 81 75 82 76 83 77 84 53 85 54 86
REMARK SMILES IDX 63 87 55 88 56 89 62 90 64 91 57 92 58 93 59 94 60 95 61 96
REMARK H PARENT 18 7 23 27 85 46 51 57
REMARK Flexibility Score: inf
ROOT
ATOM      1  C   UNL A   1      37.310  23.327  25.766  1.00  0.00     0.023 C 
ENDROOT
BRANCH   1   2
ATOM      2  C   UNL A   1      35.843  23.719  25.710  1.00  0.00     0.023 C 
BRANCH   2   3
ATOM      3  C   UNL A   1      34.861  22.570  25.912  1.00  0.00     0.116 C 
BRANCH   3   4
ATOM      4  N   UNL A   1      33.897  22.802  26.961  1.00  0.00    -0.356 N 
ATOM      5  C   UNL A   1      32.635  23.286  26.883  1.00  0.00     0.223 C 
ATOM      6  O   UNL A   1      31.865  22.932  27.786  1.00  0.00    -0.275 OA
ATOM      7  H   UNL A   1      34.203  22.574  27.868  1.00  0.00     0.163 HD
BRANCH   5   8
ATOM      8  C   UNL A   1      32.096  24.164  25.749  1.00  0.00     0.086 C 
BRANCH   8   9
ATOM      9  C   UNL A   1      31.425  23.596  24.444  1.00  0.00     0.002 C 
ATOM     10  C   UNL A   1      32.585  24.689  22.304  1.00  0.00    -0.011 C 
ATOM     11  C   UNL A   1      33.181  23.316  21.962  1.00  0.00     0.003 C 
ATOM     12  C   UNL A   1      31.386  24.639  23.290  1.00  0.00     0.008 C 
ATOM     13  C   UNL A   1      33.221  22.343  23.131  1.00  0.00     0.001 C 
ATOM     14  C   UNL A   1      31.865  22.275  23.814  1.00  0.00     0.004 C 
BRANCH  10  15
ATOM     15  C   UNL A   1      33.621  25.791  22.626  1.00  0.00     0.000 C 
ATOM     16  C   UNL A   1      33.238  27.226  22.323  1.00  0.00     0.004 C 
ENDBRANCH  10  15
ENDBRANCH   8   9
BRANCH   8  17
ATOM     17  C   UNL A   1      31.436  25.469  26.300  1.00  0.00     0.049 C 
BRANCH  17  18
ATOM     18  C   UNL A   1      32.091  26.792  25.982  1.00  0.00    -0.047 A 
ATOM     19  C   UNL A   1      31.343  27.886  25.527  1.00  0.00     0.004 A 
ATOM     20  C   UNL A   1      33.472  26.954  26.182  1.00  0.00     0.004 A 
ATOM     21  C   UNL A   1      31.955  29.130  25.340  1.00  0.00     0.000 A 
ATOM     22  C   UNL A   1      34.081  28.197  25.992  1.00  0.00     0.000 A 
ATOM     23  C   UNL A   1      33.318  29.289  25.586  1.00  0.00     0.000 A 
ENDBRANCH  17  18
ENDBRANCH   8  17
ENDBRANCH   5   8
ENDBRANCH   3   4
ENDBRANCH   2   3
ENDBRANCH   1   2
BRANCH   1  24
ATOM     24  C   UNL A   1      38.222  24.376  26.377  1.00  0.00     0.116 C 
BRANCH  24  25
ATOM     25  N   UNL A   1      39.637  24.034  26.282  1.00  0.00    -0.352 N 
ATOM     26  C   UNL A   1      40.714  24.666  26.861  1.00  0.00     0.251 C 
ATOM     27  H   UNL A   1      39.851  23.247  25.731  1.00  0.00     0.163 HD
ATOM     28  O   UNL A   1      41.857  24.317  26.619  1.00  0.00    -0.269 OA
BRANCH  26  29
ATOM     29  C   UNL A   1      40.435  25.804  27.754  1.00  0.00     0.039 A 
ATOM     30  C   UNL A   1      39.437  25.675  28.720  1.00  0.00     0.014 A 
ATOM     31  C   UNL A   1      41.260  26.931  27.710  1.00  0.00     0.014 A 
ATOM     32  C   UNL A   1      39.316  26.657  29.702  1.00  0.00     0.010 A 
ATOM     33  C   UNL A   1      41.199  27.854  28.741  1.00  0.00     0.010 A 
ATOM     34  C   UNL A   1      40.224  27.728  29.743  1.00  0.00    -0.014 A 
BRANCH  34  35
ATOM     35  C   UNL A   1      40.163  28.750  30.813  1.00  0.00     0.031 A 
ATOM     36  C   UNL A   1      41.069  28.617  32.006  1.00  0.00     0.074 A 
ATOM     37  C   UNL A   1      39.249  29.737  30.748  1.00  0.00     0.049 A 
ATOM     38  N   UNL A   1      41.113  29.341  33.093  1.00  0.00    -0.248 NA
ATOM     39  C   UNL A   1      42.023  27.497  31.991  1.00  0.00     0.031 C 
ATOM     40  C   UNL A   1      38.274  29.923  29.670  1.00  0.00     0.029 A 
ATOM     41  N   UNL A   1      38.982  30.766  31.615  1.00  0.00    -0.354 N 
ATOM     42  C   UNL A   1      42.077  28.748  33.898  1.00  0.00     0.074 A 
ATOM     43  C   UNL A   1      42.550  27.572  33.204  1.00  0.00     0.031 C 
ATOM     44  C   UNL A   1      37.536  31.017  29.927  1.00  0.00     0.029 A 
ATOM     45  C   UNL A   1      37.964  31.590  31.199  1.00  0.00     0.049 A 
ATOM     46  H   UNL A   1      39.476  30.903  32.456  1.00  0.00     0.167 HD
ATOM     47  C   UNL A   1      42.550  29.165  35.095  1.00  0.00     0.037 A 
ATOM     48  C   UNL A   1      37.437  32.684  31.783  1.00  0.00     0.037 A 
ATOM     49  C   UNL A   1      42.108  30.363  35.753  1.00  0.00     0.049 A 
ATOM     50  C   UNL A   1      38.007  33.152  33.095  1.00  0.00     0.074 A 
ATOM     51  C   UNL A   1      42.569  30.919  36.932  1.00  0.00     0.029 A 
ATOM     52  N   UNL A   1      41.107  31.199  35.279  1.00  0.00    -0.354 N 
ATOM     53  N   UNL A   1      38.965  32.616  33.813  1.00  0.00    -0.248 NA
ATOM     54  C   UNL A   1      37.432  34.375  33.670  1.00  0.00     0.031 C 
ATOM     55  C   UNL A   1      41.827  32.078  37.185  1.00  0.00     0.029 A 
ATOM     56  C   UNL A   1      40.927  32.261  36.146  1.00  0.00     0.049 A 
ATOM     57  H   UNL A   1      40.598  31.055  34.449  1.00  0.00     0.167 HD
ATOM     58  C   UNL A   1      39.123  33.449  34.916  1.00  0.00     0.074 A 
ATOM     59  C   UNL A   1      38.171  34.530  34.761  1.00  0.00     0.031 C 
ATOM     60  C   UNL A   1      39.977  33.329  35.963  1.00  0.00     0.037 A 
BRANCH  47  61
ATOM     61  C   UNL A   1      43.609  28.323  35.750  1.00  0.00     0.058 A 
ATOM     62  C   UNL A   1      43.279  27.299  36.651  1.00  0.00     0.135 A 
ATOM     63  C   UNL A   1      44.968  28.542  35.474  1.00  0.00     0.135 A 
ATOM     64  F   UNL A   1      41.996  27.063  36.967  1.00  0.00    -0.206 F 
ATOM     65  C   UNL A   1      44.259  26.543  37.285  1.00  0.00     0.059 A 
ATOM     66  C   UNL A   1      45.965  27.779  36.075  1.00  0.00     0.059 A 
ATOM     67  F   UNL A   1      45.339  29.511  34.624  1.00  0.00    -0.206 F 
ATOM     68  C   UNL A   1      45.601  26.794  36.992  1.00  0.00     0.060 A 
BRANCH  68  69
ATOM     69  S   UNL A   1      46.863  25.806  37.825  1.00  0.00     0.124 S 
ATOM     70  O   UNL A   1      46.492  24.456  37.413  1.00  0.00    -0.237 OA
ATOM     71  O   UNL A   1      48.100  26.326  37.249  1.00  0.00    -0.237 OA
ATOM     72  O   UNL A   1      46.656  26.113  39.236  1.00  0.00    -0.744 OA
ENDBRANCH  68  69
ENDBRANCH  47  61
BRANCH  48  73
ATOM     73  C   UNL A   1      36.340  33.431  31.113  1.00  0.00     0.058 A 
ATOM     74  C   UNL A   1      36.581  34.159  29.938  1.00  0.00     0.135 A 
ATOM     75  C   UNL A   1      35.031  33.420  31.618  1.00  0.00     0.135 A 
ATOM     76  F   UNL A   1      37.818  34.202  29.419  1.00  0.00    -0.206 F 
ATOM     77  C   UNL A   1      35.569  34.863  29.295  1.00  0.00     0.059 A 
ATOM     78  C   UNL A   1      33.996  34.099  30.980  1.00  0.00     0.059 A 
ATOM     79  F   UNL A   1      34.744  32.724  32.729  1.00  0.00    -0.206 F 
ATOM     80  C   UNL A   1      34.277  34.826  29.824  1.00  0.00     0.060 A 
BRANCH  80  81
ATOM     81  S   UNL A   1      32.958  35.700  28.953  1.00  0.00     0.124 S 
ATOM     82  O   UNL A   1      32.127  36.157  30.060  1.00  0.00    -0.237 OA
ATOM     83  O   UNL A   1      33.695  36.736  28.237  1.00  0.00    -0.237 OA
ATOM     84  O   UNL A   1      32.372  34.663  28.108  1.00  0.00    -0.744 OA
ENDBRANCH  80  81
ENDBRANCH  48  73
BRANCH  60  85
ATOM     85  C   UNL A   1      39.938  34.407  37.006  1.00  0.00     0.058 A 
ATOM     86  C   UNL A   1      40.703  35.576  36.880  1.00  0.00     0.135 A 
ATOM     87  C   UNL A   1      39.081  34.295  38.111  1.00  0.00     0.135 A 
ATOM     88  F   UNL A   1      41.542  35.726  35.842  1.00  0.00    -0.206 F 
ATOM     89  C   UNL A   1      40.634  36.593  37.826  1.00  0.00     0.059 A 
ATOM     90  C   UNL A   1      38.977  35.309  39.057  1.00  0.00     0.059 A 
ATOM     91  F   UNL A   1      38.321  33.200  38.270  1.00  0.00    -0.206 F 
ATOM     92  C   UNL A   1      39.766  36.450  38.912  1.00  0.00     0.060 A 
BRANCH  92  93
ATOM     93  S   UNL A   1      39.654  37.792  40.113  1.00  0.00     0.124 S 
ATOM     94  O   UNL A   1      39.326  37.065  41.334  1.00  0.00    -0.237 OA
ATOM     95  O   UNL A   1      40.992  38.373  40.061  1.00  0.00    -0.237 OA
ATOM     96  O   UNL A   1      38.590  38.636  39.578  1.00  0.00    -0.744 OA
ENDBRANCH  92  93
ENDBRANCH  60  85
ENDBRANCH  34  35
ENDBRANCH  26  29
ENDBRANCH  24  25
ENDBRANCH   1  24
TORSDOF 18
ENDMDL
