MODEL 1
REMARK VINA RESULT:     -13.1      0.000      0.000
REMARK SMILES CC1(C)OC(=O)C(=CNc2ccccc2C(=O)NCCCCNC(=O)c2ccc(-c3c4nc(c(-c5c(F)cc(S(=O)(=O)[O-])cc5F)c5ccc([nH]5)c(-c5c(F)cc(S(=O)(=O)[O-])cc5F)c5nc(c(-c6c(F)cc(S(=O)(=O)[O-])cc6F)c6ccc3[nH]6)C=C5)C=C4)cc2)C(=O)O1
REMARK SMILES IDX 21 1 20 2 19 3 18 4 16 5 17 6 15 8 10 9 11 10 12 11 14 12
REMARK SMILES IDX 13 13 9 14 8 16 1 17 2 18 3 19 4 20 94 21 5 22 92 23 6 24
REMARK SMILES IDX 7 25 93 26 22 27 23 28 24 29 25 31 26 32 27 33 91 34 28 35
REMARK SMILES IDX 90 36 29 37 30 38 31 39 84 40 32 41 89 42 83 43 85 44 33 45
REMARK SMILES IDX 88 46 82 47 81 48 34 50 68 51 47 52 67 53 48 54 51 55 66 56
REMARK SMILES IDX 86 57 49 58 50 59 65 61 87 62 52 63 35 64 36 65 45 66 37 67
REMARK SMILES IDX 38 68 44 69 46 70 39 71 40 72 41 73 42 74 43 75 69 76 70 77
REMARK SMILES IDX 79 78 71 79 72 80 78 81 80 82 73 83 74 84 75 85 76 86 77 87
REMARK SMILES IDX 53 88 54 89 63 90 55 91 56 92 62 93 64 94 57 95 58 96 59 97
REMARK SMILES IDX 60 98 61 99
REMARK H PARENT 18 7 9 15 23 30 85 49 51 60
REMARK Flexibility Score: inf
ROOT
ATOM      1  C   UNL A   1      37.024  22.689  25.259  1.00  0.00     0.023 C 
ENDROOT
BRANCH   1   2
ATOM      2  C   UNL A   1      36.181  23.753  25.981  1.00  0.00     0.023 C 
BRANCH   2   3
ATOM      3  C   UNL A   1      34.789  24.145  25.497  1.00  0.00     0.116 C 
BRANCH   3   4
ATOM      4  N   UNL A   1      33.721  23.991  26.456  1.00  0.00    -0.352 N 
ATOM      5  C   UNL A   1      32.842  22.933  26.551  1.00  0.00     0.253 C 
ATOM      6  O   UNL A   1      31.925  22.961  27.365  1.00  0.00    -0.269 OA
ATOM      7  H   UNL A   1      33.609  24.717  27.112  1.00  0.00     0.163 HD
BRANCH   5   8
ATOM      8  C   UNL A   1      32.927  21.818  25.579  1.00  0.00     0.063 A 
ATOM      9  C   UNL A   1      32.266  21.788  24.334  1.00  0.00     0.051 A 
ATOM     10  C   UNL A   1      32.320  20.589  23.601  1.00  0.00     0.027 A 
ATOM     11  C   UNL A   1      33.017  19.471  24.073  1.00  0.00     0.002 A 
ATOM     12  C   UNL A   1      33.651  20.703  26.038  1.00  0.00     0.016 A 
ATOM     13  C   UNL A   1      33.692  19.531  25.288  1.00  0.00     0.001 A 
BRANCH   9  14
ATOM     14  N   UNL A   1      31.519  22.848  23.771  1.00  0.00    -0.360 N 
ATOM     15  H   UNL A   1      30.545  22.824  23.909  1.00  0.00     0.166 HD
BRANCH  14  16
ATOM     16  C   UNL A   1      32.016  23.909  23.055  1.00  0.00     0.106 C 
ATOM     17  C   UNL A   1      32.695  29.588  25.176  1.00  0.00     0.106 C 
ATOM     18  C   UNL A   1      31.712  28.751  24.309  1.00  0.00     0.252 C 
ATOM     19  C   UNL A   1      30.578  29.750  23.960  1.00  0.00     0.106 C 
ATOM     20  O   UNL A   1      32.646  28.164  22.835  1.00  0.00    -0.419 OA
ATOM     21  O   UNL A   1      30.852  27.386  25.228  1.00  0.00    -0.419 OA
ATOM     22  C   UNL A   1      32.760  26.510  22.319  1.00  0.00     0.350 C 
ATOM     23  C   UNL A   1      30.814  25.712  24.779  1.00  0.00     0.350 C 
ATOM     24  O   UNL A   1      33.590  26.197  21.471  1.00  0.00    -0.246 OA
ATOM     25  C   UNL A   1      31.763  25.210  23.256  1.00  0.00     0.161 C 
ATOM     26  O   UNL A   1      30.157  24.926  25.458  1.00  0.00    -0.246 OA
ENDBRANCH  14  16
ENDBRANCH   9  14
ENDBRANCH   5   8
ENDBRANCH   3   4
ENDBRANCH   2   3
ENDBRANCH   1   2
BRANCH   1  27
ATOM     27  C   UNL A   1      38.484  22.089  25.782  1.00  0.00     0.116 C 
BRANCH  27  28
ATOM     28  N   UNL A   1      40.278  23.001  26.114  1.00  0.00    -0.352 N 
ATOM     29  C   UNL A   1      41.207  23.858  26.850  1.00  0.00     0.251 C 
ATOM     30  H   UNL A   1      40.823  22.689  25.356  1.00  0.00     0.163 HD
ATOM     31  O   UNL A   1      42.398  23.576  26.676  1.00  0.00    -0.269 OA
BRANCH  29  32
ATOM     32  C   UNL A   1      40.926  25.213  27.453  1.00  0.00     0.039 A 
ATOM     33  C   UNL A   1      39.830  25.283  28.332  1.00  0.00     0.014 A 
ATOM     34  C   UNL A   1      41.673  26.371  27.260  1.00  0.00     0.014 A 
ATOM     35  C   UNL A   1      39.664  26.373  29.194  1.00  0.00     0.010 A 
ATOM     36  C   UNL A   1      41.540  27.448  28.142  1.00  0.00     0.010 A 
ATOM     37  C   UNL A   1      40.582  27.425  29.163  1.00  0.00    -0.014 A 
BRANCH  37  38
ATOM     38  C   UNL A   1      40.597  28.484  30.202  1.00  0.00     0.031 A 
ATOM     39  C   UNL A   1      41.545  28.393  31.356  1.00  0.00     0.074 A 
ATOM     40  C   UNL A   1      39.685  29.476  30.162  1.00  0.00     0.049 A 
ATOM     41  N   UNL A   1      41.573  29.097  32.457  1.00  0.00    -0.248 NA
ATOM     42  C   UNL A   1      42.588  27.362  31.262  1.00  0.00     0.031 C 
ATOM     43  C   UNL A   1      38.693  29.677  29.104  1.00  0.00     0.029 A 
ATOM     44  N   UNL A   1      39.431  30.492  31.050  1.00  0.00    -0.354 N 
ATOM     45  C   UNL A   1      42.602  28.561  33.217  1.00  0.00     0.074 A 
ATOM     46  C   UNL A   1      43.190  27.489  32.436  1.00  0.00     0.031 C 
ATOM     47  C   UNL A   1      37.941  30.751  29.402  1.00  0.00     0.029 A 
ATOM     48  C   UNL A   1      38.371  31.290  30.688  1.00  0.00     0.049 A 
ATOM     49  H   UNL A   1      39.957  30.635  31.869  1.00  0.00     0.167 HD
ATOM     50  C   UNL A   1      43.009  28.913  34.460  1.00  0.00     0.037 A 
ATOM     51  C   UNL A   1      37.794  32.322  31.332  1.00  0.00     0.037 A 
ATOM     52  C   UNL A   1      42.453  29.990  35.230  1.00  0.00     0.049 A 
ATOM     53  C   UNL A   1      38.297  32.731  32.687  1.00  0.00     0.074 A 
ATOM     54  C   UNL A   1      42.808  30.423  36.496  1.00  0.00     0.029 A 
ATOM     55  N   UNL A   1      41.425  30.815  34.799  1.00  0.00    -0.354 N 
ATOM     56  N   UNL A   1      39.258  32.199  33.402  1.00  0.00    -0.248 NA
ATOM     57  C   UNL A   1      37.626  33.872  33.330  1.00  0.00     0.031 C 
ATOM     58  C   UNL A   1      41.994  31.515  36.829  1.00  0.00     0.029 A 
ATOM     59  C   UNL A   1      41.139  31.762  35.767  1.00  0.00     0.049 A 
ATOM     60  H   UNL A   1      40.967  30.738  33.931  1.00  0.00     0.167 HD
ATOM     61  C   UNL A   1      39.313  32.943  34.574  1.00  0.00     0.074 A 
ATOM     62  C   UNL A   1      38.291  33.965  34.473  1.00  0.00     0.031 C 
ATOM     63  C   UNL A   1      40.134  32.786  35.641  1.00  0.00     0.037 A 
BRANCH  50  64
ATOM     64  C   UNL A   1      44.097  28.075  35.051  1.00  0.00     0.058 A 
ATOM     65  C   UNL A   1      45.450  28.379  34.837  1.00  0.00     0.135 A 
ATOM     66  C   UNL A   1      43.783  26.902  35.755  1.00  0.00     0.135 A 
ATOM     67  F   UNL A   1      45.793  29.480  34.149  1.00  0.00    -0.206 F 
ATOM     68  C   UNL A   1      46.459  27.522  35.262  1.00  0.00     0.059 A 
ATOM     69  C   UNL A   1      44.775  26.035  36.194  1.00  0.00     0.059 A 
ATOM     70  F   UNL A   1      42.501  26.567  35.972  1.00  0.00    -0.206 F 
ATOM     71  C   UNL A   1      46.109  26.340  35.917  1.00  0.00     0.060 A 
BRANCH  71  72
ATOM     72  S   UNL A   1      47.396  25.165  36.388  1.00  0.00     0.124 S 
ATOM     73  O   UNL A   1      48.586  26.009  36.339  1.00  0.00    -0.237 OA
ATOM     74  O   UNL A   1      46.982  24.738  37.721  1.00  0.00    -0.237 OA
ATOM     75  O   UNL A   1      47.301  24.144  35.350  1.00  0.00    -0.744 OA
ENDBRANCH  71  72
ENDBRANCH  50  64
BRANCH  51  76
ATOM     76  C   UNL A   1      36.663  33.047  30.705  1.00  0.00     0.058 A 
ATOM     77  C   UNL A   1      35.351  32.844  31.153  1.00  0.00     0.135 A 
ATOM     78  C   UNL A   1      36.872  33.951  29.653  1.00  0.00     0.135 A 
ATOM     79  F   UNL A   1      35.110  31.986  32.154  1.00  0.00    -0.206 F 
ATOM     80  C   UNL A   1      34.276  33.508  30.573  1.00  0.00     0.059 A 
ATOM     81  C   UNL A   1      35.812  34.632  29.062  1.00  0.00     0.059 A 
ATOM     82  F   UNL A   1      38.113  34.181  29.202  1.00  0.00    -0.206 F 
ATOM     83  C   UNL A   1      34.517  34.397  29.524  1.00  0.00     0.060 A 
BRANCH  83  84
ATOM     84  S   UNL A   1      33.129  35.301  28.802  1.00  0.00     0.124 S 
ATOM     85  O   UNL A   1      32.531  34.283  27.946  1.00  0.00    -0.237 OA
ATOM     86  O   UNL A   1      32.353  35.683  29.979  1.00  0.00    -0.237 OA
ATOM     87  O   UNL A   1      33.784  36.409  28.112  1.00  0.00    -0.744 OA
ENDBRANCH  83  84
ENDBRANCH  51  76
BRANCH  63  88
ATOM     88  C   UNL A   1      39.982  33.761  36.767  1.00  0.00     0.058 A 
ATOM     89  C   UNL A   1      40.635  35.002  36.748  1.00  0.00     0.135 A 
ATOM     90  C   UNL A   1      39.136  33.473  37.849  1.00  0.00     0.135 A 
ATOM     91  F   UNL A   1      41.461  35.315  35.737  1.00  0.00    -0.206 F 
ATOM     92  C   UNL A   1      40.453  35.931  37.767  1.00  0.00     0.059 A 
ATOM     93  C   UNL A   1      38.936  34.389  38.876  1.00  0.00     0.059 A 
ATOM     94  F   UNL A   1      38.495  32.295  37.910  1.00  0.00    -0.206 F 
ATOM     95  C   UNL A   1      39.601  35.615  38.828  1.00  0.00     0.060 A 
BRANCH  95  96
ATOM     96  S   UNL A   1      39.313  36.838  40.126  1.00  0.00     0.124 S 
ATOM     97  O   UNL A   1      38.765  37.953  39.363  1.00  0.00    -0.237 OA
ATOM     98  O   UNL A   1      38.375  36.155  41.012  1.00  0.00    -0.237 OA
ATOM     99  O   UNL A   1      40.646  37.048  40.684  1.00  0.00    -0.744 OA
ENDBRANCH  95  96
ENDBRANCH  63  88
ENDBRANCH  37  38
ENDBRANCH  29  32
ENDBRANCH  27  28
ENDBRANCH   1  27
TORSDOF 16
ENDMDL
MODEL 2
REMARK VINA RESULT:     -13.1      5.784     11.473
REMARK SMILES CC1(C)OC(=O)C(=CNc2ccccc2C(=O)NCCCCNC(=O)c2ccc(-c3c4nc(c(-c5c(F)cc(S(=O)(=O)[O-])cc5F)c5ccc([nH]5)c(-c5c(F)cc(S(=O)(=O)[O-])cc5F)c5nc(c(-c6c(F)cc(S(=O)(=O)[O-])cc6F)c6ccc3[nH]6)C=C5)C=C4)cc2)C(=O)O1
REMARK SMILES IDX 21 1 20 2 19 3 18 4 16 5 17 6 15 8 10 9 11 10 12 11 14 12
REMARK SMILES IDX 13 13 9 14 8 16 1 17 2 18 3 19 4 20 94 21 5 22 92 23 6 24
REMARK SMILES IDX 7 25 93 26 22 27 23 28 24 29 25 31 26 32 27 33 91 34 28 35
REMARK SMILES IDX 90 36 29 37 30 38 31 39 84 40 32 41 89 42 83 43 85 44 33 45
REMARK SMILES IDX 88 46 82 47 81 48 34 50 68 51 47 52 67 53 48 54 51 55 66 56
REMARK SMILES IDX 86 57 49 58 50 59 65 61 87 62 52 63 35 64 36 65 45 66 37 67
REMARK SMILES IDX 38 68 44 69 46 70 39 71 40 72 41 73 42 74 43 75 69 76 70 77
REMARK SMILES IDX 79 78 71 79 72 80 78 81 80 82 73 83 74 84 75 85 76 86 77 87
REMARK SMILES IDX 53 88 54 89 63 90 55 91 56 92 62 93 64 94 57 95 58 96 59 97
REMARK SMILES IDX 60 98 61 99
REMARK H PARENT 18 7 9 15 23 30 85 49 51 60
REMARK Flexibility Score: inf
ROOT
ATOM      1  C   UNL A   1      31.817  29.496  26.935  1.00  0.00     0.023 C 
ENDROOT
BRANCH   1   2
ATOM      2  C   UNL A   1      31.619  28.113  27.575  1.00  0.00     0.023 C 
BRANCH   2   3
ATOM      3  C   UNL A   1      31.609  26.834  26.745  1.00  0.00     0.116 C 
BRANCH   3   4
ATOM      4  N   UNL A   1      30.398  26.573  26.002  1.00  0.00    -0.352 N 
ATOM      5  C   UNL A   1      30.250  26.594  24.631  1.00  0.00     0.253 C 
ATOM      6  O   UNL A   1      29.145  26.432  24.125  1.00  0.00    -0.269 OA
ATOM      7  H   UNL A   1      29.594  26.358  26.529  1.00  0.00     0.163 HD
BRANCH   5   8
ATOM      8  C   UNL A   1      31.406  26.942  23.772  1.00  0.00     0.063 A 
ATOM      9  C   UNL A   1      32.360  26.019  23.299  1.00  0.00     0.051 A 
ATOM     10  C   UNL A   1      33.484  26.534  22.629  1.00  0.00     0.027 A 
ATOM     11  C   UNL A   1      33.647  27.908  22.419  1.00  0.00     0.002 A 
ATOM     12  C   UNL A   1      31.557  28.320  23.534  1.00  0.00     0.016 A 
ATOM     13  C   UNL A   1      32.677  28.802  22.863  1.00  0.00     0.001 A 
BRANCH   9  14
ATOM     14  N   UNL A   1      32.306  24.616  23.471  1.00  0.00    -0.360 N 
ATOM     15  H   UNL A   1      31.962  24.091  22.713  1.00  0.00     0.166 HD
BRANCH  14  16
ATOM     16  C   UNL A   1      32.686  23.914  24.589  1.00  0.00     0.106 C 
ATOM     17  C   UNL A   1      38.358  22.027  25.805  1.00  0.00     0.106 C 
ATOM     18  C   UNL A   1      37.017  21.478  25.241  1.00  0.00     0.252 C 
ATOM     19  C   UNL A   1      37.340  20.007  24.874  1.00  0.00     0.106 C 
ATOM     20  O   UNL A   1      35.756  21.638  26.574  1.00  0.00    -0.419 OA
ATOM     21  O   UNL A   1      36.490  22.245  23.635  1.00  0.00    -0.419 OA
ATOM     22  C   UNL A   1      34.221  22.431  26.406  1.00  0.00     0.350 C 
ATOM     23  C   UNL A   1      34.960  22.992  23.306  1.00  0.00     0.350 C 
ATOM     24  O   UNL A   1      33.560  22.687  27.408  1.00  0.00    -0.246 OA
ATOM     25  C   UNL A   1      33.733  23.084  24.704  1.00  0.00     0.161 C 
ATOM     26  O   UNL A   1      34.732  23.413  22.174  1.00  0.00    -0.246 OA
ENDBRANCH  14  16
ENDBRANCH   9  14
ENDBRANCH   5   8
ENDBRANCH   3   4
ENDBRANCH   2   3
ENDBRANCH   1   2
BRANCH   1  27
ATOM     27  C   UNL A   1      33.188  30.432  27.052  1.00  0.00     0.116 C 
BRANCH  27  28
ATOM     28  N   UNL A   1      34.384  30.880  28.641  1.00  0.00    -0.352 N 
ATOM     29  C   UNL A   1      35.669  31.054  29.319  1.00  0.00     0.251 C 
ATOM     30  H   UNL A   1      33.735  31.107  29.345  1.00  0.00     0.163 HD
ATOM     31  O   UNL A   1      35.635  31.847  30.267  1.00  0.00    -0.269 OA
BRANCH  29  32
ATOM     32  C   UNL A   1      36.871  30.144  29.256  1.00  0.00     0.039 A 
ATOM     33  C   UNL A   1      37.435  29.951  27.982  1.00  0.00     0.014 A 
ATOM     34  C   UNL A   1      37.494  29.528  30.337  1.00  0.00     0.014 A 
ATOM     35  C   UNL A   1      38.718  29.410  27.834  1.00  0.00     0.010 A 
ATOM     36  C   UNL A   1      38.792  29.022  30.205  1.00  0.00     0.010 A 
ATOM     37  C   UNL A   1      39.441  29.027  28.964  1.00  0.00    -0.014 A 
BRANCH  37  38
ATOM     38  C   UNL A   1      40.880  28.673  28.893  1.00  0.00     0.031 A 
ATOM     39  C   UNL A   1      41.925  29.723  29.103  1.00  0.00     0.074 A 
ATOM     40  C   UNL A   1      41.247  27.426  28.535  1.00  0.00     0.049 A 
ATOM     41  N   UNL A   1      43.213  29.661  28.883  1.00  0.00    -0.248 NA
ATOM     42  C   UNL A   1      41.454  31.018  29.614  1.00  0.00     0.031 C 
ATOM     43  C   UNL A   1      40.333  26.309  28.286  1.00  0.00     0.029 A 
ATOM     44  N   UNL A   1      42.490  26.895  28.297  1.00  0.00    -0.354 N 
ATOM     45  C   UNL A   1      43.703  30.925  29.174  1.00  0.00     0.074 A 
ATOM     46  C   UNL A   1      42.575  31.724  29.614  1.00  0.00     0.031 C 
ATOM     47  C   UNL A   1      41.047  25.225  27.935  1.00  0.00     0.029 A 
ATOM     48  C   UNL A   1      42.462  25.580  27.896  1.00  0.00     0.049 A 
ATOM     49  H   UNL A   1      43.325  27.407  28.404  1.00  0.00     0.167 HD
ATOM     50  C   UNL A   1      44.972  31.386  29.069  1.00  0.00     0.037 A 
ATOM     51  C   UNL A   1      43.460  24.761  27.513  1.00  0.00     0.037 A 
ATOM     52  C   UNL A   1      46.100  30.596  28.662  1.00  0.00     0.049 A 
ATOM     53  C   UNL A   1      44.868  25.278  27.454  1.00  0.00     0.074 A 
ATOM     54  C   UNL A   1      47.424  30.978  28.532  1.00  0.00     0.029 A 
ATOM     55  N   UNL A   1      46.038  29.251  28.327  1.00  0.00    -0.354 N 
ATOM     56  N   UNL A   1      45.313  26.483  27.713  1.00  0.00    -0.248 NA
ATOM     57  C   UNL A   1      45.910  24.327  27.036  1.00  0.00     0.031 C 
ATOM     58  C   UNL A   1      48.164  29.861  28.122  1.00  0.00     0.029 A 
ATOM     59  C   UNL A   1      47.299  28.785  28.002  1.00  0.00     0.049 A 
ATOM     60  H   UNL A   1      45.216  28.709  28.323  1.00  0.00     0.167 HD
ATOM     61  C   UNL A   1      46.684  26.435  27.497  1.00  0.00     0.074 A 
ATOM     62  C   UNL A   1      47.000  25.082  27.089  1.00  0.00     0.031 C 
ATOM     63  C   UNL A   1      47.599  27.428  27.620  1.00  0.00     0.037 A 
BRANCH  50  64
ATOM     64  C   UNL A   1      45.166  32.837  29.375  1.00  0.00     0.058 A 
ATOM     65  C   UNL A   1      45.430  33.278  30.680  1.00  0.00     0.135 A 
ATOM     66  C   UNL A   1      44.988  33.801  28.370  1.00  0.00     0.135 A 
ATOM     67  F   UNL A   1      45.584  32.389  31.674  1.00  0.00    -0.206 F 
ATOM     68  C   UNL A   1      45.464  34.633  30.991  1.00  0.00     0.059 A 
ATOM     69  C   UNL A   1      45.026  35.160  28.658  1.00  0.00     0.059 A 
ATOM     70  F   UNL A   1      44.722  33.422  27.110  1.00  0.00    -0.206 F 
ATOM     71  C   UNL A   1      45.236  35.565  29.977  1.00  0.00     0.060 A 
BRANCH  71  72
ATOM     72  S   UNL A   1      45.178  37.324  30.377  1.00  0.00     0.124 S 
ATOM     73  O   UNL A   1      45.706  37.914  29.151  1.00  0.00    -0.237 OA
ATOM     74  O   UNL A   1      43.760  37.559  30.629  1.00  0.00    -0.237 OA
ATOM     75  O   UNL A   1      46.044  37.420  31.549  1.00  0.00    -0.744 OA
ENDBRANCH  71  72
ENDBRANCH  50  64
BRANCH  51  76
ATOM     76  C   UNL A   1      43.165  23.355  27.147  1.00  0.00     0.058 A 
ATOM     77  C   UNL A   1      43.231  22.937  25.812  1.00  0.00     0.135 A 
ATOM     78  C   UNL A   1      42.813  22.408  28.120  1.00  0.00     0.135 A 
ATOM     79  F   UNL A   1      43.561  23.813  24.851  1.00  0.00    -0.206 F 
ATOM     80  C   UNL A   1      42.950  21.625  25.446  1.00  0.00     0.059 A 
ATOM     81  C   UNL A   1      42.535  21.088  27.779  1.00  0.00     0.059 A 
ATOM     82  F   UNL A   1      42.748  22.764  29.412  1.00  0.00    -0.206 F 
ATOM     83  C   UNL A   1      42.598  20.709  26.439  1.00  0.00     0.060 A 
BRANCH  83  84
ATOM     84  S   UNL A   1      42.283  18.991  25.975  1.00  0.00     0.124 S 
ATOM     85  O   UNL A   1      42.675  18.284  27.189  1.00  0.00    -0.237 OA
ATOM     86  O   UNL A   1      40.854  19.001  25.675  1.00  0.00    -0.237 OA
ATOM     87  O   UNL A   1      43.153  18.801  24.818  1.00  0.00    -0.744 OA
ENDBRANCH  83  84
ENDBRANCH  51  76
BRANCH  63  88
ATOM     88  C   UNL A   1      49.028  27.079  27.342  1.00  0.00     0.058 A 
ATOM     89  C   UNL A   1      49.900  26.708  28.375  1.00  0.00     0.135 A 
ATOM     90  C   UNL A   1      49.514  27.063  26.026  1.00  0.00     0.135 A 
ATOM     91  F   UNL A   1      49.479  26.718  29.650  1.00  0.00    -0.206 F 
ATOM     92  C   UNL A   1      51.212  26.330  28.114  1.00  0.00     0.059 A 
ATOM     93  C   UNL A   1      50.821  26.684  25.740  1.00  0.00     0.059 A 
ATOM     94  F   UNL A   1      48.714  27.415  25.007  1.00  0.00    -0.206 F 
ATOM     95  C   UNL A   1      51.665  26.322  26.792  1.00  0.00     0.060 A 
BRANCH  95  96
ATOM     96  S   UNL A   1      53.350  25.777  26.436  1.00  0.00     0.124 S 
ATOM     97  O   UNL A   1      53.968  25.855  27.754  1.00  0.00    -0.237 OA
ATOM     98  O   UNL A   1      53.151  24.430  25.909  1.00  0.00    -0.237 OA
ATOM     99  O   UNL A   1      53.815  26.758  25.459  1.00  0.00    -0.744 OA
ENDBRANCH  95  96
ENDBRANCH  63  88
ENDBRANCH  37  38
ENDBRANCH  29  32
ENDBRANCH  27  28
ENDBRANCH   1  27
TORSDOF 16
ENDMDL
MODEL 3
REMARK VINA RESULT:     -13.1      6.212     11.807
REMARK SMILES CC1(C)OC(=O)C(=CNc2ccccc2C(=O)NCCCCNC(=O)c2ccc(-c3c4nc(c(-c5c(F)cc(S(=O)(=O)[O-])cc5F)c5ccc([nH]5)c(-c5c(F)cc(S(=O)(=O)[O-])cc5F)c5nc(c(-c6c(F)cc(S(=O)(=O)[O-])cc6F)c6ccc3[nH]6)C=C5)C=C4)cc2)C(=O)O1
REMARK SMILES IDX 21 1 20 2 19 3 18 4 16 5 17 6 15 8 10 9 11 10 12 11 14 12
REMARK SMILES IDX 13 13 9 14 8 16 1 17 2 18 3 19 4 20 94 21 5 22 92 23 6 24
REMARK SMILES IDX 7 25 93 26 22 27 23 28 24 29 25 31 26 32 27 33 91 34 28 35
REMARK SMILES IDX 90 36 29 37 30 38 31 39 84 40 32 41 89 42 83 43 85 44 33 45
REMARK SMILES IDX 88 46 82 47 81 48 34 50 68 51 47 52 67 53 48 54 51 55 66 56
REMARK SMILES IDX 86 57 49 58 50 59 65 61 87 62 52 63 35 64 36 65 45 66 37 67
REMARK SMILES IDX 38 68 44 69 46 70 39 71 40 72 41 73 42 74 43 75 69 76 70 77
REMARK SMILES IDX 79 78 71 79 72 80 78 81 80 82 73 83 74 84 75 85 76 86 77 87
REMARK SMILES IDX 53 88 54 89 63 90 55 91 56 92 62 93 64 94 57 95 58 96 59 97
REMARK SMILES IDX 60 98 61 99
REMARK H PARENT 18 7 9 15 23 30 85 49 51 60
REMARK Flexibility Score: inf
ROOT
ATOM      1  C   UNL A   1      33.054  28.909  26.649  1.00  0.00     0.023 C 
ENDROOT
BRANCH   1   2
ATOM      2  C   UNL A   1      34.027  28.036  25.839  1.00  0.00     0.023 C 
BRANCH   2   3
ATOM      3  C   UNL A   1      33.606  26.695  25.247  1.00  0.00     0.116 C 
BRANCH   3   4
ATOM      4  N   UNL A   1      33.908  26.500  23.848  1.00  0.00    -0.352 N 
ATOM      5  C   UNL A   1      33.107  26.833  22.777  1.00  0.00     0.253 C 
ATOM      6  O   UNL A   1      33.448  26.541  21.635  1.00  0.00    -0.269 OA
ATOM      7  H   UNL A   1      34.776  26.085  23.638  1.00  0.00     0.163 HD
BRANCH   5   8
ATOM      8  C   UNL A   1      31.772  27.429  23.014  1.00  0.00     0.063 A 
ATOM      9  C   UNL A   1      30.595  26.691  23.255  1.00  0.00     0.051 A 
ATOM     10  C   UNL A   1      29.383  27.402  23.300  1.00  0.00     0.027 A 
ATOM     11  C   UNL A   1      29.340  28.790  23.132  1.00  0.00     0.002 A 
ATOM     12  C   UNL A   1      31.730  28.828  22.875  1.00  0.00     0.016 A 
ATOM     13  C   UNL A   1      30.515  29.506  22.930  1.00  0.00     0.001 A 
BRANCH   9  14
ATOM     14  N   UNL A   1      30.522  25.289  23.418  1.00  0.00    -0.360 N 
ATOM     15  H   UNL A   1      30.267  24.764  22.625  1.00  0.00     0.166 HD
BRANCH  14  16
ATOM     16  C   UNL A   1      30.771  24.585  24.571  1.00  0.00     0.106 C 
ATOM     17  C   UNL A   1      35.871  21.457  25.758  1.00  0.00     0.106 C 
ATOM     18  C   UNL A   1      34.414  21.216  25.272  1.00  0.00     0.252 C 
ATOM     19  C   UNL A   1      34.358  19.691  25.000  1.00  0.00     0.106 C 
ATOM     20  O   UNL A   1      33.290  21.759  26.625  1.00  0.00    -0.419 OA
ATOM     21  O   UNL A   1      34.017  21.988  23.631  1.00  0.00    -0.419 OA
ATOM     22  C   UNL A   1      31.984  22.889  26.445  1.00  0.00     0.350 C 
ATOM     23  C   UNL A   1      32.699  23.062  23.293  1.00  0.00     0.350 C 
ATOM     24  O   UNL A   1      31.448  23.359  27.445  1.00  0.00    -0.246 OA
ATOM     25  C   UNL A   1      31.592  23.535  24.716  1.00  0.00     0.161 C 
ATOM     26  O   UNL A   1      32.527  23.455  22.141  1.00  0.00    -0.246 OA
ENDBRANCH  14  16
ENDBRANCH   9  14
ENDBRANCH   5   8
ENDBRANCH   3   4
ENDBRANCH   2   3
ENDBRANCH   1   2
BRANCH   1  27
ATOM     27  C   UNL A   1      33.410  30.386  27.324  1.00  0.00     0.116 C 
BRANCH  27  28
ATOM     28  N   UNL A   1      34.764  30.929  28.749  1.00  0.00    -0.352 N 
ATOM     29  C   UNL A   1      36.112  31.124  29.284  1.00  0.00     0.251 C 
ATOM     30  H   UNL A   1      34.190  31.225  29.492  1.00  0.00     0.163 HD
ATOM     31  O   UNL A   1      36.184  31.989  30.164  1.00  0.00    -0.269 OA
BRANCH  29  32
ATOM     32  C   UNL A   1      37.287  30.184  29.177  1.00  0.00     0.039 A 
ATOM     33  C   UNL A   1      37.730  29.891  27.874  1.00  0.00     0.014 A 
ATOM     34  C   UNL A   1      37.995  29.628  30.239  1.00  0.00     0.014 A 
ATOM     35  C   UNL A   1      38.984  29.311  27.650  1.00  0.00     0.010 A 
ATOM     36  C   UNL A   1      39.267  29.084  30.027  1.00  0.00     0.010 A 
ATOM     37  C   UNL A   1      39.800  28.989  28.735  1.00  0.00    -0.014 A 
BRANCH  37  38
ATOM     38  C   UNL A   1      41.220  28.597  28.560  1.00  0.00     0.031 A 
ATOM     39  C   UNL A   1      42.299  29.632  28.614  1.00  0.00     0.074 A 
ATOM     40  C   UNL A   1      41.531  27.322  28.250  1.00  0.00     0.049 A 
ATOM     41  N   UNL A   1      43.561  29.526  28.286  1.00  0.00    -0.248 NA
ATOM     42  C   UNL A   1      41.899  30.966  29.083  1.00  0.00     0.031 C 
ATOM     43  C   UNL A   1      40.578  26.215  28.150  1.00  0.00     0.029 A 
ATOM     44  N   UNL A   1      42.738  26.748  27.937  1.00  0.00    -0.354 N 
ATOM     45  C   UNL A   1      44.098  30.793  28.455  1.00  0.00     0.074 A 
ATOM     46  C   UNL A   1      43.029  31.644  28.942  1.00  0.00     0.031 C 
ATOM     47  C   UNL A   1      41.237  25.095  27.805  1.00  0.00     0.029 A 
ATOM     48  C   UNL A   1      42.650  25.412  27.621  1.00  0.00     0.049 A 
ATOM     49  H   UNL A   1      43.588  27.245  27.939  1.00  0.00     0.167 HD
ATOM     50  C   UNL A   1      45.361  31.217  28.211  1.00  0.00     0.037 A 
ATOM     51  C   UNL A   1      43.594  24.548  27.204  1.00  0.00     0.037 A 
ATOM     52  C   UNL A   1      46.435  30.377  27.757  1.00  0.00     0.049 A 
ATOM     53  C   UNL A   1      45.001  25.028  26.991  1.00  0.00     0.074 A 
ATOM     54  C   UNL A   1      47.748  30.719  27.488  1.00  0.00     0.029 A 
ATOM     55  N   UNL A   1      46.318  29.016  27.512  1.00  0.00    -0.354 N 
ATOM     56  N   UNL A   1      45.489  26.235  27.135  1.00  0.00    -0.248 NA
ATOM     57  C   UNL A   1      45.984  24.028  26.543  1.00  0.00     0.031 C 
ATOM     58  C   UNL A   1      48.428  29.561  27.085  1.00  0.00     0.029 A 
ATOM     59  C   UNL A   1      47.536  28.501  27.107  1.00  0.00     0.049 A 
ATOM     60  H   UNL A   1      45.488  28.495  27.613  1.00  0.00     0.167 HD
ATOM     61  C   UNL A   1      46.835  26.141  26.804  1.00  0.00     0.074 A 
ATOM     62  C   UNL A   1      47.088  24.758  26.454  1.00  0.00     0.031 C 
ATOM     63  C   UNL A   1      47.775  27.118  26.785  1.00  0.00     0.037 A 
BRANCH  50  64
ATOM     64  C   UNL A   1      45.609  32.678  28.409  1.00  0.00     0.058 A 
ATOM     65  C   UNL A   1      45.413  33.598  27.368  1.00  0.00     0.135 A 
ATOM     66  C   UNL A   1      46.141  33.147  29.620  1.00  0.00     0.135 A 
ATOM     67  F   UNL A   1      44.927  33.187  26.186  1.00  0.00    -0.206 F 
ATOM     68  C   UNL A   1      45.782  34.932  27.505  1.00  0.00     0.059 A 
ATOM     69  C   UNL A   1      46.510  34.476  29.780  1.00  0.00     0.059 A 
ATOM     70  F   UNL A   1      46.356  32.297  30.637  1.00  0.00    -0.206 F 
ATOM     71  C   UNL A   1      46.353  35.355  28.707  1.00  0.00     0.060 A 
BRANCH  71  72
ATOM     72  S   UNL A   1      46.929  37.058  28.872  1.00  0.00     0.124 S 
ATOM     73  O   UNL A   1      45.805  37.675  29.568  1.00  0.00    -0.237 OA
ATOM     74  O   UNL A   1      48.154  36.917  29.654  1.00  0.00    -0.237 OA
ATOM     75  O   UNL A   1      47.120  37.472  27.485  1.00  0.00    -0.744 OA
ENDBRANCH  71  72
ENDBRANCH  50  64
BRANCH  51  76
ATOM     76  C   UNL A   1      43.242  23.130  26.953  1.00  0.00     0.058 A 
ATOM     77  C   UNL A   1      43.071  22.239  28.020  1.00  0.00     0.135 A 
ATOM     78  C   UNL A   1      43.070  22.643  25.649  1.00  0.00     0.135 A 
ATOM     79  F   UNL A   1      43.230  22.666  29.282  1.00  0.00    -0.206 F 
ATOM     80  C   UNL A   1      42.749  20.903  27.806  1.00  0.00     0.059 A 
ATOM     81  C   UNL A   1      42.741  21.312  25.411  1.00  0.00     0.059 A 
ATOM     82  F   UNL A   1      43.214  23.465  24.599  1.00  0.00    -0.206 F 
ATOM     83  C   UNL A   1      42.590  20.449  26.496  1.00  0.00     0.060 A 
BRANCH  83  84
ATOM     84  S   UNL A   1      42.121  18.727  26.215  1.00  0.00     0.124 S 
ATOM     85  O   UNL A   1      42.300  18.154  27.544  1.00  0.00    -0.237 OA
ATOM     86  O   UNL A   1      40.741  18.846  25.751  1.00  0.00    -0.237 OA
ATOM     87  O   UNL A   1      43.076  18.290  25.200  1.00  0.00    -0.744 OA
ENDBRANCH  83  84
ENDBRANCH  51  76
BRANCH  63  88
ATOM     88  C   UNL A   1      49.167  26.718  26.405  1.00  0.00     0.058 A 
ATOM     89  C   UNL A   1      50.067  26.221  27.358  1.00  0.00     0.135 A 
ATOM     90  C   UNL A   1      49.587  26.782  25.068  1.00  0.00     0.135 A 
ATOM     91  F   UNL A   1      49.710  26.150  28.651  1.00  0.00    -0.206 F 
ATOM     92  C   UNL A   1      51.342  25.797  26.999  1.00  0.00     0.059 A 
ATOM     93  C   UNL A   1      50.855  26.360  24.685  1.00  0.00     0.059 A 
ATOM     94  F   UNL A   1      48.759  27.255  24.122  1.00  0.00    -0.206 F 
ATOM     95  C   UNL A   1      51.728  25.872  25.659  1.00  0.00     0.060 A 
BRANCH  95  96
ATOM     96  S   UNL A   1      53.361  25.270  25.173  1.00  0.00     0.124 S 
ATOM     97  O   UNL A   1      53.217  23.834  25.376  1.00  0.00    -0.237 OA
ATOM     98  O   UNL A   1      53.466  25.705  23.783  1.00  0.00    -0.237 OA
ATOM     99  O   UNL A   1      54.255  25.955  26.102  1.00  0.00    -0.744 OA
ENDBRANCH  95  96
ENDBRANCH  63  88
ENDBRANCH  37  38
ENDBRANCH  29  32
ENDBRANCH  27  28
ENDBRANCH   1  27
TORSDOF 16
ENDMDL
