MODEL 1
REMARK VINA RESULT:     -11.0      0.000      0.000
REMARK SMILES C[C@H](CC(=O)NCCCCNC(=O)c1ccc(-c2c3nc(c(-c4c(F)cc(S(=O)(=O)[O-])cc4F)c4ccc([nH]4)c(-c4c(F)cc(S(=O)(=O)[O-])cc4F)c4nc(c(-c5c(F)cc(S(=O)(=O)[O-])cc5F)c5ccc2[nH]5)C=C4)C=C3)cc1)NC(=O)Cn1nc2ccccn2c1=O
REMARK SMILES IDX 8 1 7 2 6 3 4 4 5 5 3 7 2 8 1 9 80 10 81 11 82 13 83 14
REMARK SMILES IDX 84 15 85 16 92 17 86 18 91 19 93 20 87 21 90 22 88 23 89 24
REMARK SMILES IDX 9 25 10 26 11 27 12 28 13 30 14 31 15 32 79 33 16 34 78 35
REMARK SMILES IDX 17 36 18 37 19 38 72 39 20 40 77 41 71 42 73 43 21 44 76 45
REMARK SMILES IDX 70 46 69 47 22 49 56 50 35 51 55 52 36 53 39 54 54 55 74 56
REMARK SMILES IDX 37 57 38 58 53 60 75 61 40 62 23 63 24 64 33 65 25 66 26 67
REMARK SMILES IDX 32 68 34 69 27 70 28 71 29 72 30 73 31 74 57 75 58 76 67 77
REMARK SMILES IDX 59 78 60 79 66 80 68 81 61 82 62 83 63 84 64 85 65 86 41 87
REMARK SMILES IDX 42 88 51 89 43 90 44 91 50 92 52 93 45 94 46 95 47 96 48 97
REMARK SMILES IDX 49 98
REMARK H PARENT 6 6 80 12 11 29 73 48 39 59
REMARK Flexibility Score: inf
ROOT
ATOM      1  C   UNL A   1      34.055  28.610  24.124  1.00  0.00     0.023 C 
ENDROOT
BRANCH   1   2
ATOM      2  C   UNL A   1      33.072  28.599  22.954  1.00  0.00     0.116 C 
BRANCH   2   3
ATOM      3  N   UNL A   1      33.419  27.553  22.013  1.00  0.00    -0.356 N 
ATOM      4  C   UNL A   1      32.845  26.331  21.839  1.00  0.00     0.222 C 
ATOM      5  O   UNL A   1      33.381  25.534  21.069  1.00  0.00    -0.275 OA
ATOM      6  H   UNL A   1      34.175  27.754  21.416  1.00  0.00     0.163 HD
BRANCH   4   7
ATOM      7  C   UNL A   1      31.557  25.976  22.558  1.00  0.00     0.124 C 
BRANCH   7   8
ATOM      8  C   UNL A   1      31.617  24.767  23.510  1.00  0.00     0.088 C 
ATOM      9  C   UNL A   1      30.515  24.797  24.565  1.00  0.00     0.031 C 
BRANCH   8  10
ATOM     10  N   UNL A   1      31.595  23.488  22.805  1.00  0.00    -0.352 N 
ATOM     11  C   UNL A   1      31.973  22.240  23.201  1.00  0.00     0.242 C 
ATOM     12  H   UNL A   1      31.245  23.536  21.886  1.00  0.00     0.163 HD
ATOM     13  O   UNL A   1      32.164  21.398  22.320  1.00  0.00    -0.273 OA
BRANCH  11  14
ATOM     14  C   UNL A   1      32.097  21.890  24.674  1.00  0.00     0.249 C 
BRANCH  14  15
ATOM     15  N   UNL A   1      33.422  21.932  25.240  1.00  0.00    -0.203 N 
ATOM     16  N   UNL A   1      34.024  23.123  25.625  1.00  0.00    -0.149 NA
ATOM     17  C   UNL A   1      34.397  20.941  25.059  1.00  0.00     0.350 A 
ATOM     18  C   UNL A   1      35.287  22.832  25.666  1.00  0.00     0.161 A 
ATOM     19  N   UNL A   1      35.585  21.543  25.367  1.00  0.00    -0.250 N 
ATOM     20  O   UNL A   1      34.238  19.811  24.610  1.00  0.00    -0.246 OA
ATOM     21  C   UNL A   1      36.429  23.751  25.966  1.00  0.00     0.050 A 
ATOM     22  C   UNL A   1      36.849  21.041  25.253  1.00  0.00     0.098 A 
ATOM     23  C   UNL A   1      37.607  23.329  25.452  1.00  0.00     0.005 A 
ATOM     24  C   UNL A   1      37.876  21.899  25.302  1.00  0.00     0.019 A 
ENDBRANCH  14  15
ENDBRANCH  11  14
ENDBRANCH   8  10
ENDBRANCH   7   8
ENDBRANCH   4   7
ENDBRANCH   2   3
ENDBRANCH   1   2
BRANCH   1  25
ATOM     25  C   UNL A   1      33.775  27.585  25.210  1.00  0.00     0.023 C 
BRANCH  25  26
ATOM     26  C   UNL A   1      34.237  27.998  26.592  1.00  0.00     0.116 C 
BRANCH  26  27
ATOM     27  N   UNL A   1      33.715  29.290  27.016  1.00  0.00    -0.352 N 
ATOM     28  C   UNL A   1      34.350  30.252  27.767  1.00  0.00     0.251 C 
ATOM     29  H   UNL A   1      32.797  29.500  26.730  1.00  0.00     0.163 HD
ATOM     30  O   UNL A   1      33.748  31.247  28.153  1.00  0.00    -0.269 OA
BRANCH  28  31
ATOM     31  C   UNL A   1      35.765  30.037  28.130  1.00  0.00     0.039 A 
ATOM     32  C   UNL A   1      36.076  29.544  29.397  1.00  0.00     0.014 A 
ATOM     33  C   UNL A   1      36.767  30.243  27.179  1.00  0.00     0.014 A 
ATOM     34  C   UNL A   1      37.397  29.202  29.690  1.00  0.00     0.010 A 
ATOM     35  C   UNL A   1      38.052  29.788  27.431  1.00  0.00     0.010 A 
ATOM     36  C   UNL A   1      38.388  29.290  28.697  1.00  0.00    -0.014 A 
BRANCH  36  37
ATOM     37  C   UNL A   1      39.801  28.933  28.978  1.00  0.00     0.031 A 
ATOM     38  C   UNL A   1      40.710  29.960  29.600  1.00  0.00     0.074 A 
ATOM     39  C   UNL A   1      40.276  27.722  28.626  1.00  0.00     0.049 A 
ATOM     40  N   UNL A   1      41.989  29.884  29.863  1.00  0.00    -0.248 NA
ATOM     41  C   UNL A   1      40.111  31.265  29.934  1.00  0.00     0.031 C 
ATOM     42  C   UNL A   1      39.507  26.666  27.962  1.00  0.00     0.029 A 
ATOM     43  N   UNL A   1      41.525  27.175  28.775  1.00  0.00    -0.354 N 
ATOM     44  C   UNL A   1      42.344  31.128  30.370  1.00  0.00     0.074 A 
ATOM     45  C   UNL A   1      41.170  31.967  30.305  1.00  0.00     0.031 C 
ATOM     46  C   UNL A   1      40.291  25.589  27.795  1.00  0.00     0.029 A 
ATOM     47  C   UNL A   1      41.625  25.888  28.303  1.00  0.00     0.049 A 
ATOM     48  H   UNL A   1      42.279  27.660  29.182  1.00  0.00     0.167 HD
ATOM     49  C   UNL A   1      43.532  31.526  30.883  1.00  0.00     0.037 A 
ATOM     50  C   UNL A   1      42.677  25.046  28.286  1.00  0.00     0.037 A 
ATOM     51  C   UNL A   1      44.683  30.671  30.983  1.00  0.00     0.049 A 
ATOM     52  C   UNL A   1      43.984  25.505  28.879  1.00  0.00     0.074 A 
ATOM     53  C   UNL A   1      45.920  30.953  31.534  1.00  0.00     0.029 A 
ATOM     54  N   UNL A   1      44.736  29.362  30.525  1.00  0.00    -0.354 N 
ATOM     55  N   UNL A   1      44.288  26.666  29.410  1.00  0.00    -0.248 NA
ATOM     56  C   UNL A   1      45.087  24.536  28.881  1.00  0.00     0.031 C 
ATOM     57  C   UNL A   1      46.735  29.828  31.371  1.00  0.00     0.029 A 
ATOM     58  C   UNL A   1      45.989  28.826  30.769  1.00  0.00     0.049 A 
ATOM     59  H   UNL A   1      43.993  28.885  30.090  1.00  0.00     0.167 HD
ATOM     60  C   UNL A   1      45.605  26.554  29.842  1.00  0.00     0.074 A 
ATOM     61  C   UNL A   1      46.034  25.208  29.520  1.00  0.00     0.031 C 
ATOM     62  C   UNL A   1      46.390  27.479  30.449  1.00  0.00     0.037 A 
BRANCH  49  63
ATOM     63  C   UNL A   1      43.634  32.942  31.384  1.00  0.00     0.058 A 
ATOM     64  C   UNL A   1      44.037  33.996  30.546  1.00  0.00     0.135 A 
ATOM     65  C   UNL A   1      43.312  33.254  32.715  1.00  0.00     0.135 A 
ATOM     66  F   UNL A   1      44.379  33.754  29.271  1.00  0.00    -0.206 F 
ATOM     67  C   UNL A   1      44.149  35.300  31.017  1.00  0.00     0.059 A 
ATOM     68  C   UNL A   1      43.385  34.558  33.198  1.00  0.00     0.059 A 
ATOM     69  F   UNL A   1      42.926  32.287  33.562  1.00  0.00    -0.206 F 
ATOM     70  C   UNL A   1      43.819  35.571  32.345  1.00  0.00     0.060 A 
BRANCH  70  71
ATOM     71  S   UNL A   1      43.960  37.271  32.936  1.00  0.00     0.124 S 
ATOM     72  O   UNL A   1      45.259  37.241  33.602  1.00  0.00    -0.237 OA
ATOM     73  O   UNL A   1      43.902  38.038  31.695  1.00  0.00    -0.237 OA
ATOM     74  O   UNL A   1      42.807  37.421  33.818  1.00  0.00    -0.744 OA
ENDBRANCH  70  71
ENDBRANCH  49  63
BRANCH  50  75
ATOM     75  C   UNL A   1      42.531  23.674  27.726  1.00  0.00     0.058 A 
ATOM     76  C   UNL A   1      42.598  23.447  26.344  1.00  0.00     0.135 A 
ATOM     77  C   UNL A   1      42.323  22.564  28.559  1.00  0.00     0.135 A 
ATOM     78  F   UNL A   1      42.792  24.475  25.503  1.00  0.00    -0.206 F 
ATOM     79  C   UNL A   1      42.438  22.175  25.803  1.00  0.00     0.059 A 
ATOM     80  C   UNL A   1      42.188  21.278  28.045  1.00  0.00     0.059 A 
ATOM     81  F   UNL A   1      42.269  22.722  29.891  1.00  0.00    -0.206 F 
ATOM     82  C   UNL A   1      42.234  21.094  26.664  1.00  0.00     0.060 A 
BRANCH  82  83
ATOM     83  S   UNL A   1      42.065  19.443  25.953  1.00  0.00     0.124 S 
ATOM     84  O   UNL A   1      42.921  19.539  24.778  1.00  0.00    -0.237 OA
ATOM     85  O   UNL A   1      42.554  18.592  27.034  1.00  0.00    -0.237 OA
ATOM     86  O   UNL A   1      40.633  19.340  25.685  1.00  0.00    -0.744 OA
ENDBRANCH  82  83
ENDBRANCH  50  75
BRANCH  62  87
ATOM     87  C   UNL A   1      47.775  27.050  30.852  1.00  0.00     0.058 A 
ATOM     88  C   UNL A   1      48.012  26.300  32.014  1.00  0.00     0.135 A 
ATOM     89  C   UNL A   1      48.877  27.370  30.042  1.00  0.00     0.135 A 
ATOM     90  F   UNL A   1      46.993  25.968  32.824  1.00  0.00    -0.206 F 
ATOM     91  C   UNL A   1      49.296  25.917  32.381  1.00  0.00     0.059 A 
ATOM     92  C   UNL A   1      50.166  26.969  30.372  1.00  0.00     0.059 A 
ATOM     93  F   UNL A   1      48.705  28.072  28.910  1.00  0.00    -0.206 F 
ATOM     94  C   UNL A   1      50.369  26.259  31.554  1.00  0.00     0.060 A 
BRANCH  94  95
ATOM     95  S   UNL A   1      52.031  25.751  32.038  1.00  0.00     0.124 S 
ATOM     96  O   UNL A   1      52.380  26.779  33.013  1.00  0.00    -0.237 OA
ATOM     97  O   UNL A   1      51.805  24.414  32.578  1.00  0.00    -0.237 OA
ATOM     98  O   UNL A   1      52.779  25.795  30.785  1.00  0.00    -0.744 OA
ENDBRANCH  94  95
ENDBRANCH  62  87
ENDBRANCH  36  37
ENDBRANCH  28  31
ENDBRANCH  26  27
ENDBRANCH  25  26
ENDBRANCH   1  25
TORSDOF 18
ENDMDL
MODEL 2
REMARK VINA RESULT:     -11.0      1.173      2.047
REMARK SMILES C[C@H](CC(=O)NCCCCNC(=O)c1ccc(-c2c3nc(c(-c4c(F)cc(S(=O)(=O)[O-])cc4F)c4ccc([nH]4)c(-c4c(F)cc(S(=O)(=O)[O-])cc4F)c4nc(c(-c5c(F)cc(S(=O)(=O)[O-])cc5F)c5ccc2[nH]5)C=C4)C=C3)cc1)NC(=O)Cn1nc2ccccn2c1=O
REMARK SMILES IDX 8 1 7 2 6 3 4 4 5 5 3 7 2 8 1 9 80 10 81 11 82 13 83 14
REMARK SMILES IDX 84 15 85 16 92 17 86 18 91 19 93 20 87 21 90 22 88 23 89 24
REMARK SMILES IDX 9 25 10 26 11 27 12 28 13 30 14 31 15 32 79 33 16 34 78 35
REMARK SMILES IDX 17 36 18 37 19 38 72 39 20 40 77 41 71 42 73 43 21 44 76 45
REMARK SMILES IDX 70 46 69 47 22 49 56 50 35 51 55 52 36 53 39 54 54 55 74 56
REMARK SMILES IDX 37 57 38 58 53 60 75 61 40 62 23 63 24 64 33 65 25 66 26 67
REMARK SMILES IDX 32 68 34 69 27 70 28 71 29 72 30 73 31 74 57 75 58 76 67 77
REMARK SMILES IDX 59 78 60 79 66 80 68 81 61 82 62 83 63 84 64 85 65 86 41 87
REMARK SMILES IDX 42 88 51 89 43 90 44 91 50 92 52 93 45 94 46 95 47 96 48 97
REMARK SMILES IDX 49 98
REMARK H PARENT 6 6 80 12 11 29 73 48 39 59
REMARK Flexibility Score: inf
ROOT
ATOM      1  C   UNL A   1      32.654  29.022  24.946  1.00  0.00     0.023 C 
ENDROOT
BRANCH   1   2
ATOM      2  C   UNL A   1      31.276  29.679  24.892  1.00  0.00     0.116 C 
BRANCH   2   3
ATOM      3  N   UNL A   1      30.793  29.727  23.527  1.00  0.00    -0.356 N 
ATOM      4  C   UNL A   1      30.183  28.752  22.799  1.00  0.00     0.222 C 
ATOM      5  O   UNL A   1      29.971  28.957  21.603  1.00  0.00    -0.275 OA
ATOM      6  H   UNL A   1      30.924  30.584  23.061  1.00  0.00     0.163 HD
BRANCH   4   7
ATOM      7  C   UNL A   1      29.751  27.455  23.457  1.00  0.00     0.124 C 
BRANCH   7   8
ATOM      8  C   UNL A   1      30.797  26.326  23.495  1.00  0.00     0.088 C 
ATOM      9  C   UNL A   1      30.185  24.971  23.837  1.00  0.00     0.031 C 
BRANCH   8  10
ATOM     10  N   UNL A   1      31.567  26.225  22.258  1.00  0.00    -0.352 N 
ATOM     11  C   UNL A   1      32.909  26.106  22.046  1.00  0.00     0.242 C 
ATOM     12  H   UNL A   1      31.025  26.245  21.438  1.00  0.00     0.163 HD
ATOM     13  O   UNL A   1      33.330  26.371  20.917  1.00  0.00    -0.273 OA
BRANCH  11  14
ATOM     14  C   UNL A   1      33.835  25.611  23.143  1.00  0.00     0.249 C 
BRANCH  14  15
ATOM     15  N   UNL A   1      33.929  24.182  23.315  1.00  0.00    -0.203 N 
ATOM     16  N   UNL A   1      33.019  23.307  22.735  1.00  0.00    -0.149 NA
ATOM     17  C   UNL A   1      34.590  23.550  24.377  1.00  0.00     0.350 A 
ATOM     18  C   UNL A   1      33.152  22.220  23.430  1.00  0.00     0.161 A 
ATOM     19  N   UNL A   1      34.089  22.279  24.410  1.00  0.00    -0.250 N 
ATOM     20  O   UNL A   1      35.367  24.057  25.180  1.00  0.00    -0.246 OA
ATOM     21  C   UNL A   1      32.377  20.947  23.295  1.00  0.00     0.050 A 
ATOM     22  C   UNL A   1      34.329  21.292  25.321  1.00  0.00     0.098 A 
ATOM     23  C   UNL A   1      32.362  20.205  24.426  1.00  0.00     0.005 A 
ATOM     24  C   UNL A   1      33.496  20.243  25.349  1.00  0.00     0.019 A 
ENDBRANCH  14  15
ENDBRANCH  11  14
ENDBRANCH   8  10
ENDBRANCH   7   8
ENDBRANCH   4   7
ENDBRANCH   2   3
ENDBRANCH   1   2
BRANCH   1  25
ATOM     25  C   UNL A   1      32.849  28.025  26.077  1.00  0.00     0.023 C 
BRANCH  25  26
ATOM     26  C   UNL A   1      33.891  28.434  27.096  1.00  0.00     0.116 C 
BRANCH  26  27
ATOM     27  N   UNL A   1      33.725  29.798  27.582  1.00  0.00    -0.352 N 
ATOM     28  C   UNL A   1      34.647  30.578  28.238  1.00  0.00     0.251 C 
ATOM     29  H   UNL A   1      32.846  30.209  27.420  1.00  0.00     0.163 HD
ATOM     30  O   UNL A   1      34.333  31.671  28.698  1.00  0.00    -0.269 OA
BRANCH  28  31
ATOM     31  C   UNL A   1      36.016  30.053  28.411  1.00  0.00     0.039 A 
ATOM     32  C   UNL A   1      36.918  30.140  27.351  1.00  0.00     0.014 A 
ATOM     33  C   UNL A   1      36.421  29.558  29.653  1.00  0.00     0.014 A 
ATOM     34  C   UNL A   1      38.250  29.780  27.559  1.00  0.00     0.010 A 
ATOM     35  C   UNL A   1      37.766  29.321  29.889  1.00  0.00     0.010 A 
ATOM     36  C   UNL A   1      38.691  29.400  28.838  1.00  0.00    -0.014 A 
BRANCH  36  37
ATOM     37  C   UNL A   1      40.101  29.014  29.091  1.00  0.00     0.031 A 
ATOM     38  C   UNL A   1      41.042  30.022  29.697  1.00  0.00     0.074 A 
ATOM     39  C   UNL A   1      40.545  27.795  28.728  1.00  0.00     0.049 A 
ATOM     40  N   UNL A   1      42.324  29.919  29.935  1.00  0.00    -0.248 NA
ATOM     41  C   UNL A   1      40.476  31.338  30.045  1.00  0.00     0.031 C 
ATOM     42  C   UNL A   1      39.742  26.756  28.078  1.00  0.00     0.029 A 
ATOM     43  N   UNL A   1      41.786  27.223  28.852  1.00  0.00    -0.354 N 
ATOM     44  C   UNL A   1      42.714  31.155  30.437  1.00  0.00     0.074 A 
ATOM     45  C   UNL A   1      41.556  32.018  30.396  1.00  0.00     0.031 C 
ATOM     46  C   UNL A   1      40.501  25.663  27.894  1.00  0.00     0.029 A 
ATOM     47  C   UNL A   1      41.851  25.935  28.377  1.00  0.00     0.049 A 
ATOM     48  H   UNL A   1      42.557  27.691  29.246  1.00  0.00     0.167 HD
ATOM     49  C   UNL A   1      43.919  31.529  30.928  1.00  0.00     0.037 A 
ATOM     50  C   UNL A   1      42.885  25.072  28.338  1.00  0.00     0.037 A 
ATOM     51  C   UNL A   1      45.054  30.651  31.004  1.00  0.00     0.049 A 
ATOM     52  C   UNL A   1      44.212  25.504  28.906  1.00  0.00     0.074 A 
ATOM     53  C   UNL A   1      46.307  30.907  31.532  1.00  0.00     0.029 A 
ATOM     54  N   UNL A   1      45.073  29.342  30.543  1.00  0.00    -0.354 N 
ATOM     55  N   UNL A   1      44.549  26.658  29.434  1.00  0.00    -0.248 NA
ATOM     56  C   UNL A   1      45.295  24.513  28.886  1.00  0.00     0.031 C 
ATOM     57  C   UNL A   1      47.097  29.766  31.352  1.00  0.00     0.029 A 
ATOM     58  C   UNL A   1      46.319  28.781  30.763  1.00  0.00     0.049 A 
ATOM     59  H   UNL A   1      44.312  28.881  30.122  1.00  0.00     0.167 HD
ATOM     60  C   UNL A   1      45.872  26.518  29.840  1.00  0.00     0.074 A 
ATOM     61  C   UNL A   1      46.268  25.165  29.508  1.00  0.00     0.031 C 
ATOM     62  C   UNL A   1      46.687  27.426  30.433  1.00  0.00     0.037 A 
BRANCH  49  63
ATOM     63  C   UNL A   1      44.059  32.942  31.429  1.00  0.00     0.058 A 
ATOM     64  C   UNL A   1      44.478  33.987  30.588  1.00  0.00     0.135 A 
ATOM     65  C   UNL A   1      43.758  33.260  32.763  1.00  0.00     0.135 A 
ATOM     66  F   UNL A   1      44.801  33.738  29.309  1.00  0.00    -0.206 F 
ATOM     67  C   UNL A   1      44.625  35.287  31.058  1.00  0.00     0.059 A 
ATOM     68  C   UNL A   1      43.865  34.561  33.247  1.00  0.00     0.059 A 
ATOM     69  F   UNL A   1      43.358  32.301  33.613  1.00  0.00    -0.206 F 
ATOM     70  C   UNL A   1      44.314  35.564  32.390  1.00  0.00     0.060 A 
BRANCH  70  71
ATOM     71  S   UNL A   1      44.501  37.260  32.981  1.00  0.00     0.124 S 
ATOM     72  O   UNL A   1      44.502  38.007  31.727  1.00  0.00    -0.237 OA
ATOM     73  O   UNL A   1      43.318  37.430  33.819  1.00  0.00    -0.237 OA
ATOM     74  O   UNL A   1      45.774  37.232  33.695  1.00  0.00    -0.744 OA
ENDBRANCH  70  71
ENDBRANCH  49  63
BRANCH  50  75
ATOM     75  C   UNL A   1      42.701  23.704  27.780  1.00  0.00     0.058 A 
ATOM     76  C   UNL A   1      42.761  23.475  26.397  1.00  0.00     0.135 A 
ATOM     77  C   UNL A   1      42.462  22.600  28.613  1.00  0.00     0.135 A 
ATOM     78  F   UNL A   1      42.983  24.497  25.556  1.00  0.00    -0.206 F 
ATOM     79  C   UNL A   1      42.566  22.207  25.857  1.00  0.00     0.059 A 
ATOM     80  C   UNL A   1      42.292  21.319  28.100  1.00  0.00     0.059 A 
ATOM     81  F   UNL A   1      42.413  22.761  29.945  1.00  0.00    -0.206 F 
ATOM     82  C   UNL A   1      42.332  21.133  26.719  1.00  0.00     0.060 A 
BRANCH  82  83
ATOM     83  S   UNL A   1      42.117  19.487  26.009  1.00  0.00     0.124 S 
ATOM     84  O   UNL A   1      42.654  18.638  27.066  1.00  0.00    -0.237 OA
ATOM     85  O   UNL A   1      40.672  19.424  25.811  1.00  0.00    -0.237 OA
ATOM     86  O   UNL A   1      42.908  19.544  24.783  1.00  0.00    -0.744 OA
ENDBRANCH  82  83
ENDBRANCH  50  75
BRANCH  62  87
ATOM     87  C   UNL A   1      48.070  26.969  30.808  1.00  0.00     0.058 A 
ATOM     88  C   UNL A   1      48.369  26.481  32.090  1.00  0.00     0.135 A 
ATOM     89  C   UNL A   1      49.104  26.992  29.857  1.00  0.00     0.135 A 
ATOM     90  F   UNL A   1      47.418  26.440  33.036  1.00  0.00    -0.206 F 
ATOM     91  C   UNL A   1      49.653  26.070  32.428  1.00  0.00     0.059 A 
ATOM     92  C   UNL A   1      50.387  26.554  30.164  1.00  0.00     0.059 A 
ATOM     93  F   UNL A   1      48.869  27.432  28.611  1.00  0.00    -0.206 F 
ATOM     94  C   UNL A   1      50.658  26.113  31.458  1.00  0.00     0.060 A 
BRANCH  94  95
ATOM     95  S   UNL A   1      52.318  25.570  31.907  1.00  0.00     0.124 S 
ATOM     96  O   UNL A   1      53.075  25.918  30.709  1.00  0.00    -0.237 OA
ATOM     97  O   UNL A   1      52.601  26.375  33.091  1.00  0.00    -0.237 OA
ATOM     98  O   UNL A   1      52.155  24.140  32.153  1.00  0.00    -0.744 OA
ENDBRANCH  94  95
ENDBRANCH  62  87
ENDBRANCH  36  37
ENDBRANCH  28  31
ENDBRANCH  26  27
ENDBRANCH  25  26
ENDBRANCH   1  25
TORSDOF 18
ENDMDL
MODEL 3
REMARK VINA RESULT:     -10.8      3.021      9.474
REMARK SMILES C[C@H](CC(=O)NCCCCNC(=O)c1ccc(-c2c3nc(c(-c4c(F)cc(S(=O)(=O)[O-])cc4F)c4ccc([nH]4)c(-c4c(F)cc(S(=O)(=O)[O-])cc4F)c4nc(c(-c5c(F)cc(S(=O)(=O)[O-])cc5F)c5ccc2[nH]5)C=C4)C=C3)cc1)NC(=O)Cn1nc2ccccn2c1=O
REMARK SMILES IDX 8 1 7 2 6 3 4 4 5 5 3 7 2 8 1 9 80 10 81 11 82 13 83 14
REMARK SMILES IDX 84 15 85 16 92 17 86 18 91 19 93 20 87 21 90 22 88 23 89 24
REMARK SMILES IDX 9 25 10 26 11 27 12 28 13 30 14 31 15 32 79 33 16 34 78 35
REMARK SMILES IDX 17 36 18 37 19 38 72 39 20 40 77 41 71 42 73 43 21 44 76 45
REMARK SMILES IDX 70 46 69 47 22 49 56 50 35 51 55 52 36 53 39 54 54 55 74 56
REMARK SMILES IDX 37 57 38 58 53 60 75 61 40 62 23 63 24 64 33 65 25 66 26 67
REMARK SMILES IDX 32 68 34 69 27 70 28 71 29 72 30 73 31 74 57 75 58 76 67 77
REMARK SMILES IDX 59 78 60 79 66 80 68 81 61 82 62 83 63 84 64 85 65 86 41 87
REMARK SMILES IDX 42 88 51 89 43 90 44 91 50 92 52 93 45 94 46 95 47 96 48 97
REMARK SMILES IDX 49 98
REMARK H PARENT 6 6 80 12 11 29 73 48 39 59
REMARK Flexibility Score: inf
ROOT
ATOM      1  C   UNL A   1      34.338  23.948  25.833  1.00  0.00     0.023 C 
ENDROOT
BRANCH   1   2
ATOM      2  C   UNL A   1      33.924  25.387  25.529  1.00  0.00     0.116 C 
BRANCH   2   3
ATOM      3  N   UNL A   1      32.555  25.616  25.944  1.00  0.00    -0.356 N 
ATOM      4  C   UNL A   1      31.990  26.747  26.450  1.00  0.00     0.222 C 
ATOM      5  O   UNL A   1      30.832  26.690  26.867  1.00  0.00    -0.275 OA
ATOM      6  H   UNL A   1      31.948  24.847  25.846  1.00  0.00     0.163 HD
BRANCH   4   7
ATOM      7  C   UNL A   1      32.763  28.052  26.470  1.00  0.00     0.124 C 
BRANCH   7   8
ATOM      8  C   UNL A   1      32.282  29.147  25.501  1.00  0.00     0.088 C 
ATOM      9  C   UNL A   1      31.928  30.448  26.216  1.00  0.00     0.031 C 
BRANCH   8  10
ATOM     10  N   UNL A   1      33.237  29.414  24.428  1.00  0.00    -0.352 N 
ATOM     11  C   UNL A   1      33.595  28.670  23.343  1.00  0.00     0.242 C 
ATOM     12  H   UNL A   1      33.700  30.278  24.501  1.00  0.00     0.163 HD
ATOM     13  O   UNL A   1      34.650  28.965  22.776  1.00  0.00    -0.273 OA
BRANCH  11  14
ATOM     14  C   UNL A   1      32.696  27.562  22.821  1.00  0.00     0.249 C 
BRANCH  14  15
ATOM     15  N   UNL A   1      31.335  27.924  22.511  1.00  0.00    -0.203 N 
ATOM     16  N   UNL A   1      30.991  29.194  22.069  1.00  0.00    -0.149 NA
ATOM     17  C   UNL A   1      30.203  27.271  23.019  1.00  0.00     0.350 A 
ATOM     18  C   UNL A   1      29.719  29.270  22.307  1.00  0.00     0.161 A 
ATOM     19  N   UNL A   1      29.172  28.152  22.849  1.00  0.00    -0.250 N 
ATOM     20  O   UNL A   1      30.161  26.190  23.596  1.00  0.00    -0.246 OA
ATOM     21  C   UNL A   1      28.814  30.442  22.089  1.00  0.00     0.050 A 
ATOM     22  C   UNL A   1      27.879  28.042  23.270  1.00  0.00     0.098 A 
ATOM     23  C   UNL A   1      27.711  30.421  22.871  1.00  0.00     0.005 A 
ATOM     24  C   UNL A   1      27.122  29.147  23.283  1.00  0.00     0.019 A 
ENDBRANCH  14  15
ENDBRANCH  11  14
ENDBRANCH   8  10
ENDBRANCH   7   8
ENDBRANCH   4   7
ENDBRANCH   2   3
ENDBRANCH   1   2
BRANCH   1  25
ATOM     25  C   UNL A   1      35.390  23.370  24.901  1.00  0.00     0.023 C 
BRANCH  25  26
ATOM     26  C   UNL A   1      36.781  23.932  25.104  1.00  0.00     0.116 C 
BRANCH  26  27
ATOM     27  N   UNL A   1      37.798  22.908  25.303  1.00  0.00    -0.352 N 
ATOM     28  C   UNL A   1      38.973  23.010  26.009  1.00  0.00     0.251 C 
ATOM     29  H   UNL A   1      37.621  22.037  24.879  1.00  0.00     0.163 HD
ATOM     30  O   UNL A   1      39.797  22.102  25.995  1.00  0.00    -0.269 OA
BRANCH  28  31
ATOM     31  C   UNL A   1      39.237  24.256  26.754  1.00  0.00     0.039 A 
ATOM     32  C   UNL A   1      38.762  24.384  28.060  1.00  0.00     0.014 A 
ATOM     33  C   UNL A   1      40.032  25.254  26.185  1.00  0.00     0.014 A 
ATOM     34  C   UNL A   1      39.136  25.496  28.815  1.00  0.00     0.010 A 
ATOM     35  C   UNL A   1      40.500  26.291  26.977  1.00  0.00     0.010 A 
ATOM     36  C   UNL A   1      40.035  26.440  28.291  1.00  0.00    -0.014 A 
BRANCH  36  37
ATOM     37  C   UNL A   1      40.452  27.631  29.070  1.00  0.00     0.031 A 
ATOM     38  C   UNL A   1      41.798  27.633  29.748  1.00  0.00     0.074 A 
ATOM     39  C   UNL A   1      39.612  28.674  29.216  1.00  0.00     0.049 A 
ATOM     40  N   UNL A   1      42.329  28.534  30.533  1.00  0.00    -0.248 NA
ATOM     41  C   UNL A   1      42.644  26.442  29.551  1.00  0.00     0.031 C 
ATOM     42  C   UNL A   1      38.260  28.762  28.657  1.00  0.00     0.029 A 
ATOM     43  N   UNL A   1      39.769  29.862  29.884  1.00  0.00    -0.354 N 
ATOM     44  C   UNL A   1      43.552  28.011  30.933  1.00  0.00     0.074 A 
ATOM     45  C   UNL A   1      43.653  26.683  30.373  1.00  0.00     0.031 C 
ATOM     46  C   UNL A   1      37.728  29.953  28.976  1.00  0.00     0.029 A 
ATOM     47  C   UNL A   1      38.682  30.698  29.790  1.00  0.00     0.049 A 
ATOM     48  H   UNL A   1      40.586  30.094  30.382  1.00  0.00     0.167 HD
ATOM     49  C   UNL A   1      44.525  28.598  31.668  1.00  0.00     0.037 A 
ATOM     50  C   UNL A   1      38.482  31.928  30.304  1.00  0.00     0.037 A 
ATOM     51  C   UNL A   1      44.435  29.936  32.186  1.00  0.00     0.049 A 
ATOM     52  C   UNL A   1      39.587  32.568  31.104  1.00  0.00     0.074 A 
ATOM     53  C   UNL A   1      45.382  30.651  32.896  1.00  0.00     0.029 A 
ATOM     54  N   UNL A   1      43.331  30.765  32.042  1.00  0.00    -0.354 N 
ATOM     55  N   UNL A   1      40.764  32.083  31.424  1.00  0.00    -0.248 NA
ATOM     56  C   UNL A   1      39.341  33.928  31.602  1.00  0.00     0.031 C 
ATOM     57  C   UNL A   1      44.834  31.897  33.220  1.00  0.00     0.029 A 
ATOM     58  C   UNL A   1      43.568  31.980  32.662  1.00  0.00     0.049 A 
ATOM     59  H   UNL A   1      42.501  30.524  31.569  1.00  0.00     0.167 HD
ATOM     60  C   UNL A   1      41.411  33.092  32.129  1.00  0.00     0.074 A 
ATOM     61  C   UNL A   1      40.500  34.216  32.177  1.00  0.00     0.031 C 
ATOM     62  C   UNL A   1      42.648  33.090  32.687  1.00  0.00     0.037 A 
BRANCH  49  63
ATOM     63  C   UNL A   1      45.771  27.797  31.941  1.00  0.00     0.058 A 
ATOM     64  C   UNL A   1      45.896  26.990  33.084  1.00  0.00     0.135 A 
ATOM     65  C   UNL A   1      46.850  27.826  31.042  1.00  0.00     0.135 A 
ATOM     66  F   UNL A   1      44.906  26.941  33.990  1.00  0.00    -0.206 F 
ATOM     67  C   UNL A   1      47.055  26.267  33.343  1.00  0.00     0.059 A 
ATOM     68  C   UNL A   1      48.006  27.083  31.264  1.00  0.00     0.059 A 
ATOM     69  F   UNL A   1      46.788  28.583  29.935  1.00  0.00    -0.206 F 
ATOM     70  C   UNL A   1      48.105  26.319  32.425  1.00  0.00     0.060 A 
BRANCH  70  71
ATOM     71  S   UNL A   1      49.598  25.366  32.772  1.00  0.00     0.124 S 
ATOM     72  O   UNL A   1      49.972  24.913  31.436  1.00  0.00    -0.237 OA
ATOM     73  O   UNL A   1      50.475  26.367  33.370  1.00  0.00    -0.237 OA
ATOM     74  O   UNL A   1      49.131  24.322  33.680  1.00  0.00    -0.744 OA
ENDBRANCH  70  71
ENDBRANCH  49  63
BRANCH  50  75
ATOM     75  C   UNL A   1      37.206  32.650  30.046  1.00  0.00     0.058 A 
ATOM     76  C   UNL A   1      37.118  33.627  29.043  1.00  0.00     0.135 A 
ATOM     77  C   UNL A   1      36.049  32.378  30.793  1.00  0.00     0.135 A 
ATOM     78  F   UNL A   1      38.196  33.927  28.303  1.00  0.00    -0.206 F 
ATOM     79  C   UNL A   1      35.939  34.327  28.807  1.00  0.00     0.059 A 
ATOM     80  C   UNL A   1      34.851  33.044  30.557  1.00  0.00     0.059 A 
ATOM     81  F   UNL A   1      36.073  31.439  31.753  1.00  0.00    -0.206 F 
ATOM     82  C   UNL A   1      34.809  34.028  29.570  1.00  0.00     0.060 A 
BRANCH  82  83
ATOM     83  S   UNL A   1      33.275  34.918  29.230  1.00  0.00     0.124 S 
ATOM     84  O   UNL A   1      32.594  33.996  28.330  1.00  0.00    -0.237 OA
ATOM     85  O   UNL A   1      32.697  35.054  30.563  1.00  0.00    -0.237 OA
ATOM     86  O   UNL A   1      33.739  36.164  28.625  1.00  0.00    -0.744 OA
ENDBRANCH  82  83
ENDBRANCH  50  75
BRANCH  62  87
ATOM     87  C   UNL A   1      43.106  34.359  33.352  1.00  0.00     0.058 A 
ATOM     88  C   UNL A   1      42.948  34.575  34.730  1.00  0.00     0.135 A 
ATOM     89  C   UNL A   1      43.743  35.360  32.600  1.00  0.00     0.135 A 
ATOM     90  F   UNL A   1      42.344  33.650  35.494  1.00  0.00    -0.206 F 
ATOM     91  C   UNL A   1      43.366  35.755  35.332  1.00  0.00     0.059 A 
ATOM     92  C   UNL A   1      44.200  36.535  33.188  1.00  0.00     0.059 A 
ATOM     93  F   UNL A   1      43.936  35.198  31.282  1.00  0.00    -0.206 F 
ATOM     94  C   UNL A   1      43.990  36.732  34.552  1.00  0.00     0.060 A 
BRANCH  94  95
ATOM     95  S   UNL A   1      44.535  38.257  35.346  1.00  0.00     0.124 S 
ATOM     96  O   UNL A   1      43.878  38.162  36.646  1.00  0.00    -0.237 OA
ATOM     97  O   UNL A   1      45.986  38.103  35.356  1.00  0.00    -0.237 OA
ATOM     98  O   UNL A   1      44.028  39.302  34.461  1.00  0.00    -0.744 OA
ENDBRANCH  94  95
ENDBRANCH  62  87
ENDBRANCH  36  37
ENDBRANCH  28  31
ENDBRANCH  26  27
ENDBRANCH  25  26
ENDBRANCH   1  25
TORSDOF 18
ENDMDL
