MODEL 1
REMARK VINA RESULT:     -11.8      0.000      0.000
REMARK SMILES O=C(CC[NH2+]C[C@H](O)Cn1c2ccccc2c2ccccc21)NCCCCNC(=O)c1ccc(-c2c3nc(c(-c4c(F)cc(S(=O)(=O)[O-])cc4F)c4ccc([nH]4)c(-c4c(F)cc(S(=O)(=O)[O-])cc4F)c4nc(c(-c5c(F)cc(S(=O)(=O)[O-])cc5F)c5ccc2[nH]5)C=C4)C=C3)cc1
REMARK SMILES IDX 24 1 23 2 1 3 2 4 3 6 4 7 5 8 6 11 7 12 9 13 10 14 11 15
REMARK SMILES IDX 22 16 12 17 16 18 17 19 21 20 13 21 15 22 18 23 20 24 14 25
REMARK SMILES IDX 19 26 8 27 25 29 26 30 27 31 28 32 29 33 30 35 31 36 32 37
REMARK SMILES IDX 96 38 33 39 95 40 34 41 35 42 36 43 89 44 37 45 94 46 88 47
REMARK SMILES IDX 90 48 38 49 93 50 87 51 86 52 39 54 73 55 52 56 72 57 53 58
REMARK SMILES IDX 56 59 71 60 91 61 54 62 55 63 70 65 92 66 57 67 40 68 41 69
REMARK SMILES IDX 50 70 42 71 43 72 49 73 51 74 44 75 45 76 46 77 47 78 48 79
REMARK SMILES IDX 74 80 75 81 84 82 76 83 77 84 83 85 85 86 78 87 79 88 80 89
REMARK SMILES IDX 81 90 82 91 58 92 59 93 68 94 60 95 61 96 67 97 69 98 62 99
REMARK SMILES IDX 63 100 64 101 65 102 66 103
REMARK H PARENT 23 5 5 9 5 10 8 28 28 34 90 53 56 64
REMARK Flexibility Score: inf
ROOT
ATOM      1  C   UNL A   1      37.886  21.736  25.361  1.00  0.00     0.116 C 
ENDROOT
BRANCH   1   2
ATOM      2  N   UNL A   1      36.696  22.068  26.120  1.00  0.00    -0.356 N 
ATOM      3  O   UNL A   1      35.239  20.737  24.933  1.00  0.00    -0.275 OA
ATOM      4  C   UNL A   1      35.460  21.513  25.853  1.00  0.00     0.225 C 
ATOM      5  H   UNL A   1      36.772  22.717  26.857  1.00  0.00     0.163 HD
BRANCH   4   6
ATOM      6  C   UNL A   1      34.406  21.866  26.882  1.00  0.00     0.161 C 
BRANCH   6   7
ATOM      7  C   UNL A   1      33.986  23.328  26.722  1.00  0.00     0.270 C 
BRANCH   7   8
ATOM      8  N   UNL A   1      32.881  23.459  25.764  1.00  0.00    -0.344 N 
ATOM      9  H   UNL A   1      32.483  22.535  25.599  1.00  0.00     0.346 HD
ATOM     10  H   UNL A   1      33.264  23.866  24.910  1.00  0.00     0.346 HD
BRANCH   8  11
ATOM     11  C   UNL A   1      31.822  24.345  26.235  1.00  0.00     0.294 C 
BRANCH  11  12
ATOM     12  C   UNL A   1      30.950  25.065  25.175  1.00  0.00     0.189 C 
BRANCH  12  13
ATOM     13  C   UNL A   1      31.764  25.994  24.246  1.00  0.00     0.160 C 
BRANCH  13  14
ATOM     14  N   UNL A   1      31.595  27.418  24.539  1.00  0.00    -0.338 N 
ATOM     15  C   UNL A   1      32.317  28.137  25.480  1.00  0.00     0.049 A 
ATOM     16  C   UNL A   1      30.719  28.252  23.867  1.00  0.00     0.049 A 
ATOM     17  C   UNL A   1      33.373  27.773  26.334  1.00  0.00     0.027 A 
ATOM     18  C   UNL A   1      31.806  29.438  25.478  1.00  0.00     0.007 A 
ATOM     19  C   UNL A   1      30.772  29.496  24.496  1.00  0.00     0.007 A 
ATOM     20  C   UNL A   1      29.868  28.019  22.775  1.00  0.00     0.027 A 
ATOM     21  C   UNL A   1      33.917  28.746  27.181  1.00  0.00     0.002 A 
ATOM     22  C   UNL A   1      32.364  30.398  26.352  1.00  0.00     0.011 A 
ATOM     23  C   UNL A   1      29.896  30.515  24.065  1.00  0.00     0.011 A 
ATOM     24  C   UNL A   1      29.003  29.038  22.371  1.00  0.00     0.002 A 
ATOM     25  C   UNL A   1      33.422  30.043  27.193  1.00  0.00     0.001 A 
ATOM     26  C   UNL A   1      29.006  30.268  23.015  1.00  0.00     0.001 A 
ENDBRANCH  13  14
ENDBRANCH  12  13
BRANCH  12  27
ATOM     27  O   UNL A   1      30.290  24.027  24.432  1.00  0.00    -0.385 OA
ATOM     28  H   UNL A   1      29.336  24.068  24.597  1.00  0.00     0.211 HD
ENDBRANCH  12  27
ENDBRANCH  11  12
ENDBRANCH   8  11
ENDBRANCH   7   8
ENDBRANCH   6   7
ENDBRANCH   4   6
ENDBRANCH   1   2
BRANCH   1  29
ATOM     29  C   UNL A   1      39.169  21.987  26.150  1.00  0.00     0.023 C 
BRANCH  29  30
ATOM     30  C   UNL A   1      40.058  20.756  26.395  1.00  0.00     0.023 C 
BRANCH  30  31
ATOM     31  C   UNL A   1      41.526  21.052  26.704  1.00  0.00     0.116 C 
BRANCH  31  32
ATOM     32  N   UNL A   1      42.241  21.690  25.620  1.00  0.00    -0.352 N 
ATOM     33  C   UNL A   1      42.679  22.960  25.357  1.00  0.00     0.251 C 
ATOM     34  H   UNL A   1      42.467  21.061  24.899  1.00  0.00     0.163 HD
ATOM     35  O   UNL A   1      43.454  23.058  24.400  1.00  0.00    -0.269 OA
BRANCH  33  36
ATOM     36  C   UNL A   1      42.264  24.203  26.070  1.00  0.00     0.039 A 
ATOM     37  C   UNL A   1      41.398  25.182  25.584  1.00  0.00     0.014 A 
ATOM     38  C   UNL A   1      42.877  24.419  27.323  1.00  0.00     0.014 A 
ATOM     39  C   UNL A   1      41.221  26.375  26.290  1.00  0.00     0.010 A 
ATOM     40  C   UNL A   1      42.699  25.604  28.031  1.00  0.00     0.010 A 
ATOM     41  C   UNL A   1      41.906  26.607  27.491  1.00  0.00    -0.014 A 
BRANCH  41  42
ATOM     42  C   UNL A   1      41.677  27.872  28.195  1.00  0.00     0.031 A 
ATOM     43  C   UNL A   1      42.774  28.869  28.050  1.00  0.00     0.074 A 
ATOM     44  C   UNL A   1      40.544  28.195  28.857  1.00  0.00     0.049 A 
ATOM     45  N   UNL A   1      43.589  29.280  28.965  1.00  0.00    -0.248 NA
ATOM     46  C   UNL A   1      43.089  29.369  26.704  1.00  0.00     0.031 C 
ATOM     47  C   UNL A   1      39.275  27.467  28.900  1.00  0.00     0.029 A 
ATOM     48  N   UNL A   1      40.268  29.318  29.585  1.00  0.00    -0.354 N 
ATOM     49  C   UNL A   1      44.388  30.252  28.366  1.00  0.00     0.074 A 
ATOM     50  C   UNL A   1      44.144  30.149  26.950  1.00  0.00     0.031 C 
ATOM     51  C   UNL A   1      38.314  28.267  29.418  1.00  0.00     0.029 A 
ATOM     52  C   UNL A   1      38.918  29.510  29.866  1.00  0.00     0.049 A 
ATOM     53  H   UNL A   1      40.968  29.942  29.887  1.00  0.00     0.167 HD
ATOM     54  C   UNL A   1      45.025  31.203  29.104  1.00  0.00     0.037 A 
ATOM     55  C   UNL A   1      38.335  30.625  30.386  1.00  0.00     0.037 A 
ATOM     56  C   UNL A   1      45.082  30.835  30.496  1.00  0.00     0.049 A 
ATOM     57  C   UNL A   1      39.399  31.369  31.114  1.00  0.00     0.074 A 
ATOM     58  C   UNL A   1      45.598  29.762  31.198  1.00  0.00     0.029 A 
ATOM     59  N   UNL A   1      44.227  31.469  31.367  1.00  0.00    -0.354 N 
ATOM     60  N   UNL A   1      39.975  30.932  32.200  1.00  0.00    -0.248 NA
ATOM     61  C   UNL A   1      40.141  32.380  30.377  1.00  0.00     0.031 C 
ATOM     62  C   UNL A   1      44.656  29.517  32.238  1.00  0.00     0.029 A 
ATOM     63  C   UNL A   1      43.664  30.494  32.149  1.00  0.00     0.049 A 
ATOM     64  H   UNL A   1      44.052  32.437  31.417  1.00  0.00     0.167 HD
ATOM     65  C   UNL A   1      41.311  31.269  32.048  1.00  0.00     0.074 A 
ATOM     66  C   UNL A   1      41.339  32.228  30.945  1.00  0.00     0.031 C 
ATOM     67  C   UNL A   1      42.305  30.540  32.637  1.00  0.00     0.037 A 
BRANCH  54  68
ATOM     68  C   UNL A   1      45.274  32.623  28.652  1.00  0.00     0.058 A 
ATOM     69  C   UNL A   1      46.579  33.155  28.746  1.00  0.00     0.135 A 
ATOM     70  C   UNL A   1      44.247  33.566  28.435  1.00  0.00     0.135 A 
ATOM     71  F   UNL A   1      47.636  32.349  28.942  1.00  0.00    -0.206 F 
ATOM     72  C   UNL A   1      46.829  34.527  28.733  1.00  0.00     0.059 A 
ATOM     73  C   UNL A   1      44.481  34.935  28.366  1.00  0.00     0.059 A 
ATOM     74  F   UNL A   1      42.956  33.218  28.382  1.00  0.00    -0.206 F 
ATOM     75  C   UNL A   1      45.768  35.409  28.566  1.00  0.00     0.060 A 
BRANCH  75  76
ATOM     76  S   UNL A   1      46.067  37.181  28.684  1.00  0.00     0.124 S 
ATOM     77  O   UNL A   1      46.968  37.397  27.558  1.00  0.00    -0.237 OA
ATOM     78  O   UNL A   1      44.718  37.722  28.538  1.00  0.00    -0.237 OA
ATOM     79  O   UNL A   1      46.659  37.334  30.008  1.00  0.00    -0.744 OA
ENDBRANCH  75  76
ENDBRANCH  54  68
BRANCH  55  80
ATOM     80  C   UNL A   1      37.034  31.250  30.002  1.00  0.00     0.058 A 
ATOM     81  C   UNL A   1      36.147  31.767  30.970  1.00  0.00     0.135 A 
ATOM     82  C   UNL A   1      36.755  31.611  28.669  1.00  0.00     0.135 A 
ATOM     83  F   UNL A   1      36.336  31.498  32.271  1.00  0.00    -0.206 F 
ATOM     84  C   UNL A   1      35.091  32.629  30.639  1.00  0.00     0.059 A 
ATOM     85  C   UNL A   1      35.704  32.456  28.315  1.00  0.00     0.059 A 
ATOM     86  F   UNL A   1      37.555  31.226  27.664  1.00  0.00    -0.206 F 
ATOM     87  C   UNL A   1      34.891  32.987  29.308  1.00  0.00     0.060 A 
BRANCH  87  88
ATOM     88  S   UNL A   1      33.647  34.232  28.887  1.00  0.00     0.124 S 
ATOM     89  O   UNL A   1      32.755  33.486  28.007  1.00  0.00    -0.237 OA
ATOM     90  O   UNL A   1      33.105  34.582  30.195  1.00  0.00    -0.237 OA
ATOM     91  O   UNL A   1      34.425  35.285  28.237  1.00  0.00    -0.744 OA
ENDBRANCH  87  88
ENDBRANCH  55  80
BRANCH  67  92
ATOM     92  C   UNL A   1      41.949  29.530  33.696  1.00  0.00     0.058 A 
ATOM     93  C   UNL A   1      41.490  28.229  33.429  1.00  0.00     0.135 A 
ATOM     94  C   UNL A   1      42.295  29.830  35.023  1.00  0.00     0.135 A 
ATOM     95  F   UNL A   1      41.229  27.831  32.176  1.00  0.00    -0.206 F 
ATOM     96  C   UNL A   1      41.370  27.273  34.441  1.00  0.00     0.059 A 
ATOM     97  C   UNL A   1      42.212  28.885  36.041  1.00  0.00     0.059 A 
ATOM     98  F   UNL A   1      42.794  31.039  35.332  1.00  0.00    -0.206 F 
ATOM     99  C   UNL A   1      41.746  27.607  35.743  1.00  0.00     0.060 A 
BRANCH  99 100
ATOM    100  S   UNL A   1      41.706  26.333  37.023  1.00  0.00     0.124 S 
ATOM    101  O   UNL A   1      42.888  26.654  37.814  1.00  0.00    -0.237 OA
ATOM    102  O   UNL A   1      40.421  26.576  37.669  1.00  0.00    -0.237 OA
ATOM    103  O   UNL A   1      41.785  25.084  36.264  1.00  0.00    -0.744 OA
ENDBRANCH  99 100
ENDBRANCH  67  92
ENDBRANCH  41  42
ENDBRANCH  33  36
ENDBRANCH  31  32
ENDBRANCH  30  31
ENDBRANCH  29  30
ENDBRANCH   1  29
TORSDOF 21
ENDMDL
MODEL 2
REMARK VINA RESULT:     -11.8      1.215      2.362
REMARK SMILES O=C(CC[NH2+]C[C@H](O)Cn1c2ccccc2c2ccccc21)NCCCCNC(=O)c1ccc(-c2c3nc(c(-c4c(F)cc(S(=O)(=O)[O-])cc4F)c4ccc([nH]4)c(-c4c(F)cc(S(=O)(=O)[O-])cc4F)c4nc(c(-c5c(F)cc(S(=O)(=O)[O-])cc5F)c5ccc2[nH]5)C=C4)C=C3)cc1
REMARK SMILES IDX 24 1 23 2 1 3 2 4 3 6 4 7 5 8 6 11 7 12 9 13 10 14 11 15
REMARK SMILES IDX 22 16 12 17 16 18 17 19 21 20 13 21 15 22 18 23 20 24 14 25
REMARK SMILES IDX 19 26 8 27 25 29 26 30 27 31 28 32 29 33 30 35 31 36 32 37
REMARK SMILES IDX 96 38 33 39 95 40 34 41 35 42 36 43 89 44 37 45 94 46 88 47
REMARK SMILES IDX 90 48 38 49 93 50 87 51 86 52 39 54 73 55 52 56 72 57 53 58
REMARK SMILES IDX 56 59 71 60 91 61 54 62 55 63 70 65 92 66 57 67 40 68 41 69
REMARK SMILES IDX 50 70 42 71 43 72 49 73 51 74 44 75 45 76 46 77 47 78 48 79
REMARK SMILES IDX 74 80 75 81 84 82 76 83 77 84 83 85 85 86 78 87 79 88 80 89
REMARK SMILES IDX 81 90 82 91 58 92 59 93 68 94 60 95 61 96 67 97 69 98 62 99
REMARK SMILES IDX 63 100 64 101 65 102 66 103
REMARK H PARENT 23 5 5 9 5 10 8 28 28 34 90 53 56 64
REMARK Flexibility Score: inf
ROOT
ATOM      1  C   UNL A   1      39.206  23.650  26.705  1.00  0.00     0.116 C 
ENDROOT
BRANCH   1   2
ATOM      2  N   UNL A   1      38.473  23.290  25.507  1.00  0.00    -0.356 N 
ATOM      3  O   UNL A   1      36.405  23.996  26.234  1.00  0.00    -0.275 OA
ATOM      4  C   UNL A   1      37.119  23.520  25.362  1.00  0.00     0.225 C 
ATOM      5  H   UNL A   1      38.960  22.863  24.765  1.00  0.00     0.163 HD
BRANCH   4   6
ATOM      6  C   UNL A   1      36.605  23.229  23.967  1.00  0.00     0.161 C 
BRANCH   6   7
ATOM      7  C   UNL A   1      35.086  23.403  23.920  1.00  0.00     0.270 C 
BRANCH   7   8
ATOM      8  N   UNL A   1      34.713  24.820  24.019  1.00  0.00    -0.344 N 
ATOM      9  H   UNL A   1      35.290  25.355  23.370  1.00  0.00     0.346 HD
ATOM     10  H   UNL A   1      34.861  25.108  24.987  1.00  0.00     0.346 HD
BRANCH   8  11
ATOM     11  C   UNL A   1      33.309  25.062  23.701  1.00  0.00     0.294 C 
BRANCH  11  12
ATOM     12  C   UNL A   1      32.981  26.084  22.582  1.00  0.00     0.189 C 
BRANCH  12  13
ATOM     13  C   UNL A   1      33.603  27.477  22.829  1.00  0.00     0.160 C 
BRANCH  13  14
ATOM     14  N   UNL A   1      32.789  28.344  23.683  1.00  0.00    -0.338 N 
ATOM     15  C   UNL A   1      31.587  28.933  23.319  1.00  0.00     0.049 A 
ATOM     16  C   UNL A   1      33.093  28.646  24.999  1.00  0.00     0.049 A 
ATOM     17  C   UNL A   1      30.818  28.854  22.145  1.00  0.00     0.027 A 
ATOM     18  C   UNL A   1      31.176  29.718  24.400  1.00  0.00     0.007 A 
ATOM     19  C   UNL A   1      32.145  29.572  25.437  1.00  0.00     0.007 A 
ATOM     20  C   UNL A   1      34.128  28.204  25.838  1.00  0.00     0.027 A 
ATOM     21  C   UNL A   1      29.616  29.569  22.080  1.00  0.00     0.002 A 
ATOM     22  C   UNL A   1      29.966  30.442  24.304  1.00  0.00     0.011 A 
ATOM     23  C   UNL A   1      32.281  30.125  26.728  1.00  0.00     0.011 A 
ATOM     24  C   UNL A   1      34.248  28.772  27.107  1.00  0.00     0.002 A 
ATOM     25  C   UNL A   1      29.191  30.354  23.144  1.00  0.00     0.001 A 
ATOM     26  C   UNL A   1      33.344  29.730  27.545  1.00  0.00     0.001 A 
ENDBRANCH  13  14
ENDBRANCH  12  13
BRANCH  12  27
ATOM     27  O   UNL A   1      33.464  25.503  21.360  1.00  0.00    -0.385 OA
ATOM     28  H   UNL A   1      34.414  25.327  21.439  1.00  0.00     0.211 HD
ENDBRANCH  12  27
ENDBRANCH  11  12
ENDBRANCH   8  11
ENDBRANCH   7   8
ENDBRANCH   6   7
ENDBRANCH   4   6
ENDBRANCH   1   2
BRANCH   1  29
ATOM     29  C   UNL A   1      40.052  22.497  27.239  1.00  0.00     0.023 C 
BRANCH  29  30
ATOM     30  C   UNL A   1      40.700  21.591  26.179  1.00  0.00     0.023 C 
BRANCH  30  31
ATOM     31  C   UNL A   1      42.216  21.426  26.288  1.00  0.00     0.116 C 
BRANCH  31  32
ATOM     32  N   UNL A   1      42.964  22.160  25.290  1.00  0.00    -0.352 N 
ATOM     33  C   UNL A   1      43.367  23.459  25.137  1.00  0.00     0.251 C 
ATOM     34  H   UNL A   1      43.251  21.589  24.542  1.00  0.00     0.163 HD
ATOM     35  O   UNL A   1      44.188  23.648  24.233  1.00  0.00    -0.269 OA
BRANCH  33  36
ATOM     36  C   UNL A   1      42.869  24.636  25.905  1.00  0.00     0.039 A 
ATOM     37  C   UNL A   1      42.065  25.662  25.412  1.00  0.00     0.014 A 
ATOM     38  C   UNL A   1      43.329  24.731  27.237  1.00  0.00     0.014 A 
ATOM     39  C   UNL A   1      41.803  26.788  26.197  1.00  0.00     0.010 A 
ATOM     40  C   UNL A   1      43.066  25.850  28.024  1.00  0.00     0.010 A 
ATOM     41  C   UNL A   1      42.341  26.904  27.487  1.00  0.00    -0.014 A 
BRANCH  41  42
ATOM     42  C   UNL A   1      42.027  28.102  28.272  1.00  0.00     0.031 A 
ATOM     43  C   UNL A   1      43.093  29.142  28.266  1.00  0.00     0.074 A 
ATOM     44  C   UNL A   1      40.849  28.336  28.891  1.00  0.00     0.049 A 
ATOM     45  N   UNL A   1      43.842  29.507  29.254  1.00  0.00    -0.248 NA
ATOM     46  C   UNL A   1      43.462  29.756  26.982  1.00  0.00     0.031 C 
ATOM     47  C   UNL A   1      39.607  27.565  28.806  1.00  0.00     0.029 A 
ATOM     48  N   UNL A   1      40.493  29.389  29.685  1.00  0.00    -0.354 N 
ATOM     49  C   UNL A   1      44.636  30.548  28.777  1.00  0.00     0.074 A 
ATOM     50  C   UNL A   1      44.473  30.548  27.346  1.00  0.00     0.031 C 
ATOM     51  C   UNL A   1      38.591  28.291  29.328  1.00  0.00     0.029 A 
ATOM     52  C   UNL A   1      39.124  29.515  29.904  1.00  0.00     0.049 A 
ATOM     53  H   UNL A   1      41.152  30.009  30.073  1.00  0.00     0.167 HD
ATOM     54  C   UNL A   1      45.197  31.459  29.621  1.00  0.00     0.037 A 
ATOM     55  C   UNL A   1      38.473  30.566  30.473  1.00  0.00     0.037 A 
ATOM     56  C   UNL A   1      45.192  30.985  30.982  1.00  0.00     0.049 A 
ATOM     57  C   UNL A   1      39.468  31.285  31.314  1.00  0.00     0.074 A 
ATOM     58  C   UNL A   1      45.709  29.878  31.628  1.00  0.00     0.029 A 
ATOM     59  N   UNL A   1      44.268  31.521  31.848  1.00  0.00    -0.354 N 
ATOM     60  N   UNL A   1      40.000  30.783  32.395  1.00  0.00    -0.248 NA
ATOM     61  C   UNL A   1      40.211  32.374  30.700  1.00  0.00     0.031 C 
ATOM     62  C   UNL A   1      44.721  29.522  32.590  1.00  0.00     0.029 A 
ATOM     63  C   UNL A   1      43.700  30.470  32.520  1.00  0.00     0.049 A 
ATOM     64  H   UNL A   1      44.056  32.475  31.962  1.00  0.00     0.167 HD
ATOM     65  C   UNL A   1      41.330  31.174  32.346  1.00  0.00     0.074 A 
ATOM     66  C   UNL A   1      41.382  32.217  31.322  1.00  0.00     0.031 C 
ATOM     67  C   UNL A   1      42.316  30.434  32.933  1.00  0.00     0.037 A 
BRANCH  54  68
ATOM     68  C   UNL A   1      45.418  32.917  29.293  1.00  0.00     0.058 A 
ATOM     69  C   UNL A   1      44.306  33.721  28.958  1.00  0.00     0.135 A 
ATOM     70  C   UNL A   1      46.681  33.467  28.988  1.00  0.00     0.135 A 
ATOM     71  F   UNL A   1      43.055  33.302  29.210  1.00  0.00    -0.206 F 
ATOM     72  C   UNL A   1      44.437  34.930  28.275  1.00  0.00     0.059 A 
ATOM     73  C   UNL A   1      46.836  34.696  28.356  1.00  0.00     0.059 A 
ATOM     74  F   UNL A   1      47.821  32.799  29.195  1.00  0.00    -0.206 F 
ATOM     75  C   UNL A   1      45.708  35.397  27.958  1.00  0.00     0.060 A 
BRANCH  75  76
ATOM     76  S   UNL A   1      45.877  36.886  26.961  1.00  0.00     0.124 S 
ATOM     77  O   UNL A   1      44.490  37.148  26.595  1.00  0.00    -0.237 OA
ATOM     78  O   UNL A   1      46.475  37.818  27.914  1.00  0.00    -0.237 OA
ATOM     79  O   UNL A   1      46.751  36.464  25.872  1.00  0.00    -0.744 OA
ENDBRANCH  75  76
ENDBRANCH  54  68
BRANCH  55  80
ATOM     80  C   UNL A   1      37.172  31.176  30.064  1.00  0.00     0.058 A 
ATOM     81  C   UNL A   1      36.290  31.739  31.010  1.00  0.00     0.135 A 
ATOM     82  C   UNL A   1      36.891  31.477  28.716  1.00  0.00     0.135 A 
ATOM     83  F   UNL A   1      36.482  31.529  32.321  1.00  0.00    -0.206 F 
ATOM     84  C   UNL A   1      35.235  32.588  30.643  1.00  0.00     0.059 A 
ATOM     85  C   UNL A   1      35.841  32.309  28.327  1.00  0.00     0.059 A 
ATOM     86  F   UNL A   1      37.687  31.045  27.728  1.00  0.00    -0.206 F 
ATOM     87  C   UNL A   1      35.033  32.886  29.297  1.00  0.00     0.060 A 
BRANCH  87  88
ATOM     88  S   UNL A   1      33.791  34.115  28.824  1.00  0.00     0.124 S 
ATOM     89  O   UNL A   1      34.610  35.159  28.218  1.00  0.00    -0.237 OA
ATOM     90  O   UNL A   1      32.942  33.359  27.910  1.00  0.00    -0.237 OA
ATOM     91  O   UNL A   1      33.165  34.474  30.095  1.00  0.00    -0.744 OA
ENDBRANCH  87  88
ENDBRANCH  55  80
BRANCH  67  92
ATOM     92  C   UNL A   1      41.941  29.333  33.889  1.00  0.00     0.058 A 
ATOM     93  C   UNL A   1      41.795  27.982  33.528  1.00  0.00     0.135 A 
ATOM     94  C   UNL A   1      41.941  29.635  35.261  1.00  0.00     0.135 A 
ATOM     95  F   UNL A   1      41.878  27.597  32.247  1.00  0.00    -0.206 F 
ATOM     96  C   UNL A   1      41.645  26.980  34.489  1.00  0.00     0.059 A 
ATOM     97  C   UNL A   1      41.825  28.649  36.235  1.00  0.00     0.059 A 
ATOM     98  F   UNL A   1      42.134  30.900  35.671  1.00  0.00    -0.206 F 
ATOM     99  C   UNL A   1      41.675  27.322  35.842  1.00  0.00     0.060 A 
BRANCH  99 100
ATOM    100  S   UNL A   1      41.606  26.009  37.081  1.00  0.00     0.124 S 
ATOM    101  O   UNL A   1      41.789  24.810  36.271  1.00  0.00    -0.237 OA
ATOM    102  O   UNL A   1      42.713  26.354  37.967  1.00  0.00    -0.237 OA
ATOM    103  O   UNL A   1      40.277  26.166  37.671  1.00  0.00    -0.744 OA
ENDBRANCH  99 100
ENDBRANCH  67  92
ENDBRANCH  41  42
ENDBRANCH  33  36
ENDBRANCH  31  32
ENDBRANCH  30  31
ENDBRANCH  29  30
ENDBRANCH   1  29
TORSDOF 21
ENDMDL
MODEL 3
REMARK VINA RESULT:     -11.3      2.904      9.640
REMARK SMILES O=C(CC[NH2+]C[C@H](O)Cn1c2ccccc2c2ccccc21)NCCCCNC(=O)c1ccc(-c2c3nc(c(-c4c(F)cc(S(=O)(=O)[O-])cc4F)c4ccc([nH]4)c(-c4c(F)cc(S(=O)(=O)[O-])cc4F)c4nc(c(-c5c(F)cc(S(=O)(=O)[O-])cc5F)c5ccc2[nH]5)C=C4)C=C3)cc1
REMARK SMILES IDX 24 1 23 2 1 3 2 4 3 6 4 7 5 8 6 11 7 12 9 13 10 14 11 15
REMARK SMILES IDX 22 16 12 17 16 18 17 19 21 20 13 21 15 22 18 23 20 24 14 25
REMARK SMILES IDX 19 26 8 27 25 29 26 30 27 31 28 32 29 33 30 35 31 36 32 37
REMARK SMILES IDX 96 38 33 39 95 40 34 41 35 42 36 43 89 44 37 45 94 46 88 47
REMARK SMILES IDX 90 48 38 49 93 50 87 51 86 52 39 54 73 55 52 56 72 57 53 58
REMARK SMILES IDX 56 59 71 60 91 61 54 62 55 63 70 65 92 66 57 67 40 68 41 69
REMARK SMILES IDX 50 70 42 71 43 72 49 73 51 74 44 75 45 76 46 77 47 78 48 79
REMARK SMILES IDX 74 80 75 81 84 82 76 83 77 84 83 85 85 86 78 87 79 88 80 89
REMARK SMILES IDX 81 90 82 91 58 92 59 93 68 94 60 95 61 96 67 97 69 98 62 99
REMARK SMILES IDX 63 100 64 101 65 102 66 103
REMARK H PARENT 23 5 5 9 5 10 8 28 28 34 90 53 56 64
REMARK Flexibility Score: inf
ROOT
ATOM      1  C   UNL A   1      32.162  28.068  26.789  1.00  0.00     0.116 C 
ENDROOT
BRANCH   1   2
ATOM      2  N   UNL A   1      31.383  27.511  25.700  1.00  0.00    -0.356 N 
ATOM      3  O   UNL A   1      31.181  29.460  24.490  1.00  0.00    -0.275 OA
ATOM      4  C   UNL A   1      30.974  28.261  24.614  1.00  0.00     0.225 C 
ATOM      5  H   UNL A   1      31.135  26.559  25.735  1.00  0.00     0.163 HD
BRANCH   4   6
ATOM      6  C   UNL A   1      30.331  27.434  23.520  1.00  0.00     0.161 C 
BRANCH   6   7
ATOM      7  C   UNL A   1      29.596  26.239  24.128  1.00  0.00     0.270 C 
BRANCH   7   8
ATOM      8  N   UNL A   1      30.036  24.980  23.513  1.00  0.00    -0.344 N 
ATOM      9  H   UNL A   1      29.667  24.935  22.563  1.00  0.00     0.346 HD
ATOM     10  H   UNL A   1      29.684  24.217  24.093  1.00  0.00     0.346 HD
BRANCH   8  11
ATOM     11  C   UNL A   1      31.488  24.851  23.455  1.00  0.00     0.294 C 
BRANCH  11  12
ATOM     12  C   UNL A   1      32.093  23.424  23.423  1.00  0.00     0.189 C 
BRANCH  12  13
ATOM     13  C   UNL A   1      32.433  22.875  24.826  1.00  0.00     0.160 C 
BRANCH  13  14
ATOM     14  N   UNL A   1      33.569  21.952  24.840  1.00  0.00    -0.338 N 
ATOM     15  C   UNL A   1      33.496  20.582  24.634  1.00  0.00     0.049 A 
ATOM     16  C   UNL A   1      34.886  22.342  25.009  1.00  0.00     0.049 A 
ATOM     17  C   UNL A   1      32.418  19.733  24.327  1.00  0.00     0.027 A 
ATOM     18  C   UNL A   1      34.791  20.079  24.785  1.00  0.00     0.007 A 
ATOM     19  C   UNL A   1      35.655  21.179  25.065  1.00  0.00     0.007 A 
ATOM     20  C   UNL A   1      35.469  23.613  25.138  1.00  0.00     0.027 A 
ATOM     21  C   UNL A   1      32.667  18.365  24.162  1.00  0.00     0.002 A 
ATOM     22  C   UNL A   1      35.013  18.692  24.628  1.00  0.00     0.011 A 
ATOM     23  C   UNL A   1      37.037  21.290  25.330  1.00  0.00     0.011 A 
ATOM     24  C   UNL A   1      36.835  23.698  25.409  1.00  0.00     0.002 A 
ATOM     25  C   UNL A   1      33.947  17.847  24.310  1.00  0.00     0.001 A 
ATOM     26  C   UNL A   1      37.610  22.550  25.517  1.00  0.00     0.001 A 
ENDBRANCH  13  14
ENDBRANCH  12  13
BRANCH  12  27
ATOM     27  O   UNL A   1      31.125  22.598  22.756  1.00  0.00    -0.385 OA
ATOM     28  H   UNL A   1      30.512  22.228  23.409  1.00  0.00     0.211 HD
ENDBRANCH  12  27
ENDBRANCH  11  12
ENDBRANCH   8  11
ENDBRANCH   7   8
ENDBRANCH   6   7
ENDBRANCH   4   6
ENDBRANCH   1   2
BRANCH   1  29
ATOM     29  C   UNL A   1      33.664  27.894  26.578  1.00  0.00     0.023 C 
BRANCH  29  30
ATOM     30  C   UNL A   1      34.555  29.023  27.124  1.00  0.00     0.023 C 
BRANCH  30  31
ATOM     31  C   UNL A   1      34.017  30.440  26.931  1.00  0.00     0.116 C 
BRANCH  31  32
ATOM     32  N   UNL A   1      33.930  31.211  28.153  1.00  0.00    -0.352 N 
ATOM     33  C   UNL A   1      34.818  31.621  29.110  1.00  0.00     0.251 C 
ATOM     34  H   UNL A   1      33.013  31.514  28.340  1.00  0.00     0.163 HD
ATOM     35  O   UNL A   1      34.382  32.461  29.903  1.00  0.00    -0.269 OA
BRANCH  33  36
ATOM     36  C   UNL A   1      36.205  31.107  29.306  1.00  0.00     0.039 A 
ATOM     37  C   UNL A   1      37.385  31.815  29.083  1.00  0.00     0.014 A 
ATOM     38  C   UNL A   1      36.303  29.751  29.686  1.00  0.00     0.014 A 
ATOM     39  C   UNL A   1      38.619  31.162  29.153  1.00  0.00     0.010 A 
ATOM     40  C   UNL A   1      37.531  29.098  29.760  1.00  0.00     0.010 A 
ATOM     41  C   UNL A   1      38.690  29.792  29.447  1.00  0.00    -0.014 A 
BRANCH  41  42
ATOM     42  C   UNL A   1      40.010  29.159  29.516  1.00  0.00     0.031 A 
ATOM     43  C   UNL A   1      40.559  29.021  30.893  1.00  0.00     0.074 A 
ATOM     44  C   UNL A   1      40.677  28.641  28.461  1.00  0.00     0.049 A 
ATOM     45  N   UNL A   1      41.572  29.643  31.403  1.00  0.00    -0.248 NA
ATOM     46  C   UNL A   1      39.820  28.197  31.861  1.00  0.00     0.031 C 
ATOM     47  C   UNL A   1      40.203  28.452  27.088  1.00  0.00     0.029 A 
ATOM     48  N   UNL A   1      41.926  28.089  28.424  1.00  0.00    -0.354 N 
ATOM     49  C   UNL A   1      41.733  29.134  32.690  1.00  0.00     0.074 A 
ATOM     50  C   UNL A   1      40.542  28.374  32.969  1.00  0.00     0.031 C 
ATOM     51  C   UNL A   1      41.057  27.637  26.426  1.00  0.00     0.029 A 
ATOM     52  C   UNL A   1      42.202  27.353  27.275  1.00  0.00     0.049 A 
ATOM     53  H   UNL A   1      42.580  28.203  29.152  1.00  0.00     0.167 HD
ATOM     54  C   UNL A   1      42.929  29.208  33.339  1.00  0.00     0.037 A 
ATOM     55  C   UNL A   1      43.268  26.535  27.056  1.00  0.00     0.037 A 
ATOM     56  C   UNL A   1      43.803  30.170  32.719  1.00  0.00     0.049 A 
ATOM     57  C   UNL A   1      44.348  26.977  27.978  1.00  0.00     0.074 A 
ATOM     58  C   UNL A   1      43.723  31.523  32.448  1.00  0.00     0.029 A 
ATOM     59  N   UNL A   1      44.838  29.698  31.946  1.00  0.00    -0.354 N 
ATOM     60  N   UNL A   1      44.964  28.124  27.876  1.00  0.00    -0.248 NA
ATOM     61  C   UNL A   1      44.422  26.343  29.286  1.00  0.00     0.031 C 
ATOM     62  C   UNL A   1      44.348  31.679  31.177  1.00  0.00     0.029 A 
ATOM     63  C   UNL A   1      44.830  30.429  30.786  1.00  0.00     0.049 A 
ATOM     64  H   UNL A   1      45.463  28.975  32.180  1.00  0.00     0.167 HD
ATOM     65  C   UNL A   1      45.115  28.559  29.184  1.00  0.00     0.074 A 
ATOM     66  C   UNL A   1      44.834  27.387  30.010  1.00  0.00     0.031 C 
ATOM     67  C   UNL A   1      45.179  29.888  29.493  1.00  0.00     0.037 A 
BRANCH  54  68
ATOM     68  C   UNL A   1      43.454  28.165  34.299  1.00  0.00     0.058 A 
ATOM     69  C   UNL A   1      43.947  28.577  35.557  1.00  0.00     0.135 A 
ATOM     70  C   UNL A   1      43.784  26.847  33.918  1.00  0.00     0.135 A 
ATOM     71  F   UNL A   1      43.687  29.808  36.026  1.00  0.00    -0.206 F 
ATOM     72  C   UNL A   1      44.791  27.777  36.327  1.00  0.00     0.059 A 
ATOM     73  C   UNL A   1      44.580  26.014  34.695  1.00  0.00     0.059 A 
ATOM     74  F   UNL A   1      43.437  26.338  32.730  1.00  0.00    -0.206 F 
ATOM     75  C   UNL A   1      45.119  26.504  35.874  1.00  0.00     0.060 A 
BRANCH  75  76
ATOM     76  S   UNL A   1      46.314  25.521  36.796  1.00  0.00     0.124 S 
ATOM     77  O   UNL A   1      45.436  24.637  37.554  1.00  0.00    -0.237 OA
ATOM     78  O   UNL A   1      47.080  24.895  35.721  1.00  0.00    -0.237 OA
ATOM     79  O   UNL A   1      47.037  26.518  37.576  1.00  0.00    -0.744 OA
ENDBRANCH  75  76
ENDBRANCH  54  68
BRANCH  55  80
ATOM     80  C   UNL A   1      43.286  25.207  26.372  1.00  0.00     0.058 A 
ATOM     81  C   UNL A   1      44.111  24.962  25.254  1.00  0.00     0.135 A 
ATOM     82  C   UNL A   1      42.712  24.065  26.965  1.00  0.00     0.135 A 
ATOM     83  F   UNL A   1      44.722  25.981  24.630  1.00  0.00    -0.206 F 
ATOM     84  C   UNL A   1      44.391  23.666  24.794  1.00  0.00     0.059 A 
ATOM     85  C   UNL A   1      42.965  22.768  26.518  1.00  0.00     0.059 A 
ATOM     86  F   UNL A   1      41.951  24.162  28.065  1.00  0.00    -0.206 F 
ATOM     87  C   UNL A   1      43.830  22.572  25.449  1.00  0.00     0.060 A 
BRANCH  87  88
ATOM     88  S   UNL A   1      44.318  20.894  24.979  1.00  0.00     0.124 S 
ATOM     89  O   UNL A   1      43.155  20.113  25.386  1.00  0.00    -0.237 OA
ATOM     90  O   UNL A   1      44.528  21.024  23.541  1.00  0.00    -0.237 OA
ATOM     91  O   UNL A   1      45.530  20.660  25.762  1.00  0.00    -0.744 OA
ENDBRANCH  87  88
ENDBRANCH  55  80
BRANCH  67  92
ATOM     92  C   UNL A   1      45.377  30.892  28.389  1.00  0.00     0.058 A 
ATOM     93  C   UNL A   1      44.345  31.395  27.578  1.00  0.00     0.135 A 
ATOM     94  C   UNL A   1      46.629  31.522  28.300  1.00  0.00     0.135 A 
ATOM     95  F   UNL A   1      43.098  30.914  27.670  1.00  0.00    -0.206 F 
ATOM     96  C   UNL A   1      44.554  32.469  26.709  1.00  0.00     0.059 A 
ATOM     97  C   UNL A   1      46.851  32.613  27.464  1.00  0.00     0.059 A 
ATOM     98  F   UNL A   1      47.640  31.124  29.090  1.00  0.00    -0.206 F 
ATOM     99  C   UNL A   1      45.808  33.080  26.669  1.00  0.00     0.060 A 
BRANCH  99 100
ATOM    100  S   UNL A   1      46.038  34.546  25.638  1.00  0.00     0.124 S 
ATOM    101  O   UNL A   1      45.215  34.237  24.475  1.00  0.00    -0.237 OA
ATOM    102  O   UNL A   1      45.548  35.617  26.499  1.00  0.00    -0.237 OA
ATOM    103  O   UNL A   1      47.481  34.568  25.393  1.00  0.00    -0.744 OA
ENDBRANCH  99 100
ENDBRANCH  67  92
ENDBRANCH  41  42
ENDBRANCH  33  36
ENDBRANCH  31  32
ENDBRANCH  30  31
ENDBRANCH  29  30
ENDBRANCH   1  29
TORSDOF 21
ENDMDL
