MODEL 1
REMARK VINA RESULT:     -11.3      0.000      0.000
REMARK SMILES CC(C)n1cncc1[C@@H](NC(=O)OC(C)(C)C)C(=O)NCCCCNC(=O)c1ccc(-c2c3nc(c(-c4c(F)cc(S(=O)(=O)[O-])cc4F)c4ccc([nH]4)c(-c4c(F)cc(S(=O)(=O)[O-])cc4F)c4nc(c(-c5c(F)cc(S(=O)(=O)[O-])cc5F)c5ccc2[nH]5)C=C4)C=C3)cc1
REMARK SMILES IDX 22 1 21 2 20 3 18 4 19 5 9 7 8 8 4 9 5 10 6 11 7 12 2 13
REMARK SMILES IDX 1 14 3 15 10 16 11 17 12 19 13 20 14 21 15 22 16 23 17 24
REMARK SMILES IDX 23 25 24 26 25 27 26 28 27 30 28 31 29 32 93 33 30 34 92 35
REMARK SMILES IDX 31 36 32 37 33 38 86 39 34 40 91 41 85 42 87 43 35 44 90 45
REMARK SMILES IDX 84 46 83 47 36 49 70 50 49 51 69 52 50 53 53 54 68 55 88 56
REMARK SMILES IDX 51 57 52 58 67 60 89 61 54 62 37 63 38 64 47 65 39 66 40 67
REMARK SMILES IDX 46 68 48 69 41 70 42 71 43 72 44 73 45 74 71 75 72 76 81 77
REMARK SMILES IDX 73 78 74 79 80 80 82 81 75 82 76 83 77 84 78 85 79 86 55 87
REMARK SMILES IDX 56 88 65 89 57 90 58 91 64 92 66 93 59 94 60 95 61 96 62 97
REMARK SMILES IDX 63 98
REMARK H PARENT 20 6 10 18 25 29 87 48 53 59
REMARK Flexibility Score: inf
ROOT
ATOM      1  C   UNL A   1      38.104  23.576  26.176  1.00  0.00     0.023 C 
ENDROOT
BRANCH   1   2
ATOM      2  C   UNL A   1      36.676  23.393  25.663  1.00  0.00     0.116 C 
BRANCH   2   3
ATOM      3  N   UNL A   1      35.874  22.574  26.546  1.00  0.00    -0.354 N 
ATOM      4  C   UNL A   1      34.516  22.511  26.683  1.00  0.00     0.248 C 
ATOM      5  O   UNL A   1      34.085  21.780  27.586  1.00  0.00    -0.272 OA
ATOM      6  H   UNL A   1      36.383  21.973  27.136  1.00  0.00     0.163 HD
BRANCH   4   7
ATOM      7  C   UNL A   1      33.524  23.420  25.882  1.00  0.00     0.223 C 
BRANCH   7   8
ATOM      8  C   UNL A   1      32.934  22.577  24.774  1.00  0.00     0.070 A 
ATOM      9  N   UNL A   1      32.591  23.012  23.513  1.00  0.00    -0.330 N 
ATOM     10  C   UNL A   1      32.420  21.894  22.736  1.00  0.00     0.199 A 
ATOM     11  N   UNL A   1      32.391  20.801  23.458  1.00  0.00    -0.245 NA
ATOM     12  C   UNL A   1      32.658  21.218  24.729  1.00  0.00     0.137 A 
BRANCH   9  13
ATOM     13  C   UNL A   1      32.291  24.374  23.084  1.00  0.00     0.082 C 
ATOM     14  C   UNL A   1      32.877  24.686  21.712  1.00  0.00     0.031 C 
ATOM     15  C   UNL A   1      30.782  24.651  23.117  1.00  0.00     0.031 C 
ENDBRANCH   9  13
ENDBRANCH   7   8
BRANCH   7  16
ATOM     16  N   UNL A   1      32.398  24.056  26.532  1.00  0.00    -0.304 N 
ATOM     17  C   UNL A   1      32.071  25.375  26.547  1.00  0.00     0.408 C 
ATOM     18  H   UNL A   1      31.791  23.457  27.025  1.00  0.00     0.168 HD
ATOM     19  O   UNL A   1      30.966  25.719  26.920  1.00  0.00    -0.225 OA
BRANCH  17  20
ATOM     20  O   UNL A   1      33.122  26.181  26.269  1.00  0.00    -0.444 OA
BRANCH  20  21
ATOM     21  C   UNL A   1      32.868  27.489  25.705  1.00  0.00     0.106 C 
ATOM     22  C   UNL A   1      33.092  28.572  26.753  1.00  0.00     0.056 C 
ATOM     23  C   UNL A   1      33.745  27.712  24.469  1.00  0.00     0.056 C 
ATOM     24  C   UNL A   1      31.386  27.497  25.279  1.00  0.00     0.056 C 
ENDBRANCH  20  21
ENDBRANCH  17  20
ENDBRANCH   7  16
ENDBRANCH   4   7
ENDBRANCH   2   3
ENDBRANCH   1   2
BRANCH   1  25
ATOM     25  C   UNL A   1      38.941  22.291  26.208  1.00  0.00     0.023 C 
BRANCH  25  26
ATOM     26  C   UNL A   1      40.128  22.323  27.167  1.00  0.00     0.116 C 
BRANCH  26  27
ATOM     27  N   UNL A   1      41.432  22.157  26.506  1.00  0.00    -0.352 N 
ATOM     28  C   UNL A   1      42.239  23.141  25.944  1.00  0.00     0.251 C 
ATOM     29  H   UNL A   1      41.775  21.236  26.456  1.00  0.00     0.163 HD
ATOM     30  O   UNL A   1      43.063  22.867  25.080  1.00  0.00    -0.269 OA
BRANCH  28  31
ATOM     31  C   UNL A   1      42.116  24.519  26.458  1.00  0.00     0.039 A 
ATOM     32  C   UNL A   1      41.281  25.504  25.921  1.00  0.00     0.014 A 
ATOM     33  C   UNL A   1      42.883  24.793  27.578  1.00  0.00     0.014 A 
ATOM     34  C   UNL A   1      41.207  26.747  26.565  1.00  0.00     0.010 A 
ATOM     35  C   UNL A   1      42.590  25.881  28.340  1.00  0.00     0.010 A 
ATOM     36  C   UNL A   1      41.881  26.925  27.781  1.00  0.00    -0.014 A 
BRANCH  36  37
ATOM     37  C   UNL A   1      41.792  28.113  28.620  1.00  0.00     0.031 A 
ATOM     38  C   UNL A   1      42.881  29.086  28.379  1.00  0.00     0.074 A 
ATOM     39  C   UNL A   1      40.662  28.426  29.302  1.00  0.00     0.049 A 
ATOM     40  N   UNL A   1      43.843  29.380  29.187  1.00  0.00    -0.248 NA
ATOM     41  C   UNL A   1      43.044  29.652  27.029  1.00  0.00     0.031 C 
ATOM     42  C   UNL A   1      39.423  27.653  29.428  1.00  0.00     0.029 A 
ATOM     43  N   UNL A   1      40.342  29.576  29.961  1.00  0.00    -0.354 N 
ATOM     44  C   UNL A   1      44.564  30.382  28.551  1.00  0.00     0.074 A 
ATOM     45  C   UNL A   1      44.197  30.311  27.163  1.00  0.00     0.031 C 
ATOM     46  C   UNL A   1      38.422  28.440  29.890  1.00  0.00     0.029 A 
ATOM     47  C   UNL A   1      38.983  29.719  30.271  1.00  0.00     0.049 A 
ATOM     48  H   UNL A   1      41.014  30.253  30.202  1.00  0.00     0.167 HD
ATOM     49  C   UNL A   1      45.156  31.373  29.277  1.00  0.00     0.037 A 
ATOM     50  C   UNL A   1      38.380  30.796  30.849  1.00  0.00     0.037 A 
ATOM     51  C   UNL A   1      45.228  31.006  30.675  1.00  0.00     0.049 A 
ATOM     52  C   UNL A   1      39.452  31.523  31.572  1.00  0.00     0.074 A 
ATOM     53  C   UNL A   1      45.789  29.953  31.374  1.00  0.00     0.029 A 
ATOM     54  N   UNL A   1      44.300  31.560  31.526  1.00  0.00    -0.354 N 
ATOM     55  N   UNL A   1      40.096  31.009  32.587  1.00  0.00    -0.248 NA
ATOM     56  C   UNL A   1      40.157  32.562  30.839  1.00  0.00     0.031 C 
ATOM     57  C   UNL A   1      44.833  29.627  32.382  1.00  0.00     0.029 A 
ATOM     58  C   UNL A   1      43.790  30.552  32.308  1.00  0.00     0.049 A 
ATOM     59  H   UNL A   1      44.046  32.511  31.568  1.00  0.00     0.167 HD
ATOM     60  C   UNL A   1      41.426  31.330  32.359  1.00  0.00     0.074 A 
ATOM     61  C   UNL A   1      41.393  32.338  31.295  1.00  0.00     0.031 C 
ATOM     62  C   UNL A   1      42.438  30.536  32.824  1.00  0.00     0.037 A 
BRANCH  49  63
ATOM     63  C   UNL A   1      45.288  32.808  28.813  1.00  0.00     0.058 A 
ATOM     64  C   UNL A   1      46.565  33.407  28.822  1.00  0.00     0.135 A 
ATOM     65  C   UNL A   1      44.206  33.700  28.629  1.00  0.00     0.135 A 
ATOM     66  F   UNL A   1      47.670  32.660  28.977  1.00  0.00    -0.206 F 
ATOM     67  C   UNL A   1      46.745  34.789  28.757  1.00  0.00     0.059 A 
ATOM     68  C   UNL A   1      44.367  35.074  28.509  1.00  0.00     0.059 A 
ATOM     69  F   UNL A   1      42.928  33.308  28.652  1.00  0.00    -0.206 F 
ATOM     70  C   UNL A   1      45.634  35.615  28.621  1.00  0.00     0.060 A 
BRANCH  70  71
ATOM     71  S   UNL A   1      45.848  37.401  28.657  1.00  0.00     0.124 S 
ATOM     72  O   UNL A   1      47.278  37.526  28.400  1.00  0.00    -0.237 OA
ATOM     73  O   UNL A   1      44.962  37.831  27.582  1.00  0.00    -0.237 OA
ATOM     74  O   UNL A   1      45.413  37.763  30.004  1.00  0.00    -0.744 OA
ENDBRANCH  70  71
ENDBRANCH  49  63
BRANCH  50  75
ATOM     75  C   UNL A   1      37.111  31.463  30.433  1.00  0.00     0.058 A 
ATOM     76  C   UNL A   1      36.210  32.036  31.348  1.00  0.00     0.135 A 
ATOM     77  C   UNL A   1      36.904  31.806  29.083  1.00  0.00     0.135 A 
ATOM     78  F   UNL A   1      36.377  31.840  32.665  1.00  0.00    -0.206 F 
ATOM     79  C   UNL A   1      35.158  32.879  30.945  1.00  0.00     0.059 A 
ATOM     80  C   UNL A   1      35.845  32.607  28.650  1.00  0.00     0.059 A 
ATOM     81  F   UNL A   1      37.805  31.454  28.155  1.00  0.00    -0.206 F 
ATOM     82  C   UNL A   1      34.984  33.159  29.589  1.00  0.00     0.060 A 
BRANCH  82  83
ATOM     83  S   UNL A   1      33.705  34.333  29.065  1.00  0.00     0.124 S 
ATOM     84  O   UNL A   1      32.934  33.545  28.109  1.00  0.00    -0.237 OA
ATOM     85  O   UNL A   1      33.037  34.640  30.325  1.00  0.00    -0.237 OA
ATOM     86  O   UNL A   1      34.472  35.433  28.483  1.00  0.00    -0.744 OA
ENDBRANCH  82  83
ENDBRANCH  50  75
BRANCH  62  87
ATOM     87  C   UNL A   1      42.096  29.430  33.798  1.00  0.00     0.058 A 
ATOM     88  C   UNL A   1      41.870  28.085  33.443  1.00  0.00     0.135 A 
ATOM     89  C   UNL A   1      42.173  29.714  35.167  1.00  0.00     0.135 A 
ATOM     90  F   UNL A   1      41.874  27.701  32.162  1.00  0.00    -0.206 F 
ATOM     91  C   UNL A   1      41.701  27.081  34.402  1.00  0.00     0.059 A 
ATOM     92  C   UNL A   1      42.034  28.728  36.141  1.00  0.00     0.059 A 
ATOM     93  F   UNL A   1      42.446  30.964  35.575  1.00  0.00    -0.206 F 
ATOM     94  C   UNL A   1      41.787  27.413  35.753  1.00  0.00     0.060 A 
BRANCH  94  95
ATOM     95  S   UNL A   1      41.642  26.110  36.997  1.00  0.00     0.124 S 
ATOM     96  O   UNL A   1      40.301  26.338  37.524  1.00  0.00    -0.237 OA
ATOM     97  O   UNL A   1      41.814  24.895  36.207  1.00  0.00    -0.237 OA
ATOM     98  O   UNL A   1      42.733  26.400  37.924  1.00  0.00    -0.744 OA
ENDBRANCH  94  95
ENDBRANCH  62  87
ENDBRANCH  36  37
ENDBRANCH  28  31
ENDBRANCH  26  27
ENDBRANCH  25  26
ENDBRANCH   1  25
TORSDOF 19
ENDMDL
MODEL 2
REMARK VINA RESULT:     -11.3      3.101      9.140
REMARK SMILES CC(C)n1cncc1[C@@H](NC(=O)OC(C)(C)C)C(=O)NCCCCNC(=O)c1ccc(-c2c3nc(c(-c4c(F)cc(S(=O)(=O)[O-])cc4F)c4ccc([nH]4)c(-c4c(F)cc(S(=O)(=O)[O-])cc4F)c4nc(c(-c5c(F)cc(S(=O)(=O)[O-])cc5F)c5ccc2[nH]5)C=C4)C=C3)cc1
REMARK SMILES IDX 22 1 21 2 20 3 18 4 19 5 9 7 8 8 4 9 5 10 6 11 7 12 2 13
REMARK SMILES IDX 1 14 3 15 10 16 11 17 12 19 13 20 14 21 15 22 16 23 17 24
REMARK SMILES IDX 23 25 24 26 25 27 26 28 27 30 28 31 29 32 93 33 30 34 92 35
REMARK SMILES IDX 31 36 32 37 33 38 86 39 34 40 91 41 85 42 87 43 35 44 90 45
REMARK SMILES IDX 84 46 83 47 36 49 70 50 49 51 69 52 50 53 53 54 68 55 88 56
REMARK SMILES IDX 51 57 52 58 67 60 89 61 54 62 37 63 38 64 47 65 39 66 40 67
REMARK SMILES IDX 46 68 48 69 41 70 42 71 43 72 44 73 45 74 71 75 72 76 81 77
REMARK SMILES IDX 73 78 74 79 80 80 82 81 75 82 76 83 77 84 78 85 79 86 55 87
REMARK SMILES IDX 56 88 65 89 57 90 58 91 64 92 66 93 59 94 60 95 61 96 62 97
REMARK SMILES IDX 63 98
REMARK H PARENT 20 6 10 18 25 29 87 48 53 59
REMARK Flexibility Score: inf
ROOT
ATOM      1  C   UNL A   1      34.935  29.488  27.233  1.00  0.00     0.023 C 
ENDROOT
BRANCH   1   2
ATOM      2  C   UNL A   1      34.200  28.555  26.271  1.00  0.00     0.116 C 
BRANCH   2   3
ATOM      3  N   UNL A   1      34.382  28.935  24.887  1.00  0.00    -0.354 N 
ATOM      4  C   UNL A   1      34.040  28.266  23.746  1.00  0.00     0.248 C 
ATOM      5  O   UNL A   1      34.394  28.780  22.676  1.00  0.00    -0.272 OA
ATOM      6  H   UNL A   1      34.820  29.806  24.747  1.00  0.00     0.163 HD
BRANCH   4   7
ATOM      7  C   UNL A   1      33.388  26.842  23.743  1.00  0.00     0.223 C 
BRANCH   7   8
ATOM      8  C   UNL A   1      31.918  27.020  23.435  1.00  0.00     0.070 A 
ATOM      9  N   UNL A   1      30.885  26.997  24.347  1.00  0.00    -0.330 N 
ATOM     10  C   UNL A   1      29.785  27.525  23.719  1.00  0.00     0.199 A 
ATOM     11  N   UNL A   1      29.976  27.652  22.429  1.00  0.00    -0.245 NA
ATOM     12  C   UNL A   1      31.278  27.294  22.235  1.00  0.00     0.137 A 
BRANCH   9  13
ATOM     13  C   UNL A   1      30.871  26.386  25.671  1.00  0.00     0.082 C 
ATOM     14  C   UNL A   1      31.096  27.409  26.778  1.00  0.00     0.031 C 
ATOM     15  C   UNL A   1      29.579  25.591  25.907  1.00  0.00     0.031 C 
ENDBRANCH   9  13
ENDBRANCH   7   8
BRANCH   7  16
ATOM     16  N   UNL A   1      33.852  25.806  22.847  1.00  0.00    -0.304 N 
ATOM     17  C   UNL A   1      33.955  24.472  23.086  1.00  0.00     0.408 C 
ATOM     18  H   UNL A   1      34.129  26.105  21.950  1.00  0.00     0.168 HD
ATOM     19  O   UNL A   1      34.121  23.704  22.158  1.00  0.00    -0.225 OA
BRANCH  17  20
ATOM     20  O   UNL A   1      34.007  24.175  24.404  1.00  0.00    -0.444 OA
BRANCH  20  21
ATOM     21  C   UNL A   1      34.937  23.163  24.856  1.00  0.00     0.106 C 
ATOM     22  C   UNL A   1      34.493  21.784  24.384  1.00  0.00     0.056 C 
ATOM     23  C   UNL A   1      36.354  23.493  24.374  1.00  0.00     0.056 C 
ATOM     24  C   UNL A   1      34.908  23.205  26.397  1.00  0.00     0.056 C 
ENDBRANCH  20  21
ENDBRANCH  17  20
ENDBRANCH   7  16
ENDBRANCH   4   7
ENDBRANCH   2   3
ENDBRANCH   1   2
BRANCH   1  25
ATOM     25  C   UNL A   1      34.238  30.833  27.477  1.00  0.00     0.023 C 
BRANCH  25  26
ATOM     26  C   UNL A   1      35.164  31.967  27.908  1.00  0.00     0.116 C 
BRANCH  26  27
ATOM     27  N   UNL A   1      34.841  32.530  29.228  1.00  0.00    -0.352 N 
ATOM     28  C   UNL A   1      35.167  32.019  30.480  1.00  0.00     0.251 C 
ATOM     29  H   UNL A   1      34.331  33.372  29.225  1.00  0.00     0.163 HD
ATOM     30  O   UNL A   1      34.517  32.317  31.475  1.00  0.00    -0.269 OA
BRANCH  28  31
ATOM     31  C   UNL A   1      36.356  31.151  30.590  1.00  0.00     0.039 A 
ATOM     32  C   UNL A   1      36.331  29.753  30.574  1.00  0.00     0.014 A 
ATOM     33  C   UNL A   1      37.562  31.824  30.679  1.00  0.00     0.014 A 
ATOM     34  C   UNL A   1      37.549  29.059  30.605  1.00  0.00     0.010 A 
ATOM     35  C   UNL A   1      38.720  31.159  30.424  1.00  0.00     0.010 A 
ATOM     36  C   UNL A   1      38.746  29.783  30.537  1.00  0.00    -0.014 A 
BRANCH  36  37
ATOM     37  C   UNL A   1      40.076  29.194  30.434  1.00  0.00     0.031 A 
ATOM     38  C   UNL A   1      40.749  29.027  31.741  1.00  0.00     0.074 A 
ATOM     39  C   UNL A   1      40.499  28.576  29.303  1.00  0.00     0.049 A 
ATOM     40  N   UNL A   1      41.779  29.678  32.165  1.00  0.00    -0.248 NA
ATOM     41  C   UNL A   1      40.104  28.197  32.774  1.00  0.00     0.031 C 
ATOM     42  C   UNL A   1      39.821  28.468  28.008  1.00  0.00     0.029 A 
ATOM     43  N   UNL A   1      41.610  27.812  29.101  1.00  0.00    -0.354 N 
ATOM     44  C   UNL A   1      42.078  29.128  33.404  1.00  0.00     0.074 A 
ATOM     45  C   UNL A   1      40.890  28.437  33.825  1.00  0.00     0.031 C 
ATOM     46  C   UNL A   1      40.395  27.498  27.256  1.00  0.00     0.029 A 
ATOM     47  C   UNL A   1      41.592  27.043  27.931  1.00  0.00     0.049 A 
ATOM     48  H   UNL A   1      42.368  27.802  29.729  1.00  0.00     0.167 HD
ATOM     49  C   UNL A   1      43.372  29.029  33.822  1.00  0.00     0.037 A 
ATOM     50  C   UNL A   1      42.528  26.138  27.526  1.00  0.00     0.037 A 
ATOM     51  C   UNL A   1      44.232  29.870  33.015  1.00  0.00     0.049 A 
ATOM     52  C   UNL A   1      43.781  26.507  28.228  1.00  0.00     0.074 A 
ATOM     53  C   UNL A   1      44.271  31.220  32.723  1.00  0.00     0.029 A 
ATOM     54  N   UNL A   1      44.979  29.259  32.035  1.00  0.00    -0.354 N 
ATOM     55  N   UNL A   1      44.404  27.636  28.018  1.00  0.00    -0.248 NA
ATOM     56  C   UNL A   1      44.024  25.883  29.518  1.00  0.00     0.031 C 
ATOM     57  C   UNL A   1      44.602  31.288  31.336  1.00  0.00     0.029 A 
ATOM     58  C   UNL A   1      44.841  29.991  30.882  1.00  0.00     0.049 A 
ATOM     59  H   UNL A   1      45.519  28.442  32.142  1.00  0.00     0.167 HD
ATOM     60  C   UNL A   1      44.756  28.084  29.283  1.00  0.00     0.074 A 
ATOM     61  C   UNL A   1      44.544  26.932  30.163  1.00  0.00     0.031 C 
ATOM     62  C   UNL A   1      44.885  29.419  29.552  1.00  0.00     0.037 A 
BRANCH  49  63
ATOM     63  C   UNL A   1      43.915  27.892  34.661  1.00  0.00     0.058 A 
ATOM     64  C   UNL A   1      44.634  28.201  35.835  1.00  0.00     0.135 A 
ATOM     65  C   UNL A   1      44.007  26.547  34.235  1.00  0.00     0.135 A 
ATOM     66  F   UNL A   1      44.613  29.443  36.343  1.00  0.00    -0.206 F 
ATOM     67  C   UNL A   1      45.458  27.274  36.474  1.00  0.00     0.059 A 
ATOM     68  C   UNL A   1      44.780  25.595  34.887  1.00  0.00     0.059 A 
ATOM     69  F   UNL A   1      43.435  26.099  33.112  1.00  0.00    -0.206 F 
ATOM     70  C   UNL A   1      45.539  25.978  35.977  1.00  0.00     0.060 A 
BRANCH  70  71
ATOM     71  S   UNL A   1      46.690  24.813  36.723  1.00  0.00     0.124 S 
ATOM     72  O   UNL A   1      45.790  23.982  37.513  1.00  0.00    -0.237 OA
ATOM     73  O   UNL A   1      47.281  24.183  35.548  1.00  0.00    -0.237 OA
ATOM     74  O   UNL A   1      47.591  25.674  37.485  1.00  0.00    -0.744 OA
ENDBRANCH  70  71
ENDBRANCH  49  63
BRANCH  50  75
ATOM     75  C   UNL A   1      42.295  24.765  26.987  1.00  0.00     0.058 A 
ATOM     76  C   UNL A   1      43.100  24.186  25.989  1.00  0.00     0.135 A 
ATOM     77  C   UNL A   1      41.436  23.878  27.663  1.00  0.00     0.135 A 
ATOM     78  F   UNL A   1      44.014  24.932  25.349  1.00  0.00    -0.206 F 
ATOM     79  C   UNL A   1      43.040  22.817  25.671  1.00  0.00     0.059 A 
ATOM     80  C   UNL A   1      41.326  22.523  27.341  1.00  0.00     0.059 A 
ATOM     81  F   UNL A   1      40.756  24.292  28.741  1.00  0.00    -0.206 F 
ATOM     82  C   UNL A   1      42.146  21.992  26.355  1.00  0.00     0.060 A 
BRANCH  82  83
ATOM     83  S   UNL A   1      42.139  20.206  26.036  1.00  0.00     0.124 S 
ATOM     84  O   UNL A   1      43.250  20.054  25.103  1.00  0.00    -0.237 OA
ATOM     85  O   UNL A   1      42.347  19.657  27.371  1.00  0.00    -0.237 OA
ATOM     86  O   UNL A   1      40.814  19.970  25.465  1.00  0.00    -0.744 OA
ENDBRANCH  82  83
ENDBRANCH  50  75
BRANCH  62  87
ATOM     87  C   UNL A   1      44.875  30.393  28.394  1.00  0.00     0.058 A 
ATOM     88  C   UNL A   1      43.715  30.903  27.780  1.00  0.00     0.135 A 
ATOM     89  C   UNL A   1      46.094  30.964  28.008  1.00  0.00     0.135 A 
ATOM     90  F   UNL A   1      42.500  30.486  28.151  1.00  0.00    -0.206 F 
ATOM     91  C   UNL A   1      43.767  31.909  26.810  1.00  0.00     0.059 A 
ATOM     92  C   UNL A   1      46.170  31.986  27.063  1.00  0.00     0.059 A 
ATOM     93  F   UNL A   1      47.234  30.569  28.596  1.00  0.00    -0.206 F 
ATOM     94  C   UNL A   1      45.003  32.447  26.459  1.00  0.00     0.060 A 
BRANCH  94  95
ATOM     95  S   UNL A   1      45.074  33.798  25.260  1.00  0.00     0.124 S 
ATOM     96  O   UNL A   1      44.489  33.184  24.072  1.00  0.00    -0.237 OA
ATOM     97  O   UNL A   1      44.268  34.834  25.899  1.00  0.00    -0.237 OA
ATOM     98  O   UNL A   1      46.501  34.098  25.168  1.00  0.00    -0.744 OA
ENDBRANCH  94  95
ENDBRANCH  62  87
ENDBRANCH  36  37
ENDBRANCH  28  31
ENDBRANCH  26  27
ENDBRANCH  25  26
ENDBRANCH   1  25
TORSDOF 19
ENDMDL
MODEL 3
REMARK VINA RESULT:     -11.2      1.603      2.496
REMARK SMILES CC(C)n1cncc1[C@@H](NC(=O)OC(C)(C)C)C(=O)NCCCCNC(=O)c1ccc(-c2c3nc(c(-c4c(F)cc(S(=O)(=O)[O-])cc4F)c4ccc([nH]4)c(-c4c(F)cc(S(=O)(=O)[O-])cc4F)c4nc(c(-c5c(F)cc(S(=O)(=O)[O-])cc5F)c5ccc2[nH]5)C=C4)C=C3)cc1
REMARK SMILES IDX 22 1 21 2 20 3 18 4 19 5 9 7 8 8 4 9 5 10 6 11 7 12 2 13
REMARK SMILES IDX 1 14 3 15 10 16 11 17 12 19 13 20 14 21 15 22 16 23 17 24
REMARK SMILES IDX 23 25 24 26 25 27 26 28 27 30 28 31 29 32 93 33 30 34 92 35
REMARK SMILES IDX 31 36 32 37 33 38 86 39 34 40 91 41 85 42 87 43 35 44 90 45
REMARK SMILES IDX 84 46 83 47 36 49 70 50 49 51 69 52 50 53 53 54 68 55 88 56
REMARK SMILES IDX 51 57 52 58 67 60 89 61 54 62 37 63 38 64 47 65 39 66 40 67
REMARK SMILES IDX 46 68 48 69 41 70 42 71 43 72 44 73 45 74 71 75 72 76 81 77
REMARK SMILES IDX 73 78 74 79 80 80 82 81 75 82 76 83 77 84 78 85 79 86 55 87
REMARK SMILES IDX 56 88 65 89 57 90 58 91 64 92 66 93 59 94 60 95 61 96 62 97
REMARK SMILES IDX 63 98
REMARK H PARENT 20 6 10 18 25 29 87 48 53 59
REMARK Flexibility Score: inf
ROOT
ATOM      1  C   UNL A   1      36.935  21.572  24.309  1.00  0.00     0.023 C 
ENDROOT
BRANCH   1   2
ATOM      2  C   UNL A   1      35.781  20.753  24.885  1.00  0.00     0.116 C 
BRANCH   2   3
ATOM      3  N   UNL A   1      35.489  21.102  26.258  1.00  0.00    -0.354 N 
ATOM      4  C   UNL A   1      34.323  21.542  26.818  1.00  0.00     0.248 C 
ATOM      5  O   UNL A   1      34.368  21.857  28.015  1.00  0.00    -0.272 OA
ATOM      6  H   UNL A   1      36.245  21.009  26.883  1.00  0.00     0.163 HD
BRANCH   4   7
ATOM      7  C   UNL A   1      33.018  21.811  25.995  1.00  0.00     0.223 C 
BRANCH   7   8
ATOM      8  C   UNL A   1      32.685  20.539  25.248  1.00  0.00     0.070 A 
ATOM      9  N   UNL A   1      32.515  20.413  23.887  1.00  0.00    -0.330 N 
ATOM     10  C   UNL A   1      32.562  19.072  23.600  1.00  0.00     0.199 A 
ATOM     11  N   UNL A   1      32.506  18.341  24.686  1.00  0.00    -0.245 NA
ATOM     12  C   UNL A   1      32.531  19.241  25.711  1.00  0.00     0.137 A 
BRANCH   9  13
ATOM     13  C   UNL A   1      32.178  21.456  22.925  1.00  0.00     0.082 C 
ATOM     14  C   UNL A   1      33.299  22.475  22.766  1.00  0.00     0.031 C 
ATOM     15  C   UNL A   1      31.778  20.858  21.569  1.00  0.00     0.031 C 
ENDBRANCH   9  13
ENDBRANCH   7   8
BRANCH   7  16
ATOM     16  N   UNL A   1      31.791  22.217  26.645  1.00  0.00    -0.304 N 
ATOM     17  C   UNL A   1      31.327  23.477  26.855  1.00  0.00     0.408 C 
ATOM     18  H   UNL A   1      31.220  21.487  26.979  1.00  0.00     0.168 HD
ATOM     19  O   UNL A   1      30.170  23.647  27.186  1.00  0.00    -0.225 OA
BRANCH  17  20
ATOM     20  O   UNL A   1      32.303  24.413  26.805  1.00  0.00    -0.444 OA
BRANCH  20  21
ATOM     21  C   UNL A   1      32.155  25.528  25.896  1.00  0.00     0.106 C 
ATOM     22  C   UNL A   1      31.578  25.057  24.567  1.00  0.00     0.056 C 
ATOM     23  C   UNL A   1      31.285  26.618  26.532  1.00  0.00     0.056 C 
ATOM     24  C   UNL A   1      33.572  26.088  25.662  1.00  0.00     0.056 C 
ENDBRANCH  20  21
ENDBRANCH  17  20
ENDBRANCH   7  16
ENDBRANCH   4   7
ENDBRANCH   2   3
ENDBRANCH   1   2
BRANCH   1  25
ATOM     25  C   UNL A   1      36.805  23.088  24.506  1.00  0.00     0.023 C 
BRANCH  25  26
ATOM     26  C   UNL A   1      37.492  23.634  25.754  1.00  0.00     0.116 C 
BRANCH  26  27
ATOM     27  N   UNL A   1      38.432  22.691  26.378  1.00  0.00    -0.352 N 
ATOM     28  C   UNL A   1      39.709  22.949  26.865  1.00  0.00     0.251 C 
ATOM     29  H   UNL A   1      38.118  21.762  26.462  1.00  0.00     0.163 HD
ATOM     30  O   UNL A   1      40.540  22.055  26.970  1.00  0.00    -0.269 OA
BRANCH  28  31
ATOM     31  C   UNL A   1      40.021  24.323  27.306  1.00  0.00     0.039 A 
ATOM     32  C   UNL A   1      39.188  25.432  27.125  1.00  0.00     0.014 A 
ATOM     33  C   UNL A   1      41.226  24.460  27.973  1.00  0.00     0.014 A 
ATOM     34  C   UNL A   1      39.580  26.662  27.670  1.00  0.00     0.010 A 
ATOM     35  C   UNL A   1      41.452  25.570  28.726  1.00  0.00     0.010 A 
ATOM     36  C   UNL A   1      40.729  26.718  28.469  1.00  0.00    -0.014 A 
BRANCH  36  37
ATOM     37  C   UNL A   1      41.185  27.894  29.199  1.00  0.00     0.031 A 
ATOM     38  C   UNL A   1      42.314  28.592  28.545  1.00  0.00     0.074 A 
ATOM     39  C   UNL A   1      40.443  28.457  30.185  1.00  0.00     0.049 A 
ATOM     40  N   UNL A   1      43.530  28.657  28.973  1.00  0.00    -0.248 NA
ATOM     41  C   UNL A   1      42.137  29.107  27.176  1.00  0.00     0.031 C 
ATOM     42  C   UNL A   1      39.180  27.988  30.764  1.00  0.00     0.029 A 
ATOM     43  N   UNL A   1      40.616  29.649  30.824  1.00  0.00    -0.354 N 
ATOM     44  C   UNL A   1      44.197  29.468  28.064  1.00  0.00     0.074 A 
ATOM     45  C   UNL A   1      43.382  29.485  26.879  1.00  0.00     0.031 C 
ATOM     46  C   UNL A   1      38.585  28.983  31.465  1.00  0.00     0.029 A 
ATOM     47  C   UNL A   1      39.504  30.099  31.545  1.00  0.00     0.049 A 
ATOM     48  H   UNL A   1      41.460  30.154  30.781  1.00  0.00     0.167 HD
ATOM     49  C   UNL A   1      45.195  30.297  28.481  1.00  0.00     0.037 A 
ATOM     50  C   UNL A   1      39.376  31.285  32.205  1.00  0.00     0.037 A 
ATOM     51  C   UNL A   1      45.648  29.922  29.804  1.00  0.00     0.049 A 
ATOM     52  C   UNL A   1      40.757  31.747  32.484  1.00  0.00     0.074 A 
ATOM     53  C   UNL A   1      46.168  28.768  30.360  1.00  0.00     0.029 A 
ATOM     54  N   UNL A   1      45.200  30.673  30.865  1.00  0.00    -0.354 N 
ATOM     55  N   UNL A   1      41.575  31.098  33.271  1.00  0.00    -0.248 NA
ATOM     56  C   UNL A   1      41.384  32.598  31.486  1.00  0.00     0.031 C 
ATOM     57  C   UNL A   1      45.555  28.669  31.646  1.00  0.00     0.029 A 
ATOM     58  C   UNL A   1      44.774  29.808  31.844  1.00  0.00     0.049 A 
ATOM     59  H   UNL A   1      45.186  31.656  30.915  1.00  0.00     0.167 HD
ATOM     60  C   UNL A   1      42.789  31.107  32.600  1.00  0.00     0.074 A 
ATOM     61  C   UNL A   1      42.622  32.096  31.531  1.00  0.00     0.031 C 
ATOM     62  C   UNL A   1      43.701  30.102  32.770  1.00  0.00     0.037 A 
BRANCH  49  63
ATOM     63  C   UNL A   1      45.473  31.664  27.892  1.00  0.00     0.058 A 
ATOM     64  C   UNL A   1      46.780  31.959  27.453  1.00  0.00     0.135 A 
ATOM     65  C   UNL A   1      44.605  32.777  27.992  1.00  0.00     0.135 A 
ATOM     66  F   UNL A   1      47.689  30.982  27.308  1.00  0.00    -0.206 F 
ATOM     67  C   UNL A   1      47.219  33.264  27.231  1.00  0.00     0.059 A 
ATOM     68  C   UNL A   1      45.007  34.079  27.724  1.00  0.00     0.059 A 
ATOM     69  F   UNL A   1      43.351  32.683  28.446  1.00  0.00    -0.206 F 
ATOM     70  C   UNL A   1      46.327  34.319  27.390  1.00  0.00     0.060 A 
BRANCH  70  71
ATOM     71  S   UNL A   1      46.916  36.011  27.222  1.00  0.00     0.124 S 
ATOM     72  O   UNL A   1      47.413  36.279  28.566  1.00  0.00    -0.237 OA
ATOM     73  O   UNL A   1      47.927  35.873  26.179  1.00  0.00    -0.237 OA
ATOM     74  O   UNL A   1      45.717  36.747  26.831  1.00  0.00    -0.744 OA
ENDBRANCH  70  71
ENDBRANCH  49  63
BRANCH  50  75
ATOM     75  C   UNL A   1      38.216  32.226  32.173  1.00  0.00     0.058 A 
ATOM     76  C   UNL A   1      37.737  32.813  30.989  1.00  0.00     0.135 A 
ATOM     77  C   UNL A   1      37.369  32.339  33.292  1.00  0.00     0.135 A 
ATOM     78  F   UNL A   1      38.432  32.683  29.848  1.00  0.00    -0.206 F 
ATOM     79  C   UNL A   1      36.504  33.487  30.925  1.00  0.00     0.059 A 
ATOM     80  C   UNL A   1      36.158  33.036  33.268  1.00  0.00     0.059 A 
ATOM     81  F   UNL A   1      37.650  31.670  34.419  1.00  0.00    -0.206 F 
ATOM     82  C   UNL A   1      35.720  33.592  32.075  1.00  0.00     0.060 A 
BRANCH  82  83
ATOM     83  S   UNL A   1      34.077  34.356  31.982  1.00  0.00     0.124 S 
ATOM     84  O   UNL A   1      34.351  35.730  32.390  1.00  0.00    -0.237 OA
ATOM     85  O   UNL A   1      33.730  34.165  30.578  1.00  0.00    -0.237 OA
ATOM     86  O   UNL A   1      33.285  33.575  32.930  1.00  0.00    -0.744 OA
ENDBRANCH  82  83
ENDBRANCH  50  75
BRANCH  62  87
ATOM     87  C   UNL A   1      43.473  29.102  33.883  1.00  0.00     0.058 A 
ATOM     88  C   UNL A   1      43.734  29.340  35.247  1.00  0.00     0.135 A 
ATOM     89  C   UNL A   1      42.796  27.917  33.571  1.00  0.00     0.135 A 
ATOM     90  F   UNL A   1      44.291  30.487  35.651  1.00  0.00    -0.206 F 
ATOM     91  C   UNL A   1      43.368  28.431  36.245  1.00  0.00     0.059 A 
ATOM     92  C   UNL A   1      42.398  27.007  34.549  1.00  0.00     0.059 A 
ATOM     93  F   UNL A   1      42.461  27.654  32.297  1.00  0.00    -0.206 F 
ATOM     94  C   UNL A   1      42.696  27.265  35.884  1.00  0.00     0.060 A 
BRANCH  94  95
ATOM     95  S   UNL A   1      42.156  26.120  37.173  1.00  0.00     0.124 S 
ATOM     96  O   UNL A   1      43.111  26.388  38.243  1.00  0.00    -0.237 OA
ATOM     97  O   UNL A   1      40.783  26.550  37.427  1.00  0.00    -0.237 OA
ATOM     98  O   UNL A   1      42.281  24.809  36.539  1.00  0.00    -0.744 OA
ENDBRANCH  94  95
ENDBRANCH  62  87
ENDBRANCH  36  37
ENDBRANCH  28  31
ENDBRANCH  26  27
ENDBRANCH  25  26
ENDBRANCH   1  25
TORSDOF 19
ENDMDL
