MODEL 1
REMARK VINA RESULT:     -12.2      0.000      0.000
REMARK SMILES O=C(NCCCCNC(=O)c1cccnc1-c1ccccn1)c1ccc(-c2c3nc(c(-c4c(F)cc(S(=O)(=O)[O-])cc4F)c4ccc([nH]4)c(-c4c(F)cc(S(=O)(=O)[O-])cc4F)c4nc(c(-c5c(F)cc(S(=O)(=O)[O-])cc5F)c5ccc2[nH]5)C=C4)C=C3)cc1
REMARK SMILES IDX 4 1 3 2 1 3 2 4 23 6 24 7 88 8 25 9 87 10 26 11 27 12 28 13
REMARK SMILES IDX 81 14 29 15 86 16 80 17 82 18 30 19 85 20 79 21 78 22 31 24
REMARK SMILES IDX 65 25 44 26 64 27 45 28 48 29 63 30 83 31 46 32 47 33 62 35
REMARK SMILES IDX 84 36 49 37 32 38 33 39 42 40 34 41 35 42 41 43 43 44 36 45
REMARK SMILES IDX 37 46 38 47 39 48 40 49 66 50 67 51 76 52 68 53 69 54 75 55
REMARK SMILES IDX 77 56 70 57 71 58 72 59 73 60 74 61 50 62 51 63 60 64 52 65
REMARK SMILES IDX 53 66 59 67 61 68 54 69 55 70 56 71 57 72 58 73 5 74 6 75
REMARK SMILES IDX 7 76 8 77 9 78 10 80 11 81 12 82 16 83 13 84 15 85 14 86
REMARK SMILES IDX 17 87 18 88 22 89 19 90 21 91 20 92
REMARK H PARENT 3 5 82 23 48 34 8 79
REMARK Flexibility Score: inf
ROOT
ATOM      1  C   UNL A   1      38.163  24.449  26.272  1.00  0.00     0.116 C 
ENDROOT
BRANCH   1   2
ATOM      2  N   UNL A   1      39.532  24.008  26.064  1.00  0.00    -0.352 N 
ATOM      3  O   UNL A   1      41.778  24.102  26.200  1.00  0.00    -0.269 OA
ATOM      4  C   UNL A   1      40.692  24.511  26.603  1.00  0.00     0.251 C 
ATOM      5  H   UNL A   1      39.643  23.244  25.452  1.00  0.00     0.163 HD
BRANCH   4   6
ATOM      6  C   UNL A   1      40.629  25.557  27.647  1.00  0.00     0.039 A 
ATOM      7  C   UNL A   1      39.629  25.530  28.624  1.00  0.00     0.014 A 
ATOM      8  C   UNL A   1      41.592  26.570  27.659  1.00  0.00     0.014 A 
ATOM      9  C   UNL A   1      39.526  26.573  29.538  1.00  0.00     0.010 A 
ATOM     10  C   UNL A   1      41.533  27.576  28.628  1.00  0.00     0.010 A 
ATOM     11  C   UNL A   1      40.491  27.592  29.568  1.00  0.00    -0.014 A 
BRANCH  11  12
ATOM     12  C   UNL A   1      40.460  28.589  30.667  1.00  0.00     0.031 A 
ATOM     13  C   UNL A   1      41.366  28.474  31.861  1.00  0.00     0.074 A 
ATOM     14  C   UNL A   1      39.584  29.610  30.569  1.00  0.00     0.049 A 
ATOM     15  N   UNL A   1      41.445  29.258  32.905  1.00  0.00    -0.248 NA
ATOM     16  C   UNL A   1      42.297  27.335  31.895  1.00  0.00     0.031 C 
ATOM     17  C   UNL A   1      38.636  29.802  29.465  1.00  0.00     0.029 A 
ATOM     18  N   UNL A   1      39.344  30.675  31.397  1.00  0.00    -0.354 N 
ATOM     19  C   UNL A   1      42.415  28.702  33.731  1.00  0.00     0.074 A 
ATOM     20  C   UNL A   1      42.892  27.506  33.070  1.00  0.00     0.031 C 
ATOM     21  C   UNL A   1      37.935  30.924  29.674  1.00  0.00     0.029 A 
ATOM     22  C   UNL A   1      38.337  31.500  30.951  1.00  0.00     0.049 A 
ATOM     23  H   UNL A   1      39.843  30.835  32.230  1.00  0.00     0.167 HD
ATOM     24  C   UNL A   1      42.861  29.156  34.926  1.00  0.00     0.037 A 
ATOM     25  C   UNL A   1      37.774  32.582  31.519  1.00  0.00     0.037 A 
ATOM     26  C   UNL A   1      42.395  30.365  35.557  1.00  0.00     0.049 A 
ATOM     27  C   UNL A   1      38.281  33.048  32.853  1.00  0.00     0.074 A 
ATOM     28  C   UNL A   1      42.851  30.954  36.725  1.00  0.00     0.029 A 
ATOM     29  N   UNL A   1      41.363  31.163  35.086  1.00  0.00    -0.354 N 
ATOM     30  N   UNL A   1      39.252  32.549  33.582  1.00  0.00    -0.248 NA
ATOM     31  C   UNL A   1      37.614  34.212  33.449  1.00  0.00     0.031 C 
ATOM     32  C   UNL A   1      42.060  32.078  36.987  1.00  0.00     0.029 A 
ATOM     33  C   UNL A   1      41.140  32.214  35.961  1.00  0.00     0.049 A 
ATOM     34  H   UNL A   1      40.863  31.006  34.253  1.00  0.00     0.167 HD
ATOM     35  C   UNL A   1      39.311  33.341  34.721  1.00  0.00     0.074 A 
ATOM     36  C   UNL A   1      38.301  34.368  34.572  1.00  0.00     0.031 C 
ATOM     37  C   UNL A   1      40.122  33.221  35.801  1.00  0.00     0.037 A 
BRANCH  24  38
ATOM     38  C   UNL A   1      43.904  28.354  35.655  1.00  0.00     0.058 A 
ATOM     39  C   UNL A   1      43.555  27.363  36.584  1.00  0.00     0.135 A 
ATOM     40  C   UNL A   1      45.263  28.502  35.331  1.00  0.00     0.135 A 
ATOM     41  F   UNL A   1      42.273  27.187  36.939  1.00  0.00    -0.206 F 
ATOM     42  C   UNL A   1      44.518  26.540  37.163  1.00  0.00     0.059 A 
ATOM     43  C   UNL A   1      46.240  27.678  35.884  1.00  0.00     0.059 A 
ATOM     44  F   UNL A   1      45.648  29.437  34.450  1.00  0.00    -0.206 F 
ATOM     45  C   UNL A   1      45.858  26.701  36.801  1.00  0.00     0.060 A 
BRANCH  45  46
ATOM     46  S   UNL A   1      47.087  25.588  37.519  1.00  0.00     0.124 S 
ATOM     47  O   UNL A   1      47.090  24.495  36.553  1.00  0.00    -0.237 OA
ATOM     48  O   UNL A   1      48.286  26.419  37.538  1.00  0.00    -0.237 OA
ATOM     49  O   UNL A   1      46.530  25.267  38.830  1.00  0.00    -0.744 OA
ENDBRANCH  45  46
ENDBRANCH  24  38
BRANCH  25  50
ATOM     50  C   UNL A   1      36.635  33.264  30.852  1.00  0.00     0.058 A 
ATOM     51  C   UNL A   1      36.834  34.095  29.742  1.00  0.00     0.135 A 
ATOM     52  C   UNL A   1      35.321  33.092  31.317  1.00  0.00     0.135 A 
ATOM     53  F   UNL A   1      38.073  34.291  29.264  1.00  0.00    -0.206 F 
ATOM     54  C   UNL A   1      35.774  34.757  29.131  1.00  0.00     0.059 A 
ATOM     55  C   UNL A   1      34.242  33.720  30.706  1.00  0.00     0.059 A 
ATOM     56  F   UNL A   1      35.076  32.290  32.364  1.00  0.00    -0.206 F 
ATOM     57  C   UNL A   1      34.482  34.564  29.623  1.00  0.00     0.060 A 
BRANCH  57  58
ATOM     58  S   UNL A   1      33.106  35.409  28.815  1.00  0.00     0.124 S 
ATOM     59  O   UNL A   1      33.806  36.407  28.016  1.00  0.00    -0.237 OA
ATOM     60  O   UNL A   1      32.470  34.326  28.071  1.00  0.00    -0.237 OA
ATOM     61  O   UNL A   1      32.328  35.928  29.937  1.00  0.00    -0.744 OA
ENDBRANCH  57  58
ENDBRANCH  25  50
BRANCH  37  62
ATOM     62  C   UNL A   1      39.945  34.225  36.902  1.00  0.00     0.058 A 
ATOM     63  C   UNL A   1      40.554  35.488  36.842  1.00  0.00     0.135 A 
ATOM     64  C   UNL A   1      39.131  33.939  38.010  1.00  0.00     0.135 A 
ATOM     65  F   UNL A   1      41.352  35.804  35.809  1.00  0.00    -0.206 F 
ATOM     66  C   UNL A   1      40.378  36.427  37.851  1.00  0.00     0.059 A 
ATOM     67  C   UNL A   1      38.920  34.873  39.018  1.00  0.00     0.059 A 
ATOM     68  F   UNL A   1      38.522  32.747  38.111  1.00  0.00    -0.206 F 
ATOM     69  C   UNL A   1      39.557  36.111  38.935  1.00  0.00     0.060 A 
BRANCH  69  70
ATOM     70  S   UNL A   1      39.308  37.352  40.221  1.00  0.00     0.124 S 
ATOM     71  O   UNL A   1      38.482  38.334  39.526  1.00  0.00    -0.237 OA
ATOM     72  O   UNL A   1      38.639  36.589  41.269  1.00  0.00    -0.237 OA
ATOM     73  O   UNL A   1      40.665  37.787  40.540  1.00  0.00    -0.744 OA
ENDBRANCH  69  70
ENDBRANCH  37  62
ENDBRANCH  11  12
ENDBRANCH   4   6
ENDBRANCH   1   2
BRANCH   1  74
ATOM     74  C   UNL A   1      37.149  23.321  26.139  1.00  0.00     0.023 C 
BRANCH  74  75
ATOM     75  C   UNL A   1      37.247  22.497  24.857  1.00  0.00     0.023 C 
BRANCH  75  76
ATOM     76  C   UNL A   1      36.457  21.191  24.852  1.00  0.00     0.116 C 
BRANCH  76  77
ATOM     77  N   UNL A   1      35.540  21.080  25.976  1.00  0.00    -0.352 N 
ATOM     78  C   UNL A   1      34.168  21.057  25.993  1.00  0.00     0.253 C 
ATOM     79  H   UNL A   1      35.970  21.010  26.859  1.00  0.00     0.163 HD
ATOM     80  O   UNL A   1      33.570  20.968  27.061  1.00  0.00    -0.269 OA
BRANCH  78  81
ATOM     81  C   UNL A   1      33.425  21.130  24.726  1.00  0.00     0.067 A 
ATOM     82  C   UNL A   1      33.174  22.383  24.153  1.00  0.00     0.018 A 
ATOM     83  C   UNL A   1      32.992  19.977  24.067  1.00  0.00     0.101 A 
ATOM     84  C   UNL A   1      32.441  22.460  22.975  1.00  0.00     0.021 A 
ATOM     85  N   UNL A   1      32.252  20.054  22.918  1.00  0.00    -0.254 NA
ATOM     86  C   UNL A   1      32.000  21.279  22.406  1.00  0.00     0.112 A 
BRANCH  83  87
ATOM     87  C   UNL A   1      33.277  18.613  24.544  1.00  0.00     0.089 A 
ATOM     88  C   UNL A   1      34.466  17.951  24.232  1.00  0.00     0.031 A 
ATOM     89  N   UNL A   1      32.303  18.029  25.294  1.00  0.00    -0.255 NA
ATOM     90  C   UNL A   1      34.648  16.642  24.676  1.00  0.00     0.004 A 
ATOM     91  C   UNL A   1      32.505  16.758  25.700  1.00  0.00     0.112 A 
ATOM     92  C   UNL A   1      33.647  16.031  25.418  1.00  0.00     0.020 A 
ENDBRANCH  83  87
ENDBRANCH  78  81
ENDBRANCH  76  77
ENDBRANCH  75  76
ENDBRANCH  74  75
ENDBRANCH   1  74
TORSDOF 15
ENDMDL
MODEL 2
REMARK VINA RESULT:     -12.0      7.508     12.866
REMARK SMILES O=C(NCCCCNC(=O)c1cccnc1-c1ccccn1)c1ccc(-c2c3nc(c(-c4c(F)cc(S(=O)(=O)[O-])cc4F)c4ccc([nH]4)c(-c4c(F)cc(S(=O)(=O)[O-])cc4F)c4nc(c(-c5c(F)cc(S(=O)(=O)[O-])cc5F)c5ccc2[nH]5)C=C4)C=C3)cc1
REMARK SMILES IDX 4 1 3 2 1 3 2 4 23 6 24 7 88 8 25 9 87 10 26 11 27 12 28 13
REMARK SMILES IDX 81 14 29 15 86 16 80 17 82 18 30 19 85 20 79 21 78 22 31 24
REMARK SMILES IDX 65 25 44 26 64 27 45 28 48 29 63 30 83 31 46 32 47 33 62 35
REMARK SMILES IDX 84 36 49 37 32 38 33 39 42 40 34 41 35 42 41 43 43 44 36 45
REMARK SMILES IDX 37 46 38 47 39 48 40 49 66 50 67 51 76 52 68 53 69 54 75 55
REMARK SMILES IDX 77 56 70 57 71 58 72 59 73 60 74 61 50 62 51 63 60 64 52 65
REMARK SMILES IDX 53 66 59 67 61 68 54 69 55 70 56 71 57 72 58 73 5 74 6 75
REMARK SMILES IDX 7 76 8 77 9 78 10 80 11 81 12 82 16 83 13 84 15 85 14 86
REMARK SMILES IDX 17 87 18 88 22 89 19 90 21 91 20 92
REMARK H PARENT 3 5 82 23 48 34 8 79
REMARK Flexibility Score: inf
ROOT
ATOM      1  C   UNL A   1      35.376  29.416  27.466  1.00  0.00     0.116 C 
ENDROOT
BRANCH   1   2
ATOM      2  N   UNL A   1      35.251  30.011  28.786  1.00  0.00    -0.352 N 
ATOM      3  O   UNL A   1      35.899  30.582  30.866  1.00  0.00    -0.269 OA
ATOM      4  C   UNL A   1      36.218  30.189  29.747  1.00  0.00     0.251 C 
ATOM      5  H   UNL A   1      34.351  30.331  29.024  1.00  0.00     0.163 HD
BRANCH   4   6
ATOM      6  C   UNL A   1      37.632  29.884  29.437  1.00  0.00     0.039 A 
ATOM      7  C   UNL A   1      38.524  29.523  30.453  1.00  0.00     0.014 A 
ATOM      8  C   UNL A   1      38.069  29.943  28.111  1.00  0.00     0.014 A 
ATOM      9  C   UNL A   1      39.870  29.335  30.158  1.00  0.00     0.010 A 
ATOM     10  C   UNL A   1      39.408  29.677  27.805  1.00  0.00     0.010 A 
ATOM     11  C   UNL A   1      40.321  29.384  28.829  1.00  0.00    -0.014 A 
BRANCH  11  12
ATOM     12  C   UNL A   1      41.722  28.999  28.525  1.00  0.00     0.031 A 
ATOM     13  C   UNL A   1      42.834  30.010  28.525  1.00  0.00     0.074 A 
ATOM     14  C   UNL A   1      41.974  27.705  28.242  1.00  0.00     0.049 A 
ATOM     15  N   UNL A   1      44.104  29.829  28.266  1.00  0.00    -0.248 NA
ATOM     16  C   UNL A   1      42.483  31.402  28.847  1.00  0.00     0.031 C 
ATOM     17  C   UNL A   1      40.962  26.644  28.186  1.00  0.00     0.029 A 
ATOM     18  N   UNL A   1      43.146  27.057  27.950  1.00  0.00    -0.354 N 
ATOM     19  C   UNL A   1      44.701  31.079  28.373  1.00  0.00     0.074 A 
ATOM     20  C   UNL A   1      43.652  32.017  28.712  1.00  0.00     0.031 C 
ATOM     21  C   UNL A   1      41.559  25.479  27.900  1.00  0.00     0.029 A 
ATOM     22  C   UNL A   1      42.982  25.716  27.693  1.00  0.00     0.049 A 
ATOM     23  H   UNL A   1      44.021  27.508  27.925  1.00  0.00     0.167 HD
ATOM     24  C   UNL A   1      46.005  31.404  28.206  1.00  0.00     0.037 A 
ATOM     25  C   UNL A   1      43.870  24.783  27.302  1.00  0.00     0.037 A 
ATOM     26  C   UNL A   1      47.043  30.453  27.896  1.00  0.00     0.049 A 
ATOM     27  C   UNL A   1      45.304  25.182  27.108  1.00  0.00     0.074 A 
ATOM     28  C   UNL A   1      48.407  30.673  27.794  1.00  0.00     0.029 A 
ATOM     29  N   UNL A   1      46.836  29.108  27.625  1.00  0.00    -0.354 N 
ATOM     30  N   UNL A   1      45.861  26.357  27.288  1.00  0.00    -0.248 NA
ATOM     31  C   UNL A   1      46.228  24.138  26.649  1.00  0.00     0.031 C 
ATOM     32  C   UNL A   1      49.017  29.474  27.410  1.00  0.00     0.029 A 
ATOM     33  C   UNL A   1      48.040  28.498  27.315  1.00  0.00     0.049 A 
ATOM     34  H   UNL A   1      45.962  28.656  27.649  1.00  0.00     0.167 HD
ATOM     35  C   UNL A   1      47.200  26.190  26.964  1.00  0.00     0.074 A 
ATOM     36  C   UNL A   1      47.377  24.798  26.608  1.00  0.00     0.031 C 
ATOM     37  C   UNL A   1      48.194  27.112  26.953  1.00  0.00     0.037 A 
BRANCH  24  38
ATOM     38  C   UNL A   1      46.409  32.847  28.341  1.00  0.00     0.058 A 
ATOM     39  C   UNL A   1      46.366  33.730  27.252  1.00  0.00     0.135 A 
ATOM     40  C   UNL A   1      46.728  33.375  29.603  1.00  0.00     0.135 A 
ATOM     41  F   UNL A   1      46.078  33.276  26.022  1.00  0.00    -0.206 F 
ATOM     42  C   UNL A   1      46.621  35.090  27.410  1.00  0.00     0.059 A 
ATOM     43  C   UNL A   1      46.970  34.734  29.787  1.00  0.00     0.059 A 
ATOM     44  F   UNL A   1      46.784  32.571  30.676  1.00  0.00    -0.206 F 
ATOM     45  C   UNL A   1      46.915  35.584  28.684  1.00  0.00     0.060 A 
BRANCH  45  46
ATOM     46  S   UNL A   1      47.189  37.359  28.880  1.00  0.00     0.124 S 
ATOM     47  O   UNL A   1      47.639  37.733  27.543  1.00  0.00    -0.237 OA
ATOM     48  O   UNL A   1      45.864  37.838  29.259  1.00  0.00    -0.237 OA
ATOM     49  O   UNL A   1      48.202  37.434  29.927  1.00  0.00    -0.744 OA
ENDBRANCH  45  46
ENDBRANCH  24  38
BRANCH  25  50
ATOM     50  C   UNL A   1      43.415  23.398  27.019  1.00  0.00     0.058 A 
ATOM     51  C   UNL A   1      43.176  22.484  28.055  1.00  0.00     0.135 A 
ATOM     52  C   UNL A   1      43.208  22.962  25.700  1.00  0.00     0.135 A 
ATOM     53  F   UNL A   1      43.362  22.854  29.331  1.00  0.00    -0.206 F 
ATOM     54  C   UNL A   1      42.777  21.177  27.793  1.00  0.00     0.059 A 
ATOM     55  C   UNL A   1      42.782  21.671  25.414  1.00  0.00     0.059 A 
ATOM     56  F   UNL A   1      43.403  23.806  24.674  1.00  0.00    -0.206 F 
ATOM     57  C   UNL A   1      42.585  20.781  26.468  1.00  0.00     0.060 A 
BRANCH  57  58
ATOM     58  S   UNL A   1      42.047  19.090  26.134  1.00  0.00     0.124 S 
ATOM     59  O   UNL A   1      40.648  19.294  25.780  1.00  0.00    -0.237 OA
ATOM     60  O   UNL A   1      42.932  18.692  25.043  1.00  0.00    -0.237 OA
ATOM     61  O   UNL A   1      42.286  18.408  27.403  1.00  0.00    -0.744 OA
ENDBRANCH  57  58
ENDBRANCH  25  50
BRANCH  37  62
ATOM     62  C   UNL A   1      49.557  26.640  26.537  1.00  0.00     0.058 A 
ATOM     63  C   UNL A   1      50.420  26.013  27.450  1.00  0.00     0.135 A 
ATOM     64  C   UNL A   1      49.993  26.781  25.211  1.00  0.00     0.135 A 
ATOM     65  F   UNL A   1      50.054  25.866  28.734  1.00  0.00    -0.206 F 
ATOM     66  C   UNL A   1      51.676  25.558  27.066  1.00  0.00     0.059 A 
ATOM     67  C   UNL A   1      51.234  26.311  24.798  1.00  0.00     0.059 A 
ATOM     68  F   UNL A   1      49.202  27.369  24.298  1.00  0.00    -0.206 F 
ATOM     69  C   UNL A   1      52.074  25.710  25.736  1.00  0.00     0.060 A 
BRANCH  69  70
ATOM     70  S   UNL A   1      53.693  25.083  25.242  1.00  0.00     0.124 S 
ATOM     71  O   UNL A   1      53.490  23.641  25.334  1.00  0.00    -0.237 OA
ATOM     72  O   UNL A   1      53.838  25.618  23.893  1.00  0.00    -0.237 OA
ATOM     73  O   UNL A   1      54.595  25.655  26.237  1.00  0.00    -0.744 OA
ENDBRANCH  69  70
ENDBRANCH  37  62
ENDBRANCH  11  12
ENDBRANCH   4   6
ENDBRANCH   1   2
BRANCH   1  74
ATOM     74  C   UNL A   1      34.049  28.912  26.915  1.00  0.00     0.023 C 
BRANCH  74  75
ATOM     75  C   UNL A   1      32.841  29.806  27.187  1.00  0.00     0.023 C 
BRANCH  75  76
ATOM     76  C   UNL A   1      31.791  29.849  26.081  1.00  0.00     0.116 C 
BRANCH  76  77
ATOM     77  N   UNL A   1      32.370  29.790  24.748  1.00  0.00    -0.352 N 
ATOM     78  C   UNL A   1      32.020  29.016  23.670  1.00  0.00     0.253 C 
ATOM     79  H   UNL A   1      33.129  30.398  24.596  1.00  0.00     0.163 HD
ATOM     80  O   UNL A   1      32.649  29.106  22.621  1.00  0.00    -0.269 OA
BRANCH  78  81
ATOM     81  C   UNL A   1      30.883  28.089  23.781  1.00  0.00     0.067 A 
ATOM     82  C   UNL A   1      31.091  26.815  24.324  1.00  0.00     0.018 A 
ATOM     83  C   UNL A   1      29.596  28.463  23.387  1.00  0.00     0.101 A 
ATOM     84  C   UNL A   1      30.028  25.923  24.396  1.00  0.00     0.021 A 
ATOM     85  N   UNL A   1      28.554  27.578  23.440  1.00  0.00    -0.254 NA
ATOM     86  C   UNL A   1      28.793  26.344  23.939  1.00  0.00     0.112 A 
BRANCH  83  87
ATOM     87  C   UNL A   1      29.258  29.806  22.883  1.00  0.00     0.089 A 
ATOM     88  C   UNL A   1      29.043  30.887  23.739  1.00  0.00     0.031 A 
ATOM     89  N   UNL A   1      29.152  29.924  21.532  1.00  0.00    -0.255 NA
ATOM     90  C   UNL A   1      28.679  32.118  23.195  1.00  0.00     0.004 A 
ATOM     91  C   UNL A   1      28.787  31.126  21.037  1.00  0.00     0.112 A 
ATOM     92  C   UNL A   1      28.541  32.240  21.819  1.00  0.00     0.020 A 
ENDBRANCH  83  87
ENDBRANCH  78  81
ENDBRANCH  76  77
ENDBRANCH  75  76
ENDBRANCH  74  75
ENDBRANCH   1  74
TORSDOF 15
ENDMDL
MODEL 3
REMARK VINA RESULT:     -11.8      4.898      9.838
REMARK SMILES O=C(NCCCCNC(=O)c1cccnc1-c1ccccn1)c1ccc(-c2c3nc(c(-c4c(F)cc(S(=O)(=O)[O-])cc4F)c4ccc([nH]4)c(-c4c(F)cc(S(=O)(=O)[O-])cc4F)c4nc(c(-c5c(F)cc(S(=O)(=O)[O-])cc5F)c5ccc2[nH]5)C=C4)C=C3)cc1
REMARK SMILES IDX 4 1 3 2 1 3 2 4 23 6 24 7 88 8 25 9 87 10 26 11 27 12 28 13
REMARK SMILES IDX 81 14 29 15 86 16 80 17 82 18 30 19 85 20 79 21 78 22 31 24
REMARK SMILES IDX 65 25 44 26 64 27 45 28 48 29 63 30 83 31 46 32 47 33 62 35
REMARK SMILES IDX 84 36 49 37 32 38 33 39 42 40 34 41 35 42 41 43 43 44 36 45
REMARK SMILES IDX 37 46 38 47 39 48 40 49 66 50 67 51 76 52 68 53 69 54 75 55
REMARK SMILES IDX 77 56 70 57 71 58 72 59 73 60 74 61 50 62 51 63 60 64 52 65
REMARK SMILES IDX 53 66 59 67 61 68 54 69 55 70 56 71 57 72 58 73 5 74 6 75
REMARK SMILES IDX 7 76 8 77 9 78 10 80 11 81 12 82 16 83 13 84 15 85 14 86
REMARK SMILES IDX 17 87 18 88 22 89 19 90 21 91 20 92
REMARK H PARENT 3 5 82 23 48 34 8 79
REMARK Flexibility Score: inf
ROOT
ATOM      1  C   UNL A   1      33.761  28.214  27.211  1.00  0.00     0.116 C 
ENDROOT
BRANCH   1   2
ATOM      2  N   UNL A   1      33.567  29.612  27.558  1.00  0.00    -0.352 N 
ATOM      3  O   UNL A   1      34.072  31.601  28.484  1.00  0.00    -0.269 OA
ATOM      4  C   UNL A   1      34.456  30.490  28.128  1.00  0.00     0.251 C 
ATOM      5  H   UNL A   1      32.676  29.979  27.356  1.00  0.00     0.163 HD
BRANCH   4   6
ATOM      6  C   UNL A   1      35.865  30.087  28.332  1.00  0.00     0.039 A 
ATOM      7  C   UNL A   1      36.793  30.185  27.291  1.00  0.00     0.014 A 
ATOM      8  C   UNL A   1      36.267  29.620  29.587  1.00  0.00     0.014 A 
ATOM      9  C   UNL A   1      38.088  29.710  27.471  1.00  0.00     0.010 A 
ATOM     10  C   UNL A   1      37.591  29.217  29.789  1.00  0.00     0.010 A 
ATOM     11  C   UNL A   1      38.509  29.247  28.728  1.00  0.00    -0.014 A 
BRANCH  11  12
ATOM     12  C   UNL A   1      39.941  28.920  28.938  1.00  0.00     0.031 A 
ATOM     13  C   UNL A   1      40.512  27.587  28.543  1.00  0.00     0.074 A 
ATOM     14  C   UNL A   1      40.726  29.859  29.504  1.00  0.00     0.049 A 
ATOM     15  N   UNL A   1      41.738  27.151  28.676  1.00  0.00    -0.248 NA
ATOM     16  C   UNL A   1      39.595  26.615  27.928  1.00  0.00     0.031 C 
ATOM     17  C   UNL A   1      40.268  31.179  29.953  1.00  0.00     0.029 A 
ATOM     18  N   UNL A   1      42.065  29.859  29.798  1.00  0.00    -0.354 N 
ATOM     19  C   UNL A   1      41.740  25.852  28.182  1.00  0.00     0.074 A 
ATOM     20  C   UNL A   1      40.388  25.564  27.755  1.00  0.00     0.031 C 
ATOM     21  C   UNL A   1      41.308  31.865  30.445  1.00  0.00     0.029 A 
ATOM     22  C   UNL A   1      42.494  31.018  30.403  1.00  0.00     0.049 A 
ATOM     23  H   UNL A   1      42.661  29.102  29.597  1.00  0.00     0.167 HD
ATOM     24  C   UNL A   1      42.780  24.988  28.096  1.00  0.00     0.037 A 
ATOM     25  C   UNL A   1      43.698  31.353  30.900  1.00  0.00     0.037 A 
ATOM     26  C   UNL A   1      44.127  25.300  28.501  1.00  0.00     0.049 A 
ATOM     27  C   UNL A   1      44.824  30.364  30.804  1.00  0.00     0.074 A 
ATOM     28  C   UNL A   1      45.265  24.522  28.369  1.00  0.00     0.029 A 
ATOM     29  N   UNL A   1      44.519  26.476  29.125  1.00  0.00    -0.354 N 
ATOM     30  N   UNL A   1      44.822  29.168  30.265  1.00  0.00    -0.248 NA
ATOM     31  C   UNL A   1      46.110  30.762  31.390  1.00  0.00     0.031 C 
ATOM     32  C   UNL A   1      46.334  25.204  28.962  1.00  0.00     0.029 A 
ATOM     33  C   UNL A   1      45.871  26.425  29.423  1.00  0.00     0.049 A 
ATOM     34  H   UNL A   1      43.924  27.233  29.327  1.00  0.00     0.167 HD
ATOM     35  C   UNL A   1      46.105  28.672  30.448  1.00  0.00     0.074 A 
ATOM     36  C   UNL A   1      46.864  29.707  31.117  1.00  0.00     0.031 C 
ATOM     37  C   UNL A   1      46.608  27.461  30.100  1.00  0.00     0.037 A 
BRANCH  24  38
ATOM     38  C   UNL A   1      42.525  23.609  27.552  1.00  0.00     0.058 A 
ATOM     39  C   UNL A   1      42.585  23.336  26.178  1.00  0.00     0.135 A 
ATOM     40  C   UNL A   1      42.336  22.528  28.428  1.00  0.00     0.135 A 
ATOM     41  F   UNL A   1      42.752  24.334  25.295  1.00  0.00    -0.206 F 
ATOM     42  C   UNL A   1      42.471  22.037  25.690  1.00  0.00     0.059 A 
ATOM     43  C   UNL A   1      42.237  21.219  27.964  1.00  0.00     0.059 A 
ATOM     44  F   UNL A   1      42.269  22.737  29.752  1.00  0.00    -0.206 F 
ATOM     45  C   UNL A   1      42.305  20.984  26.592  1.00  0.00     0.060 A 
BRANCH  45  46
ATOM     46  S   UNL A   1      42.215  19.299  25.946  1.00  0.00     0.124 S 
ATOM     47  O   UNL A   1      40.788  19.168  25.672  1.00  0.00    -0.237 OA
ATOM     48  O   UNL A   1      43.082  19.368  24.774  1.00  0.00    -0.237 OA
ATOM     49  O   UNL A   1      42.720  18.484  27.047  1.00  0.00    -0.744 OA
ENDBRANCH  45  46
ENDBRANCH  24  38
BRANCH  25  50
ATOM     50  C   UNL A   1      43.884  32.661  31.579  1.00  0.00     0.058 A 
ATOM     51  C   UNL A   1      43.680  32.801  32.958  1.00  0.00     0.135 A 
ATOM     52  C   UNL A   1      44.272  33.800  30.854  1.00  0.00     0.135 A 
ATOM     53  F   UNL A   1      43.306  31.742  33.692  1.00  0.00    -0.206 F 
ATOM     54  C   UNL A   1      43.825  34.031  33.593  1.00  0.00     0.059 A 
ATOM     55  C   UNL A   1      44.452  35.032  31.470  1.00  0.00     0.059 A 
ATOM     56  F   UNL A   1      44.500  33.713  29.534  1.00  0.00    -0.206 F 
ATOM     57  C   UNL A   1      44.209  35.141  32.838  1.00  0.00     0.060 A 
BRANCH  57  58
ATOM     58  S   UNL A   1      44.417  36.730  33.669  1.00  0.00     0.124 S 
ATOM     59  O   UNL A   1      43.820  36.458  34.971  1.00  0.00    -0.237 OA
ATOM     60  O   UNL A   1      45.867  36.901  33.654  1.00  0.00    -0.237 OA
ATOM     61  O   UNL A   1      43.677  37.653  32.813  1.00  0.00    -0.744 OA
ENDBRANCH  57  58
ENDBRANCH  25  50
BRANCH  37  62
ATOM     62  C   UNL A   1      48.045  27.195  30.444  1.00  0.00     0.058 A 
ATOM     63  C   UNL A   1      48.397  26.488  31.604  1.00  0.00     0.135 A 
ATOM     64  C   UNL A   1      49.076  27.616  29.591  1.00  0.00     0.135 A 
ATOM     65  F   UNL A   1      47.446  26.076  32.459  1.00  0.00    -0.206 F 
ATOM     66  C   UNL A   1      49.725  26.224  31.917  1.00  0.00     0.059 A 
ATOM     67  C   UNL A   1      50.410  27.341  29.872  1.00  0.00     0.059 A 
ATOM     68  F   UNL A   1      48.791  28.291  28.466  1.00  0.00    -0.206 F 
ATOM     69  C   UNL A   1      50.725  26.653  31.043  1.00  0.00     0.060 A 
BRANCH  69  70
ATOM     70  S   UNL A   1      52.444  26.273  31.443  1.00  0.00     0.124 S 
ATOM     71  O   UNL A   1      52.821  27.431  32.247  1.00  0.00    -0.237 OA
ATOM     72  O   UNL A   1      52.326  25.011  32.165  1.00  0.00    -0.237 OA
ATOM     73  O   UNL A   1      53.084  26.182  30.134  1.00  0.00    -0.744 OA
ENDBRANCH  69  70
ENDBRANCH  37  62
ENDBRANCH  11  12
ENDBRANCH   4   6
ENDBRANCH   1   2
BRANCH   1  74
ATOM     74  C   UNL A   1      33.617  27.947  25.719  1.00  0.00     0.023 C 
BRANCH  74  75
ATOM     75  C   UNL A   1      32.872  26.666  25.348  1.00  0.00     0.023 C 
BRANCH  75  76
ATOM     76  C   UNL A   1      33.684  25.378  25.455  1.00  0.00     0.116 C 
BRANCH  76  77
ATOM     77  N   UNL A   1      34.319  25.004  24.202  1.00  0.00    -0.352 N 
ATOM     78  C   UNL A   1      34.487  23.765  23.636  1.00  0.00     0.253 C 
ATOM     79  H   UNL A   1      34.682  25.754  23.678  1.00  0.00     0.163 HD
ATOM     80  O   UNL A   1      35.069  23.656  22.562  1.00  0.00    -0.269 OA
BRANCH  78  81
ATOM     81  C   UNL A   1      33.960  22.576  24.324  1.00  0.00     0.067 A 
ATOM     82  C   UNL A   1      32.648  22.162  24.063  1.00  0.00     0.018 A 
ATOM     83  C   UNL A   1      34.750  21.833  25.205  1.00  0.00     0.101 A 
ATOM     84  C   UNL A   1      32.134  21.061  24.737  1.00  0.00     0.021 A 
ATOM     85  N   UNL A   1      34.236  20.762  25.884  1.00  0.00    -0.254 NA
ATOM     86  C   UNL A   1      32.957  20.406  25.635  1.00  0.00     0.112 A 
BRANCH  83  87
ATOM     87  C   UNL A   1      36.165  22.137  25.482  1.00  0.00     0.089 A 
ATOM     88  C   UNL A   1      37.191  21.248  25.162  1.00  0.00     0.031 A 
ATOM     89  N   UNL A   1      36.409  23.331  26.087  1.00  0.00    -0.255 NA
ATOM     90  C   UNL A   1      38.503  21.578  25.497  1.00  0.00     0.004 A 
ATOM     91  C   UNL A   1      37.688  23.618  26.408  1.00  0.00     0.112 A 
ATOM     92  C   UNL A   1      38.757  22.783  26.138  1.00  0.00     0.020 A 
ENDBRANCH  83  87
ENDBRANCH  78  81
ENDBRANCH  76  77
ENDBRANCH  75  76
ENDBRANCH  74  75
ENDBRANCH   1  74
TORSDOF 15
ENDMDL
