MODEL 1
REMARK VINA RESULT:     -11.4      0.000      0.000
REMARK SMILES O=C(NCCCCNC(=O)c1ccc(S(=O)(=O)NCC[NH+]2CCCC2)c(F)c1)c1ccc(-c2c3nc(c(-c4c(F)cc(S(=O)(=O)[O-])cc4F)c4ccc([nH]4)c(-c4c(F)cc(S(=O)(=O)[O-])cc4F)c4nc(c(-c5c(F)cc(S(=O)(=O)[O-])cc5F)c5ccc2[nH]5)C=C4)C=C3)cc1
REMARK SMILES IDX 6 1 5 2 4 3 3 4 1 5 2 6 29 8 30 9 94 10 31 11 93 12 32 13
REMARK SMILES IDX 33 14 34 15 87 16 35 17 92 18 86 19 88 20 36 21 91 22 85 23
REMARK SMILES IDX 84 24 37 26 71 27 50 28 70 29 51 30 54 31 69 32 89 33 52 34
REMARK SMILES IDX 53 35 68 37 90 38 55 39 38 40 39 41 48 42 40 43 41 44 47 45
REMARK SMILES IDX 49 46 42 47 43 48 44 49 45 50 46 51 72 52 73 53 82 54 74 55
REMARK SMILES IDX 75 56 81 57 83 58 76 59 77 60 78 61 79 62 80 63 56 64 57 65
REMARK SMILES IDX 66 66 58 67 59 68 65 69 67 70 60 71 61 72 62 73 63 74 64 75
REMARK SMILES IDX 7 76 8 77 9 78 10 80 11 81 12 82 28 83 13 84 26 85 14 86
REMARK SMILES IDX 27 87 15 88 16 89 17 90 18 91 19 93 20 94 21 95 22 96 25 97
REMARK SMILES IDX 23 99 24 100
REMARK H PARENT 3 7 88 25 54 36 8 79 18 92 21 98
REMARK Flexibility Score: inf
ROOT
ATOM      1  C   UNL A   1      33.284  29.202  24.779  1.00  0.00     0.023 C 
ENDROOT
BRANCH   1   2
ATOM      2  C   UNL A   1      33.789  28.070  25.673  1.00  0.00     0.023 C 
BRANCH   2   3
ATOM      3  C   UNL A   1      33.674  28.311  27.173  1.00  0.00     0.116 C 
BRANCH   3   4
ATOM      4  N   UNL A   1      33.508  29.714  27.508  1.00  0.00    -0.352 N 
ATOM      5  O   UNL A   1      34.042  31.702  28.416  1.00  0.00    -0.269 OA
ATOM      6  C   UNL A   1      34.411  30.581  28.076  1.00  0.00     0.251 C 
ATOM      7  H   UNL A   1      32.626  30.098  27.299  1.00  0.00     0.163 HD
BRANCH   6   8
ATOM      8  C   UNL A   1      35.814  30.160  28.300  1.00  0.00     0.039 A 
ATOM      9  C   UNL A   1      36.758  30.225  27.271  1.00  0.00     0.014 A 
ATOM     10  C   UNL A   1      36.195  29.727  29.573  1.00  0.00     0.014 A 
ATOM     11  C   UNL A   1      38.054  29.762  27.489  1.00  0.00     0.010 A 
ATOM     12  C   UNL A   1      37.513  29.320  29.807  1.00  0.00     0.010 A 
ATOM     13  C   UNL A   1      38.449  29.323  28.762  1.00  0.00    -0.014 A 
BRANCH  13  14
ATOM     14  C   UNL A   1      39.870  28.977  29.008  1.00  0.00     0.031 A 
ATOM     15  C   UNL A   1      40.426  27.633  28.632  1.00  0.00     0.074 A 
ATOM     16  C   UNL A   1      40.662  29.904  29.582  1.00  0.00     0.049 A 
ATOM     17  N   UNL A   1      41.642  27.176  28.792  1.00  0.00    -0.248 NA
ATOM     18  C   UNL A   1      39.506  26.676  27.996  1.00  0.00     0.031 C 
ATOM     19  C   UNL A   1      40.223  31.237  30.007  1.00  0.00     0.029 A 
ATOM     20  N   UNL A   1      41.995  29.878  29.902  1.00  0.00    -0.354 N 
ATOM     21  C   UNL A   1      41.634  25.881  28.292  1.00  0.00     0.074 A 
ATOM     22  C   UNL A   1      40.287  25.614  27.833  1.00  0.00     0.031 C 
ATOM     23  C   UNL A   1      41.270  31.906  30.509  1.00  0.00     0.029 A 
ATOM     24  C   UNL A   1      42.442  31.039  30.489  1.00  0.00     0.049 A 
ATOM     25  H   UNL A   1      42.576  29.103  29.729  1.00  0.00     0.167 HD
ATOM     26  C   UNL A   1      42.662  25.004  28.218  1.00  0.00     0.037 A 
ATOM     27  C   UNL A   1      43.653  31.363  30.980  1.00  0.00     0.037 A 
ATOM     28  C   UNL A   1      44.005  25.289  28.652  1.00  0.00     0.049 A 
ATOM     29  C   UNL A   1      44.764  30.359  30.912  1.00  0.00     0.074 A 
ATOM     30  C   UNL A   1      45.130  24.488  28.545  1.00  0.00     0.029 A 
ATOM     31  N   UNL A   1      44.407  26.458  29.280  1.00  0.00    -0.354 N 
ATOM     32  N   UNL A   1      44.747  29.155  30.393  1.00  0.00    -0.248 NA
ATOM     33  C   UNL A   1      46.050  30.744  31.508  1.00  0.00     0.031 C 
ATOM     34  C   UNL A   1      46.202  25.156  29.144  1.00  0.00     0.029 A 
ATOM     35  C   UNL A   1      45.753  26.385  29.597  1.00  0.00     0.049 A 
ATOM     36  H   UNL A   1      43.821  27.226  29.473  1.00  0.00     0.167 HD
ATOM     37  C   UNL A   1      46.015  28.634  30.609  1.00  0.00     0.074 A 
ATOM     38  C   UNL A   1      46.784  29.661  31.282  1.00  0.00     0.031 C 
ATOM     39  C   UNL A   1      46.496  27.409  30.286  1.00  0.00     0.037 A 
BRANCH  26  40
ATOM     40  C   UNL A   1      42.403  23.642  27.640  1.00  0.00     0.058 A 
ATOM     41  C   UNL A   1      42.242  22.532  28.482  1.00  0.00     0.135 A 
ATOM     42  C   UNL A   1      42.447  23.418  26.256  1.00  0.00     0.135 A 
ATOM     43  F   UNL A   1      42.186  22.696  29.813  1.00  0.00    -0.206 F 
ATOM     44  C   UNL A   1      42.161  21.239  27.974  1.00  0.00     0.059 A 
ATOM     45  C   UNL A   1      42.355  22.134  25.724  1.00  0.00     0.059 A 
ATOM     46  F   UNL A   1      42.583  24.450  25.408  1.00  0.00    -0.206 F 
ATOM     47  C   UNL A   1      42.233  21.049  26.593  1.00  0.00     0.060 A 
BRANCH  47  48
ATOM     48  S   UNL A   1      42.148  19.364  25.947  1.00  0.00     0.124 S 
ATOM     49  O   UNL A   1      43.015  19.446  24.779  1.00  0.00    -0.237 OA
ATOM     50  O   UNL A   1      42.660  18.580  27.068  1.00  0.00    -0.237 OA
ATOM     51  O   UNL A   1      40.726  19.182  25.667  1.00  0.00    -0.744 OA
ENDBRANCH  47  48
ENDBRANCH  26  40
BRANCH  27  52
ATOM     52  C   UNL A   1      43.852  32.693  31.607  1.00  0.00     0.058 A 
ATOM     53  C   UNL A   1      43.604  32.887  32.975  1.00  0.00     0.135 A 
ATOM     54  C   UNL A   1      44.247  33.801  30.847  1.00  0.00     0.135 A 
ATOM     55  F   UNL A   1      43.216  31.856  33.742  1.00  0.00    -0.206 F 
ATOM     56  C   UNL A   1      43.712  34.140  33.563  1.00  0.00     0.059 A 
ATOM     57  C   UNL A   1      44.382  35.063  31.417  1.00  0.00     0.059 A 
ATOM     58  F   UNL A   1      44.505  33.659  29.538  1.00  0.00    -0.206 F 
ATOM     59  C   UNL A   1      44.093  35.226  32.773  1.00  0.00     0.060 A 
BRANCH  59  60
ATOM     60  S   UNL A   1      44.221  36.853  33.544  1.00  0.00     0.124 S 
ATOM     61  O   UNL A   1      44.282  37.723  32.374  1.00  0.00    -0.237 OA
ATOM     62  O   UNL A   1      42.991  36.926  34.327  1.00  0.00    -0.237 OA
ATOM     63  O   UNL A   1      45.450  36.756  34.324  1.00  0.00    -0.744 OA
ENDBRANCH  59  60
ENDBRANCH  27  52
BRANCH  39  64
ATOM     64  C   UNL A   1      47.909  27.096  30.679  1.00  0.00     0.058 A 
ATOM     65  C   UNL A   1      48.968  27.317  29.786  1.00  0.00     0.135 A 
ATOM     66  C   UNL A   1      48.197  26.502  31.916  1.00  0.00     0.135 A 
ATOM     67  F   UNL A   1      48.740  27.884  28.592  1.00  0.00    -0.206 F 
ATOM     68  C   UNL A   1      50.268  26.937  30.101  1.00  0.00     0.059 A 
ATOM     69  C   UNL A   1      49.493  26.130  32.259  1.00  0.00     0.059 A 
ATOM     70  F   UNL A   1      47.215  26.286  32.806  1.00  0.00    -0.206 F 
ATOM     71  C   UNL A   1      50.519  26.335  31.335  1.00  0.00     0.060 A 
BRANCH  71  72
ATOM     72  S   UNL A   1      52.211  25.844  31.729  1.00  0.00     0.124 S 
ATOM     73  O   UNL A   1      52.526  26.728  32.845  1.00  0.00    -0.237 OA
ATOM     74  O   UNL A   1      52.053  24.431  32.064  1.00  0.00    -0.237 OA
ATOM     75  O   UNL A   1      52.937  26.107  30.491  1.00  0.00    -0.744 OA
ENDBRANCH  71  72
ENDBRANCH  39  64
ENDBRANCH  13  14
ENDBRANCH   6   8
ENDBRANCH   3   4
ENDBRANCH   2   3
ENDBRANCH   1   2
BRANCH   1  76
ATOM     76  C   UNL A   1      31.785  29.489  24.845  1.00  0.00     0.116 C 
BRANCH  76  77
ATOM     77  N   UNL A   1      31.097  29.272  23.582  1.00  0.00    -0.352 N 
ATOM     78  C   UNL A   1      30.529  28.137  23.058  1.00  0.00     0.251 C 
ATOM     79  H   UNL A   1      31.029  30.069  23.007  1.00  0.00     0.163 HD
ATOM     80  O   UNL A   1      30.077  28.142  21.917  1.00  0.00    -0.269 OA
BRANCH  78  81
ATOM     81  C   UNL A   1      30.501  26.881  23.836  1.00  0.00     0.042 A 
ATOM     82  C   UNL A   1      30.315  26.877  25.221  1.00  0.00     0.015 A 
ATOM     83  C   UNL A   1      30.670  25.676  23.147  1.00  0.00     0.054 A 
ATOM     84  C   UNL A   1      30.460  25.685  25.930  1.00  0.00     0.026 A 
ATOM     85  C   UNL A   1      30.774  24.482  23.857  1.00  0.00     0.144 A 
ATOM     86  C   UNL A   1      30.731  24.490  25.244  1.00  0.00     0.118 A 
ATOM     87  F   UNL A   1      30.961  23.357  23.156  1.00  0.00    -0.205 F 
BRANCH  86  88
ATOM     88  S   UNL A   1      31.188  23.098  26.226  1.00  0.00     0.243 S 
ATOM     89  O   UNL A   1      31.391  23.596  27.569  1.00  0.00    -0.207 OA
ATOM     90  O   UNL A   1      30.217  22.060  25.951  1.00  0.00    -0.207 OA
BRANCH  88  91
ATOM     91  N   UNL A   1      32.656  22.528  25.670  1.00  0.00    -0.205 NA
ATOM     92  H   UNL A   1      33.002  23.220  25.005  1.00  0.00     0.141 HD
BRANCH  91  93
ATOM     93  C   UNL A   1      33.763  22.250  26.595  1.00  0.00     0.160 C 
BRANCH  93  94
ATOM     94  C   UNL A   1      34.925  23.252  26.506  1.00  0.00     0.278 C 
BRANCH  94  95
ATOM     95  N   UNL A   1      36.288  22.694  26.407  1.00  0.00    -0.334 N 
ATOM     96  C   UNL A   1      37.160  23.643  25.686  1.00  0.00     0.262 C 
ATOM     97  C   UNL A   1      36.392  21.446  25.645  1.00  0.00     0.262 C 
ATOM     98  H   UNL A   1      36.558  22.521  27.375  1.00  0.00     0.348 HD
ATOM     99  C   UNL A   1      36.966  23.310  24.216  1.00  0.00     0.067 C 
ATOM    100  C   UNL A   1      36.749  21.808  24.209  1.00  0.00     0.067 C 
ENDBRANCH  94  95
ENDBRANCH  93  94
ENDBRANCH  91  93
ENDBRANCH  88  91
ENDBRANCH  86  88
ENDBRANCH  78  81
ENDBRANCH  76  77
ENDBRANCH   1  76
TORSDOF 19
ENDMDL
MODEL 2
REMARK VINA RESULT:     -11.0      3.065      3.806
REMARK SMILES O=C(NCCCCNC(=O)c1ccc(S(=O)(=O)NCC[NH+]2CCCC2)c(F)c1)c1ccc(-c2c3nc(c(-c4c(F)cc(S(=O)(=O)[O-])cc4F)c4ccc([nH]4)c(-c4c(F)cc(S(=O)(=O)[O-])cc4F)c4nc(c(-c5c(F)cc(S(=O)(=O)[O-])cc5F)c5ccc2[nH]5)C=C4)C=C3)cc1
REMARK SMILES IDX 6 1 5 2 4 3 3 4 1 5 2 6 29 8 30 9 94 10 31 11 93 12 32 13
REMARK SMILES IDX 33 14 34 15 87 16 35 17 92 18 86 19 88 20 36 21 91 22 85 23
REMARK SMILES IDX 84 24 37 26 71 27 50 28 70 29 51 30 54 31 69 32 89 33 52 34
REMARK SMILES IDX 53 35 68 37 90 38 55 39 38 40 39 41 48 42 40 43 41 44 47 45
REMARK SMILES IDX 49 46 42 47 43 48 44 49 45 50 46 51 72 52 73 53 82 54 74 55
REMARK SMILES IDX 75 56 81 57 83 58 76 59 77 60 78 61 79 62 80 63 56 64 57 65
REMARK SMILES IDX 66 66 58 67 59 68 65 69 67 70 60 71 61 72 62 73 63 74 64 75
REMARK SMILES IDX 7 76 8 77 9 78 10 80 11 81 12 82 28 83 13 84 26 85 14 86
REMARK SMILES IDX 27 87 15 88 16 89 17 90 18 91 19 93 20 94 21 95 22 96 25 97
REMARK SMILES IDX 23 99 24 100
REMARK H PARENT 3 7 88 25 54 36 8 79 18 92 21 98
REMARK Flexibility Score: inf
ROOT
ATOM      1  C   UNL A   1      33.107  28.900  24.004  1.00  0.00     0.023 C 
ENDROOT
BRANCH   1   2
ATOM      2  C   UNL A   1      33.070  28.408  25.450  1.00  0.00     0.023 C 
BRANCH   2   3
ATOM      3  C   UNL A   1      34.132  28.992  26.373  1.00  0.00     0.116 C 
BRANCH   3   4
ATOM      4  N   UNL A   1      33.840  30.355  26.779  1.00  0.00    -0.352 N 
ATOM      5  O   UNL A   1      34.027  32.238  27.997  1.00  0.00    -0.269 OA
ATOM      6  C   UNL A   1      34.508  31.154  27.676  1.00  0.00     0.251 C 
ATOM      7  H   UNL A   1      33.052  30.764  26.352  1.00  0.00     0.163 HD
BRANCH   6   8
ATOM      8  C   UNL A   1      35.788  30.703  28.270  1.00  0.00     0.039 A 
ATOM      9  C   UNL A   1      36.990  31.349  27.967  1.00  0.00     0.014 A 
ATOM     10  C   UNL A   1      35.776  29.636  29.173  1.00  0.00     0.014 A 
ATOM     11  C   UNL A   1      38.189  30.865  28.489  1.00  0.00     0.010 A 
ATOM     12  C   UNL A   1      36.972  29.189  29.744  1.00  0.00     0.010 A 
ATOM     13  C   UNL A   1      38.189  29.793  29.395  1.00  0.00    -0.014 A 
BRANCH  13  14
ATOM     14  C   UNL A   1      39.457  29.391  30.051  1.00  0.00     0.031 A 
ATOM     15  C   UNL A   1      40.315  28.292  29.492  1.00  0.00     0.074 A 
ATOM     16  C   UNL A   1      39.830  30.042  31.171  1.00  0.00     0.049 A 
ATOM     17  N   UNL A   1      41.443  27.819  29.956  1.00  0.00    -0.248 NA
ATOM     18  C   UNL A   1      39.853  27.637  28.258  1.00  0.00     0.031 C 
ATOM     19  C   UNL A   1      39.063  31.113  31.814  1.00  0.00     0.029 A 
ATOM     20  N   UNL A   1      40.940  29.908  31.965  1.00  0.00    -0.354 N 
ATOM     21  C   UNL A   1      41.822  26.806  29.084  1.00  0.00     0.074 A 
ATOM     22  C   UNL A   1      40.796  26.720  28.067  1.00  0.00     0.031 C 
ATOM     23  C   UNL A   1      39.735  31.554  32.887  1.00  0.00     0.029 A 
ATOM     24  C   UNL A   1      40.954  30.767  33.039  1.00  0.00     0.049 A 
ATOM     25  H   UNL A   1      41.658  29.259  31.783  1.00  0.00     0.167 HD
ATOM     26  C   UNL A   1      42.929  26.029  29.129  1.00  0.00     0.037 A 
ATOM     27  C   UNL A   1      41.835  30.892  34.050  1.00  0.00     0.037 A 
ATOM     28  C   UNL A   1      43.959  26.142  30.131  1.00  0.00     0.049 A 
ATOM     29  C   UNL A   1      43.036  29.996  34.090  1.00  0.00     0.074 A 
ATOM     30  C   UNL A   1      45.155  25.448  30.213  1.00  0.00     0.029 A 
ATOM     31  N   UNL A   1      43.915  26.992  31.225  1.00  0.00    -0.354 N 
ATOM     32  N   UNL A   1      43.398  29.076  33.230  1.00  0.00    -0.248 NA
ATOM     33  C   UNL A   1      43.938  30.140  35.240  1.00  0.00     0.031 C 
ATOM     34  C   UNL A   1      45.815  25.851  31.378  1.00  0.00     0.029 A 
ATOM     35  C   UNL A   1      45.046  26.816  32.005  1.00  0.00     0.049 A 
ATOM     36  H   UNL A   1      43.187  27.626  31.419  1.00  0.00     0.167 HD
ATOM     37  C   UNL A   1      44.564  28.522  33.740  1.00  0.00     0.074 A 
ATOM     38  C   UNL A   1      44.863  29.227  34.970  1.00  0.00     0.031 C 
ATOM     39  C   UNL A   1      45.315  27.512  33.237  1.00  0.00     0.037 A 
BRANCH  26  40
ATOM     40  C   UNL A   1      43.116  24.982  28.070  1.00  0.00     0.058 A 
ATOM     41  C   UNL A   1      42.812  23.639  28.336  1.00  0.00     0.135 A 
ATOM     42  C   UNL A   1      43.717  25.290  26.840  1.00  0.00     0.135 A 
ATOM     43  F   UNL A   1      42.229  23.295  29.495  1.00  0.00    -0.206 F 
ATOM     44  C   UNL A   1      43.124  22.629  27.431  1.00  0.00     0.059 A 
ATOM     45  C   UNL A   1      44.028  24.298  25.913  1.00  0.00     0.059 A 
ATOM     46  F   UNL A   1      44.012  26.563  26.532  1.00  0.00    -0.206 F 
ATOM     47  C   UNL A   1      43.745  22.967  26.227  1.00  0.00     0.060 A 
BRANCH  47  48
ATOM     48  S   UNL A   1      44.164  21.645  25.070  1.00  0.00     0.124 S 
ATOM     49  O   UNL A   1      43.126  20.661  25.350  1.00  0.00    -0.237 OA
ATOM     50  O   UNL A   1      44.067  22.324  23.780  1.00  0.00    -0.237 OA
ATOM     51  O   UNL A   1      45.517  21.266  25.467  1.00  0.00    -0.744 OA
ENDBRANCH  47  48
ENDBRANCH  26  40
BRANCH  27  52
ATOM     52  C   UNL A   1      41.581  31.891  35.117  1.00  0.00     0.058 A 
ATOM     53  C   UNL A   1      40.662  31.625  36.145  1.00  0.00     0.135 A 
ATOM     54  C   UNL A   1      42.211  33.141  35.106  1.00  0.00     0.135 A 
ATOM     55  F   UNL A   1      40.027  30.444  36.192  1.00  0.00    -0.206 F 
ATOM     56  C   UNL A   1      40.355  32.577  37.109  1.00  0.00     0.059 A 
ATOM     57  C   UNL A   1      41.936  34.104  36.072  1.00  0.00     0.059 A 
ATOM     58  F   UNL A   1      43.105  33.433  34.148  1.00  0.00    -0.206 F 
ATOM     59  C   UNL A   1      40.991  33.818  37.059  1.00  0.00     0.060 A 
BRANCH  59  60
ATOM     60  S   UNL A   1      40.579  35.051  38.312  1.00  0.00     0.124 S 
ATOM     61  O   UNL A   1      39.830  34.247  39.272  1.00  0.00    -0.237 OA
ATOM     62  O   UNL A   1      41.896  35.502  38.751  1.00  0.00    -0.237 OA
ATOM     63  O   UNL A   1      39.801  36.035  37.568  1.00  0.00    -0.744 OA
ENDBRANCH  59  60
ENDBRANCH  27  52
BRANCH  39  64
ATOM     64  C   UNL A   1      46.517  27.086  34.026  1.00  0.00     0.058 A 
ATOM     65  C   UNL A   1      46.414  26.095  35.013  1.00  0.00     0.135 A 
ATOM     66  C   UNL A   1      47.755  27.721  33.850  1.00  0.00     0.135 A 
ATOM     67  F   UNL A   1      45.250  25.459  35.216  1.00  0.00    -0.206 F 
ATOM     68  C   UNL A   1      47.497  25.763  35.819  1.00  0.00     0.059 A 
ATOM     69  C   UNL A   1      48.857  27.393  34.634  1.00  0.00     0.059 A 
ATOM     70  F   UNL A   1      47.902  28.665  32.907  1.00  0.00    -0.206 F 
ATOM     71  C   UNL A   1      48.712  26.424  35.628  1.00  0.00     0.060 A 
BRANCH  71  72
ATOM     72  S   UNL A   1      50.109  25.986  36.684  1.00  0.00     0.124 S 
ATOM     73  O   UNL A   1      49.456  25.225  37.742  1.00  0.00    -0.237 OA
ATOM     74  O   UNL A   1      50.955  25.216  35.776  1.00  0.00    -0.237 OA
ATOM     75  O   UNL A   1      50.652  27.282  37.082  1.00  0.00    -0.744 OA
ENDBRANCH  71  72
ENDBRANCH  39  64
ENDBRANCH  13  14
ENDBRANCH   6   8
ENDBRANCH   3   4
ENDBRANCH   2   3
ENDBRANCH   1   2
BRANCH   1  76
ATOM     76  C   UNL A   1      32.002  28.373  23.089  1.00  0.00     0.116 C 
BRANCH  76  77
ATOM     77  N   UNL A   1      32.498  27.561  21.989  1.00  0.00    -0.352 N 
ATOM     78  C   UNL A   1      32.931  26.258  21.967  1.00  0.00     0.251 C 
ATOM     79  H   UNL A   1      32.530  28.020  21.118  1.00  0.00     0.163 HD
ATOM     80  O   UNL A   1      33.408  25.783  20.940  1.00  0.00    -0.269 OA
BRANCH  78  81
ATOM     81  C   UNL A   1      32.881  25.427  23.187  1.00  0.00     0.042 A 
ATOM     82  C   UNL A   1      34.019  25.190  23.963  1.00  0.00     0.015 A 
ATOM     83  C   UNL A   1      31.653  24.871  23.556  1.00  0.00     0.054 A 
ATOM     84  C   UNL A   1      33.958  24.268  25.008  1.00  0.00     0.026 A 
ATOM     85  C   UNL A   1      31.589  23.982  24.626  1.00  0.00     0.144 A 
ATOM     86  C   UNL A   1      32.744  23.633  25.312  1.00  0.00     0.118 A 
ATOM     87  F   UNL A   1      30.396  23.454  24.925  1.00  0.00    -0.205 F 
BRANCH  86  88
ATOM     88  S   UNL A   1      32.817  22.281  26.441  1.00  0.00     0.243 S 
ATOM     89  O   UNL A   1      34.207  21.888  26.516  1.00  0.00    -0.207 OA
ATOM     90  O   UNL A   1      32.089  22.687  27.624  1.00  0.00    -0.207 OA
BRANCH  88  91
ATOM     91  N   UNL A   1      31.966  21.005  25.781  1.00  0.00    -0.205 NA
ATOM     92  H   UNL A   1      31.220  21.414  25.219  1.00  0.00     0.141 HD
BRANCH  91  93
ATOM     93  C   UNL A   1      32.630  20.007  24.930  1.00  0.00     0.160 C 
BRANCH  93  94
ATOM     94  C   UNL A   1      32.659  18.591  25.527  1.00  0.00     0.278 C 
BRANCH  94  95
ATOM     95  N   UNL A   1      32.301  17.475  24.629  1.00  0.00    -0.334 N 
ATOM     96  C   UNL A   1      32.934  16.230  25.109  1.00  0.00     0.262 C 
ATOM     97  C   UNL A   1      32.769  17.618  23.247  1.00  0.00     0.262 C 
ATOM     98  H   UNL A   1      31.281  17.463  24.640  1.00  0.00     0.348 HD
ATOM     99  C   UNL A   1      34.319  16.231  24.481  1.00  0.00     0.067 C 
ATOM    100  C   UNL A   1      34.106  16.897  23.134  1.00  0.00     0.067 C 
ENDBRANCH  94  95
ENDBRANCH  93  94
ENDBRANCH  91  93
ENDBRANCH  88  91
ENDBRANCH  86  88
ENDBRANCH  78  81
ENDBRANCH  76  77
ENDBRANCH   1  76
TORSDOF 19
ENDMDL
MODEL 3
REMARK VINA RESULT:     -10.8      3.700      6.577
REMARK SMILES O=C(NCCCCNC(=O)c1ccc(S(=O)(=O)NCC[NH+]2CCCC2)c(F)c1)c1ccc(-c2c3nc(c(-c4c(F)cc(S(=O)(=O)[O-])cc4F)c4ccc([nH]4)c(-c4c(F)cc(S(=O)(=O)[O-])cc4F)c4nc(c(-c5c(F)cc(S(=O)(=O)[O-])cc5F)c5ccc2[nH]5)C=C4)C=C3)cc1
REMARK SMILES IDX 6 1 5 2 4 3 3 4 1 5 2 6 29 8 30 9 94 10 31 11 93 12 32 13
REMARK SMILES IDX 33 14 34 15 87 16 35 17 92 18 86 19 88 20 36 21 91 22 85 23
REMARK SMILES IDX 84 24 37 26 71 27 50 28 70 29 51 30 54 31 69 32 89 33 52 34
REMARK SMILES IDX 53 35 68 37 90 38 55 39 38 40 39 41 48 42 40 43 41 44 47 45
REMARK SMILES IDX 49 46 42 47 43 48 44 49 45 50 46 51 72 52 73 53 82 54 74 55
REMARK SMILES IDX 75 56 81 57 83 58 76 59 77 60 78 61 79 62 80 63 56 64 57 65
REMARK SMILES IDX 66 66 58 67 59 68 65 69 67 70 60 71 61 72 62 73 63 74 64 75
REMARK SMILES IDX 7 76 8 77 9 78 10 80 11 81 12 82 28 83 13 84 26 85 14 86
REMARK SMILES IDX 27 87 15 88 16 89 17 90 18 91 19 93 20 94 21 95 22 96 25 97
REMARK SMILES IDX 23 99 24 100
REMARK H PARENT 3 7 88 25 54 36 8 79 18 92 21 98
REMARK Flexibility Score: inf
ROOT
ATOM      1  C   UNL A   1      34.499  33.918  31.452  1.00  0.00     0.023 C 
ENDROOT
BRANCH   1   2
ATOM      2  C   UNL A   1      34.786  32.600  30.732  1.00  0.00     0.023 C 
BRANCH   2   3
ATOM      3  C   UNL A   1      34.776  32.664  29.210  1.00  0.00     0.116 C 
BRANCH   3   4
ATOM      4  N   UNL A   1      34.041  31.569  28.604  1.00  0.00    -0.352 N 
ATOM      5  O   UNL A   1      33.753  29.616  27.524  1.00  0.00    -0.269 OA
ATOM      6  C   UNL A   1      34.510  30.365  28.135  1.00  0.00     0.251 C 
ATOM      7  H   UNL A   1      33.070  31.708  28.517  1.00  0.00     0.163 HD
BRANCH   6   8
ATOM      8  C   UNL A   1      35.926  29.981  28.344  1.00  0.00     0.039 A 
ATOM      9  C   UNL A   1      36.874  30.142  27.329  1.00  0.00     0.014 A 
ATOM     10  C   UNL A   1      36.314  29.485  29.592  1.00  0.00     0.014 A 
ATOM     11  C   UNL A   1      38.185  29.714  27.530  1.00  0.00     0.010 A 
ATOM     12  C   UNL A   1      37.645  29.112  29.812  1.00  0.00     0.010 A 
ATOM     13  C   UNL A   1      38.586  29.212  28.778  1.00  0.00    -0.014 A 
BRANCH  13  14
ATOM     14  C   UNL A   1      40.018  28.902  29.015  1.00  0.00     0.031 A 
ATOM     15  C   UNL A   1      40.608  27.578  28.622  1.00  0.00     0.074 A 
ATOM     16  C   UNL A   1      40.786  29.845  29.595  1.00  0.00     0.049 A 
ATOM     17  N   UNL A   1      41.837  27.153  28.773  1.00  0.00    -0.248 NA
ATOM     18  C   UNL A   1      39.712  26.603  27.979  1.00  0.00     0.031 C 
ATOM     19  C   UNL A   1      40.312  31.160  30.036  1.00  0.00     0.029 A 
ATOM     20  N   UNL A   1      42.121  29.851  29.910  1.00  0.00    -0.354 N 
ATOM     21  C   UNL A   1      41.863  25.863  28.259  1.00  0.00     0.074 A 
ATOM     22  C   UNL A   1      40.522  25.565  27.802  1.00  0.00     0.031 C 
ATOM     23  C   UNL A   1      41.343  31.853  30.542  1.00  0.00     0.029 A 
ATOM     24  C   UNL A   1      42.539  31.018  30.508  1.00  0.00     0.049 A 
ATOM     25  H   UNL A   1      42.722  29.094  29.726  1.00  0.00     0.167 HD
ATOM     26  C   UNL A   1      42.914  25.016  28.171  1.00  0.00     0.037 A 
ATOM     27  C   UNL A   1      43.742  31.370  30.997  1.00  0.00     0.037 A 
ATOM     28  C   UNL A   1      44.251  25.333  28.603  1.00  0.00     0.049 A 
ATOM     29  C   UNL A   1      44.880  30.397  30.914  1.00  0.00     0.074 A 
ATOM     30  C   UNL A   1      45.397  24.564  28.483  1.00  0.00     0.029 A 
ATOM     31  N   UNL A   1      44.623  26.506  29.242  1.00  0.00    -0.354 N 
ATOM     32  N   UNL A   1      44.894  29.199  30.383  1.00  0.00    -0.248 NA
ATOM     33  C   UNL A   1      46.157  30.811  31.509  1.00  0.00     0.031 C 
ATOM     34  C   UNL A   1      46.453  25.255  29.085  1.00  0.00     0.029 A 
ATOM     35  C   UNL A   1      45.972  26.466  29.553  1.00  0.00     0.049 A 
ATOM     36  H   UNL A   1      44.017  27.255  29.446  1.00  0.00     0.167 HD
ATOM     37  C   UNL A   1      46.177  28.710  30.588  1.00  0.00     0.074 A 
ATOM     38  C   UNL A   1      46.920  29.751  31.269  1.00  0.00     0.031 C 
ATOM     39  C   UNL A   1      46.689  27.503  30.250  1.00  0.00     0.037 A 
BRANCH  26  40
ATOM     40  C   UNL A   1      42.690  23.653  27.580  1.00  0.00     0.058 A 
ATOM     41  C   UNL A   1      42.535  22.534  28.412  1.00  0.00     0.135 A 
ATOM     42  C   UNL A   1      42.761  23.440  26.195  1.00  0.00     0.135 A 
ATOM     43  F   UNL A   1      42.453  22.688  29.743  1.00  0.00    -0.206 F 
ATOM     44  C   UNL A   1      42.486  21.244  27.894  1.00  0.00     0.059 A 
ATOM     45  C   UNL A   1      42.703  22.158  25.653  1.00  0.00     0.059 A 
ATOM     46  F   UNL A   1      42.893  24.480  25.357  1.00  0.00    -0.206 F 
ATOM     47  C   UNL A   1      42.585  21.065  26.512  1.00  0.00     0.060 A 
BRANCH  47  48
ATOM     48  S   UNL A   1      42.542  19.384  25.854  1.00  0.00     0.124 S 
ATOM     49  O   UNL A   1      41.166  19.280  25.383  1.00  0.00    -0.237 OA
ATOM     50  O   UNL A   1      43.569  19.434  24.817  1.00  0.00    -0.237 OA
ATOM     51  O   UNL A   1      42.876  18.560  27.013  1.00  0.00    -0.744 OA
ENDBRANCH  47  48
ENDBRANCH  26  40
BRANCH  27  52
ATOM     52  C   UNL A   1      43.908  32.698  31.638  1.00  0.00     0.058 A 
ATOM     53  C   UNL A   1      44.400  33.791  30.908  1.00  0.00     0.135 A 
ATOM     54  C   UNL A   1      43.623  32.888  32.997  1.00  0.00     0.135 A 
ATOM     55  F   UNL A   1      44.695  33.654  29.607  1.00  0.00    -0.206 F 
ATOM     56  C   UNL A   1      44.633  35.021  31.511  1.00  0.00     0.059 A 
ATOM     57  C   UNL A   1      43.829  34.116  33.618  1.00  0.00     0.059 A 
ATOM     58  F   UNL A   1      43.140  31.872  33.729  1.00  0.00    -0.206 F 
ATOM     59  C   UNL A   1      44.353  35.171  32.869  1.00  0.00     0.060 A 
BRANCH  59  60
ATOM     60  S   UNL A   1      44.668  36.771  33.645  1.00  0.00     0.124 S 
ATOM     61  O   UNL A   1      45.485  36.381  34.789  1.00  0.00    -0.237 OA
ATOM     62  O   UNL A   1      45.363  37.499  32.587  1.00  0.00    -0.237 OA
ATOM     63  O   UNL A   1      43.329  37.258  33.960  1.00  0.00    -0.744 OA
ENDBRANCH  59  60
ENDBRANCH  27  52
BRANCH  39  64
ATOM     64  C   UNL A   1      48.112  27.224  30.634  1.00  0.00     0.058 A 
ATOM     65  C   UNL A   1      49.151  27.386  29.706  1.00  0.00     0.135 A 
ATOM     66  C   UNL A   1      48.429  26.722  31.904  1.00  0.00     0.135 A 
ATOM     67  F   UNL A   1      48.895  27.864  28.479  1.00  0.00    -0.206 F 
ATOM     68  C   UNL A   1      50.459  27.034  30.019  1.00  0.00     0.059 A 
ATOM     69  C   UNL A   1      49.734  26.380  32.245  1.00  0.00     0.059 A 
ATOM     70  F   UNL A   1      47.468  26.566  32.828  1.00  0.00    -0.206 F 
ATOM     71  C   UNL A   1      50.739  26.523  31.288  1.00  0.00     0.060 A 
BRANCH  71  72
ATOM     72  S   UNL A   1      52.441  26.068  31.679  1.00  0.00     0.124 S 
ATOM     73  O   UNL A   1      53.137  26.430  30.450  1.00  0.00    -0.237 OA
ATOM     74  O   UNL A   1      52.727  26.905  32.841  1.00  0.00    -0.237 OA
ATOM     75  O   UNL A   1      52.354  24.637  31.956  1.00  0.00    -0.744 OA
ENDBRANCH  71  72
ENDBRANCH  39  64
ENDBRANCH  13  14
ENDBRANCH   6   8
ENDBRANCH   3   4
ENDBRANCH   2   3
ENDBRANCH   1   2
BRANCH   1  76
ATOM     76  C   UNL A   1      35.698  34.590  32.120  1.00  0.00     0.116 C 
BRANCH  76  77
ATOM     77  N   UNL A   1      36.854  34.713  31.246  1.00  0.00    -0.352 N 
ATOM     78  C   UNL A   1      38.123  34.204  31.369  1.00  0.00     0.251 C 
ATOM     79  H   UNL A   1      36.703  35.251  30.435  1.00  0.00     0.163 HD
ATOM     80  O   UNL A   1      38.992  34.509  30.558  1.00  0.00    -0.269 OA
BRANCH  78  81
ATOM     81  C   UNL A   1      38.476  33.327  32.504  1.00  0.00     0.042 A 
ATOM     82  C   UNL A   1      39.393  33.723  33.482  1.00  0.00     0.015 A 
ATOM     83  C   UNL A   1      37.867  32.071  32.582  1.00  0.00     0.054 A 
ATOM     84  C   UNL A   1      39.818  32.801  34.439  1.00  0.00     0.026 A 
ATOM     85  C   UNL A   1      38.265  31.169  33.565  1.00  0.00     0.144 A 
ATOM     86  C   UNL A   1      39.277  31.506  34.452  1.00  0.00     0.118 A 
ATOM     87  F   UNL A   1      37.671  29.969  33.583  1.00  0.00    -0.205 F 
BRANCH  86  88
ATOM     88  S   UNL A   1      40.072  30.326  35.494  1.00  0.00     0.243 S 
ATOM     89  O   UNL A   1      41.308  30.936  35.932  1.00  0.00    -0.207 OA
ATOM     90  O   UNL A   1      39.079  29.878  36.448  1.00  0.00    -0.207 OA
BRANCH  88  91
ATOM     91  N   UNL A   1      40.466  28.994  34.567  1.00  0.00    -0.205 NA
ATOM     92  H   UNL A   1      39.584  28.578  34.268  1.00  0.00     0.141 HD
BRANCH  91  93
ATOM     93  C   UNL A   1      41.294  29.126  33.361  1.00  0.00     0.160 C 
BRANCH  93  94
ATOM     94  C   UNL A   1      42.181  27.904  33.070  1.00  0.00     0.278 C 
BRANCH  94  95
ATOM     95  N   UNL A   1      43.189  27.546  34.087  1.00  0.00    -0.334 N 
ATOM     96  C   UNL A   1      44.480  27.263  33.428  1.00  0.00     0.262 C 
ATOM     97  C   UNL A   1      42.892  26.332  34.853  1.00  0.00     0.262 C 
ATOM     98  H   UNL A   1      43.202  28.348  34.719  1.00  0.00     0.348 HD
ATOM     99  C   UNL A   1      44.407  25.793  33.047  1.00  0.00     0.067 C 
ATOM    100  C   UNL A   1      43.595  25.168  34.166  1.00  0.00     0.067 C 
ENDBRANCH  94  95
ENDBRANCH  93  94
ENDBRANCH  91  93
ENDBRANCH  88  91
ENDBRANCH  86  88
ENDBRANCH  78  81
ENDBRANCH  76  77
ENDBRANCH   1  76
TORSDOF 19
ENDMDL
