MODEL 1
REMARK VINA RESULT:     -14.2      0.000      0.000
REMARK SMILES Cc1c(NCc2ccccn2)cccc1C(=O)N1CCOC[C@@H]1CC(=O)NCCCCNC(=O)c1ccc(-c2c3nc(c(-c4c(F)cc(S(=O)(=O)[O-])cc4F)c4ccc([nH]4)c(-c4c(F)cc(S(=O)(=O)[O-])cc4F)c4nc(c(-c5c(F)cc(S(=O)(=O)[O-])cc5F)c5ccc2[nH]5)C=C4)C=C3)cc1
REMARK SMILES IDX 28 1 27 2 25 3 26 4 24 6 23 7 18 8 19 9 20 10 22 11 21 12
REMARK SMILES IDX 16 13 17 14 15 15 1 16 2 17 3 18 12 19 14 20 13 21 4 22 5 24
REMARK SMILES IDX 6 25 7 26 11 27 8 28 10 29 9 30 29 31 30 32 31 33 32 34
REMARK SMILES IDX 33 35 34 37 35 38 36 39 100 40 37 41 99 42 38 43 39 44 40 45
REMARK SMILES IDX 93 46 41 47 98 48 92 49 94 50 42 51 97 52 91 53 90 54 43 56
REMARK SMILES IDX 77 57 56 58 76 59 57 60 60 61 75 62 95 63 58 64 59 65 74 67
REMARK SMILES IDX 96 68 61 69 44 70 45 71 54 72 46 73 47 74 53 75 55 76 48 77
REMARK SMILES IDX 49 78 50 79 51 80 52 81 78 82 79 83 88 84 80 85 81 86 87 87
REMARK SMILES IDX 89 88 82 89 83 90 84 91 85 92 86 93 62 94 63 95 72 96 64 97
REMARK SMILES IDX 65 98 71 99 73 100 66 101 67 102 68 103 69 104 70 105
REMARK H PARENT 27 5 4 23 32 36 94 55 60 66
REMARK Flexibility Score: inf
ROOT
ATOM      1  C   UNL A   1      39.350  21.655  25.614  1.00  0.00     0.116 C 
ENDROOT
BRANCH   1   2
ATOM      2  N   UNL A   1      38.266  22.239  26.344  1.00  0.00    -0.356 N 
ATOM      3  C   UNL A   1      37.275  22.939  25.719  1.00  0.00     0.222 C 
ATOM      4  O   UNL A   1      36.763  23.891  26.308  1.00  0.00    -0.275 OA
ATOM      5  H   UNL A   1      38.236  22.133  27.323  1.00  0.00     0.163 HD
BRANCH   3   6
ATOM      6  C   UNL A   1      36.795  22.467  24.344  1.00  0.00     0.127 C 
BRANCH   6   7
ATOM      7  C   UNL A   1      35.405  21.814  24.152  1.00  0.00     0.120 C 
ATOM      8  N   UNL A   1      34.103  22.603  23.982  1.00  0.00    -0.331 N 
ATOM      9  C   UNL A   1      33.050  21.676  23.542  1.00  0.00     0.148 C 
ATOM     10  C   UNL A   1      32.907  20.457  24.474  1.00  0.00     0.181 C 
ATOM     11  C   UNL A   1      35.151  20.694  25.194  1.00  0.00     0.185 C 
ATOM     12  O   UNL A   1      34.151  19.784  24.700  1.00  0.00    -0.377 OA
BRANCH   8  13
ATOM     13  C   UNL A   1      34.015  23.890  23.394  1.00  0.00     0.254 C 
ATOM     14  O   UNL A   1      34.405  24.050  22.237  1.00  0.00    -0.269 OA
BRANCH  13  15
ATOM     15  C   UNL A   1      33.723  25.179  24.271  1.00  0.00     0.045 A 
ATOM     16  C   UNL A   1      33.351  27.167  22.234  1.00  0.00     0.047 C 
ATOM     17  C   UNL A   1      32.967  26.675  23.585  1.00  0.00    -0.015 A 
ATOM     18  C   UNL A   1      31.671  27.592  24.482  1.00  0.00     0.038 A 
ATOM     19  C   UNL A   1      31.041  26.939  26.046  1.00  0.00     0.026 A 
ATOM     20  C   UNL A   1      33.221  24.646  25.932  1.00  0.00     0.014 A 
ATOM     21  C   UNL A   1      31.862  25.465  26.802  1.00  0.00     0.003 A 
BRANCH  18  22
ATOM     22  N   UNL A   1      31.127  28.746  23.908  1.00  0.00    -0.379 N 
ATOM     23  H   UNL A   1      31.505  29.634  24.108  1.00  0.00     0.160 HD
BRANCH  22  24
ATOM     24  C   UNL A   1      29.986  28.611  23.005  1.00  0.00     0.169 C 
BRANCH  24  25
ATOM     25  C   UNL A   1      29.365  29.953  22.625  1.00  0.00     0.059 A 
ATOM     26  C   UNL A   1      29.126  30.939  23.583  1.00  0.00     0.026 A 
ATOM     27  N   UNL A   1      28.998  30.123  21.324  1.00  0.00    -0.259 NA
ATOM     28  C   UNL A   1      28.487  32.120  23.215  1.00  0.00     0.004 A 
ATOM     29  C   UNL A   1      28.359  31.273  21.002  1.00  0.00     0.111 A 
ATOM     30  C   UNL A   1      28.085  32.291  21.900  1.00  0.00     0.020 A 
ENDBRANCH  24  25
ENDBRANCH  22  24
ENDBRANCH  18  22
ENDBRANCH  13  15
ENDBRANCH   8  13
ENDBRANCH   6   7
ENDBRANCH   3   6
ENDBRANCH   1   2
BRANCH   1  31
ATOM     31  C   UNL A   1      39.480  20.201  26.091  1.00  0.00     0.023 C 
BRANCH  31  32
ATOM     32  C   UNL A   1      40.886  19.666  26.329  1.00  0.00     0.023 C 
BRANCH  32  33
ATOM     33  C   UNL A   1      41.686  20.707  27.349  1.00  0.00     0.116 C 
BRANCH  33  34
ATOM     34  N   UNL A   1      42.614  22.548  27.093  1.00  0.00    -0.352 N 
ATOM     35  C   UNL A   1      42.527  23.970  26.561  1.00  0.00     0.251 C 
ATOM     36  H   UNL A   1      43.507  22.461  27.498  1.00  0.00     0.163 HD
ATOM     37  O   UNL A   1      43.572  24.468  26.125  1.00  0.00    -0.269 OA
BRANCH  35  38
ATOM     38  C   UNL A   1      41.326  24.912  26.588  1.00  0.00     0.039 A 
ATOM     39  C   UNL A   1      41.388  26.044  25.781  1.00  0.00     0.014 A 
ATOM     40  C   UNL A   1      40.332  24.899  27.554  1.00  0.00     0.014 A 
ATOM     41  C   UNL A   1      40.943  27.267  26.275  1.00  0.00     0.010 A 
ATOM     42  C   UNL A   1      40.034  26.116  28.153  1.00  0.00     0.010 A 
ATOM     43  C   UNL A   1      40.505  27.309  27.584  1.00  0.00    -0.014 A 
BRANCH  43  44
ATOM     44  C   UNL A   1      40.752  28.444  28.492  1.00  0.00     0.031 A 
ATOM     45  C   UNL A   1      39.722  29.491  28.626  1.00  0.00     0.074 A 
ATOM     46  C   UNL A   1      41.822  28.447  29.335  1.00  0.00     0.049 A 
ATOM     47  N   UNL A   1      39.818  30.504  29.408  1.00  0.00    -0.248 NA
ATOM     48  C   UNL A   1      38.487  29.494  27.850  1.00  0.00     0.031 C 
ATOM     49  C   UNL A   1      42.056  29.268  30.528  1.00  0.00     0.029 A 
ATOM     50  N   UNL A   1      43.040  27.782  29.166  1.00  0.00    -0.354 N 
ATOM     51  C   UNL A   1      38.631  31.192  29.388  1.00  0.00     0.074 A 
ATOM     52  C   UNL A   1      37.836  30.529  28.389  1.00  0.00     0.031 C 
ATOM     53  C   UNL A   1      43.370  29.290  30.806  1.00  0.00     0.029 A 
ATOM     54  C   UNL A   1      44.049  28.592  29.733  1.00  0.00     0.049 A 
ATOM     55  H   UNL A   1      43.171  26.909  28.733  1.00  0.00     0.167 HD
ATOM     56  C   UNL A   1      38.484  32.219  30.270  1.00  0.00     0.037 A 
ATOM     57  C   UNL A   1      44.991  29.142  28.909  1.00  0.00     0.037 A 
ATOM     58  C   UNL A   1      39.807  32.645  30.746  1.00  0.00     0.049 A 
ATOM     59  C   UNL A   1      44.811  30.643  28.715  1.00  0.00     0.074 A 
ATOM     60  C   UNL A   1      40.577  32.463  31.879  1.00  0.00     0.029 A 
ATOM     61  N   UNL A   1      40.672  33.145  29.786  1.00  0.00    -0.354 N 
ATOM     62  N   UNL A   1      43.894  31.355  29.321  1.00  0.00    -0.248 NA
ATOM     63  C   UNL A   1      45.615  31.461  27.807  1.00  0.00     0.031 C 
ATOM     64  C   UNL A   1      41.938  32.776  31.540  1.00  0.00     0.029 A 
ATOM     65  C   UNL A   1      41.980  33.189  30.218  1.00  0.00     0.049 A 
ATOM     66  H   UNL A   1      40.383  33.438  28.892  1.00  0.00     0.167 HD
ATOM     67  C   UNL A   1      43.914  32.645  28.863  1.00  0.00     0.074 A 
ATOM     68  C   UNL A   1      45.019  32.664  27.918  1.00  0.00     0.031 C 
ATOM     69  C   UNL A   1      43.011  33.593  29.263  1.00  0.00     0.037 A 
BRANCH  56  70
ATOM     70  C   UNL A   1      37.176  32.817  30.742  1.00  0.00     0.058 A 
ATOM     71  C   UNL A   1      36.353  33.507  29.823  1.00  0.00     0.135 A 
ATOM     72  C   UNL A   1      36.726  32.872  32.079  1.00  0.00     0.135 A 
ATOM     73  F   UNL A   1      36.653  33.551  28.516  1.00  0.00    -0.206 F 
ATOM     74  C   UNL A   1      35.211  34.217  30.205  1.00  0.00     0.059 A 
ATOM     75  C   UNL A   1      35.574  33.554  32.480  1.00  0.00     0.059 A 
ATOM     76  F   UNL A   1      37.394  32.314  33.090  1.00  0.00    -0.206 F 
ATOM     77  C   UNL A   1      34.833  34.244  31.540  1.00  0.00     0.060 A 
BRANCH  77  78
ATOM     78  S   UNL A   1      33.406  35.221  32.036  1.00  0.00     0.124 S 
ATOM     79  O   UNL A   1      32.694  35.377  30.771  1.00  0.00    -0.237 OA
ATOM     80  O   UNL A   1      32.770  34.356  33.024  1.00  0.00    -0.237 OA
ATOM     81  O   UNL A   1      33.997  36.445  32.569  1.00  0.00    -0.744 OA
ENDBRANCH  77  78
ENDBRANCH  56  70
BRANCH  57  82
ATOM     82  C   UNL A   1      45.489  28.114  27.936  1.00  0.00     0.058 A 
ATOM     83  C   UNL A   1      44.968  28.194  26.624  1.00  0.00     0.135 A 
ATOM     84  C   UNL A   1      46.731  27.485  28.083  1.00  0.00     0.135 A 
ATOM     85  F   UNL A   1      43.767  28.762  26.416  1.00  0.00    -0.206 F 
ATOM     86  C   UNL A   1      45.721  27.856  25.503  1.00  0.00     0.059 A 
ATOM     87  C   UNL A   1      47.495  27.105  26.967  1.00  0.00     0.059 A 
ATOM     88  F   UNL A   1      47.292  27.385  29.299  1.00  0.00    -0.206 F 
ATOM     89  C   UNL A   1      47.008  27.359  25.682  1.00  0.00     0.060 A 
BRANCH  89  90
ATOM     90  S   UNL A   1      48.057  27.211  24.206  1.00  0.00     0.124 S 
ATOM     91  O   UNL A   1      47.731  25.869  23.737  1.00  0.00    -0.237 OA
ATOM     92  O   UNL A   1      47.559  28.305  23.377  1.00  0.00    -0.237 OA
ATOM     93  O   UNL A   1      49.407  27.369  24.735  1.00  0.00    -0.744 OA
ENDBRANCH  89  90
ENDBRANCH  57  82
BRANCH  69  94
ATOM     94  C   UNL A   1      43.019  35.009  28.740  1.00  0.00     0.058 A 
ATOM     95  C   UNL A   1      43.185  36.117  29.585  1.00  0.00     0.135 A 
ATOM     96  C   UNL A   1      42.751  35.305  27.383  1.00  0.00     0.135 A 
ATOM     97  F   UNL A   1      43.379  35.951  30.903  1.00  0.00    -0.206 F 
ATOM     98  C   UNL A   1      43.151  37.428  29.104  1.00  0.00     0.059 A 
ATOM     99  C   UNL A   1      42.641  36.603  26.896  1.00  0.00     0.059 A 
ATOM    100  F   UNL A   1      42.632  34.340  26.459  1.00  0.00    -0.206 F 
ATOM    101  C   UNL A   1      42.880  37.659  27.758  1.00  0.00     0.060 A 
BRANCH 101 102
ATOM    102  S   UNL A   1      42.861  39.347  27.129  1.00  0.00     0.124 S 
ATOM    103  O   UNL A   1      41.656  39.365  26.306  1.00  0.00    -0.237 OA
ATOM    104  O   UNL A   1      42.792  40.114  28.369  1.00  0.00    -0.237 OA
ATOM    105  O   UNL A   1      44.118  39.452  26.394  1.00  0.00    -0.744 OA
ENDBRANCH 101 102
ENDBRANCH  69  94
ENDBRANCH  43  44
ENDBRANCH  35  38
ENDBRANCH  33  34
ENDBRANCH  32  33
ENDBRANCH  31  32
ENDBRANCH   1  31
TORSDOF 20
ENDMDL
MODEL 2
REMARK VINA RESULT:     -13.2      1.451      2.114
REMARK SMILES Cc1c(NCc2ccccn2)cccc1C(=O)N1CCOC[C@@H]1CC(=O)NCCCCNC(=O)c1ccc(-c2c3nc(c(-c4c(F)cc(S(=O)(=O)[O-])cc4F)c4ccc([nH]4)c(-c4c(F)cc(S(=O)(=O)[O-])cc4F)c4nc(c(-c5c(F)cc(S(=O)(=O)[O-])cc5F)c5ccc2[nH]5)C=C4)C=C3)cc1
REMARK SMILES IDX 28 1 27 2 25 3 26 4 24 6 23 7 18 8 19 9 20 10 22 11 21 12
REMARK SMILES IDX 16 13 17 14 15 15 1 16 2 17 3 18 12 19 14 20 13 21 4 22 5 24
REMARK SMILES IDX 6 25 7 26 11 27 8 28 10 29 9 30 29 31 30 32 31 33 32 34
REMARK SMILES IDX 33 35 34 37 35 38 36 39 100 40 37 41 99 42 38 43 39 44 40 45
REMARK SMILES IDX 93 46 41 47 98 48 92 49 94 50 42 51 97 52 91 53 90 54 43 56
REMARK SMILES IDX 77 57 56 58 76 59 57 60 60 61 75 62 95 63 58 64 59 65 74 67
REMARK SMILES IDX 96 68 61 69 44 70 45 71 54 72 46 73 47 74 53 75 55 76 48 77
REMARK SMILES IDX 49 78 50 79 51 80 52 81 78 82 79 83 88 84 80 85 81 86 87 87
REMARK SMILES IDX 89 88 82 89 83 90 84 91 85 92 86 93 62 94 63 95 72 96 64 97
REMARK SMILES IDX 65 98 71 99 73 100 66 101 67 102 68 103 69 104 70 105
REMARK H PARENT 27 5 4 23 32 36 94 55 60 66
REMARK Flexibility Score: inf
ROOT
ATOM      1  C   UNL A   1      38.037  22.556  25.774  1.00  0.00     0.116 C 
ENDROOT
BRANCH   1   2
ATOM      2  N   UNL A   1      36.852  22.437  26.568  1.00  0.00    -0.356 N 
ATOM      3  C   UNL A   1      35.616  22.710  26.057  1.00  0.00     0.222 C 
ATOM      4  O   UNL A   1      34.765  23.198  26.800  1.00  0.00    -0.275 OA
ATOM      5  H   UNL A   1      36.931  22.152  27.507  1.00  0.00     0.163 HD
BRANCH   3   6
ATOM      6  C   UNL A   1      35.321  22.333  24.603  1.00  0.00     0.127 C 
BRANCH   6   7
ATOM      7  C   UNL A   1      34.339  21.190  24.247  1.00  0.00     0.120 C 
ATOM      8  N   UNL A   1      32.917  21.413  23.723  1.00  0.00    -0.331 N 
ATOM      9  C   UNL A   1      32.395  20.130  23.229  1.00  0.00     0.148 C 
ATOM     10  C   UNL A   1      32.489  19.008  24.281  1.00  0.00     0.181 C 
ATOM     11  C   UNL A   1      34.272  20.124  25.371  1.00  0.00     0.185 C 
ATOM     12  O   UNL A   1      33.805  18.873  24.832  1.00  0.00    -0.377 OA
BRANCH   8  13
ATOM     13  C   UNL A   1      32.511  22.531  22.952  1.00  0.00     0.254 C 
ATOM     14  O   UNL A   1      32.557  22.462  21.724  1.00  0.00    -0.269 OA
BRANCH  13  15
ATOM     15  C   UNL A   1      32.298  23.957  23.615  1.00  0.00     0.045 A 
ATOM     16  C   UNL A   1      32.444  25.668  21.315  1.00  0.00     0.047 C 
ATOM     17  C   UNL A   1      31.841  25.421  22.653  1.00  0.00    -0.015 A 
ATOM     18  C   UNL A   1      30.586  26.604  23.246  1.00  0.00     0.038 A 
ATOM     19  C   UNL A   1      29.693  26.258  24.780  1.00  0.00     0.026 A 
ATOM     20  C   UNL A   1      31.536  23.727  25.246  1.00  0.00     0.014 A 
ATOM     21  C   UNL A   1      30.210  24.818  25.817  1.00  0.00     0.003 A 
BRANCH  18  22
ATOM     22  N   UNL A   1      30.277  27.723  22.465  1.00  0.00    -0.379 N 
ATOM     23  H   UNL A   1      29.853  27.618  21.581  1.00  0.00     0.160 HD
BRANCH  22  24
ATOM     24  C   UNL A   1      30.594  29.051  22.984  1.00  0.00     0.169 C 
BRANCH  24  25
ATOM     25  C   UNL A   1      31.770  29.045  23.957  1.00  0.00     0.059 A 
ATOM     26  C   UNL A   1      33.047  28.661  23.550  1.00  0.00     0.026 A 
ATOM     27  N   UNL A   1      31.507  29.373  25.254  1.00  0.00    -0.259 NA
ATOM     28  C   UNL A   1      34.079  28.592  24.481  1.00  0.00     0.004 A 
ATOM     29  C   UNL A   1      32.527  29.276  26.140  1.00  0.00     0.111 A 
ATOM     30  C   UNL A   1      33.816  28.897  25.807  1.00  0.00     0.020 A 
ENDBRANCH  24  25
ENDBRANCH  22  24
ENDBRANCH  18  22
ENDBRANCH  13  15
ENDBRANCH   8  13
ENDBRANCH   6   7
ENDBRANCH   3   6
ENDBRANCH   1   2
BRANCH   1  31
ATOM     31  C   UNL A   1      38.433  21.136  25.343  1.00  0.00     0.023 C 
BRANCH  31  32
ATOM     32  C   UNL A   1      39.804  20.631  25.775  1.00  0.00     0.023 C 
BRANCH  32  33
ATOM     33  C   UNL A   1      40.247  21.418  27.170  1.00  0.00     0.116 C 
BRANCH  33  34
ATOM     34  N   UNL A   1      41.346  23.135  27.570  1.00  0.00    -0.352 N 
ATOM     35  C   UNL A   1      41.541  24.624  27.330  1.00  0.00     0.251 C 
ATOM     36  H   UNL A   1      42.059  22.863  28.194  1.00  0.00     0.163 HD
ATOM     37  O   UNL A   1      42.705  25.043  27.329  1.00  0.00    -0.269 OA
BRANCH  35  38
ATOM     38  C   UNL A   1      40.468  25.702  27.191  1.00  0.00     0.039 A 
ATOM     39  C   UNL A   1      40.764  26.791  26.377  1.00  0.00     0.014 A 
ATOM     40  C   UNL A   1      39.370  25.837  28.027  1.00  0.00     0.014 A 
ATOM     41  C   UNL A   1      40.413  28.074  26.789  1.00  0.00     0.010 A 
ATOM     42  C   UNL A   1      39.151  27.101  28.561  1.00  0.00     0.010 A 
ATOM     43  C   UNL A   1      39.828  28.210  28.032  1.00  0.00    -0.014 A 
BRANCH  43  44
ATOM     44  C   UNL A   1      40.100  29.338  28.943  1.00  0.00     0.031 A 
ATOM     45  C   UNL A   1      39.102  30.419  29.061  1.00  0.00     0.074 A 
ATOM     46  C   UNL A   1      41.156  29.308  29.801  1.00  0.00     0.049 A 
ATOM     47  N   UNL A   1      39.220  31.429  29.843  1.00  0.00    -0.248 NA
ATOM     48  C   UNL A   1      37.879  30.461  28.267  1.00  0.00     0.031 C 
ATOM     49  C   UNL A   1      41.400  30.122  30.997  1.00  0.00     0.029 A 
ATOM     50  N   UNL A   1      42.354  28.603  29.651  1.00  0.00    -0.354 N 
ATOM     51  C   UNL A   1      38.057  32.155  29.805  1.00  0.00     0.074 A 
ATOM     52  C   UNL A   1      37.255  31.517  28.795  1.00  0.00     0.031 C 
ATOM     53  C   UNL A   1      42.710  30.101  31.294  1.00  0.00     0.029 A 
ATOM     54  C   UNL A   1      43.381  29.380  30.231  1.00  0.00     0.049 A 
ATOM     55  H   UNL A   1      42.463  27.725  29.220  1.00  0.00     0.167 HD
ATOM     56  C   UNL A   1      37.930  33.188  30.684  1.00  0.00     0.037 A 
ATOM     57  C   UNL A   1      44.352  29.898  29.421  1.00  0.00     0.037 A 
ATOM     58  C   UNL A   1      39.260  33.571  31.178  1.00  0.00     0.049 A 
ATOM     59  C   UNL A   1      44.225  31.403  29.223  1.00  0.00     0.074 A 
ATOM     60  C   UNL A   1      40.007  33.365  32.323  1.00  0.00     0.029 A 
ATOM     61  N   UNL A   1      40.154  34.041  30.231  1.00  0.00    -0.354 N 
ATOM     62  N   UNL A   1      43.323  32.146  29.814  1.00  0.00    -0.248 NA
ATOM     63  C   UNL A   1      45.067  32.193  28.326  1.00  0.00     0.031 C 
ATOM     64  C   UNL A   1      41.382  33.633  32.003  1.00  0.00     0.029 A 
ATOM     65  C   UNL A   1      41.457  34.043  30.682  1.00  0.00     0.049 A 
ATOM     66  H   UNL A   1      39.888  34.342  29.333  1.00  0.00     0.167 HD
ATOM     67  C   UNL A   1      43.391  33.434  29.356  1.00  0.00     0.074 A 
ATOM     68  C   UNL A   1      44.510  33.415  28.427  1.00  0.00     0.031 C 
ATOM     69  C   UNL A   1      42.514  34.411  29.742  1.00  0.00     0.037 A 
BRANCH  56  70
ATOM     70  C   UNL A   1      36.636  33.829  31.136  1.00  0.00     0.058 A 
ATOM     71  C   UNL A   1      35.662  34.185  30.177  1.00  0.00     0.135 A 
ATOM     72  C   UNL A   1      36.332  34.242  32.452  1.00  0.00     0.135 A 
ATOM     73  F   UNL A   1      35.811  33.868  28.881  1.00  0.00    -0.206 F 
ATOM     74  C   UNL A   1      34.512  34.916  30.490  1.00  0.00     0.059 A 
ATOM     75  C   UNL A   1      35.178  34.951  32.793  1.00  0.00     0.059 A 
ATOM     76  F   UNL A   1      37.153  34.031  33.483  1.00  0.00    -0.206 F 
ATOM     77  C   UNL A   1      34.283  35.305  31.802  1.00  0.00     0.060 A 
BRANCH  77  78
ATOM     78  S   UNL A   1      32.840  36.309  32.187  1.00  0.00     0.124 S 
ATOM     79  O   UNL A   1      33.251  36.964  33.425  1.00  0.00    -0.237 OA
ATOM     80  O   UNL A   1      32.741  37.168  31.012  1.00  0.00    -0.237 OA
ATOM     81  O   UNL A   1      31.769  35.327  32.332  1.00  0.00    -0.744 OA
ENDBRANCH  77  78
ENDBRANCH  56  70
BRANCH  57  82
ATOM     82  C   UNL A   1      44.830  28.852  28.456  1.00  0.00     0.058 A 
ATOM     83  C   UNL A   1      44.486  29.052  27.100  1.00  0.00     0.135 A 
ATOM     84  C   UNL A   1      45.957  28.060  28.710  1.00  0.00     0.135 A 
ATOM     85  F   UNL A   1      43.400  29.781  26.788  1.00  0.00    -0.206 F 
ATOM     86  C   UNL A   1      45.320  28.663  26.055  1.00  0.00     0.059 A 
ATOM     87  C   UNL A   1      46.795  27.627  27.669  1.00  0.00     0.059 A 
ATOM     88  F   UNL A   1      46.350  27.839  29.974  1.00  0.00    -0.206 F 
ATOM     89  C   UNL A   1      46.502  27.994  26.352  1.00  0.00     0.060 A 
BRANCH  89  90
ATOM     90  S   UNL A   1      47.695  27.767  25.001  1.00  0.00     0.124 S 
ATOM     91  O   UNL A   1      48.807  28.605  25.436  1.00  0.00    -0.237 OA
ATOM     92  O   UNL A   1      47.935  26.327  25.054  1.00  0.00    -0.237 OA
ATOM     93  O   UNL A   1      46.975  28.255  23.830  1.00  0.00    -0.744 OA
ENDBRANCH  89  90
ENDBRANCH  57  82
BRANCH  69  94
ATOM     94  C   UNL A   1      42.576  35.826  29.217  1.00  0.00     0.058 A 
ATOM     95  C   UNL A   1      43.123  36.878  29.967  1.00  0.00     0.135 A 
ATOM     96  C   UNL A   1      41.988  36.191  27.984  1.00  0.00     0.135 A 
ATOM     97  F   UNL A   1      43.649  36.652  31.181  1.00  0.00    -0.206 F 
ATOM     98  C   UNL A   1      43.142  38.193  29.497  1.00  0.00     0.059 A 
ATOM     99  C   UNL A   1      41.931  37.503  27.528  1.00  0.00     0.059 A 
ATOM    100  F   UNL A   1      41.484  35.276  27.143  1.00  0.00    -0.206 F 
ATOM    101  C   UNL A   1      42.545  38.494  28.275  1.00  0.00     0.060 A 
BRANCH 101 102
ATOM    102  S   UNL A   1      42.591  40.184  27.653  1.00  0.00     0.124 S 
ATOM    103  O   UNL A   1      43.762  40.736  28.324  1.00  0.00    -0.237 OA
ATOM    104  O   UNL A   1      42.733  39.957  26.218  1.00  0.00    -0.237 OA
ATOM    105  O   UNL A   1      41.310  40.739  28.077  1.00  0.00    -0.744 OA
ENDBRANCH 101 102
ENDBRANCH  69  94
ENDBRANCH  43  44
ENDBRANCH  35  38
ENDBRANCH  33  34
ENDBRANCH  32  33
ENDBRANCH  31  32
ENDBRANCH   1  31
TORSDOF 20
ENDMDL
MODEL 3
REMARK VINA RESULT:     -12.3      4.396     11.382
REMARK SMILES Cc1c(NCc2ccccn2)cccc1C(=O)N1CCOC[C@@H]1CC(=O)NCCCCNC(=O)c1ccc(-c2c3nc(c(-c4c(F)cc(S(=O)(=O)[O-])cc4F)c4ccc([nH]4)c(-c4c(F)cc(S(=O)(=O)[O-])cc4F)c4nc(c(-c5c(F)cc(S(=O)(=O)[O-])cc5F)c5ccc2[nH]5)C=C4)C=C3)cc1
REMARK SMILES IDX 28 1 27 2 25 3 26 4 24 6 23 7 18 8 19 9 20 10 22 11 21 12
REMARK SMILES IDX 16 13 17 14 15 15 1 16 2 17 3 18 12 19 14 20 13 21 4 22 5 24
REMARK SMILES IDX 6 25 7 26 11 27 8 28 10 29 9 30 29 31 30 32 31 33 32 34
REMARK SMILES IDX 33 35 34 37 35 38 36 39 100 40 37 41 99 42 38 43 39 44 40 45
REMARK SMILES IDX 93 46 41 47 98 48 92 49 94 50 42 51 97 52 91 53 90 54 43 56
REMARK SMILES IDX 77 57 56 58 76 59 57 60 60 61 75 62 95 63 58 64 59 65 74 67
REMARK SMILES IDX 96 68 61 69 44 70 45 71 54 72 46 73 47 74 53 75 55 76 48 77
REMARK SMILES IDX 49 78 50 79 51 80 52 81 78 82 79 83 88 84 80 85 81 86 87 87
REMARK SMILES IDX 89 88 82 89 83 90 84 91 85 92 86 93 62 94 63 95 72 96 64 97
REMARK SMILES IDX 65 98 71 99 73 100 66 101 67 102 68 103 69 104 70 105
REMARK H PARENT 27 5 4 23 32 36 94 55 60 66
REMARK Flexibility Score: inf
ROOT
ATOM      1  C   UNL A   1      34.023  30.603  27.651  1.00  0.00     0.116 C 
ENDROOT
BRANCH   1   2
ATOM      2  N   UNL A   1      32.653  30.861  27.325  1.00  0.00    -0.356 N 
ATOM      3  C   UNL A   1      32.051  30.282  26.246  1.00  0.00     0.222 C 
ATOM      4  O   UNL A   1      31.191  30.919  25.638  1.00  0.00    -0.275 OA
ATOM      5  H   UNL A   1      32.133  31.474  27.895  1.00  0.00     0.163 HD
BRANCH   3   6
ATOM      6  C   UNL A   1      32.420  28.842  25.882  1.00  0.00     0.127 C 
BRANCH   6   7
ATOM      7  C   UNL A   1      32.710  28.426  24.419  1.00  0.00     0.120 C 
ATOM      8  N   UNL A   1      32.092  27.201  23.737  1.00  0.00    -0.331 N 
ATOM      9  C   UNL A   1      32.362  27.286  22.294  1.00  0.00     0.148 C 
ATOM     10  C   UNL A   1      33.859  27.467  21.981  1.00  0.00     0.181 C 
ATOM     11  C   UNL A   1      34.231  28.423  24.117  1.00  0.00     0.185 C 
ATOM     12  O   UNL A   1      34.448  28.558  22.699  1.00  0.00    -0.377 OA
BRANCH   8  13
ATOM     13  C   UNL A   1      30.817  26.666  24.050  1.00  0.00     0.254 C 
ATOM     14  O   UNL A   1      29.895  27.432  24.328  1.00  0.00    -0.269 OA
BRANCH  13  15
ATOM     15  C   UNL A   1      30.625  25.120  24.354  1.00  0.00     0.045 A 
ATOM     16  C   UNL A   1      31.897  23.941  22.067  1.00  0.00     0.047 C 
ATOM     17  C   UNL A   1      31.589  23.835  23.520  1.00  0.00    -0.015 A 
ATOM     18  C   UNL A   1      32.275  22.410  24.427  1.00  0.00     0.038 A 
ATOM     19  C   UNL A   1      32.084  22.325  26.224  1.00  0.00     0.026 A 
ATOM     20  C   UNL A   1      30.274  24.920  26.124  1.00  0.00     0.014 A 
ATOM     21  C   UNL A   1      31.028  23.579  27.077  1.00  0.00     0.003 A 
BRANCH  18  22
ATOM     22  N   UNL A   1      33.007  21.442  23.731  1.00  0.00    -0.379 N 
ATOM     23  H   UNL A   1      33.982  21.533  23.618  1.00  0.00     0.160 HD
BRANCH  22  24
ATOM     24  C   UNL A   1      32.299  20.292  23.173  1.00  0.00     0.169 C 
BRANCH  24  25
ATOM     25  C   UNL A   1      32.678  18.975  23.848  1.00  0.00     0.059 A 
ATOM     26  C   UNL A   1      33.266  17.935  23.129  1.00  0.00     0.026 A 
ATOM     27  N   UNL A   1      32.361  18.837  25.166  1.00  0.00    -0.259 NA
ATOM     28  C   UNL A   1      33.527  16.721  23.758  1.00  0.00     0.004 A 
ATOM     29  C   UNL A   1      32.607  17.637  25.743  1.00  0.00     0.111 A 
ATOM     30  C   UNL A   1      33.183  16.561  25.091  1.00  0.00     0.020 A 
ENDBRANCH  24  25
ENDBRANCH  22  24
ENDBRANCH  18  22
ENDBRANCH  13  15
ENDBRANCH   8  13
ENDBRANCH   6   7
ENDBRANCH   3   6
ENDBRANCH   1   2
BRANCH   1  31
ATOM     31  C   UNL A   1      34.697  31.965  27.869  1.00  0.00     0.023 C 
BRANCH  31  32
ATOM     32  C   UNL A   1      34.106  32.873  28.941  1.00  0.00     0.023 C 
BRANCH  32  33
ATOM     33  C   UNL A   1      34.717  32.421  30.419  1.00  0.00     0.116 C 
BRANCH  33  34
ATOM     34  N   UNL A   1      36.083  30.982  31.036  1.00  0.00    -0.352 N 
ATOM     35  C   UNL A   1      36.916  29.760  30.678  1.00  0.00     0.251 C 
ATOM     36  H   UNL A   1      36.279  31.180  31.980  1.00  0.00     0.163 HD
ATOM     37  O   UNL A   1      37.094  28.925  31.572  1.00  0.00    -0.269 OA
BRANCH  35  38
ATOM     38  C   UNL A   1      37.656  29.477  29.373  1.00  0.00     0.039 A 
ATOM     39  C   UNL A   1      37.671  28.160  28.925  1.00  0.00     0.014 A 
ATOM     40  C   UNL A   1      38.552  30.344  28.768  1.00  0.00     0.014 A 
ATOM     41  C   UNL A   1      38.846  27.623  28.404  1.00  0.00     0.010 A 
ATOM     42  C   UNL A   1      39.787  29.813  28.417  1.00  0.00     0.010 A 
ATOM     43  C   UNL A   1      39.972  28.422  28.408  1.00  0.00    -0.014 A 
BRANCH  43  44
ATOM     44  C   UNL A   1      41.330  27.915  28.678  1.00  0.00     0.031 A 
ATOM     45  C   UNL A   1      41.677  26.541  28.266  1.00  0.00     0.074 A 
ATOM     46  C   UNL A   1      42.312  28.744  29.128  1.00  0.00     0.049 A 
ATOM     47  N   UNL A   1      42.834  26.010  28.422  1.00  0.00    -0.248 NA
ATOM     48  C   UNL A   1      40.715  25.628  27.658  1.00  0.00     0.031 C 
ATOM     49  C   UNL A   1      43.765  28.546  29.122  1.00  0.00     0.029 A 
ATOM     50  N   UNL A   1      42.158  29.922  29.867  1.00  0.00    -0.354 N 
ATOM     51  C   UNL A   1      42.845  24.785  27.804  1.00  0.00     0.074 A 
ATOM     52  C   UNL A   1      41.493  24.587  27.353  1.00  0.00     0.031 C 
ATOM     53  C   UNL A   1      44.333  29.360  30.028  1.00  0.00     0.029 A 
ATOM     54  C   UNL A   1      43.260  30.020  30.745  1.00  0.00     0.049 A 
ATOM     55  H   UNL A   1      41.418  30.565  29.790  1.00  0.00     0.167 HD
ATOM     56  C   UNL A   1      44.035  24.128  27.730  1.00  0.00     0.037 A 
ATOM     57  C   UNL A   1      43.040  29.929  32.091  1.00  0.00     0.037 A 
ATOM     58  C   UNL A   1      44.960  24.683  28.728  1.00  0.00     0.049 A 
ATOM     59  C   UNL A   1      43.523  28.613  32.686  1.00  0.00     0.074 A 
ATOM     60  C   UNL A   1      46.031  25.557  28.733  1.00  0.00     0.029 A 
ATOM     61  N   UNL A   1      44.582  24.551  30.054  1.00  0.00    -0.354 N 
ATOM     62  N   UNL A   1      44.144  27.684  32.004  1.00  0.00    -0.248 NA
ATOM     63  C   UNL A   1      43.320  28.212  34.078  1.00  0.00     0.031 C 
ATOM     64  C   UNL A   1      46.217  26.015  30.083  1.00  0.00     0.029 A 
ATOM     65  C   UNL A   1      45.289  25.383  30.895  1.00  0.00     0.049 A 
ATOM     66  H   UNL A   1      43.884  23.930  30.363  1.00  0.00     0.167 HD
ATOM     67  C   UNL A   1      44.353  26.579  32.784  1.00  0.00     0.074 A 
ATOM     68  C   UNL A   1      43.824  26.963  34.082  1.00  0.00     0.031 C 
ATOM     69  C   UNL A   1      44.911  25.423  32.307  1.00  0.00     0.037 A 
BRANCH  56  70
ATOM     70  C   UNL A   1      44.395  23.028  26.755  1.00  0.00     0.058 A 
ATOM     71  C   UNL A   1      43.491  21.963  26.539  1.00  0.00     0.135 A 
ATOM     72  C   UNL A   1      45.638  22.875  26.101  1.00  0.00     0.135 A 
ATOM     73  F   UNL A   1      42.272  21.961  27.099  1.00  0.00    -0.206 F 
ATOM     74  C   UNL A   1      43.808  20.835  25.777  1.00  0.00     0.059 A 
ATOM     75  C   UNL A   1      45.967  21.769  25.314  1.00  0.00     0.059 A 
ATOM     76  F   UNL A   1      46.631  23.759  26.220  1.00  0.00    -0.206 F 
ATOM     77  C   UNL A   1      45.054  20.740  25.175  1.00  0.00     0.060 A 
BRANCH  77  78
ATOM     78  S   UNL A   1      45.483  19.253  24.258  1.00  0.00     0.124 S 
ATOM     79  O   UNL A   1      46.892  19.482  23.955  1.00  0.00    -0.237 OA
ATOM     80  O   UNL A   1      45.200  18.201  25.228  1.00  0.00    -0.237 OA
ATOM     81  O   UNL A   1      44.586  19.293  23.105  1.00  0.00    -0.744 OA
ENDBRANCH  77  78
ENDBRANCH  56  70
BRANCH  57  82
ATOM     82  C   UNL A   1      41.857  30.767  32.478  1.00  0.00     0.058 A 
ATOM     83  C   UNL A   1      42.058  32.167  32.477  1.00  0.00     0.135 A 
ATOM     84  C   UNL A   1      40.540  30.320  32.319  1.00  0.00     0.135 A 
ATOM     85  F   UNL A   1      43.295  32.663  32.651  1.00  0.00    -0.206 F 
ATOM     86  C   UNL A   1      41.049  33.062  32.136  1.00  0.00     0.059 A 
ATOM     87  C   UNL A   1      39.498  31.210  32.008  1.00  0.00     0.059 A 
ATOM     88  F   UNL A   1      40.276  29.004  32.297  1.00  0.00    -0.206 F 
ATOM     89  C   UNL A   1      39.779  32.570  31.852  1.00  0.00     0.060 A 
BRANCH  89  90
ATOM     90  S   UNL A   1      38.578  33.726  31.130  1.00  0.00     0.124 S 
ATOM     91  O   UNL A   1      37.534  33.752  32.148  1.00  0.00    -0.237 OA
ATOM     92  O   UNL A   1      39.373  34.946  31.014  1.00  0.00    -0.237 OA
ATOM     93  O   UNL A   1      38.202  33.083  29.877  1.00  0.00    -0.744 OA
ENDBRANCH  89  90
ENDBRANCH  57  82
BRANCH  69  94
ATOM     94  C   UNL A   1      45.119  24.196  33.163  1.00  0.00     0.058 A 
ATOM     95  C   UNL A   1      46.235  24.051  34.003  1.00  0.00     0.135 A 
ATOM     96  C   UNL A   1      44.258  23.077  33.085  1.00  0.00     0.135 A 
ATOM     97  F   UNL A   1      47.150  25.028  34.101  1.00  0.00    -0.206 F 
ATOM     98  C   UNL A   1      46.446  22.899  34.762  1.00  0.00     0.059 A 
ATOM     99  C   UNL A   1      44.488  21.893  33.776  1.00  0.00     0.059 A 
ATOM    100  F   UNL A   1      43.126  23.106  32.367  1.00  0.00    -0.206 F 
ATOM    101  C   UNL A   1      45.565  21.826  34.642  1.00  0.00     0.060 A 
BRANCH 101 102
ATOM    102  S   UNL A   1      45.820  20.348  35.640  1.00  0.00     0.124 S 
ATOM    103  O   UNL A   1      44.842  19.419  35.083  1.00  0.00    -0.237 OA
ATOM    104  O   UNL A   1      47.217  20.043  35.349  1.00  0.00    -0.237 OA
ATOM    105  O   UNL A   1      45.545  20.801  36.999  1.00  0.00    -0.744 OA
ENDBRANCH 101 102
ENDBRANCH  69  94
ENDBRANCH  43  44
ENDBRANCH  35  38
ENDBRANCH  33  34
ENDBRANCH  32  33
ENDBRANCH  31  32
ENDBRANCH   1  31
TORSDOF 20
ENDMDL
