MODEL 1
REMARK VINA RESULT:     -11.1      0.000      0.000
REMARK SMILES CC[C@]1(C(=O)NCCCCNC(=O)c2ccc(-c3c4nc(c(-c5c(F)cc(S(=O)(=O)[O-])cc5F)c5ccc([nH]5)c(-c5c(F)cc(S(=O)(=O)[O-])cc5F)c5nc(c(-c6c(F)cc(S(=O)(=O)[O-])cc6F)c6ccc3[nH]6)C=C5)C=C4)cc2)CCC[N@@H+](Cc2cc(OC)ccc2F)C1
REMARK SMILES IDX 8 1 7 2 6 3 4 4 5 5 3 7 80 8 94 9 81 10 83 11 82 12 2 14
REMARK SMILES IDX 1 15 84 16 85 17 86 18 92 19 87 20 91 21 93 22 90 23 88 24
REMARK SMILES IDX 89 25 9 26 10 27 11 28 12 29 13 31 14 32 15 33 79 34 16 35
REMARK SMILES IDX 78 36 17 37 18 38 19 39 72 40 20 41 77 42 71 43 73 44 21 45
REMARK SMILES IDX 76 46 70 47 69 48 22 50 56 51 35 52 55 53 36 54 39 55 54 56
REMARK SMILES IDX 74 57 37 58 38 59 53 61 75 62 40 63 23 64 24 65 33 66 25 67
REMARK SMILES IDX 26 68 32 69 34 70 27 71 28 72 29 73 30 74 31 75 57 76 58 77
REMARK SMILES IDX 67 78 59 79 60 80 66 81 68 82 61 83 62 84 63 85 64 86 65 87
REMARK SMILES IDX 41 88 42 89 51 90 43 91 44 92 50 93 52 94 45 95 46 96 47 97
REMARK SMILES IDX 48 98 49 99
REMARK H PARENT 6 6 83 13 11 30 73 49 39 60
REMARK Flexibility Score: inf
ROOT
ATOM      1  C   UNL A   1      34.951  31.097  27.939  1.00  0.00     0.023 C 
ENDROOT
BRANCH   1   2
ATOM      2  C   UNL A   1      34.886  29.613  27.561  1.00  0.00     0.116 C 
BRANCH   2   3
ATOM      3  N   UNL A   1      33.649  28.968  27.963  1.00  0.00    -0.355 N 
ATOM      4  C   UNL A   1      32.666  28.310  27.287  1.00  0.00     0.231 C 
ATOM      5  O   UNL A   1      31.775  27.851  28.013  1.00  0.00    -0.274 OA
ATOM      6  H   UNL A   1      33.485  29.017  28.933  1.00  0.00     0.163 HD
BRANCH   4   7
ATOM      7  C   UNL A   1      32.629  28.115  25.735  1.00  0.00     0.098 C 
ATOM      8  C   UNL A   1      33.904  27.369  25.270  1.00  0.00     0.028 C 
ATOM      9  C   UNL A   1      31.342  27.350  25.341  1.00  0.00     0.279 C 
ATOM     10  C   UNL A   1      33.811  26.610  23.950  1.00  0.00     0.063 C 
ATOM     11  N   UNL A   1      31.419  26.838  23.967  1.00  0.00    -0.330 N 
ATOM     12  C   UNL A   1      32.486  25.867  23.798  1.00  0.00     0.262 C 
ATOM     13  H   UNL A   1      31.700  27.642  23.405  1.00  0.00     0.348 HD
BRANCH   7  14
ATOM     14  C   UNL A   1      32.604  29.560  25.101  1.00  0.00     0.019 C 
ATOM     15  C   UNL A   1      31.431  30.481  25.416  1.00  0.00     0.005 C 
ENDBRANCH   7  14
BRANCH  11  16
ATOM     16  C   UNL A   1      30.152  26.527  23.317  1.00  0.00     0.302 C 
BRANCH  16  17
ATOM     17  C   UNL A   1      29.177  27.651  23.105  1.00  0.00     0.046 A 
ATOM     18  C   UNL A   1      29.572  28.842  22.477  1.00  0.00     0.059 A 
ATOM     19  C   UNL A   1      27.876  27.569  23.607  1.00  0.00     0.132 A 
ATOM     20  C   UNL A   1      28.685  29.919  22.367  1.00  0.00     0.119 A 
ATOM     21  C   UNL A   1      26.967  28.605  23.440  1.00  0.00     0.043 A 
ATOM     22  F   UNL A   1      27.480  26.487  24.290  1.00  0.00    -0.206 F 
ATOM     23  C   UNL A   1      27.368  29.782  22.812  1.00  0.00     0.049 A 
BRANCH  20  24
ATOM     24  O   UNL A   1      29.209  31.058  21.819  1.00  0.00    -0.497 OA
ATOM     25  C   UNL A   1      28.671  32.278  22.321  1.00  0.00     0.278 C 
ENDBRANCH  20  24
ENDBRANCH  16  17
ENDBRANCH  11  16
ENDBRANCH   4   7
ENDBRANCH   2   3
ENDBRANCH   1   2
BRANCH   1  26
ATOM     26  C   UNL A   1      33.647  31.878  27.838  1.00  0.00     0.023 C 
BRANCH  26  27
ATOM     27  C   UNL A   1      33.771  33.290  27.294  1.00  0.00     0.116 C 
BRANCH  27  28
ATOM     28  N   UNL A   1      33.057  34.279  28.087  1.00  0.00    -0.352 N 
ATOM     29  C   UNL A   1      33.302  34.702  29.373  1.00  0.00     0.251 C 
ATOM     30  H   UNL A   1      32.291  34.706  27.640  1.00  0.00     0.163 HD
ATOM     31  O   UNL A   1      32.524  35.471  29.920  1.00  0.00    -0.269 OA
BRANCH  29  32
ATOM     32  C   UNL A   1      34.490  34.194  30.095  1.00  0.00     0.039 A 
ATOM     33  C   UNL A   1      34.301  33.337  31.181  1.00  0.00     0.014 A 
ATOM     34  C   UNL A   1      35.782  34.539  29.689  1.00  0.00     0.014 A 
ATOM     35  C   UNL A   1      35.410  32.783  31.822  1.00  0.00     0.010 A 
ATOM     36  C   UNL A   1      36.879  33.908  30.261  1.00  0.00     0.010 A 
ATOM     37  C   UNL A   1      36.707  33.037  31.346  1.00  0.00    -0.014 A 
BRANCH  37  38
ATOM     38  C   UNL A   1      37.893  32.414  31.987  1.00  0.00     0.031 A 
ATOM     39  C   UNL A   1      38.359  32.895  33.335  1.00  0.00     0.074 A 
ATOM     40  C   UNL A   1      38.568  31.446  31.337  1.00  0.00     0.049 A 
ATOM     41  N   UNL A   1      39.369  32.479  34.055  1.00  0.00    -0.248 NA
ATOM     42  C   UNL A   1      37.612  34.007  33.945  1.00  0.00     0.031 C 
ATOM     43  C   UNL A   1      38.251  30.945  29.998  1.00  0.00     0.029 A 
ATOM     44  N   UNL A   1      39.661  30.709  31.715  1.00  0.00    -0.354 N 
ATOM     45  C   UNL A   1      39.381  33.280  35.191  1.00  0.00     0.074 A 
ATOM     46  C   UNL A   1      38.324  34.253  35.033  1.00  0.00     0.031 C 
ATOM     47  C   UNL A   1      39.102  29.956  29.684  1.00  0.00     0.029 A 
ATOM     48  C   UNL A   1      40.048  29.775  30.781  1.00  0.00     0.049 A 
ATOM     49  H   UNL A   1      40.125  30.835  32.573  1.00  0.00     0.167 HD
ATOM     50  C   UNL A   1      40.181  33.194  36.281  1.00  0.00     0.037 A 
ATOM     51  C   UNL A   1      41.047  28.874  30.809  1.00  0.00     0.037 A 
ATOM     52  C   UNL A   1      41.217  32.207  36.436  1.00  0.00     0.049 A 
ATOM     53  C   UNL A   1      41.915  28.788  32.036  1.00  0.00     0.074 A 
ATOM     54  C   UNL A   1      42.050  31.997  37.520  1.00  0.00     0.029 A 
ATOM     55  N   UNL A   1      41.565  31.265  35.477  1.00  0.00    -0.354 N 
ATOM     56  N   UNL A   1      41.867  29.507  33.133  1.00  0.00    -0.248 NA
ATOM     57  C   UNL A   1      42.963  27.758  32.036  1.00  0.00     0.031 C 
ATOM     58  C   UNL A   1      42.934  30.961  37.199  1.00  0.00     0.029 A 
ATOM     59  C   UNL A   1      42.611  30.485  35.939  1.00  0.00     0.049 A 
ATOM     60  H   UNL A   1      41.132  31.168  34.599  1.00  0.00     0.167 HD
ATOM     61  C   UNL A   1      42.854  28.994  33.968  1.00  0.00     0.074 A 
ATOM     62  C   UNL A   1      43.474  27.897  33.252  1.00  0.00     0.031 C 
ATOM     63  C   UNL A   1      43.210  29.390  35.215  1.00  0.00     0.037 A 
BRANCH  50  64
ATOM     64  C   UNL A   1      39.956  34.185  37.391  1.00  0.00     0.058 A 
ATOM     65  C   UNL A   1      40.564  35.451  37.386  1.00  0.00     0.135 A 
ATOM     66  C   UNL A   1      39.099  33.878  38.461  1.00  0.00     0.135 A 
ATOM     67  F   UNL A   1      41.406  35.793  36.397  1.00  0.00    -0.206 F 
ATOM     68  C   UNL A   1      40.358  36.364  38.415  1.00  0.00     0.059 A 
ATOM     69  C   UNL A   1      38.853  34.788  39.486  1.00  0.00     0.059 A 
ATOM     70  F   UNL A   1      38.491  32.683  38.520  1.00  0.00    -0.206 F 
ATOM     71  C   UNL A   1      39.500  36.023  39.461  1.00  0.00     0.060 A 
BRANCH  71  72
ATOM     72  S   UNL A   1      39.242  37.220  40.787  1.00  0.00     0.124 S 
ATOM     73  O   UNL A   1      38.440  38.236  40.110  1.00  0.00    -0.237 OA
ATOM     74  O   UNL A   1      38.541  36.426  41.792  1.00  0.00    -0.237 OA
ATOM     75  O   UNL A   1      40.596  37.627  41.147  1.00  0.00    -0.744 OA
ENDBRANCH  71  72
ENDBRANCH  50  64
BRANCH  51  76
ATOM     76  C   UNL A   1      41.253  27.954  29.657  1.00  0.00     0.058 A 
ATOM     77  C   UNL A   1      40.353  26.910  29.394  1.00  0.00     0.135 A 
ATOM     78  C   UNL A   1      42.344  28.109  28.787  1.00  0.00     0.135 A 
ATOM     79  F   UNL A   1      39.296  26.718  30.198  1.00  0.00    -0.206 F 
ATOM     80  C   UNL A   1      40.537  26.041  28.323  1.00  0.00     0.059 A 
ATOM     81  C   UNL A   1      42.533  27.270  27.693  1.00  0.00     0.059 A 
ATOM     82  F   UNL A   1      43.224  29.104  28.982  1.00  0.00    -0.206 F 
ATOM     83  C   UNL A   1      41.629  26.231  27.476  1.00  0.00     0.060 A 
BRANCH  83  84
ATOM     84  S   UNL A   1      41.832  25.124  26.065  1.00  0.00     0.124 S 
ATOM     85  O   UNL A   1      40.890  24.059  26.387  1.00  0.00    -0.237 OA
ATOM     86  O   UNL A   1      41.466  25.986  24.944  1.00  0.00    -0.237 OA
ATOM     87  O   UNL A   1      43.244  24.757  26.126  1.00  0.00    -0.744 OA
ENDBRANCH  83  84
ENDBRANCH  51  76
BRANCH  63  88
ATOM     88  C   UNL A   1      44.290  28.602  35.907  1.00  0.00     0.058 A 
ATOM     89  C   UNL A   1      43.998  27.497  36.722  1.00  0.00     0.135 A 
ATOM     90  C   UNL A   1      45.640  28.940  35.720  1.00  0.00     0.135 A 
ATOM     91  F   UNL A   1      42.724  27.133  36.938  1.00  0.00    -0.206 F 
ATOM     92  C   UNL A   1      45.005  26.777  37.356  1.00  0.00     0.059 A 
ATOM     93  C   UNL A   1      46.665  28.214  36.316  1.00  0.00     0.059 A 
ATOM     94  F   UNL A   1      45.976  29.980  34.938  1.00  0.00    -0.206 F 
ATOM     95  C   UNL A   1      46.336  27.144  37.146  1.00  0.00     0.060 A 
BRANCH  95  96
ATOM     96  S   UNL A   1      47.635  26.192  37.963  1.00  0.00     0.124 S 
ATOM     97  O   UNL A   1      48.762  27.116  37.897  1.00  0.00    -0.237 OA
ATOM     98  O   UNL A   1      47.072  25.971  39.291  1.00  0.00    -0.237 OA
ATOM     99  O   UNL A   1      47.754  24.997  37.133  1.00  0.00    -0.744 OA
ENDBRANCH  95  96
ENDBRANCH  63  88
ENDBRANCH  37  38
ENDBRANCH  29  32
ENDBRANCH  27  28
ENDBRANCH  26  27
ENDBRANCH   1  26
TORSDOF 18
ENDMDL
MODEL 2
REMARK VINA RESULT:     -11.1      7.058     11.050
REMARK SMILES CC[C@]1(C(=O)NCCCCNC(=O)c2ccc(-c3c4nc(c(-c5c(F)cc(S(=O)(=O)[O-])cc5F)c5ccc([nH]5)c(-c5c(F)cc(S(=O)(=O)[O-])cc5F)c5nc(c(-c6c(F)cc(S(=O)(=O)[O-])cc6F)c6ccc3[nH]6)C=C5)C=C4)cc2)CCC[N@@H+](Cc2cc(OC)ccc2F)C1
REMARK SMILES IDX 8 1 7 2 6 3 4 4 5 5 3 7 80 8 94 9 81 10 83 11 82 12 2 14
REMARK SMILES IDX 1 15 84 16 85 17 86 18 92 19 87 20 91 21 93 22 90 23 88 24
REMARK SMILES IDX 89 25 9 26 10 27 11 28 12 29 13 31 14 32 15 33 79 34 16 35
REMARK SMILES IDX 78 36 17 37 18 38 19 39 72 40 20 41 77 42 71 43 73 44 21 45
REMARK SMILES IDX 76 46 70 47 69 48 22 50 56 51 35 52 55 53 36 54 39 55 54 56
REMARK SMILES IDX 74 57 37 58 38 59 53 61 75 62 40 63 23 64 24 65 33 66 25 67
REMARK SMILES IDX 26 68 32 69 34 70 27 71 28 72 29 73 30 74 31 75 57 76 58 77
REMARK SMILES IDX 67 78 59 79 60 80 66 81 68 82 61 83 62 84 63 85 64 86 65 87
REMARK SMILES IDX 41 88 42 89 51 90 43 91 44 92 50 93 52 94 45 95 46 96 47 97
REMARK SMILES IDX 48 98 49 99
REMARK H PARENT 6 6 83 13 11 30 73 49 39 60
REMARK Flexibility Score: inf
ROOT
ATOM      1  C   UNL A   1      39.537  22.890  26.528  1.00  0.00     0.023 C 
ENDROOT
BRANCH   1   2
ATOM      2  C   UNL A   1      38.293  23.735  26.229  1.00  0.00     0.116 C 
BRANCH   2   3
ATOM      3  N   UNL A   1      37.836  23.624  24.856  1.00  0.00    -0.355 N 
ATOM      4  C   UNL A   1      36.663  23.235  24.281  1.00  0.00     0.231 C 
ATOM      5  O   UNL A   1      36.650  23.327  23.047  1.00  0.00    -0.274 OA
ATOM      6  H   UNL A   1      38.520  23.885  24.198  1.00  0.00     0.163 HD
BRANCH   4   7
ATOM      7  C   UNL A   1      35.411  22.722  25.069  1.00  0.00     0.098 C 
ATOM      8  C   UNL A   1      34.960  23.795  26.090  1.00  0.00     0.028 C 
ATOM      9  C   UNL A   1      34.282  22.370  24.071  1.00  0.00     0.279 C 
ATOM     10  C   UNL A   1      33.502  23.746  26.536  1.00  0.00     0.063 C 
ATOM     11  N   UNL A   1      32.990  22.221  24.751  1.00  0.00    -0.330 N 
ATOM     12  C   UNL A   1      32.549  23.454  25.379  1.00  0.00     0.262 C 
ATOM     13  H   UNL A   1      33.175  21.581  25.524  1.00  0.00     0.348 HD
BRANCH   7  14
ATOM     14  C   UNL A   1      35.867  21.422  25.838  1.00  0.00     0.019 C 
ATOM     15  C   UNL A   1      36.182  20.165  25.035  1.00  0.00     0.005 C 
ENDBRANCH   7  14
BRANCH  11  16
ATOM     16  C   UNL A   1      31.969  21.453  24.049  1.00  0.00     0.302 C 
BRANCH  16  17
ATOM     17  C   UNL A   1      32.256  20.007  23.757  1.00  0.00     0.046 A 
ATOM     18  C   UNL A   1      32.618  19.119  24.782  1.00  0.00     0.059 A 
ATOM     19  C   UNL A   1      32.253  19.531  22.443  1.00  0.00     0.132 A 
ATOM     20  C   UNL A   1      32.974  17.798  24.490  1.00  0.00     0.119 A 
ATOM     21  C   UNL A   1      32.536  18.203  22.151  1.00  0.00     0.043 A 
ATOM     22  F   UNL A   1      31.998  20.361  21.423  1.00  0.00    -0.206 F 
ATOM     23  C   UNL A   1      32.891  17.331  23.176  1.00  0.00     0.049 A 
BRANCH  20  24
ATOM     24  O   UNL A   1      33.397  17.054  25.558  1.00  0.00    -0.497 OA
ATOM     25  C   UNL A   1      32.948  15.701  25.573  1.00  0.00     0.278 C 
ENDBRANCH  20  24
ENDBRANCH  16  17
ENDBRANCH  11  16
ENDBRANCH   4   7
ENDBRANCH   2   3
ENDBRANCH   1   2
BRANCH   1  26
ATOM     26  C   UNL A   1      39.542  21.473  25.969  1.00  0.00     0.023 C 
BRANCH  26  27
ATOM     27  C   UNL A   1      40.129  20.412  26.882  1.00  0.00     0.116 C 
BRANCH  27  28
ATOM     28  N   UNL A   1      41.060  19.520  26.208  1.00  0.00    -0.352 N 
ATOM     29  C   UNL A   1      42.328  19.781  25.742  1.00  0.00     0.251 C 
ATOM     30  H   UNL A   1      40.738  18.601  26.067  1.00  0.00     0.163 HD
ATOM     31  O   UNL A   1      42.927  18.931  25.099  1.00  0.00    -0.269 OA
BRANCH  29  32
ATOM     32  C   UNL A   1      42.941  21.104  25.993  1.00  0.00     0.039 A 
ATOM     33  C   UNL A   1      43.104  21.985  24.922  1.00  0.00     0.014 A 
ATOM     34  C   UNL A   1      43.329  21.486  27.280  1.00  0.00     0.014 A 
ATOM     35  C   UNL A   1      43.603  23.267  25.154  1.00  0.00     0.010 A 
ATOM     36  C   UNL A   1      43.728  22.794  27.525  1.00  0.00     0.010 A 
ATOM     37  C   UNL A   1      43.888  23.694  26.463  1.00  0.00    -0.014 A 
BRANCH  37  38
ATOM     38  C   UNL A   1      44.372  25.072  26.730  1.00  0.00     0.031 A 
ATOM     39  C   UNL A   1      43.421  26.117  27.248  1.00  0.00     0.074 A 
ATOM     40  C   UNL A   1      45.655  25.387  26.470  1.00  0.00     0.049 A 
ATOM     41  N   UNL A   1      43.653  27.371  27.540  1.00  0.00    -0.248 NA
ATOM     42  C   UNL A   1      42.017  25.712  27.435  1.00  0.00     0.031 C 
ATOM     43  C   UNL A   1      46.653  24.476  25.903  1.00  0.00     0.029 A 
ATOM     44  N   UNL A   1      46.343  26.560  26.647  1.00  0.00    -0.354 N 
ATOM     45  C   UNL A   1      42.430  27.901  27.936  1.00  0.00     0.074 A 
ATOM     46  C   UNL A   1      41.445  26.855  27.778  1.00  0.00     0.031 C 
ATOM     47  C   UNL A   1      47.833  25.111  25.819  1.00  0.00     0.029 A 
ATOM     48  C   UNL A   1      47.670  26.483  26.290  1.00  0.00     0.049 A 
ATOM     49  H   UNL A   1      45.928  27.381  26.997  1.00  0.00     0.167 HD
ATOM     50  C   UNL A   1      42.158  29.138  28.417  1.00  0.00     0.037 A 
ATOM     51  C   UNL A   1      48.644  27.411  26.342  1.00  0.00     0.037 A 
ATOM     52  C   UNL A   1      43.151  30.165  28.589  1.00  0.00     0.049 A 
ATOM     53  C   UNL A   1      48.321  28.774  26.892  1.00  0.00     0.074 A 
ATOM     54  C   UNL A   1      42.994  31.434  29.117  1.00  0.00     0.029 A 
ATOM     55  N   UNL A   1      44.488  30.042  28.237  1.00  0.00    -0.354 N 
ATOM     56  N   UNL A   1      47.174  29.237  27.330  1.00  0.00    -0.248 NA
ATOM     57  C   UNL A   1      49.427  29.737  26.970  1.00  0.00     0.031 C 
ATOM     58  C   UNL A   1      44.224  32.096  29.038  1.00  0.00     0.029 A 
ATOM     59  C   UNL A   1      45.162  31.218  28.519  1.00  0.00     0.049 A 
ATOM     60  H   UNL A   1      44.897  29.237  27.844  1.00  0.00     0.167 HD
ATOM     61  C   UNL A   1      47.427  30.533  27.768  1.00  0.00     0.074 A 
ATOM     62  C   UNL A   1      48.839  30.774  27.552  1.00  0.00     0.031 C 
ATOM     63  C   UNL A   1      46.572  31.437  28.304  1.00  0.00     0.037 A 
BRANCH  50  64
ATOM     64  C   UNL A   1      40.733  29.439  28.799  1.00  0.00     0.058 A 
ATOM     65  C   UNL A   1      39.722  29.570  27.835  1.00  0.00     0.135 A 
ATOM     66  C   UNL A   1      40.368  29.572  30.150  1.00  0.00     0.135 A 
ATOM     67  F   UNL A   1      40.015  29.470  26.528  1.00  0.00    -0.206 F 
ATOM     68  C   UNL A   1      38.407  29.854  28.190  1.00  0.00     0.059 A 
ATOM     69  C   UNL A   1      39.053  29.824  30.530  1.00  0.00     0.059 A 
ATOM     70  F   UNL A   1      41.294  29.458  31.115  1.00  0.00    -0.206 F 
ATOM     71  C   UNL A   1      38.083  29.979  29.542  1.00  0.00     0.060 A 
BRANCH  71  72
ATOM     72  S   UNL A   1      36.371  30.343  29.985  1.00  0.00     0.124 S 
ATOM     73  O   UNL A   1      36.132  29.372  31.048  1.00  0.00    -0.237 OA
ATOM     74  O   UNL A   1      36.449  31.738  30.408  1.00  0.00    -0.237 OA
ATOM     75  O   UNL A   1      35.640  30.107  28.745  1.00  0.00    -0.744 OA
ENDBRANCH  71  72
ENDBRANCH  50  64
BRANCH  51  76
ATOM     76  C   UNL A   1      50.023  27.068  25.900  1.00  0.00     0.058 A 
ATOM     77  C   UNL A   1      50.430  27.271  24.572  1.00  0.00     0.135 A 
ATOM     78  C   UNL A   1      50.967  26.546  26.799  1.00  0.00     0.135 A 
ATOM     79  F   UNL A   1      49.564  27.765  23.674  1.00  0.00    -0.206 F 
ATOM     80  C   UNL A   1      51.715  26.951  24.146  1.00  0.00     0.059 A 
ATOM     81  C   UNL A   1      52.267  26.245  26.402  1.00  0.00     0.059 A 
ATOM     82  F   UNL A   1      50.635  26.351  28.085  1.00  0.00    -0.206 F 
ATOM     83  C   UNL A   1      52.628  26.440  25.070  1.00  0.00     0.060 A 
BRANCH  83  84
ATOM     84  S   UNL A   1      54.305  26.070  24.514  1.00  0.00     0.124 S 
ATOM     85  O   UNL A   1      54.428  24.661  24.865  1.00  0.00    -0.237 OA
ATOM     86  O   UNL A   1      54.229  26.371  23.088  1.00  0.00    -0.237 OA
ATOM     87  O   UNL A   1      55.128  26.989  25.296  1.00  0.00    -0.744 OA
ENDBRANCH  83  84
ENDBRANCH  51  76
BRANCH  63  88
ATOM     88  C   UNL A   1      47.148  32.757  28.743  1.00  0.00     0.058 A 
ATOM     89  C   UNL A   1      47.664  32.952  30.033  1.00  0.00     0.135 A 
ATOM     90  C   UNL A   1      47.217  33.831  27.840  1.00  0.00     0.135 A 
ATOM     91  F   UNL A   1      47.620  31.960  30.936  1.00  0.00    -0.206 F 
ATOM     92  C   UNL A   1      48.195  34.176  30.426  1.00  0.00     0.059 A 
ATOM     93  C   UNL A   1      47.773  35.054  28.200  1.00  0.00     0.059 A 
ATOM     94  F   UNL A   1      46.751  33.695  26.588  1.00  0.00    -0.206 F 
ATOM     95  C   UNL A   1      48.244  35.222  29.501  1.00  0.00     0.060 A 
BRANCH  95  96
ATOM     96  S   UNL A   1      48.948  36.801  30.018  1.00  0.00     0.124 S 
ATOM     97  O   UNL A   1      50.135  36.369  30.748  1.00  0.00    -0.237 OA
ATOM     98  O   UNL A   1      49.195  37.466  28.742  1.00  0.00    -0.237 OA
ATOM     99  O   UNL A   1      47.892  37.395  30.833  1.00  0.00    -0.744 OA
ENDBRANCH  95  96
ENDBRANCH  63  88
ENDBRANCH  37  38
ENDBRANCH  29  32
ENDBRANCH  27  28
ENDBRANCH  26  27
ENDBRANCH   1  26
TORSDOF 18
ENDMDL
MODEL 3
REMARK VINA RESULT:     -11.0      6.504      8.993
REMARK SMILES CC[C@]1(C(=O)NCCCCNC(=O)c2ccc(-c3c4nc(c(-c5c(F)cc(S(=O)(=O)[O-])cc5F)c5ccc([nH]5)c(-c5c(F)cc(S(=O)(=O)[O-])cc5F)c5nc(c(-c6c(F)cc(S(=O)(=O)[O-])cc6F)c6ccc3[nH]6)C=C5)C=C4)cc2)CCC[N@@H+](Cc2cc(OC)ccc2F)C1
REMARK SMILES IDX 8 1 7 2 6 3 4 4 5 5 3 7 80 8 94 9 81 10 83 11 82 12 2 14
REMARK SMILES IDX 1 15 84 16 85 17 86 18 92 19 87 20 91 21 93 22 90 23 88 24
REMARK SMILES IDX 89 25 9 26 10 27 11 28 12 29 13 31 14 32 15 33 79 34 16 35
REMARK SMILES IDX 78 36 17 37 18 38 19 39 72 40 20 41 77 42 71 43 73 44 21 45
REMARK SMILES IDX 76 46 70 47 69 48 22 50 56 51 35 52 55 53 36 54 39 55 54 56
REMARK SMILES IDX 74 57 37 58 38 59 53 61 75 62 40 63 23 64 24 65 33 66 25 67
REMARK SMILES IDX 26 68 32 69 34 70 27 71 28 72 29 73 30 74 31 75 57 76 58 77
REMARK SMILES IDX 67 78 59 79 60 80 66 81 68 82 61 83 62 84 63 85 64 86 65 87
REMARK SMILES IDX 41 88 42 89 51 90 43 91 44 92 50 93 52 94 45 95 46 96 47 97
REMARK SMILES IDX 48 98 49 99
REMARK H PARENT 6 6 83 13 11 30 73 49 39 60
REMARK Flexibility Score: inf
ROOT
ATOM      1  C   UNL A   1      33.356  30.532  26.872  1.00  0.00     0.023 C 
ENDROOT
BRANCH   1   2
ATOM      2  C   UNL A   1      32.569  29.831  25.758  1.00  0.00     0.116 C 
BRANCH   2   3
ATOM      3  N   UNL A   1      33.352  29.592  24.560  1.00  0.00    -0.355 N 
ATOM      4  C   UNL A   1      33.540  28.507  23.757  1.00  0.00     0.231 C 
ATOM      5  O   UNL A   1      34.265  28.723  22.778  1.00  0.00    -0.274 OA
ATOM      6  H   UNL A   1      33.857  30.384  24.263  1.00  0.00     0.163 HD
BRANCH   4   7
ATOM      7  C   UNL A   1      32.907  27.097  24.002  1.00  0.00     0.098 C 
ATOM      8  C   UNL A   1      31.362  27.202  23.964  1.00  0.00     0.028 C 
ATOM      9  C   UNL A   1      33.440  26.100  22.945  1.00  0.00     0.279 C 
ATOM     10  C   UNL A   1      30.597  25.927  23.626  1.00  0.00     0.063 C 
ATOM     11  N   UNL A   1      32.633  24.874  22.905  1.00  0.00    -0.330 N 
ATOM     12  C   UNL A   1      31.260  25.128  22.506  1.00  0.00     0.262 C 
ATOM     13  H   UNL A   1      32.575  24.570  23.877  1.00  0.00     0.348 HD
BRANCH   7  14
ATOM     14  C   UNL A   1      33.367  26.642  25.442  1.00  0.00     0.019 C 
ATOM     15  C   UNL A   1      34.494  25.623  25.566  1.00  0.00     0.005 C 
ENDBRANCH   7  14
BRANCH  11  16
ATOM     16  C   UNL A   1      33.267  23.696  22.326  1.00  0.00     0.302 C 
BRANCH  16  17
ATOM     17  C   UNL A   1      33.740  22.622  23.264  1.00  0.00     0.046 A 
ATOM     18  C   UNL A   1      32.870  21.616  23.711  1.00  0.00     0.059 A 
ATOM     19  C   UNL A   1      35.038  22.649  23.782  1.00  0.00     0.132 A 
ATOM     20  C   UNL A   1      33.291  20.674  24.656  1.00  0.00     0.119 A 
ATOM     21  C   UNL A   1      35.488  21.677  24.666  1.00  0.00     0.043 A 
ATOM     22  F   UNL A   1      35.878  23.639  23.452  1.00  0.00    -0.206 F 
ATOM     23  C   UNL A   1      34.616  20.682  25.100  1.00  0.00     0.049 A 
BRANCH  20  24
ATOM     24  O   UNL A   1      32.330  19.800  25.084  1.00  0.00    -0.497 OA
ATOM     25  C   UNL A   1      32.346  18.522  24.456  1.00  0.00     0.278 C 
ENDBRANCH  20  24
ENDBRANCH  16  17
ENDBRANCH  11  16
ENDBRANCH   4   7
ENDBRANCH   2   3
ENDBRANCH   1   2
BRANCH   1  26
ATOM     26  C   UNL A   1      34.416  29.698  27.578  1.00  0.00     0.023 C 
BRANCH  26  27
ATOM     27  C   UNL A   1      35.562  30.482  28.193  1.00  0.00     0.116 C 
BRANCH  27  28
ATOM     28  N   UNL A   1      35.524  30.516  29.647  1.00  0.00    -0.352 N 
ATOM     29  C   UNL A   1      36.477  30.105  30.550  1.00  0.00     0.251 C 
ATOM     30  H   UNL A   1      34.701  30.885  30.040  1.00  0.00     0.163 HD
ATOM     31  O   UNL A   1      36.225  30.110  31.746  1.00  0.00    -0.269 OA
BRANCH  29  32
ATOM     32  C   UNL A   1      37.789  29.627  30.060  1.00  0.00     0.039 A 
ATOM     33  C   UNL A   1      38.095  29.773  28.705  1.00  0.00     0.014 A 
ATOM     34  C   UNL A   1      38.722  29.061  30.933  1.00  0.00     0.014 A 
ATOM     35  C   UNL A   1      39.359  29.405  28.241  1.00  0.00     0.010 A 
ATOM     36  C   UNL A   1      40.011  28.791  30.490  1.00  0.00     0.010 A 
ATOM     37  C   UNL A   1      40.339  28.942  29.135  1.00  0.00    -0.014 A 
BRANCH  37  38
ATOM     38  C   UNL A   1      41.702  28.594  28.663  1.00  0.00     0.031 A 
ATOM     39  C   UNL A   1      42.772  29.651  28.603  1.00  0.00     0.074 A 
ATOM     40  C   UNL A   1      41.963  27.337  28.254  1.00  0.00     0.049 A 
ATOM     41  N   UNL A   1      44.018  29.543  28.220  1.00  0.00    -0.248 NA
ATOM     42  C   UNL A   1      42.386  31.017  28.997  1.00  0.00     0.031 C 
ATOM     43  C   UNL A   1      40.989  26.244  28.203  1.00  0.00     0.029 A 
ATOM     44  N   UNL A   1      43.125  26.765  27.802  1.00  0.00    -0.354 N 
ATOM     45  C   UNL A   1      44.557  30.821  28.320  1.00  0.00     0.074 A 
ATOM     46  C   UNL A   1      43.488  31.701  28.730  1.00  0.00     0.031 C 
ATOM     47  C   UNL A   1      41.603  25.125  27.787  1.00  0.00     0.029 A 
ATOM     48  C   UNL A   1      43.004  25.427  27.507  1.00  0.00     0.049 A 
ATOM     49  H   UNL A   1      43.967  27.264  27.701  1.00  0.00     0.167 HD
ATOM     50  C   UNL A   1      45.837  31.219  28.119  1.00  0.00     0.037 A 
ATOM     51  C   UNL A   1      43.919  24.543  27.065  1.00  0.00     0.037 A 
ATOM     52  C   UNL A   1      46.899  30.329  27.731  1.00  0.00     0.049 A 
ATOM     53  C   UNL A   1      45.336  25.005  26.861  1.00  0.00     0.074 A 
ATOM     54  C   UNL A   1      48.240  30.617  27.551  1.00  0.00     0.029 A 
ATOM     55  N   UNL A   1      46.742  28.976  27.461  1.00  0.00    -0.354 N 
ATOM     56  N   UNL A   1      45.846  26.203  27.029  1.00  0.00    -0.248 NA
ATOM     57  C   UNL A   1      46.307  23.994  26.421  1.00  0.00     0.031 C 
ATOM     58  C   UNL A   1      48.885  29.451  27.125  1.00  0.00     0.029 A 
ATOM     59  C   UNL A   1      47.958  28.421  27.099  1.00  0.00     0.049 A 
ATOM     60  H   UNL A   1      45.891  28.485  27.518  1.00  0.00     0.167 HD
ATOM     61  C   UNL A   1      47.204  26.082  26.750  1.00  0.00     0.074 A 
ATOM     62  C   UNL A   1      47.435  24.692  26.413  1.00  0.00     0.031 C 
ATOM     63  C   UNL A   1      48.171  27.032  26.775  1.00  0.00     0.037 A 
BRANCH  50  64
ATOM     64  C   UNL A   1      46.154  32.676  28.326  1.00  0.00     0.058 A 
ATOM     65  C   UNL A   1      46.057  33.609  27.281  1.00  0.00     0.135 A 
ATOM     66  C   UNL A   1      46.534  33.152  29.592  1.00  0.00     0.135 A 
ATOM     67  F   UNL A   1      45.716  33.209  26.046  1.00  0.00    -0.206 F 
ATOM     68  C   UNL A   1      46.356  34.954  27.474  1.00  0.00     0.059 A 
ATOM     69  C   UNL A   1      46.807  34.498  29.815  1.00  0.00     0.059 A 
ATOM     70  F   UNL A   1      46.644  32.305  30.628  1.00  0.00    -0.206 F 
ATOM     71  C   UNL A   1      46.730  35.389  28.746  1.00  0.00     0.060 A 
BRANCH  71  72
ATOM     72  S   UNL A   1      47.110  37.138  28.979  1.00  0.00     0.124 S 
ATOM     73  O   UNL A   1      48.519  37.183  28.602  1.00  0.00    -0.237 OA
ATOM     74  O   UNL A   1      46.186  37.784  28.052  1.00  0.00    -0.237 OA
ATOM     75  O   UNL A   1      46.832  37.362  30.394  1.00  0.00    -0.744 OA
ENDBRANCH  71  72
ENDBRANCH  50  64
BRANCH  51  76
ATOM     76  C   UNL A   1      43.532  23.126  26.828  1.00  0.00     0.058 A 
ATOM     77  C   UNL A   1      43.243  22.265  27.898  1.00  0.00     0.135 A 
ATOM     78  C   UNL A   1      43.427  22.607  25.528  1.00  0.00     0.135 A 
ATOM     79  F   UNL A   1      43.332  22.712  29.160  1.00  0.00    -0.206 F 
ATOM     80  C   UNL A   1      42.885  20.937  27.690  1.00  0.00     0.059 A 
ATOM     81  C   UNL A   1      43.042  21.290  25.294  1.00  0.00     0.059 A 
ATOM     82  F   UNL A   1      43.672  23.394  24.468  1.00  0.00    -0.206 F 
ATOM     83  C   UNL A   1      42.785  20.459  26.383  1.00  0.00     0.060 A 
BRANCH  83  84
ATOM     84  S   UNL A   1      42.275  18.746  26.125  1.00  0.00     0.124 S 
ATOM     85  O   UNL A   1      42.496  18.171  27.446  1.00  0.00    -0.237 OA
ATOM     86  O   UNL A   1      40.882  18.899  25.718  1.00  0.00    -0.237 OA
ATOM     87  O   UNL A   1      43.178  18.283  25.075  1.00  0.00    -0.744 OA
ENDBRANCH  83  84
ENDBRANCH  51  76
BRANCH  63  88
ATOM     88  C   UNL A   1      49.579  26.592  26.479  1.00  0.00     0.058 A 
ATOM     89  C   UNL A   1      50.418  26.061  27.471  1.00  0.00     0.135 A 
ATOM     90  C   UNL A   1      50.081  26.670  25.169  1.00  0.00     0.135 A 
ATOM     91  F   UNL A   1      49.989  25.967  28.739  1.00  0.00    -0.206 F 
ATOM     92  C   UNL A   1      51.717  25.657  27.183  1.00  0.00     0.059 A 
ATOM     93  C   UNL A   1      51.366  26.242  24.851  1.00  0.00     0.059 A 
ATOM     94  F   UNL A   1      49.316  27.157  24.178  1.00  0.00    -0.206 F 
ATOM     95  C   UNL A   1      52.182  25.752  25.869  1.00  0.00     0.060 A 
BRANCH  95  96
ATOM     96  S   UNL A   1      53.865  25.211  25.506  1.00  0.00     0.124 S 
ATOM     97  O   UNL A   1      54.604  25.776  26.630  1.00  0.00    -0.237 OA
ATOM     98  O   UNL A   1      53.732  23.758  25.498  1.00  0.00    -0.237 OA
ATOM     99  O   UNL A   1      54.144  25.815  24.206  1.00  0.00    -0.744 OA
ENDBRANCH  95  96
ENDBRANCH  63  88
ENDBRANCH  37  38
ENDBRANCH  29  32
ENDBRANCH  27  28
ENDBRANCH  26  27
ENDBRANCH   1  26
TORSDOF 18
ENDMDL
