MODEL 1
REMARK VINA RESULT:     -11.3      0.000      0.000
REMARK SMILES CCSc1nc(CC(=O)N[C@@H](C(=O)NCCCCNC(=O)c2ccc(-c3c4nc(c(-c5c(F)cc(S(=O)(=O)[O-])cc5F)c5ccc([nH]5)c(-c5c(F)cc(S(=O)(=O)[O-])cc5F)c5nc(c(-c6c(F)cc(S(=O)(=O)[O-])cc6F)c6ccc3[nH]6)C=C5)C=C4)cc2)C2=C(C)N=N[C@@H]2C)cs1
REMARK SMILES IDX 15 1 14 2 12 3 13 4 11 6 10 7 8 8 9 9 7 11 6 12 4 13 5 14
REMARK SMILES IDX 96 15 95 16 3 17 2 18 1 19 88 20 89 21 93 22 90 23 91 24
REMARK SMILES IDX 92 25 94 26 16 27 17 28 18 29 19 30 20 31 21 33 22 34 23 35
REMARK SMILES IDX 87 36 24 37 86 38 25 39 26 40 27 41 80 42 28 43 85 44 79 45
REMARK SMILES IDX 81 46 29 47 84 48 78 49 77 50 30 52 64 53 43 54 63 55 44 56
REMARK SMILES IDX 47 57 62 58 82 59 45 60 46 61 61 63 83 64 48 65 31 66 32 67
REMARK SMILES IDX 41 68 33 69 34 70 40 71 42 72 35 73 36 74 37 75 38 76 39 77
REMARK SMILES IDX 65 78 66 79 75 80 67 81 68 82 74 83 76 84 69 85 70 86 71 87
REMARK SMILES IDX 72 88 73 89 49 90 50 91 59 92 51 93 52 94 58 95 60 96 53 97
REMARK SMILES IDX 54 98 55 99 56 100 57 101
REMARK H PARENT 14 5 10 10 19 32 81 51 47 62
REMARK Flexibility Score: inf
ROOT
ATOM      1  C   UNL A   1      33.542  28.319  26.847  1.00  0.00     0.116 C 
ENDROOT
BRANCH   1   2
ATOM      2  N   UNL A   1      33.655  28.290  25.410  1.00  0.00    -0.354 N 
ATOM      3  C   UNL A   1      33.249  27.292  24.563  1.00  0.00     0.247 C 
ATOM      4  O   UNL A   1      32.777  27.676  23.487  1.00  0.00    -0.272 OA
ATOM      5  H   UNL A   1      34.070  29.078  24.989  1.00  0.00     0.163 HD
BRANCH   3   6
ATOM      6  C   UNL A   1      33.319  25.750  24.933  1.00  0.00     0.202 C 
BRANCH   6   7
ATOM      7  N   UNL A   1      33.500  24.867  23.777  1.00  0.00    -0.340 N 
ATOM      8  C   UNL A   1      34.474  23.948  23.505  1.00  0.00     0.226 C 
ATOM      9  O   UNL A   1      34.495  23.460  22.372  1.00  0.00    -0.275 OA
ATOM     10  H   UNL A   1      32.807  24.949  23.083  1.00  0.00     0.164 HD
BRANCH   8  11
ATOM     11  C   UNL A   1      35.503  23.520  24.541  1.00  0.00     0.157 C 
BRANCH  11  12
ATOM     12  C   UNL A   1      35.668  22.043  24.658  1.00  0.00     0.062 A 
ATOM     13  C   UNL A   1      34.812  19.992  24.829  1.00  0.00     0.150 A 
ATOM     14  N   UNL A   1      34.520  21.271  24.727  1.00  0.00    -0.234 NA
ATOM     15  S   UNL A   1      36.488  19.644  24.863  1.00  0.00    -0.116 S 
ATOM     16  C   UNL A   1      36.843  21.316  24.703  1.00  0.00     0.092 A 
BRANCH  13  17
ATOM     17  S   UNL A   1      33.482  18.862  24.957  1.00  0.00    -0.096 SA
BRANCH  17  18
ATOM     18  C   UNL A   1      34.165  17.242  24.535  1.00  0.00     0.074 C 
ATOM     19  C   UNL A   1      34.013  16.924  23.058  1.00  0.00     0.016 C 
ENDBRANCH  17  18
ENDBRANCH  13  17
ENDBRANCH  11  12
ENDBRANCH   8  11
ENDBRANCH   6   7
BRANCH   6  20
ATOM     20  C   UNL A   1      32.063  25.282  25.638  1.00  0.00     0.011 C 
ATOM     21  C   UNL A   1      31.875  24.288  26.520  1.00  0.00     0.064 C 
ATOM     22  C   UNL A   1      30.719  25.948  25.548  1.00  0.00     0.156 C 
ATOM     23  C   UNL A   1      32.834  23.291  27.060  1.00  0.00     0.069 C 
ATOM     24  N   UNL A   1      30.585  24.220  26.985  1.00  0.00    -0.160 NA
ATOM     25  N   UNL A   1      29.887  25.133  26.479  1.00  0.00    -0.181 NA
ATOM     26  C   UNL A   1      30.057  25.899  24.178  1.00  0.00     0.040 C 
ENDBRANCH   6  20
ENDBRANCH   3   6
ENDBRANCH   1   2
BRANCH   1  27
ATOM     27  C   UNL A   1      32.799  29.521  27.410  1.00  0.00     0.023 C 
BRANCH  27  28
ATOM     28  C   UNL A   1      33.575  30.836  27.371  1.00  0.00     0.023 C 
BRANCH  28  29
ATOM     29  C   UNL A   1      34.969  30.813  27.998  1.00  0.00     0.116 C 
BRANCH  29  30
ATOM     30  N   UNL A   1      35.028  31.348  29.353  1.00  0.00    -0.352 N 
ATOM     31  C   UNL A   1      36.021  31.195  30.297  1.00  0.00     0.251 C 
ATOM     32  H   UNL A   1      34.256  31.891  29.631  1.00  0.00     0.163 HD
ATOM     33  O   UNL A   1      35.899  31.678  31.415  1.00  0.00    -0.269 OA
BRANCH  31  34
ATOM     34  C   UNL A   1      37.215  30.395  29.952  1.00  0.00     0.039 A 
ATOM     35  C   UNL A   1      37.668  30.396  28.630  1.00  0.00     0.014 A 
ATOM     36  C   UNL A   1      37.940  29.741  30.952  1.00  0.00     0.014 A 
ATOM     37  C   UNL A   1      38.914  29.842  28.332  1.00  0.00     0.010 A 
ATOM     38  C   UNL A   1      39.207  29.244  30.663  1.00  0.00     0.010 A 
ATOM     39  C   UNL A   1      39.721  29.322  29.358  1.00  0.00    -0.014 A 
BRANCH  39  40
ATOM     40  C   UNL A   1      41.136  28.944  29.116  1.00  0.00     0.031 A 
ATOM     41  C   UNL A   1      42.222  29.979  29.174  1.00  0.00     0.074 A 
ATOM     42  C   UNL A   1      41.424  27.684  28.732  1.00  0.00     0.049 A 
ATOM     43  N   UNL A   1      43.487  29.863  28.866  1.00  0.00    -0.248 NA
ATOM     44  C   UNL A   1      41.828  31.327  29.612  1.00  0.00     0.031 C 
ATOM     45  C   UNL A   1      40.449  26.599  28.588  1.00  0.00     0.029 A 
ATOM     46  N   UNL A   1      42.615  27.105  28.368  1.00  0.00    -0.354 N 
ATOM     47  C   UNL A   1      44.041  31.122  29.057  1.00  0.00     0.074 A 
ATOM     48  C   UNL A   1      42.964  31.997  29.472  1.00  0.00     0.031 C 
ATOM     49  C   UNL A   1      41.082  25.488  28.177  1.00  0.00     0.029 A 
ATOM     50  C   UNL A   1      42.497  25.789  27.988  1.00  0.00     0.049 A 
ATOM     51  H   UNL A   1      43.473  27.589  28.378  1.00  0.00     0.167 HD
ATOM     52  C   UNL A   1      45.330  31.509  28.917  1.00  0.00     0.037 A 
ATOM     53  C   UNL A   1      43.418  24.925  27.520  1.00  0.00     0.037 A 
ATOM     54  C   UNL A   1      46.402  30.629  28.528  1.00  0.00     0.049 A 
ATOM     55  C   UNL A   1      44.838  25.384  27.348  1.00  0.00     0.074 A 
ATOM     56  C   UNL A   1      47.755  30.909  28.442  1.00  0.00     0.029 A 
ATOM     57  N   UNL A   1      46.242  29.305  28.151  1.00  0.00    -0.354 N 
ATOM     58  N   UNL A   1      45.357  26.561  27.602  1.00  0.00    -0.248 NA
ATOM     59  C   UNL A   1      45.797  24.403  26.819  1.00  0.00     0.031 C 
ATOM     60  C   UNL A   1      48.409  29.762  27.975  1.00  0.00     0.029 A 
ATOM     61  C   UNL A   1      47.467  28.760  27.801  1.00  0.00     0.049 A 
ATOM     62  H   UNL A   1      45.385  28.822  28.135  1.00  0.00     0.167 HD
ATOM     63  C   UNL A   1      46.703  26.462  27.270  1.00  0.00     0.074 A 
ATOM     64  C   UNL A   1      46.923  25.105  26.812  1.00  0.00     0.031 C 
ATOM     65  C   UNL A   1      47.668  27.411  27.336  1.00  0.00     0.037 A 
BRANCH  52  66
ATOM     66  C   UNL A   1      45.654  32.949  29.193  1.00  0.00     0.058 A 
ATOM     67  C   UNL A   1      46.028  33.383  30.474  1.00  0.00     0.135 A 
ATOM     68  C   UNL A   1      45.613  33.902  28.162  1.00  0.00     0.135 A 
ATOM     69  F   UNL A   1      46.069  32.515  31.497  1.00  0.00    -0.206 F 
ATOM     70  C   UNL A   1      46.320  34.718  30.732  1.00  0.00     0.059 A 
ATOM     71  C   UNL A   1      45.922  35.239  28.393  1.00  0.00     0.059 A 
ATOM     72  F   UNL A   1      45.260  33.538  26.919  1.00  0.00    -0.206 F 
ATOM     73  C   UNL A   1      46.258  35.640  29.686  1.00  0.00     0.060 A 
BRANCH  73  74
ATOM     74  S   UNL A   1      46.625  37.372  30.037  1.00  0.00     0.124 S 
ATOM     75  O   UNL A   1      45.984  38.038  28.908  1.00  0.00    -0.237 OA
ATOM     76  O   UNL A   1      45.987  37.572  31.335  1.00  0.00    -0.237 OA
ATOM     77  O   UNL A   1      48.084  37.415  30.046  1.00  0.00    -0.744 OA
ENDBRANCH  73  74
ENDBRANCH  52  66
BRANCH  53  78
ATOM     78  C   UNL A   1      43.021  23.535  27.177  1.00  0.00     0.058 A 
ATOM     79  C   UNL A   1      42.806  23.159  25.844  1.00  0.00     0.135 A 
ATOM     80  C   UNL A   1      42.880  22.552  28.169  1.00  0.00     0.135 A 
ATOM     81  F   UNL A   1      42.922  24.067  24.864  1.00  0.00    -0.206 F 
ATOM     82  C   UNL A   1      42.459  21.855  25.503  1.00  0.00     0.059 A 
ATOM     83  C   UNL A   1      42.552  21.237  27.851  1.00  0.00     0.059 A 
ATOM     84  F   UNL A   1      43.090  22.860  29.458  1.00  0.00    -0.206 F 
ATOM     85  C   UNL A   1      42.339  20.901  26.513  1.00  0.00     0.060 A 
BRANCH  85  86
ATOM     86  S   UNL A   1      41.956  19.195  26.057  1.00  0.00     0.124 S 
ATOM     87  O   UNL A   1      42.786  19.016  24.871  1.00  0.00    -0.237 OA
ATOM     88  O   UNL A   1      42.373  18.457  27.246  1.00  0.00    -0.237 OA
ATOM     89  O   UNL A   1      40.516  19.228  25.824  1.00  0.00    -0.744 OA
ENDBRANCH  85  86
ENDBRANCH  53  78
BRANCH  65  90
ATOM     90  C   UNL A   1      49.051  27.021  26.900  1.00  0.00     0.058 A 
ATOM     91  C   UNL A   1      49.935  26.377  27.778  1.00  0.00     0.135 A 
ATOM     92  C   UNL A   1      49.472  27.233  25.579  1.00  0.00     0.135 A 
ATOM     93  F   UNL A   1      49.583  26.162  29.056  1.00  0.00    -0.206 F 
ATOM     94  C   UNL A   1      51.195  25.960  27.361  1.00  0.00     0.059 A 
ATOM     95  C   UNL A   1      50.720  26.806  25.134  1.00  0.00     0.059 A 
ATOM     96  F   UNL A   1      48.660  27.840  24.699  1.00  0.00    -0.206 F 
ATOM     97  C   UNL A   1      51.576  26.174  26.035  1.00  0.00     0.060 A 
BRANCH  97  98
ATOM     98  S   UNL A   1      53.190  25.576  25.491  1.00  0.00     0.124 S 
ATOM     99  O   UNL A   1      53.217  26.026  24.103  1.00  0.00    -0.237 OA
ATOM    100  O   UNL A   1      54.103  26.265  26.398  1.00  0.00    -0.237 OA
ATOM    101  O   UNL A   1      53.099  24.132  25.682  1.00  0.00    -0.744 OA
ENDBRANCH  97  98
ENDBRANCH  65  90
ENDBRANCH  39  40
ENDBRANCH  31  34
ENDBRANCH  29  30
ENDBRANCH  28  29
ENDBRANCH  27  28
ENDBRANCH   1  27
TORSDOF 20
ENDMDL
MODEL 2
REMARK VINA RESULT:     -11.2      2.305      3.946
REMARK SMILES CCSc1nc(CC(=O)N[C@@H](C(=O)NCCCCNC(=O)c2ccc(-c3c4nc(c(-c5c(F)cc(S(=O)(=O)[O-])cc5F)c5ccc([nH]5)c(-c5c(F)cc(S(=O)(=O)[O-])cc5F)c5nc(c(-c6c(F)cc(S(=O)(=O)[O-])cc6F)c6ccc3[nH]6)C=C5)C=C4)cc2)C2=C(C)N=N[C@@H]2C)cs1
REMARK SMILES IDX 15 1 14 2 12 3 13 4 11 6 10 7 8 8 9 9 7 11 6 12 4 13 5 14
REMARK SMILES IDX 96 15 95 16 3 17 2 18 1 19 88 20 89 21 93 22 90 23 91 24
REMARK SMILES IDX 92 25 94 26 16 27 17 28 18 29 19 30 20 31 21 33 22 34 23 35
REMARK SMILES IDX 87 36 24 37 86 38 25 39 26 40 27 41 80 42 28 43 85 44 79 45
REMARK SMILES IDX 81 46 29 47 84 48 78 49 77 50 30 52 64 53 43 54 63 55 44 56
REMARK SMILES IDX 47 57 62 58 82 59 45 60 46 61 61 63 83 64 48 65 31 66 32 67
REMARK SMILES IDX 41 68 33 69 34 70 40 71 42 72 35 73 36 74 37 75 38 76 39 77
REMARK SMILES IDX 65 78 66 79 75 80 67 81 68 82 74 83 76 84 69 85 70 86 71 87
REMARK SMILES IDX 72 88 73 89 49 90 50 91 59 92 51 93 52 94 58 95 60 96 53 97
REMARK SMILES IDX 54 98 55 99 56 100 57 101
REMARK H PARENT 14 5 10 10 19 32 81 51 47 62
REMARK Flexibility Score: inf
ROOT
ATOM      1  C   UNL A   1      33.549  27.830  25.370  1.00  0.00     0.116 C 
ENDROOT
BRANCH   1   2
ATOM      2  N   UNL A   1      34.224  26.600  25.704  1.00  0.00    -0.354 N 
ATOM      3  C   UNL A   1      34.024  25.364  25.147  1.00  0.00     0.247 C 
ATOM      4  O   UNL A   1      35.045  24.680  25.007  1.00  0.00    -0.272 OA
ATOM      5  H   UNL A   1      34.906  26.655  26.412  1.00  0.00     0.163 HD
BRANCH   3   6
ATOM      6  C   UNL A   1      32.606  24.843  24.661  1.00  0.00     0.202 C 
BRANCH   6   7
ATOM      7  N   UNL A   1      31.525  25.068  25.624  1.00  0.00    -0.340 N 
ATOM      8  C   UNL A   1      30.246  25.513  25.437  1.00  0.00     0.226 C 
ATOM      9  O   UNL A   1      29.586  25.787  26.443  1.00  0.00    -0.275 OA
ATOM     10  H   UNL A   1      31.757  24.865  26.559  1.00  0.00     0.164 HD
BRANCH   8  11
ATOM     11  C   UNL A   1      29.631  25.670  24.054  1.00  0.00     0.157 C 
BRANCH  11  12
ATOM     12  C   UNL A   1      29.784  27.034  23.473  1.00  0.00     0.062 A 
ATOM     13  C   UNL A   1      28.918  28.972  22.793  1.00  0.00     0.150 A 
ATOM     14  N   UNL A   1      28.639  27.797  23.314  1.00  0.00    -0.234 NA
ATOM     15  S   UNL A   1      30.577  29.222  22.448  1.00  0.00    -0.116 S 
ATOM     16  C   UNL A   1      30.945  27.663  23.065  1.00  0.00     0.092 A 
BRANCH  13  17
ATOM     17  S   UNL A   1      27.586  30.067  22.491  1.00  0.00    -0.096 SA
BRANCH  17  18
ATOM     18  C   UNL A   1      27.822  31.459  23.621  1.00  0.00     0.074 C 
ATOM     19  C   UNL A   1      28.669  32.558  23.004  1.00  0.00     0.016 C 
ENDBRANCH  17  18
ENDBRANCH  13  17
ENDBRANCH  11  12
ENDBRANCH   8  11
ENDBRANCH   6   7
BRANCH   6  20
ATOM     20  C   UNL A   1      32.621  23.357  24.371  1.00  0.00     0.011 C 
ATOM     21  C   UNL A   1      32.791  22.308  25.191  1.00  0.00     0.064 C 
ATOM     22  C   UNL A   1      32.335  22.730  23.036  1.00  0.00     0.156 C 
ATOM     23  C   UNL A   1      33.066  22.267  26.651  1.00  0.00     0.069 C 
ATOM     24  N   UNL A   1      32.674  21.100  24.551  1.00  0.00    -0.160 NA
ATOM     25  N   UNL A   1      32.411  21.272  23.334  1.00  0.00    -0.181 NA
ATOM     26  C   UNL A   1      33.352  23.029  21.943  1.00  0.00     0.040 C 
ENDBRANCH   6  20
ENDBRANCH   3   6
ENDBRANCH   1   2
BRANCH   1  27
ATOM     27  C   UNL A   1      32.847  28.513  26.534  1.00  0.00     0.023 C 
BRANCH  27  28
ATOM     28  C   UNL A   1      33.529  29.781  27.045  1.00  0.00     0.023 C 
BRANCH  28  29
ATOM     29  C   UNL A   1      34.808  29.576  27.856  1.00  0.00     0.116 C 
BRANCH  29  30
ATOM     30  N   UNL A   1      35.022  30.568  28.903  1.00  0.00    -0.352 N 
ATOM     31  C   UNL A   1      36.166  30.823  29.628  1.00  0.00     0.251 C 
ATOM     32  H   UNL A   1      34.244  31.131  29.122  1.00  0.00     0.163 HD
ATOM     33  O   UNL A   1      36.170  31.671  30.511  1.00  0.00    -0.269 OA
BRANCH  31  34
ATOM     34  C   UNL A   1      37.377  30.020  29.353  1.00  0.00     0.039 A 
ATOM     35  C   UNL A   1      37.871  29.971  28.047  1.00  0.00     0.014 A 
ATOM     36  C   UNL A   1      38.075  29.415  30.402  1.00  0.00     0.014 A 
ATOM     37  C   UNL A   1      39.130  29.416  27.811  1.00  0.00     0.010 A 
ATOM     38  C   UNL A   1      39.353  28.917  30.173  1.00  0.00     0.010 A 
ATOM     39  C   UNL A   1      39.908  28.947  28.883  1.00  0.00    -0.014 A 
BRANCH  39  40
ATOM     40  C   UNL A   1      41.333  28.571  28.700  1.00  0.00     0.031 A 
ATOM     41  C   UNL A   1      42.409  29.617  28.751  1.00  0.00     0.074 A 
ATOM     42  C   UNL A   1      41.642  27.299  28.376  1.00  0.00     0.049 A 
ATOM     43  N   UNL A   1      43.684  29.500  28.488  1.00  0.00    -0.248 NA
ATOM     44  C   UNL A   1      41.991  30.978  29.123  1.00  0.00     0.031 C 
ATOM     45  C   UNL A   1      40.680  26.201  28.245  1.00  0.00     0.029 A 
ATOM     46  N   UNL A   1      42.849  26.717  28.073  1.00  0.00    -0.354 N 
ATOM     47  C   UNL A   1      44.222  30.770  28.647  1.00  0.00     0.074 A 
ATOM     48  C   UNL A   1      43.126  31.652  28.992  1.00  0.00     0.031 C 
ATOM     49  C   UNL A   1      41.334  25.080  27.899  1.00  0.00     0.029 A 
ATOM     50  C   UNL A   1      42.752  25.385  27.743  1.00  0.00     0.049 A 
ATOM     51  H   UNL A   1      43.702  27.208  28.091  1.00  0.00     0.167 HD
ATOM     52  C   UNL A   1      45.512  31.162  28.532  1.00  0.00     0.037 A 
ATOM     53  C   UNL A   1      43.694  24.512  27.339  1.00  0.00     0.037 A 
ATOM     54  C   UNL A   1      46.602  30.277  28.212  1.00  0.00     0.049 A 
ATOM     55  C   UNL A   1      45.116  24.976  27.194  1.00  0.00     0.074 A 
ATOM     56  C   UNL A   1      47.955  30.564  28.158  1.00  0.00     0.029 A 
ATOM     57  N   UNL A   1      46.465  28.938  27.884  1.00  0.00    -0.354 N 
ATOM     58  N   UNL A   1      45.617  26.167  27.417  1.00  0.00    -0.248 NA
ATOM     59  C   UNL A   1      46.098  23.983  26.735  1.00  0.00     0.031 C 
ATOM     60  C   UNL A   1      48.632  29.406  27.758  1.00  0.00     0.029 A 
ATOM     61  C   UNL A   1      47.704  28.390  27.595  1.00  0.00     0.049 A 
ATOM     62  H   UNL A   1      45.612  28.447  27.860  1.00  0.00     0.167 HD
ATOM     63  C   UNL A   1      46.974  26.066  27.131  1.00  0.00     0.074 A 
ATOM     64  C   UNL A   1      47.218  24.693  26.736  1.00  0.00     0.031 C 
ATOM     65  C   UNL A   1      47.930  27.025  27.191  1.00  0.00     0.037 A 
BRANCH  52  66
ATOM     66  C   UNL A   1      45.817  32.615  28.760  1.00  0.00     0.058 A 
ATOM     67  C   UNL A   1      46.200  33.093  30.023  1.00  0.00     0.135 A 
ATOM     68  C   UNL A   1      45.746  33.535  27.702  1.00  0.00     0.135 A 
ATOM     69  F   UNL A   1      46.269  32.257  31.070  1.00  0.00    -0.206 F 
ATOM     70  C   UNL A   1      46.474  34.440  30.237  1.00  0.00     0.059 A 
ATOM     71  C   UNL A   1      46.037  34.884  27.888  1.00  0.00     0.059 A 
ATOM     72  F   UNL A   1      45.384  33.129  26.475  1.00  0.00    -0.206 F 
ATOM     73  C   UNL A   1      46.384  35.329  29.164  1.00  0.00     0.060 A 
BRANCH  73  74
ATOM     74  S   UNL A   1      46.728  37.076  29.459  1.00  0.00     0.124 S 
ATOM     75  O   UNL A   1      46.642  37.146  30.913  1.00  0.00    -0.237 OA
ATOM     76  O   UNL A   1      48.065  37.232  28.895  1.00  0.00    -0.237 OA
ATOM     77  O   UNL A   1      45.661  37.758  28.732  1.00  0.00    -0.744 OA
ENDBRANCH  73  74
ENDBRANCH  52  66
BRANCH  53  78
ATOM     78  C   UNL A   1      43.318  23.106  27.040  1.00  0.00     0.058 A 
ATOM     79  C   UNL A   1      43.190  22.664  25.716  1.00  0.00     0.135 A 
ATOM     80  C   UNL A   1      43.112  22.172  28.067  1.00  0.00     0.135 A 
ATOM     81  F   UNL A   1      43.371  23.524  24.702  1.00  0.00    -0.206 F 
ATOM     82  C   UNL A   1      42.865  21.345  25.416  1.00  0.00     0.059 A 
ATOM     83  C   UNL A   1      42.804  20.842  27.793  1.00  0.00     0.059 A 
ATOM     84  F   UNL A   1      43.239  22.543  29.350  1.00  0.00    -0.206 F 
ATOM     85  C   UNL A   1      42.677  20.441  26.463  1.00  0.00     0.060 A 
BRANCH  85  86
ATOM     86  S   UNL A   1      42.323  18.714  26.066  1.00  0.00     0.124 S 
ATOM     87  O   UNL A   1      40.919  18.784  25.681  1.00  0.00    -0.237 OA
ATOM     88  O   UNL A   1      43.268  18.446  24.986  1.00  0.00    -0.237 OA
ATOM     89  O   UNL A   1      42.604  18.020  27.319  1.00  0.00    -0.744 OA
ENDBRANCH  85  86
ENDBRANCH  53  78
BRANCH  65  90
ATOM     90  C   UNL A   1      49.329  26.630  26.814  1.00  0.00     0.058 A 
ATOM     91  C   UNL A   1      50.203  26.067  27.756  1.00  0.00     0.135 A 
ATOM     92  C   UNL A   1      49.776  26.754  25.490  1.00  0.00     0.135 A 
ATOM     93  F   UNL A   1      49.824  25.939  29.038  1.00  0.00    -0.206 F 
ATOM     94  C   UNL A   1      51.478  25.644  27.398  1.00  0.00     0.059 A 
ATOM     95  C   UNL A   1      51.041  26.319  25.105  1.00  0.00     0.059 A 
ATOM     96  F   UNL A   1      48.975  27.281  24.551  1.00  0.00    -0.206 F 
ATOM     97  C   UNL A   1      51.886  25.769  26.069  1.00  0.00     0.060 A 
BRANCH  97  98
ATOM     98  S   UNL A   1      53.523  25.164  25.604  1.00  0.00     0.124 S 
ATOM     99  O   UNL A   1      54.295  25.450  26.808  1.00  0.00    -0.237 OA
ATOM    100  O   UNL A   1      53.271  23.752  25.334  1.00  0.00    -0.237 OA
ATOM    101  O   UNL A   1      53.862  25.968  24.434  1.00  0.00    -0.744 OA
ENDBRANCH  97  98
ENDBRANCH  65  90
ENDBRANCH  39  40
ENDBRANCH  31  34
ENDBRANCH  29  30
ENDBRANCH  28  29
ENDBRANCH  27  28
ENDBRANCH   1  27
TORSDOF 20
ENDMDL
MODEL 3
REMARK VINA RESULT:     -10.6      4.686      6.377
REMARK SMILES CCSc1nc(CC(=O)N[C@@H](C(=O)NCCCCNC(=O)c2ccc(-c3c4nc(c(-c5c(F)cc(S(=O)(=O)[O-])cc5F)c5ccc([nH]5)c(-c5c(F)cc(S(=O)(=O)[O-])cc5F)c5nc(c(-c6c(F)cc(S(=O)(=O)[O-])cc6F)c6ccc3[nH]6)C=C5)C=C4)cc2)C2=C(C)N=N[C@@H]2C)cs1
REMARK SMILES IDX 15 1 14 2 12 3 13 4 11 6 10 7 8 8 9 9 7 11 6 12 4 13 5 14
REMARK SMILES IDX 96 15 95 16 3 17 2 18 1 19 88 20 89 21 93 22 90 23 91 24
REMARK SMILES IDX 92 25 94 26 16 27 17 28 18 29 19 30 20 31 21 33 22 34 23 35
REMARK SMILES IDX 87 36 24 37 86 38 25 39 26 40 27 41 80 42 28 43 85 44 79 45
REMARK SMILES IDX 81 46 29 47 84 48 78 49 77 50 30 52 64 53 43 54 63 55 44 56
REMARK SMILES IDX 47 57 62 58 82 59 45 60 46 61 61 63 83 64 48 65 31 66 32 67
REMARK SMILES IDX 41 68 33 69 34 70 40 71 42 72 35 73 36 74 37 75 38 76 39 77
REMARK SMILES IDX 65 78 66 79 75 80 67 81 68 82 74 83 76 84 69 85 70 86 71 87
REMARK SMILES IDX 72 88 73 89 49 90 50 91 59 92 51 93 52 94 58 95 60 96 53 97
REMARK SMILES IDX 54 98 55 99 56 100 57 101
REMARK H PARENT 14 5 10 10 19 32 81 51 47 62
REMARK Flexibility Score: inf
ROOT
ATOM      1  C   UNL A   1      33.862  26.236  25.638  1.00  0.00     0.116 C 
ENDROOT
BRANCH   1   2
ATOM      2  N   UNL A   1      33.333  24.989  26.132  1.00  0.00    -0.354 N 
ATOM      3  C   UNL A   1      33.814  23.728  25.895  1.00  0.00     0.247 C 
ATOM      4  O   UNL A   1      33.742  22.949  26.852  1.00  0.00    -0.272 OA
ATOM      5  H   UNL A   1      32.535  25.050  26.706  1.00  0.00     0.163 HD
BRANCH   3   6
ATOM      6  C   UNL A   1      34.472  23.288  24.519  1.00  0.00     0.202 C 
BRANCH   6   7
ATOM      7  N   UNL A   1      33.572  22.532  23.642  1.00  0.00    -0.340 N 
ATOM      8  C   UNL A   1      32.713  22.960  22.669  1.00  0.00     0.226 C 
ATOM      9  O   UNL A   1      31.931  22.130  22.196  1.00  0.00    -0.275 OA
ATOM     10  H   UNL A   1      33.589  21.557  23.776  1.00  0.00     0.164 HD
BRANCH   8  11
ATOM     11  C   UNL A   1      32.701  24.395  22.165  1.00  0.00     0.157 C 
BRANCH  11  12
ATOM     12  C   UNL A   1      31.613  25.234  22.744  1.00  0.00     0.062 A 
ATOM     13  C   UNL A   1      30.583  27.195  22.988  1.00  0.00     0.150 A 
ATOM     14  N   UNL A   1      31.590  26.578  22.409  1.00  0.00    -0.234 NA
ATOM     15  S   UNL A   1      29.611  26.195  23.983  1.00  0.00    -0.116 S 
ATOM     16  C   UNL A   1      30.591  24.842  23.587  1.00  0.00     0.092 A 
BRANCH  13  17
ATOM     17  S   UNL A   1      30.410  28.913  22.704  1.00  0.00    -0.096 SA
BRANCH  17  18
ATOM     18  C   UNL A   1      28.681  29.167  22.237  1.00  0.00     0.074 C 
ATOM     19  C   UNL A   1      27.948  30.058  23.225  1.00  0.00     0.016 C 
ENDBRANCH  17  18
ENDBRANCH  13  17
ENDBRANCH  11  12
ENDBRANCH   8  11
ENDBRANCH   6   7
BRANCH   6  20
ATOM     20  C   UNL A   1      35.694  22.420  24.730  1.00  0.00     0.011 C 
ATOM     21  C   UNL A   1      35.809  21.090  24.865  1.00  0.00     0.064 C 
ATOM     22  C   UNL A   1      37.114  22.909  24.737  1.00  0.00     0.156 C 
ATOM     23  C   UNL A   1      34.763  20.035  24.893  1.00  0.00     0.069 C 
ATOM     24  N   UNL A   1      37.111  20.671  24.978  1.00  0.00    -0.160 NA
ATOM     25  N   UNL A   1      37.895  21.651  24.906  1.00  0.00    -0.181 NA
ATOM     26  C   UNL A   1      37.481  23.835  25.888  1.00  0.00     0.040 C 
ENDBRANCH   6  20
ENDBRANCH   3   6
ENDBRANCH   1   2
BRANCH   1  27
ATOM     27  C   UNL A   1      32.903  27.414  25.709  1.00  0.00     0.023 C 
BRANCH  27  28
ATOM     28  C   UNL A   1      33.552  28.755  26.049  1.00  0.00     0.023 C 
BRANCH  28  29
ATOM     29  C   UNL A   1      33.191  29.353  27.408  1.00  0.00     0.116 C 
BRANCH  29  30
ATOM     30  N   UNL A   1      33.380  30.795  27.501  1.00  0.00    -0.352 N 
ATOM     31  C   UNL A   1      34.509  31.493  27.875  1.00  0.00     0.251 C 
ATOM     32  H   UNL A   1      32.598  31.344  27.266  1.00  0.00     0.163 HD
ATOM     33  O   UNL A   1      34.493  32.715  27.943  1.00  0.00    -0.269 OA
BRANCH  31  34
ATOM     34  C   UNL A   1      35.725  30.737  28.240  1.00  0.00     0.039 A 
ATOM     35  C   UNL A   1      36.959  31.164  27.743  1.00  0.00     0.014 A 
ATOM     36  C   UNL A   1      35.653  29.684  29.156  1.00  0.00     0.014 A 
ATOM     37  C   UNL A   1      38.134  30.613  28.257  1.00  0.00     0.010 A 
ATOM     38  C   UNL A   1      36.826  29.178  29.708  1.00  0.00     0.010 A 
ATOM     39  C   UNL A   1      38.075  29.664  29.291  1.00  0.00    -0.014 A 
BRANCH  39  40
ATOM     40  C   UNL A   1      39.297  29.234  30.018  1.00  0.00     0.031 A 
ATOM     41  C   UNL A   1      39.769  29.988  31.227  1.00  0.00     0.074 A 
ATOM     42  C   UNL A   1      40.041  28.227  29.517  1.00  0.00     0.049 A 
ATOM     43  N   UNL A   1      40.874  29.842  31.910  1.00  0.00    -0.248 NA
ATOM     44  C   UNL A   1      38.895  31.066  31.718  1.00  0.00     0.031 C 
ATOM     45  C   UNL A   1      39.715  27.448  28.319  1.00  0.00     0.029 A 
ATOM     46  N   UNL A   1      41.238  27.699  29.937  1.00  0.00    -0.354 N 
ATOM     47  C   UNL A   1      40.840  30.814  32.901  1.00  0.00     0.074 A 
ATOM     48  C   UNL A   1      39.620  31.570  32.707  1.00  0.00     0.031 C 
ATOM     49  C   UNL A   1      40.681  26.540  28.107  1.00  0.00     0.029 A 
ATOM     50  C   UNL A   1      41.713  26.696  29.125  1.00  0.00     0.049 A 
ATOM     51  H   UNL A   1      41.710  28.011  30.742  1.00  0.00     0.167 HD
ATOM     52  C   UNL A   1      41.734  31.044  33.891  1.00  0.00     0.037 A 
ATOM     53  C   UNL A   1      42.861  25.994  29.181  1.00  0.00     0.037 A 
ATOM     54  C   UNL A   1      42.933  30.273  34.094  1.00  0.00     0.049 A 
ATOM     55  C   UNL A   1      43.850  26.283  30.275  1.00  0.00     0.074 A 
ATOM     56  C   UNL A   1      43.856  30.375  35.120  1.00  0.00     0.029 A 
ATOM     57  N   UNL A   1      43.380  29.267  33.253  1.00  0.00    -0.354 N 
ATOM     58  N   UNL A   1      43.767  27.161  31.245  1.00  0.00    -0.248 NA
ATOM     59  C   UNL A   1      45.092  25.496  30.277  1.00  0.00     0.031 C 
ATOM     60  C   UNL A   1      44.883  29.455  34.877  1.00  0.00     0.029 A 
ATOM     61  C   UNL A   1      44.582  28.759  33.717  1.00  0.00     0.049 A 
ATOM     62  H   UNL A   1      42.913  28.958  32.443  1.00  0.00     0.167 HD
ATOM     63  C   UNL A   1      44.940  27.028  31.978  1.00  0.00     0.074 A 
ATOM     64  C   UNL A   1      45.711  25.974  31.348  1.00  0.00     0.031 C 
ATOM     65  C   UNL A   1      45.344  27.718  33.072  1.00  0.00     0.037 A 
BRANCH  52  66
ATOM     66  C   UNL A   1      41.443  32.174  34.836  1.00  0.00     0.058 A 
ATOM     67  C   UNL A   1      42.012  33.444  34.654  1.00  0.00     0.135 A 
ATOM     68  C   UNL A   1      40.572  31.993  35.922  1.00  0.00     0.135 A 
ATOM     69  F   UNL A   1      42.863  33.665  33.640  1.00  0.00    -0.206 F 
ATOM     70  C   UNL A   1      41.751  34.489  35.534  1.00  0.00     0.059 A 
ATOM     71  C   UNL A   1      40.278  33.031  36.802  1.00  0.00     0.059 A 
ATOM     72  F   UNL A   1      40.003  30.797  36.140  1.00  0.00    -0.206 F 
ATOM     73  C   UNL A   1      40.887  34.271  36.609  1.00  0.00     0.060 A 
BRANCH  73  74
ATOM     74  S   UNL A   1      40.568  35.631  37.751  1.00  0.00     0.124 S 
ATOM     75  O   UNL A   1      39.866  36.574  36.887  1.00  0.00    -0.237 OA
ATOM     76  O   UNL A   1      39.756  34.992  38.782  1.00  0.00    -0.237 OA
ATOM     77  O   UNL A   1      41.904  36.040  38.174  1.00  0.00    -0.744 OA
ENDBRANCH  73  74
ENDBRANCH  52  66
BRANCH  53  78
ATOM     78  C   UNL A   1      43.137  24.946  28.164  1.00  0.00     0.058 A 
ATOM     79  C   UNL A   1      43.720  25.278  26.933  1.00  0.00     0.135 A 
ATOM     80  C   UNL A   1      42.853  23.594  28.413  1.00  0.00     0.135 A 
ATOM     81  F   UNL A   1      44.001  26.559  26.648  1.00  0.00    -0.206 F 
ATOM     82  C   UNL A   1      44.009  24.308  25.979  1.00  0.00     0.059 A 
ATOM     83  C   UNL A   1      43.150  22.603  27.482  1.00  0.00     0.059 A 
ATOM     84  F   UNL A   1      42.309  23.225  29.583  1.00  0.00    -0.206 F 
ATOM     85  C   UNL A   1      43.724  22.972  26.265  1.00  0.00     0.060 A 
BRANCH  85  86
ATOM     86  S   UNL A   1      44.165  21.709  25.051  1.00  0.00     0.124 S 
ATOM     87  O   UNL A   1      43.195  20.663  25.351  1.00  0.00    -0.237 OA
ATOM     88  O   UNL A   1      43.971  22.416  23.788  1.00  0.00    -0.237 OA
ATOM     89  O   UNL A   1      45.553  21.402  25.379  1.00  0.00    -0.744 OA
ENDBRANCH  85  86
ENDBRANCH  53  78
BRANCH  65  90
ATOM     90  C   UNL A   1      46.679  27.364  33.659  1.00  0.00     0.058 A 
ATOM     91  C   UNL A   1      47.850  28.019  33.249  1.00  0.00     0.135 A 
ATOM     92  C   UNL A   1      46.782  26.411  34.684  1.00  0.00     0.135 A 
ATOM     93  F   UNL A   1      47.805  28.930  32.264  1.00  0.00    -0.206 F 
ATOM     94  C   UNL A   1      49.080  27.738  33.833  1.00  0.00     0.059 A 
ATOM     95  C   UNL A   1      47.999  26.128  35.296  1.00  0.00     0.059 A 
ATOM     96  F   UNL A   1      45.689  25.761  35.115  1.00  0.00    -0.206 F 
ATOM     97  C   UNL A   1      49.144  26.794  34.860  1.00  0.00     0.060 A 
BRANCH  97  98
ATOM     98  S   UNL A   1      50.737  26.478  35.649  1.00  0.00     0.124 S 
ATOM     99  O   UNL A   1      51.250  27.833  35.826  1.00  0.00    -0.237 OA
ATOM    100  O   UNL A   1      50.349  25.783  36.873  1.00  0.00    -0.237 OA
ATOM    101  O   UNL A   1      51.445  25.661  34.669  1.00  0.00    -0.744 OA
ENDBRANCH  97  98
ENDBRANCH  65  90
ENDBRANCH  39  40
ENDBRANCH  31  34
ENDBRANCH  29  30
ENDBRANCH  28  29
ENDBRANCH  27  28
ENDBRANCH   1  27
TORSDOF 20
ENDMDL
