MODEL 1
REMARK VINA RESULT:     -12.6      0.000      0.000
REMARK SMILES COc1ccc(/C=C2/C(=O)N(c3ccccc3)C(=O)[NH+]=C2NCCCCNC(=O)c2ccc(-c3c4nc(c(-c5c(F)cc(S(=O)(=O)[O-])cc5F)c5ccc([nH]5)c(-c5c(F)cc(S(=O)(=O)[O-])cc5F)c5nc(c(-c6c(F)cc(S(=O)(=O)[O-])cc6F)c6ccc3[nH]6)C=C5)C=C4)cc2)cc1C(=O)[O-]
REMARK SMILES IDX 25 1 24 2 23 3 22 4 7 5 8 6 9 7 21 8 10 9 11 10 20 11 18 12
REMARK SMILES IDX 19 15 6 16 3 17 4 18 97 19 5 20 96 21 2 22 1 23 98 24 99 25
REMARK SMILES IDX 100 26 12 27 13 28 17 29 14 30 16 31 15 32 26 33 27 34 28 35
REMARK SMILES IDX 29 37 30 38 31 39 95 40 32 41 94 42 33 43 34 44 35 45 88 46
REMARK SMILES IDX 36 47 93 48 87 49 89 50 37 51 92 52 86 53 85 54 38 56 72 57
REMARK SMILES IDX 51 58 71 59 52 60 55 61 70 62 90 63 53 64 54 65 69 67 91 68
REMARK SMILES IDX 56 69 39 70 40 71 49 72 41 73 42 74 48 75 50 76 43 77 44 78
REMARK SMILES IDX 45 79 46 80 47 81 73 82 74 83 83 84 75 85 76 86 82 87 84 88
REMARK SMILES IDX 77 89 78 90 79 91 80 92 81 93 57 94 58 95 67 96 59 97 60 98
REMARK SMILES IDX 66 99 68 100 61 101 62 102 63 103 64 104 65 105
REMARK H PARENT 20 13 22 14 27 36 89 55 55 66
REMARK Flexibility Score: inf
ROOT
ATOM      1  C   UNL A   1      33.583  28.281  26.021  1.00  0.00     0.024 C 
ENDROOT
BRANCH   1   2
ATOM      2  C   UNL A   1      33.322  26.841  25.557  1.00  0.00     0.039 C 
BRANCH   2   3
ATOM      3  C   UNL A   1      32.350  26.078  26.446  1.00  0.00     0.194 C 
BRANCH   3   4
ATOM      4  N   UNL A   1      32.603  24.672  26.467  1.00  0.00    -0.305 N 
ATOM      5  C   UNL A   1      31.432  23.611  23.364  1.00  0.00     0.030 C 
ATOM      6  C   UNL A   1      32.091  23.029  24.402  1.00  0.00     0.129 C 
ATOM      7  C   UNL A   1      32.395  21.557  24.105  1.00  0.00     0.328 C 
ATOM      8  C   UNL A   1      32.565  23.514  25.748  1.00  0.00     0.236 C 
ATOM      9  O   UNL A   1      32.113  21.073  23.004  1.00  0.00    -0.249 OA
ATOM     10  N   UNL A   1      32.966  20.811  25.128  1.00  0.00    -0.155 N 
ATOM     11  N   UNL A   1      33.113  22.668  26.582  1.00  0.00    -0.209 N 
ATOM     12  C   UNL A   1      33.332  21.355  26.351  1.00  0.00     0.448 C 
ATOM     13  H   UNL A   1      33.389  23.019  27.459  1.00  0.00     0.270 HD
ATOM     14  H   UNL A   1      32.945  24.450  27.363  1.00  0.00     0.256 HD
ATOM     15  O   UNL A   1      33.903  20.710  27.229  1.00  0.00    -0.212 OA
BRANCH   5  16
ATOM     16  C   UNL A   1      31.000  24.982  23.071  1.00  0.00    -0.024 A 
ATOM     17  C   UNL A   1      30.390  27.675  22.671  1.00  0.00     0.127 A 
ATOM     18  C   UNL A   1      31.430  27.078  21.967  1.00  0.00     0.048 A 
ATOM     19  C   UNL A   1      29.448  26.860  23.288  1.00  0.00     0.040 A 
ATOM     20  C   UNL A   1      31.693  25.722  22.128  1.00  0.00     0.012 A 
ATOM     21  C   UNL A   1      29.789  25.520  23.553  1.00  0.00     0.022 A 
BRANCH  17  22
ATOM     22  O   UNL A   1      30.374  29.041  22.689  1.00  0.00    -0.496 OA
ATOM     23  C   UNL A   1      30.865  29.590  23.924  1.00  0.00     0.278 C 
ENDBRANCH  17  22
BRANCH  19  24
ATOM     24  C   UNL A   1      28.064  27.338  23.540  1.00  0.00     0.075 C 
ATOM     25  O   UNL A   1      27.592  28.399  23.172  1.00  0.00    -0.545 OA
ATOM     26  O   UNL A   1      27.386  26.508  24.356  1.00  0.00    -0.545 OA
ENDBRANCH  19  24
ENDBRANCH   5  16
BRANCH  10  27
ATOM     27  C   UNL A   1      33.268  19.420  24.921  1.00  0.00     0.111 A 
ATOM     28  C   UNL A   1      32.331  18.432  25.270  1.00  0.00     0.044 A 
ATOM     29  C   UNL A   1      34.524  19.014  24.452  1.00  0.00     0.044 A 
ATOM     30  C   UNL A   1      32.645  17.076  25.171  1.00  0.00     0.004 A 
ATOM     31  C   UNL A   1      34.844  17.654  24.373  1.00  0.00     0.004 A 
ATOM     32  C   UNL A   1      33.906  16.688  24.732  1.00  0.00     0.000 A 
ENDBRANCH  10  27
ENDBRANCH   3   4
ENDBRANCH   2   3
ENDBRANCH   1   2
BRANCH   1  33
ATOM     33  C   UNL A   1      33.360  28.601  27.495  1.00  0.00     0.116 C 
BRANCH  33  34
ATOM     34  N   UNL A   1      33.429  30.014  27.835  1.00  0.00    -0.352 N 
ATOM     35  C   UNL A   1      34.540  30.761  28.165  1.00  0.00     0.251 C 
ATOM     36  H   UNL A   1      32.572  30.499  27.827  1.00  0.00     0.163 HD
ATOM     37  O   UNL A   1      34.485  31.959  28.407  1.00  0.00    -0.269 OA
BRANCH  35  38
ATOM     38  C   UNL A   1      35.811  30.052  28.322  1.00  0.00     0.039 A 
ATOM     39  C   UNL A   1      36.703  30.077  27.250  1.00  0.00     0.014 A 
ATOM     40  C   UNL A   1      36.173  29.565  29.576  1.00  0.00     0.014 A 
ATOM     41  C   UNL A   1      38.019  29.694  27.466  1.00  0.00     0.010 A 
ATOM     42  C   UNL A   1      37.507  29.295  29.815  1.00  0.00     0.010 A 
ATOM     43  C   UNL A   1      38.436  29.356  28.762  1.00  0.00    -0.014 A 
BRANCH  43  44
ATOM     44  C   UNL A   1      39.844  29.019  29.041  1.00  0.00     0.031 A 
ATOM     45  C   UNL A   1      40.709  30.051  29.700  1.00  0.00     0.074 A 
ATOM     46  C   UNL A   1      40.338  27.832  28.638  1.00  0.00     0.049 A 
ATOM     47  N   UNL A   1      41.987  30.018  29.955  1.00  0.00    -0.248 NA
ATOM     48  C   UNL A   1      40.051  31.315  30.077  1.00  0.00     0.031 C 
ATOM     49  C   UNL A   1      39.577  26.784  27.951  1.00  0.00     0.029 A 
ATOM     50  N   UNL A   1      41.597  27.306  28.751  1.00  0.00    -0.354 N 
ATOM     51  C   UNL A   1      42.289  31.263  30.490  1.00  0.00     0.074 A 
ATOM     52  C   UNL A   1      41.082  32.055  30.447  1.00  0.00     0.031 C 
ATOM     53  C   UNL A   1      40.374  25.723  27.747  1.00  0.00     0.029 A 
ATOM     54  C   UNL A   1      41.709  26.031  28.249  1.00  0.00     0.049 A 
ATOM     55  H   UNL A   1      42.350  27.794  29.153  1.00  0.00     0.167 HD
ATOM     56  C   UNL A   1      43.464  31.691  31.006  1.00  0.00     0.037 A 
ATOM     57  C   UNL A   1      42.775  25.209  28.211  1.00  0.00     0.037 A 
ATOM     58  C   UNL A   1      44.637  30.863  31.069  1.00  0.00     0.049 A 
ATOM     59  C   UNL A   1      44.072  25.704  28.791  1.00  0.00     0.074 A 
ATOM     60  C   UNL A   1      45.870  31.154  31.618  1.00  0.00     0.029 A 
ATOM     61  N   UNL A   1      44.715  29.573  30.559  1.00  0.00    -0.354 N 
ATOM     62  N   UNL A   1      44.335  26.863  29.351  1.00  0.00    -0.248 NA
ATOM     63  C   UNL A   1      45.214  24.785  28.739  1.00  0.00     0.031 C 
ATOM     64  C   UNL A   1      46.709  30.056  31.395  1.00  0.00     0.029 A 
ATOM     65  C   UNL A   1      45.983  29.060  30.758  1.00  0.00     0.049 A 
ATOM     66  H   UNL A   1      43.975  29.094  30.120  1.00  0.00     0.167 HD
ATOM     67  C   UNL A   1      45.665  26.802  29.746  1.00  0.00     0.074 A 
ATOM     68  C   UNL A   1      46.147  25.486  29.368  1.00  0.00     0.031 C 
ATOM     69  C   UNL A   1      46.422  27.741  30.369  1.00  0.00     0.037 A 
BRANCH  56  70
ATOM     70  C   UNL A   1      43.515  33.107  31.516  1.00  0.00     0.058 A 
ATOM     71  C   UNL A   1      43.910  34.179  30.697  1.00  0.00     0.135 A 
ATOM     72  C   UNL A   1      43.211  33.390  32.857  1.00  0.00     0.135 A 
ATOM     73  F   UNL A   1      44.233  33.967  29.411  1.00  0.00    -0.206 F 
ATOM     74  C   UNL A   1      44.063  35.466  31.204  1.00  0.00     0.059 A 
ATOM     75  C   UNL A   1      43.320  34.677  33.376  1.00  0.00     0.059 A 
ATOM     76  F   UNL A   1      42.830  32.406  33.687  1.00  0.00    -0.206 F 
ATOM     77  C   UNL A   1      43.773  35.703  32.547  1.00  0.00     0.060 A 
BRANCH  77  78
ATOM     78  S   UNL A   1      44.013  37.368  33.200  1.00  0.00     0.124 S 
ATOM     79  O   UNL A   1      45.314  37.240  33.851  1.00  0.00    -0.237 OA
ATOM     80  O   UNL A   1      43.990  38.184  31.991  1.00  0.00    -0.237 OA
ATOM     81  O   UNL A   1      42.877  37.548  34.098  1.00  0.00    -0.744 OA
ENDBRANCH  77  78
ENDBRANCH  56  70
BRANCH  57  82
ATOM     82  C   UNL A   1      42.636  23.830  27.670  1.00  0.00     0.058 A 
ATOM     83  C   UNL A   1      42.487  22.736  28.536  1.00  0.00     0.135 A 
ATOM     84  C   UNL A   1      42.604  23.576  26.290  1.00  0.00     0.135 A 
ATOM     85  F   UNL A   1      42.513  22.925  29.864  1.00  0.00    -0.206 F 
ATOM     86  C   UNL A   1      42.316  21.441  28.056  1.00  0.00     0.059 A 
ATOM     87  C   UNL A   1      42.411  22.292  25.786  1.00  0.00     0.059 A 
ATOM     88  F   UNL A   1      42.724  24.589  25.416  1.00  0.00    -0.206 F 
ATOM     89  C   UNL A   1      42.272  21.231  26.677  1.00  0.00     0.060 A 
BRANCH  89  90
ATOM     90  S   UNL A   1      41.979  19.554  26.071  1.00  0.00     0.124 S 
ATOM     91  O   UNL A   1      42.392  18.750  27.215  1.00  0.00    -0.237 OA
ATOM     92  O   UNL A   1      40.547  19.578  25.789  1.00  0.00    -0.237 OA
ATOM     93  O   UNL A   1      42.841  19.467  24.895  1.00  0.00    -0.744 OA
ENDBRANCH  89  90
ENDBRANCH  57  82
BRANCH  69  94
ATOM     94  C   UNL A   1      47.837  27.365  30.707  1.00  0.00     0.058 A 
ATOM     95  C   UNL A   1      48.157  26.684  31.890  1.00  0.00     0.135 A 
ATOM     96  C   UNL A   1      48.874  27.638  29.800  1.00  0.00     0.135 A 
ATOM     97  F   UNL A   1      47.202  26.406  32.791  1.00  0.00    -0.206 F 
ATOM     98  C   UNL A   1      49.464  26.307  32.176  1.00  0.00     0.059 A 
ATOM     99  C   UNL A   1      50.182  27.240  30.049  1.00  0.00     0.059 A 
ATOM    100  F   UNL A   1      48.615  28.276  28.647  1.00  0.00    -0.206 F 
ATOM    101  C   UNL A   1      50.469  26.586  31.247  1.00  0.00     0.060 A 
BRANCH 101 102
ATOM    102  S   UNL A   1      52.153  26.056  31.612  1.00  0.00     0.124 S 
ATOM    103  O   UNL A   1      52.563  27.044  32.604  1.00  0.00    -0.237 OA
ATOM    104  O   UNL A   1      51.950  24.699  32.113  1.00  0.00    -0.237 OA
ATOM    105  O   UNL A   1      52.826  26.145  30.320  1.00  0.00    -0.744 OA
ENDBRANCH 101 102
ENDBRANCH  69  94
ENDBRANCH  43  44
ENDBRANCH  35  38
ENDBRANCH  33  34
ENDBRANCH   1  33
TORSDOF 17
ENDMDL
MODEL 2
REMARK VINA RESULT:     -12.4      2.392      3.155
REMARK SMILES COc1ccc(/C=C2/C(=O)N(c3ccccc3)C(=O)[NH+]=C2NCCCCNC(=O)c2ccc(-c3c4nc(c(-c5c(F)cc(S(=O)(=O)[O-])cc5F)c5ccc([nH]5)c(-c5c(F)cc(S(=O)(=O)[O-])cc5F)c5nc(c(-c6c(F)cc(S(=O)(=O)[O-])cc6F)c6ccc3[nH]6)C=C5)C=C4)cc2)cc1C(=O)[O-]
REMARK SMILES IDX 25 1 24 2 23 3 22 4 7 5 8 6 9 7 21 8 10 9 11 10 20 11 18 12
REMARK SMILES IDX 19 15 6 16 3 17 4 18 97 19 5 20 96 21 2 22 1 23 98 24 99 25
REMARK SMILES IDX 100 26 12 27 13 28 17 29 14 30 16 31 15 32 26 33 27 34 28 35
REMARK SMILES IDX 29 37 30 38 31 39 95 40 32 41 94 42 33 43 34 44 35 45 88 46
REMARK SMILES IDX 36 47 93 48 87 49 89 50 37 51 92 52 86 53 85 54 38 56 72 57
REMARK SMILES IDX 51 58 71 59 52 60 55 61 70 62 90 63 53 64 54 65 69 67 91 68
REMARK SMILES IDX 56 69 39 70 40 71 49 72 41 73 42 74 48 75 50 76 43 77 44 78
REMARK SMILES IDX 45 79 46 80 47 81 73 82 74 83 83 84 75 85 76 86 82 87 84 88
REMARK SMILES IDX 77 89 78 90 79 91 80 92 81 93 57 94 58 95 67 96 59 97 60 98
REMARK SMILES IDX 66 99 68 100 61 101 62 102 63 103 64 104 65 105
REMARK H PARENT 20 13 22 14 27 36 89 55 55 66
REMARK Flexibility Score: inf
ROOT
ATOM      1  C   UNL A   1      33.210  27.933  25.956  1.00  0.00     0.024 C 
ENDROOT
BRANCH   1   2
ATOM      2  C   UNL A   1      32.145  28.083  27.051  1.00  0.00     0.039 C 
BRANCH   2   3
ATOM      3  C   UNL A   1      31.012  27.072  26.945  1.00  0.00     0.194 C 
BRANCH   3   4
ATOM      4  N   UNL A   1      31.474  25.721  26.920  1.00  0.00    -0.305 N 
ATOM      5  C   UNL A   1      31.126  24.828  23.571  1.00  0.00     0.030 C 
ATOM      6  C   UNL A   1      31.649  24.241  24.682  1.00  0.00     0.129 C 
ATOM      7  C   UNL A   1      32.234  22.864  24.353  1.00  0.00     0.328 C 
ATOM      8  C   UNL A   1      31.763  24.648  26.128  1.00  0.00     0.236 C 
ATOM      9  O   UNL A   1      32.257  22.461  23.185  1.00  0.00    -0.249 OA
ATOM     10  N   UNL A   1      32.701  22.104  25.418  1.00  0.00    -0.155 N 
ATOM     11  N   UNL A   1      32.260  23.806  26.998  1.00  0.00    -0.209 N 
ATOM     12  C   UNL A   1      32.726  22.567  26.726  1.00  0.00     0.448 C 
ATOM     13  H   UNL A   1      32.298  24.101  27.936  1.00  0.00     0.270 HD
ATOM     14  H   UNL A   1      31.662  25.458  27.850  1.00  0.00     0.256 HD
ATOM     15  O   UNL A   1      33.205  21.922  27.657  1.00  0.00    -0.212 OA
BRANCH   5  16
ATOM     16  C   UNL A   1      30.551  26.148  23.291  1.00  0.00    -0.024 A 
ATOM     17  C   UNL A   1      29.634  28.761  22.944  1.00  0.00     0.127 A 
ATOM     18  C   UNL A   1      30.818  28.345  22.344  1.00  0.00     0.048 A 
ATOM     19  C   UNL A   1      28.747  27.796  23.406  1.00  0.00     0.040 A 
ATOM     20  C   UNL A   1      31.240  27.026  22.473  1.00  0.00     0.012 A 
ATOM     21  C   UNL A   1      29.232  26.497  23.649  1.00  0.00     0.022 A 
BRANCH  17  22
ATOM     22  O   UNL A   1      29.434  30.109  23.022  1.00  0.00    -0.496 OA
ATOM     23  C   UNL A   1      29.367  30.741  21.732  1.00  0.00     0.278 C 
ENDBRANCH  17  22
BRANCH  19  24
ATOM     24  C   UNL A   1      27.291  28.077  23.511  1.00  0.00     0.075 C 
ATOM     25  O   UNL A   1      26.722  29.077  23.111  1.00  0.00    -0.545 OA
ATOM     26  O   UNL A   1      26.649  27.139  24.233  1.00  0.00    -0.545 OA
ENDBRANCH  19  24
ENDBRANCH   5  16
BRANCH  10  27
ATOM     27  C   UNL A   1      33.253  20.798  25.181  1.00  0.00     0.111 A 
ATOM     28  C   UNL A   1      34.637  20.638  24.986  1.00  0.00     0.044 A 
ATOM     29  C   UNL A   1      32.426  19.675  25.052  1.00  0.00     0.044 A 
ATOM     30  C   UNL A   1      35.178  19.396  24.655  1.00  0.00     0.004 A 
ATOM     31  C   UNL A   1      32.968  18.434  24.700  1.00  0.00     0.004 A 
ATOM     32  C   UNL A   1      34.341  18.295  24.502  1.00  0.00     0.000 A 
ENDBRANCH  10  27
ENDBRANCH   3   4
ENDBRANCH   2   3
ENDBRANCH   1   2
BRANCH   1  33
ATOM     33  C   UNL A   1      34.133  29.119  25.697  1.00  0.00     0.116 C 
BRANCH  33  34
ATOM     34  N   UNL A   1      33.848  30.304  26.490  1.00  0.00    -0.352 N 
ATOM     35  C   UNL A   1      34.616  30.872  27.486  1.00  0.00     0.251 C 
ATOM     36  H   UNL A   1      32.999  30.761  26.289  1.00  0.00     0.163 HD
ATOM     37  O   UNL A   1      34.289  31.895  28.072  1.00  0.00    -0.269 OA
BRANCH  35  38
ATOM     38  C   UNL A   1      35.816  30.150  27.910  1.00  0.00     0.039 A 
ATOM     39  C   UNL A   1      37.015  30.452  27.263  1.00  0.00     0.014 A 
ATOM     40  C   UNL A   1      35.771  29.360  29.057  1.00  0.00     0.014 A 
ATOM     41  C   UNL A   1      38.206  30.031  27.835  1.00  0.00     0.010 A 
ATOM     42  C   UNL A   1      36.961  29.043  29.682  1.00  0.00     0.010 A 
ATOM     43  C   UNL A   1      38.184  29.374  29.074  1.00  0.00    -0.014 A 
BRANCH  43  44
ATOM     44  C   UNL A   1      39.438  28.981  29.745  1.00  0.00     0.031 A 
ATOM     45  C   UNL A   1      39.850  29.726  30.980  1.00  0.00     0.074 A 
ATOM     46  C   UNL A   1      40.213  28.023  29.203  1.00  0.00     0.049 A 
ATOM     47  N   UNL A   1      40.946  29.624  31.679  1.00  0.00    -0.248 NA
ATOM     48  C   UNL A   1      38.921  30.763  31.462  1.00  0.00     0.031 C 
ATOM     49  C   UNL A   1      39.909  27.275  27.979  1.00  0.00     0.029 A 
ATOM     50  N   UNL A   1      41.414  27.510  29.612  1.00  0.00    -0.354 N 
ATOM     51  C   UNL A   1      40.851  30.603  32.659  1.00  0.00     0.074 A 
ATOM     52  C   UNL A   1      39.633  31.340  32.415  1.00  0.00     0.031 C 
ATOM     53  C   UNL A   1      40.875  26.367  27.765  1.00  0.00     0.029 A 
ATOM     54  C   UNL A   1      41.885  26.498  28.810  1.00  0.00     0.049 A 
ATOM     55  H   UNL A   1      41.896  27.835  30.406  1.00  0.00     0.167 HD
ATOM     56  C   UNL A   1      41.690  30.838  33.693  1.00  0.00     0.037 A 
ATOM     57  C   UNL A   1      43.005  25.760  28.920  1.00  0.00     0.037 A 
ATOM     58  C   UNL A   1      42.875  30.060  33.929  1.00  0.00     0.049 A 
ATOM     59  C   UNL A   1      43.925  26.036  30.078  1.00  0.00     0.074 A 
ATOM     60  C   UNL A   1      43.777  30.155  34.970  1.00  0.00     0.029 A 
ATOM     61  N   UNL A   1      43.319  29.036  33.102  1.00  0.00    -0.354 N 
ATOM     62  N   UNL A   1      43.798  26.925  31.036  1.00  0.00    -0.248 NA
ATOM     63  C   UNL A   1      45.136  25.213  30.173  1.00  0.00     0.031 C 
ATOM     64  C   UNL A   1      44.794  29.221  34.744  1.00  0.00     0.029 A 
ATOM     65  C   UNL A   1      44.497  28.505  33.594  1.00  0.00     0.049 A 
ATOM     66  H   UNL A   1      42.862  28.732  32.284  1.00  0.00     0.167 HD
ATOM     67  C   UNL A   1      44.897  26.748  31.869  1.00  0.00     0.074 A 
ATOM     68  C   UNL A   1      45.672  25.660  31.301  1.00  0.00     0.031 C 
ATOM     69  C   UNL A   1      45.236  27.417  33.000  1.00  0.00     0.037 A 
BRANCH  56  70
ATOM     70  C   UNL A   1      41.346  31.981  34.610  1.00  0.00     0.058 A 
ATOM     71  C   UNL A   1      40.476  31.823  35.703  1.00  0.00     0.135 A 
ATOM     72  C   UNL A   1      41.856  33.266  34.365  1.00  0.00     0.135 A 
ATOM     73  F   UNL A   1      39.941  30.622  35.975  1.00  0.00    -0.206 F 
ATOM     74  C   UNL A   1      40.073  32.907  36.478  1.00  0.00     0.059 A 
ATOM     75  C   UNL A   1      41.498  34.357  35.152  1.00  0.00     0.059 A 
ATOM     76  F   UNL A   1      42.690  33.478  33.334  1.00  0.00    -0.206 F 
ATOM     77  C   UNL A   1      40.585  34.171  36.189  1.00  0.00     0.060 A 
BRANCH  77  78
ATOM     78  S   UNL A   1      40.025  35.574  37.178  1.00  0.00     0.124 S 
ATOM     79  O   UNL A   1      41.228  35.886  37.945  1.00  0.00    -0.237 OA
ATOM     80  O   UNL A   1      39.656  36.548  36.156  1.00  0.00    -0.237 OA
ATOM     81  O   UNL A   1      38.914  35.025  37.948  1.00  0.00    -0.744 OA
ENDBRANCH  77  78
ENDBRANCH  56  70
BRANCH  57  82
ATOM     82  C   UNL A   1      43.273  24.660  27.954  1.00  0.00     0.058 A 
ATOM     83  C   UNL A   1      44.115  24.869  26.851  1.00  0.00     0.135 A 
ATOM     84  C   UNL A   1      42.738  23.374  28.128  1.00  0.00     0.135 A 
ATOM     85  F   UNL A   1      44.650  26.081  26.637  1.00  0.00    -0.206 F 
ATOM     86  C   UNL A   1      44.414  23.849  25.954  1.00  0.00     0.059 A 
ATOM     87  C   UNL A   1      43.041  22.330  27.257  1.00  0.00     0.059 A 
ATOM     88  F   UNL A   1      41.941  23.114  29.177  1.00  0.00    -0.206 F 
ATOM     89  C   UNL A   1      43.877  22.579  26.171  1.00  0.00     0.060 A 
BRANCH  89  90
ATOM     90  S   UNL A   1      44.330  21.246  25.037  1.00  0.00     0.124 S 
ATOM     91  O   UNL A   1      45.700  20.963  25.448  1.00  0.00    -0.237 OA
ATOM     92  O   UNL A   1      43.341  20.223  25.361  1.00  0.00    -0.237 OA
ATOM     93  O   UNL A   1      44.179  21.860  23.721  1.00  0.00    -0.744 OA
ENDBRANCH  89  90
ENDBRANCH  57  82
BRANCH  69  94
ATOM     94  C   UNL A   1      46.480  26.967  33.712  1.00  0.00     0.058 A 
ATOM     95  C   UNL A   1      47.730  27.546  33.452  1.00  0.00     0.135 A 
ATOM     96  C   UNL A   1      46.403  25.983  34.712  1.00  0.00     0.135 A 
ATOM     97  F   UNL A   1      47.857  28.485  32.501  1.00  0.00    -0.206 F 
ATOM     98  C   UNL A   1      48.869  27.149  34.143  1.00  0.00     0.059 A 
ATOM     99  C   UNL A   1      47.521  25.595  35.439  1.00  0.00     0.059 A 
ATOM    100  F   UNL A   1      45.225  25.408  35.006  1.00  0.00    -0.206 F 
ATOM    101  C   UNL A   1      48.753  26.176  35.138  1.00  0.00     0.060 A 
BRANCH 101 102
ATOM    102  S   UNL A   1      50.231  25.699  36.055  1.00  0.00     0.124 S 
ATOM    103  O   UNL A   1      51.240  26.564  35.454  1.00  0.00    -0.237 OA
ATOM    104  O   UNL A   1      49.859  26.017  37.431  1.00  0.00    -0.237 OA
ATOM    105  O   UNL A   1      50.368  24.276  35.763  1.00  0.00    -0.744 OA
ENDBRANCH 101 102
ENDBRANCH  69  94
ENDBRANCH  43  44
ENDBRANCH  35  38
ENDBRANCH  33  34
ENDBRANCH   1  33
TORSDOF 17
ENDMDL
MODEL 3
REMARK VINA RESULT:     -12.1      0.903      8.035
REMARK SMILES COc1ccc(/C=C2/C(=O)N(c3ccccc3)C(=O)[NH+]=C2NCCCCNC(=O)c2ccc(-c3c4nc(c(-c5c(F)cc(S(=O)(=O)[O-])cc5F)c5ccc([nH]5)c(-c5c(F)cc(S(=O)(=O)[O-])cc5F)c5nc(c(-c6c(F)cc(S(=O)(=O)[O-])cc6F)c6ccc3[nH]6)C=C5)C=C4)cc2)cc1C(=O)[O-]
REMARK SMILES IDX 25 1 24 2 23 3 22 4 7 5 8 6 9 7 21 8 10 9 11 10 20 11 18 12
REMARK SMILES IDX 19 15 6 16 3 17 4 18 97 19 5 20 96 21 2 22 1 23 98 24 99 25
REMARK SMILES IDX 100 26 12 27 13 28 17 29 14 30 16 31 15 32 26 33 27 34 28 35
REMARK SMILES IDX 29 37 30 38 31 39 95 40 32 41 94 42 33 43 34 44 35 45 88 46
REMARK SMILES IDX 36 47 93 48 87 49 89 50 37 51 92 52 86 53 85 54 38 56 72 57
REMARK SMILES IDX 51 58 71 59 52 60 55 61 70 62 90 63 53 64 54 65 69 67 91 68
REMARK SMILES IDX 56 69 39 70 40 71 49 72 41 73 42 74 48 75 50 76 43 77 44 78
REMARK SMILES IDX 45 79 46 80 47 81 73 82 74 83 83 84 75 85 76 86 82 87 84 88
REMARK SMILES IDX 77 89 78 90 79 91 80 92 81 93 57 94 58 95 67 96 59 97 60 98
REMARK SMILES IDX 66 99 68 100 61 101 62 102 63 103 64 104 65 105
REMARK H PARENT 20 13 22 14 27 36 89 55 55 66
REMARK Flexibility Score: inf
ROOT
ATOM      1  C   UNL A   1      33.158  27.925  26.227  1.00  0.00     0.024 C 
ENDROOT
BRANCH   1   2
ATOM      2  C   UNL A   1      32.001  27.949  27.236  1.00  0.00     0.039 C 
BRANCH   2   3
ATOM      3  C   UNL A   1      30.909  26.930  26.937  1.00  0.00     0.194 C 
BRANCH   3   4
ATOM      4  N   UNL A   1      31.406  25.594  26.850  1.00  0.00    -0.305 N 
ATOM      5  C   UNL A   1      31.152  24.878  23.451  1.00  0.00     0.030 C 
ATOM      6  C   UNL A   1      31.665  24.243  24.540  1.00  0.00     0.129 C 
ATOM      7  C   UNL A   1      32.292  22.901  24.151  1.00  0.00     0.328 C 
ATOM      8  C   UNL A   1      31.738  24.573  26.009  1.00  0.00     0.236 C 
ATOM      9  O   UNL A   1      32.350  22.562  22.964  1.00  0.00    -0.249 OA
ATOM     10  N   UNL A   1      32.754  22.095  25.184  1.00  0.00    -0.155 N 
ATOM     11  N   UNL A   1      32.237  23.697  26.843  1.00  0.00    -0.209 N 
ATOM     12  C   UNL A   1      32.740  22.487  26.515  1.00  0.00     0.448 C 
ATOM     13  H   UNL A   1      32.248  23.941  27.796  1.00  0.00     0.270 HD
ATOM     14  H   UNL A   1      31.580  25.285  27.769  1.00  0.00     0.256 HD
ATOM     15  O   UNL A   1      33.215  21.803  27.420  1.00  0.00    -0.212 OA
BRANCH   5  16
ATOM     16  C   UNL A   1      30.550  26.197  23.230  1.00  0.00    -0.024 A 
ATOM     17  C   UNL A   1      29.579  28.803  23.000  1.00  0.00     0.127 A 
ATOM     18  C   UNL A   1      30.775  28.441  22.389  1.00  0.00     0.048 A 
ATOM     19  C   UNL A   1      28.710  27.798  23.409  1.00  0.00     0.040 A 
ATOM     20  C   UNL A   1      31.225  27.127  22.459  1.00  0.00     0.012 A 
ATOM     21  C   UNL A   1      29.222  26.500  23.594  1.00  0.00     0.022 A 
BRANCH  17  22
ATOM     22  O   UNL A   1      29.349  30.141  23.140  1.00  0.00    -0.496 OA
ATOM     23  C   UNL A   1      29.212  30.821  21.880  1.00  0.00     0.278 C 
ENDBRANCH  17  22
BRANCH  19  24
ATOM     24  C   UNL A   1      27.249  28.043  23.517  1.00  0.00     0.075 C 
ATOM     25  O   UNL A   1      26.654  29.029  23.122  1.00  0.00    -0.545 OA
ATOM     26  O   UNL A   1      26.631  27.087  24.237  1.00  0.00    -0.545 OA
ENDBRANCH  19  24
ENDBRANCH   5  16
BRANCH  10  27
ATOM     27  C   UNL A   1      33.345  20.817  24.889  1.00  0.00     0.111 A 
ATOM     28  C   UNL A   1      32.535  19.674  24.771  1.00  0.00     0.044 A 
ATOM     29  C   UNL A   1      34.734  20.665  24.801  1.00  0.00     0.044 A 
ATOM     30  C   UNL A   1      33.098  18.410  24.587  1.00  0.00     0.004 A 
ATOM     31  C   UNL A   1      35.298  19.395  24.637  1.00  0.00     0.004 A 
ATOM     32  C   UNL A   1      34.481  18.270  24.530  1.00  0.00     0.000 A 
ENDBRANCH  10  27
ENDBRANCH   3   4
ENDBRANCH   2   3
ENDBRANCH   1   2
BRANCH   1  33
ATOM     33  C   UNL A   1      34.180  29.055  26.295  1.00  0.00     0.116 C 
BRANCH  33  34
ATOM     34  N   UNL A   1      33.930  30.050  27.325  1.00  0.00    -0.352 N 
ATOM     35  C   UNL A   1      34.807  30.542  28.269  1.00  0.00     0.251 C 
ATOM     36  H   UNL A   1      33.018  30.421  27.351  1.00  0.00     0.163 HD
ATOM     37  O   UNL A   1      34.494  31.407  29.077  1.00  0.00    -0.269 OA
BRANCH  35  38
ATOM     38  C   UNL A   1      36.129  29.920  28.355  1.00  0.00     0.039 A 
ATOM     39  C   UNL A   1      36.981  30.057  27.258  1.00  0.00     0.014 A 
ATOM     40  C   UNL A   1      36.566  29.406  29.574  1.00  0.00     0.014 A 
ATOM     41  C   UNL A   1      38.326  29.762  27.417  1.00  0.00     0.010 A 
ATOM     42  C   UNL A   1      37.923  29.223  29.759  1.00  0.00     0.010 A 
ATOM     43  C   UNL A   1      38.809  29.398  28.682  1.00  0.00    -0.014 A 
BRANCH  43  44
ATOM     44  C   UNL A   1      40.247  29.151  28.903  1.00  0.00     0.031 A 
ATOM     45  C   UNL A   1      40.805  27.808  28.540  1.00  0.00     0.074 A 
ATOM     46  C   UNL A   1      41.004  30.101  29.485  1.00  0.00     0.049 A 
ATOM     47  N   UNL A   1      42.004  27.333  28.729  1.00  0.00    -0.248 NA
ATOM     48  C   UNL A   1      39.867  26.853  27.924  1.00  0.00     0.031 C 
ATOM     49  C   UNL A   1      40.533  31.422  29.911  1.00  0.00     0.029 A 
ATOM     50  N   UNL A   1      42.333  30.101  29.818  1.00  0.00    -0.354 N 
ATOM     51  C   UNL A   1      41.954  26.017  28.287  1.00  0.00     0.074 A 
ATOM     52  C   UNL A   1      40.590  25.746  27.899  1.00  0.00     0.031 C 
ATOM     53  C   UNL A   1      41.568  32.122  30.403  1.00  0.00     0.029 A 
ATOM     54  C   UNL A   1      42.763  31.285  30.369  1.00  0.00     0.049 A 
ATOM     55  H   UNL A   1      42.923  29.327  29.677  1.00  0.00     0.167 HD
ATOM     56  C   UNL A   1      42.968  25.129  28.182  1.00  0.00     0.037 A 
ATOM     57  C   UNL A   1      43.991  31.645  30.788  1.00  0.00     0.037 A 
ATOM     58  C   UNL A   1      44.323  25.445  28.543  1.00  0.00     0.049 A 
ATOM     59  C   UNL A   1      45.106  30.643  30.661  1.00  0.00     0.074 A 
ATOM     60  C   UNL A   1      45.452  24.657  28.430  1.00  0.00     0.029 A 
ATOM     61  N   UNL A   1      44.727  26.656  29.090  1.00  0.00    -0.354 N 
ATOM     62  N   UNL A   1      45.063  29.420  30.186  1.00  0.00    -0.248 NA
ATOM     63  C   UNL A   1      46.432  31.067  31.123  1.00  0.00     0.031 C 
ATOM     64  C   UNL A   1      46.531  25.376  28.956  1.00  0.00     0.029 A 
ATOM     65  C   UNL A   1      46.086  26.632  29.344  1.00  0.00     0.049 A 
ATOM     66  H   UNL A   1      44.133  27.421  29.270  1.00  0.00     0.167 HD
ATOM     67  C   UNL A   1      46.363  28.935  30.262  1.00  0.00     0.074 A 
ATOM     68  C   UNL A   1      47.168  30.005  30.821  1.00  0.00     0.031 C 
ATOM     69  C   UNL A   1      46.852  27.722  29.900  1.00  0.00     0.037 A 
BRANCH  56  70
ATOM     70  C   UNL A   1      42.626  23.753  27.674  1.00  0.00     0.058 A 
ATOM     71  C   UNL A   1      42.325  22.692  28.545  1.00  0.00     0.135 A 
ATOM     72  C   UNL A   1      42.648  23.479  26.298  1.00  0.00     0.135 A 
ATOM     73  F   UNL A   1      42.310  22.889  29.874  1.00  0.00    -0.206 F 
ATOM     74  C   UNL A   1      42.121  21.398  28.076  1.00  0.00     0.059 A 
ATOM     75  C   UNL A   1      42.408  22.201  25.803  1.00  0.00     0.059 A 
ATOM     76  F   UNL A   1      42.932  24.453  25.418  1.00  0.00    -0.206 F 
ATOM     77  C   UNL A   1      42.173  21.161  26.702  1.00  0.00     0.060 A 
BRANCH  77  78
ATOM     78  S   UNL A   1      41.945  19.472  26.110  1.00  0.00     0.124 S 
ATOM     79  O   UNL A   1      42.881  19.428  24.990  1.00  0.00    -0.237 OA
ATOM     80  O   UNL A   1      42.318  18.679  27.277  1.00  0.00    -0.237 OA
ATOM     81  O   UNL A   1      40.532  19.426  25.748  1.00  0.00    -0.744 OA
ENDBRANCH  77  78
ENDBRANCH  56  70
BRANCH  57  82
ATOM     82  C   UNL A   1      44.232  33.023  31.294  1.00  0.00     0.058 A 
ATOM     83  C   UNL A   1      44.565  34.061  30.410  1.00  0.00     0.135 A 
ATOM     84  C   UNL A   1      44.095  33.348  32.654  1.00  0.00     0.135 A 
ATOM     85  F   UNL A   1      44.711  33.803  29.101  1.00  0.00    -0.206 F 
ATOM     86  C   UNL A   1      44.758  35.366  30.851  1.00  0.00     0.059 A 
ATOM     87  C   UNL A   1      44.260  34.651  33.116  1.00  0.00     0.059 A 
ATOM     88  F   UNL A   1      43.760  32.397  33.541  1.00  0.00    -0.206 F 
ATOM     89  C   UNL A   1      44.595  35.652  32.208  1.00  0.00     0.060 A 
BRANCH  89  90
ATOM     90  S   UNL A   1      44.780  37.365  32.755  1.00  0.00     0.124 S 
ATOM     91  O   UNL A   1      46.145  37.365  33.267  1.00  0.00    -0.237 OA
ATOM     92  O   UNL A   1      44.562  38.104  31.515  1.00  0.00    -0.237 OA
ATOM     93  O   UNL A   1      43.729  37.512  33.757  1.00  0.00    -0.744 OA
ENDBRANCH  89  90
ENDBRANCH  57  82
BRANCH  69  94
ATOM     94  C   UNL A   1      48.329  27.503  30.068  1.00  0.00     0.058 A 
ATOM     95  C   UNL A   1      48.860  26.914  31.224  1.00  0.00     0.135 A 
ATOM     96  C   UNL A   1      49.214  27.834  29.028  1.00  0.00     0.135 A 
ATOM     97  F   UNL A   1      48.057  26.586  32.248  1.00  0.00    -0.206 F 
ATOM     98  C   UNL A   1      50.225  26.680  31.354  1.00  0.00     0.059 A 
ATOM     99  C   UNL A   1      50.576  27.579  29.124  1.00  0.00     0.059 A 
ATOM    100  F   UNL A   1      48.750  28.389  27.897  1.00  0.00    -0.206 F 
ATOM    101  C   UNL A   1      51.073  27.013  30.296  1.00  0.00     0.060 A 
BRANCH 101 102
ATOM    102  S   UNL A   1      52.836  26.668  30.463  1.00  0.00     0.124 S 
ATOM    103  O   UNL A   1      53.202  26.342  29.089  1.00  0.00    -0.237 OA
ATOM    104  O   UNL A   1      53.353  27.934  30.975  1.00  0.00    -0.237 OA
ATOM    105  O   UNL A   1      52.877  25.555  31.406  1.00  0.00    -0.744 OA
ENDBRANCH 101 102
ENDBRANCH  69  94
ENDBRANCH  43  44
ENDBRANCH  35  38
ENDBRANCH  33  34
ENDBRANCH   1  33
TORSDOF 17
ENDMDL
