MODEL 1
REMARK VINA RESULT:     -11.8      0.000      0.000
REMARK SMILES Cc1ccc(Cl)c(Nc2ccccc2C(=O)NCCCCNC(=O)c2ccc(-c3c4nc(c(-c5c(F)cc(S(=O)(=O)[O-])cc5F)c5ccc([nH]5)c(-c5c(F)cc(S(=O)(=O)[O-])cc5F)c5nc(c(-c6c(F)cc(S(=O)(=O)[O-])cc6F)c6ccc3[nH]6)C=C5)C=C4)cc2)c1Cl
REMARK SMILES IDX 20 1 19 2 18 3 17 4 15 5 16 6 14 8 9 9 10 10 11 11 13 12
REMARK SMILES IDX 12 13 8 14 7 16 1 17 2 18 3 19 91 20 4 21 92 22 5 23 6 24
REMARK SMILES IDX 21 25 22 26 23 27 24 29 25 30 26 31 90 32 27 33 89 34 28 35
REMARK SMILES IDX 29 36 30 37 83 38 31 39 88 40 82 41 84 42 32 43 87 44 81 45
REMARK SMILES IDX 80 46 33 48 67 49 46 50 66 51 47 52 50 53 65 54 85 55 48 56
REMARK SMILES IDX 49 57 64 59 86 60 51 61 34 62 35 63 44 64 36 65 37 66 43 67
REMARK SMILES IDX 45 68 38 69 39 70 40 71 41 72 42 73 68 74 69 75 78 76 70 77
REMARK SMILES IDX 71 78 77 79 79 80 72 81 73 82 74 83 75 84 76 85 52 86 53 87
REMARK SMILES IDX 62 88 54 89 55 90 61 91 63 92 56 93 57 94 58 95 59 96 60 97
REMARK H PARENT 17 7 8 15 22 28 84 47 50 58
REMARK Flexibility Score: inf
ROOT
ATOM      1  C   UNL A   1      32.788  28.638  26.293  1.00  0.00     0.023 C 
ENDROOT
BRANCH   1   2
ATOM      2  C   UNL A   1      31.656  27.706  26.736  1.00  0.00     0.023 C 
BRANCH   2   3
ATOM      3  C   UNL A   1      31.814  26.227  26.415  1.00  0.00     0.116 C 
BRANCH   3   4
ATOM      4  N   UNL A   1      30.739  25.372  26.856  1.00  0.00    -0.352 N 
ATOM      5  C   UNL A   1      30.480  24.054  26.552  1.00  0.00     0.253 C 
ATOM      6  O   UNL A   1      29.554  23.506  27.155  1.00  0.00    -0.269 OA
ATOM      7  H   UNL A   1      30.091  25.796  27.466  1.00  0.00     0.163 HD
BRANCH   5   8
ATOM      8  C   UNL A   1      31.159  23.304  25.450  1.00  0.00     0.063 A 
ATOM      9  C   UNL A   1      31.025  23.488  24.058  1.00  0.00     0.051 A 
ATOM     10  C   UNL A   1      31.710  22.590  23.203  1.00  0.00     0.027 A 
ATOM     11  C   UNL A   1      32.561  21.597  23.689  1.00  0.00     0.002 A 
ATOM     12  C   UNL A   1      32.051  22.310  25.924  1.00  0.00     0.016 A 
ATOM     13  C   UNL A   1      32.751  21.473  25.055  1.00  0.00     0.001 A 
BRANCH   9  14
ATOM     14  N   UNL A   1      30.366  24.541  23.393  1.00  0.00    -0.352 N 
ATOM     15  H   UNL A   1      29.510  24.265  22.992  1.00  0.00     0.167 HD
BRANCH  14  16
ATOM     16  C   UNL A   1      30.663  25.908  23.173  1.00  0.00     0.077 A 
ATOM     17  C   UNL A   1      33.541  28.330  22.394  1.00  0.00     0.046 C 
ATOM     18  C   UNL A   1      32.189  27.790  22.776  1.00  0.00    -0.030 A 
ATOM     19  C   UNL A   1      31.187  28.688  23.172  1.00  0.00     0.006 A 
ATOM     20  C   UNL A   1      31.910  26.406  22.741  1.00  0.00     0.069 A 
ATOM     21  C   UNL A   1      29.920  28.226  23.508  1.00  0.00     0.023 A 
ATOM     22  Cl  UNL A   1      33.077  25.350  21.995  1.00  0.00    -0.082 Cl
ATOM     23  C   UNL A   1      29.663  26.858  23.501  1.00  0.00     0.066 A 
ATOM     24  Cl  UNL A   1      28.078  26.333  23.986  1.00  0.00    -0.082 Cl
ENDBRANCH  14  16
ENDBRANCH   9  14
ENDBRANCH   5   8
ENDBRANCH   3   4
ENDBRANCH   2   3
ENDBRANCH   1   2
BRANCH   1  25
ATOM     25  C   UNL A   1      33.970  28.840  27.243  1.00  0.00     0.116 C 
BRANCH  25  26
ATOM     26  N   UNL A   1      33.954  30.083  28.000  1.00  0.00    -0.352 N 
ATOM     27  C   UNL A   1      34.996  30.732  28.633  1.00  0.00     0.251 C 
ATOM     28  H   UNL A   1      33.077  30.524  28.070  1.00  0.00     0.163 HD
ATOM     29  O   UNL A   1      34.802  31.794  29.203  1.00  0.00    -0.269 OA
BRANCH  27  30
ATOM     30  C   UNL A   1      36.345  30.115  28.662  1.00  0.00     0.039 A 
ATOM     31  C   UNL A   1      37.130  30.172  27.506  1.00  0.00     0.014 A 
ATOM     32  C   UNL A   1      36.850  29.524  29.822  1.00  0.00     0.014 A 
ATOM     33  C   UNL A   1      38.457  29.736  27.546  1.00  0.00     0.010 A 
ATOM     34  C   UNL A   1      38.192  29.146  29.877  1.00  0.00     0.010 A 
ATOM     35  C   UNL A   1      39.017  29.270  28.748  1.00  0.00    -0.014 A 
BRANCH  35  36
ATOM     36  C   UNL A   1      40.472  28.975  28.855  1.00  0.00     0.031 A 
ATOM     37  C   UNL A   1      41.012  27.626  28.463  1.00  0.00     0.074 A 
ATOM     38  C   UNL A   1      41.295  29.899  29.394  1.00  0.00     0.049 A 
ATOM     39  N   UNL A   1      42.234  27.170  28.558  1.00  0.00    -0.248 NA
ATOM     40  C   UNL A   1      40.050  26.655  27.918  1.00  0.00     0.031 C 
ATOM     41  C   UNL A   1      40.883  31.218  29.885  1.00  0.00     0.029 A 
ATOM     42  N   UNL A   1      42.646  29.866  29.641  1.00  0.00    -0.354 N 
ATOM     43  C   UNL A   1      42.185  25.854  28.111  1.00  0.00     0.074 A 
ATOM     44  C   UNL A   1      40.806  25.575  27.773  1.00  0.00     0.031 C 
ATOM     45  C   UNL A   1      41.956  31.866  30.366  1.00  0.00     0.029 A 
ATOM     46  C   UNL A   1      43.127  31.006  30.244  1.00  0.00     0.049 A 
ATOM     47  H   UNL A   1      43.217  29.100  29.407  1.00  0.00     0.167 HD
ATOM     48  C   UNL A   1      43.201  24.968  27.977  1.00  0.00     0.037 A 
ATOM     49  C   UNL A   1      44.370  31.321  30.662  1.00  0.00     0.037 A 
ATOM     50  C   UNL A   1      44.579  25.263  28.272  1.00  0.00     0.049 A 
ATOM     51  C   UNL A   1      45.488  30.337  30.446  1.00  0.00     0.074 A 
ATOM     52  C   UNL A   1      45.690  24.457  28.087  1.00  0.00     0.029 A 
ATOM     53  N   UNL A   1      45.038  26.455  28.810  1.00  0.00    -0.354 N 
ATOM     54  N   UNL A   1      45.436  29.130  29.934  1.00  0.00    -0.248 NA
ATOM     55  C   UNL A   1      46.838  30.762  30.844  1.00  0.00     0.031 C 
ATOM     56  C   UNL A   1      46.815  25.148  28.544  1.00  0.00     0.029 A 
ATOM     57  C   UNL A   1      46.412  26.402  28.974  1.00  0.00     0.049 A 
ATOM     58  H   UNL A   1      44.471  27.227  29.041  1.00  0.00     0.167 HD
ATOM     59  C   UNL A   1      46.747  28.667  29.920  1.00  0.00     0.074 A 
ATOM     60  C   UNL A   1      47.572  29.725  30.464  1.00  0.00     0.031 C 
ATOM     61  C   UNL A   1      47.224  27.472  29.493  1.00  0.00     0.037 A 
BRANCH  48  62
ATOM     62  C   UNL A   1      42.874  23.588  27.477  1.00  0.00     0.058 A 
ATOM     63  C   UNL A   1      42.957  23.261  26.114  1.00  0.00     0.135 A 
ATOM     64  C   UNL A   1      42.556  22.560  28.379  1.00  0.00     0.135 A 
ATOM     65  F   UNL A   1      43.242  24.209  25.208  1.00  0.00    -0.206 F 
ATOM     66  C   UNL A   1      42.725  21.966  25.662  1.00  0.00     0.059 A 
ATOM     67  C   UNL A   1      42.344  21.253  27.952  1.00  0.00     0.059 A 
ATOM     68  F   UNL A   1      42.462  22.819  29.693  1.00  0.00    -0.206 F 
ATOM     69  C   UNL A   1      42.425  20.967  26.589  1.00  0.00     0.060 A 
BRANCH  69  70
ATOM     70  S   UNL A   1      42.168  19.283  25.990  1.00  0.00     0.124 S 
ATOM     71  O   UNL A   1      43.001  19.273  24.791  1.00  0.00    -0.237 OA
ATOM     72  O   UNL A   1      42.653  18.478  27.105  1.00  0.00    -0.237 OA
ATOM     73  O   UNL A   1      40.729  19.222  25.754  1.00  0.00    -0.744 OA
ENDBRANCH  69  70
ENDBRANCH  48  62
BRANCH  49  74
ATOM     74  C   UNL A   1      44.634  32.633  31.314  1.00  0.00     0.058 A 
ATOM     75  C   UNL A   1      44.529  32.786  32.704  1.00  0.00     0.135 A 
ATOM     76  C   UNL A   1      44.974  33.764  30.557  1.00  0.00     0.135 A 
ATOM     77  F   UNL A   1      44.204  31.734  33.471  1.00  0.00    -0.206 F 
ATOM     78  C   UNL A   1      44.717  34.019  33.319  1.00  0.00     0.059 A 
ATOM     79  C   UNL A   1      45.194  35.003  31.151  1.00  0.00     0.059 A 
ATOM     80  F   UNL A   1      45.109  33.667  29.225  1.00  0.00    -0.206 F 
ATOM     81  C   UNL A   1      45.045  35.125  32.532  1.00  0.00     0.060 A 
BRANCH  81  82
ATOM     82  S   UNL A   1      45.304  36.720  33.338  1.00  0.00     0.124 S 
ATOM     83  O   UNL A   1      44.881  37.647  32.295  1.00  0.00    -0.237 OA
ATOM     84  O   UNL A   1      44.429  36.624  34.503  1.00  0.00    -0.237 OA
ATOM     85  O   UNL A   1      46.733  36.713  33.637  1.00  0.00    -0.744 OA
ENDBRANCH  81  82
ENDBRANCH  49  74
BRANCH  61  86
ATOM     86  C   UNL A   1      48.712  27.262  29.544  1.00  0.00     0.058 A 
ATOM     87  C   UNL A   1      49.548  27.621  28.476  1.00  0.00     0.135 A 
ATOM     88  C   UNL A   1      49.311  26.736  30.700  1.00  0.00     0.135 A 
ATOM     89  F   UNL A   1      49.024  28.124  27.348  1.00  0.00    -0.206 F 
ATOM     90  C   UNL A   1      50.925  27.439  28.540  1.00  0.00     0.059 A 
ATOM     91  C   UNL A   1      50.688  26.568  30.796  1.00  0.00     0.059 A 
ATOM     92  F   UNL A   1      48.556  26.387  31.754  1.00  0.00    -0.206 F 
ATOM     93  C   UNL A   1      51.487  26.911  29.706  1.00  0.00     0.060 A 
BRANCH  93  94
ATOM     94  S   UNL A   1      53.278  26.701  29.790  1.00  0.00     0.124 S 
ATOM     95  O   UNL A   1      53.716  28.051  30.131  1.00  0.00    -0.237 OA
ATOM     96  O   UNL A   1      53.429  25.700  30.842  1.00  0.00    -0.237 OA
ATOM     97  O   UNL A   1      53.629  26.246  28.448  1.00  0.00    -0.744 OA
ENDBRANCH  93  94
ENDBRANCH  61  86
ENDBRANCH  35  36
ENDBRANCH  27  30
ENDBRANCH  25  26
ENDBRANCH   1  25
TORSDOF 16
ENDMDL
MODEL 2
REMARK VINA RESULT:     -11.8      0.760      8.186
REMARK SMILES Cc1ccc(Cl)c(Nc2ccccc2C(=O)NCCCCNC(=O)c2ccc(-c3c4nc(c(-c5c(F)cc(S(=O)(=O)[O-])cc5F)c5ccc([nH]5)c(-c5c(F)cc(S(=O)(=O)[O-])cc5F)c5nc(c(-c6c(F)cc(S(=O)(=O)[O-])cc6F)c6ccc3[nH]6)C=C5)C=C4)cc2)c1Cl
REMARK SMILES IDX 20 1 19 2 18 3 17 4 15 5 16 6 14 8 9 9 10 10 11 11 13 12
REMARK SMILES IDX 12 13 8 14 7 16 1 17 2 18 3 19 91 20 4 21 92 22 5 23 6 24
REMARK SMILES IDX 21 25 22 26 23 27 24 29 25 30 26 31 90 32 27 33 89 34 28 35
REMARK SMILES IDX 29 36 30 37 83 38 31 39 88 40 82 41 84 42 32 43 87 44 81 45
REMARK SMILES IDX 80 46 33 48 67 49 46 50 66 51 47 52 50 53 65 54 85 55 48 56
REMARK SMILES IDX 49 57 64 59 86 60 51 61 34 62 35 63 44 64 36 65 37 66 43 67
REMARK SMILES IDX 45 68 38 69 39 70 40 71 41 72 42 73 68 74 69 75 78 76 70 77
REMARK SMILES IDX 71 78 77 79 79 80 72 81 73 82 74 83 75 84 76 85 52 86 53 87
REMARK SMILES IDX 62 88 54 89 55 90 61 91 63 92 56 93 57 94 58 95 59 96 60 97
REMARK H PARENT 17 7 8 15 22 28 84 47 50 58
REMARK Flexibility Score: inf
ROOT
ATOM      1  C   UNL A   1      32.472  28.537  26.276  1.00  0.00     0.023 C 
ENDROOT
BRANCH   1   2
ATOM      2  C   UNL A   1      31.452  27.508  26.773  1.00  0.00     0.023 C 
BRANCH   2   3
ATOM      3  C   UNL A   1      31.728  26.048  26.443  1.00  0.00     0.116 C 
BRANCH   3   4
ATOM      4  N   UNL A   1      30.739  25.104  26.904  1.00  0.00    -0.352 N 
ATOM      5  C   UNL A   1      30.560  23.781  26.567  1.00  0.00     0.253 C 
ATOM      6  O   UNL A   1      29.706  23.149  27.194  1.00  0.00    -0.269 OA
ATOM      7  H   UNL A   1      30.095  25.460  27.559  1.00  0.00     0.163 HD
BRANCH   5   8
ATOM      8  C   UNL A   1      31.234  23.117  25.409  1.00  0.00     0.063 A 
ATOM      9  C   UNL A   1      31.072  23.388  24.033  1.00  0.00     0.051 A 
ATOM     10  C   UNL A   1      31.760  22.562  23.111  1.00  0.00     0.027 A 
ATOM     11  C   UNL A   1      32.638  21.556  23.518  1.00  0.00     0.002 A 
ATOM     12  C   UNL A   1      32.152  22.113  25.803  1.00  0.00     0.016 A 
ATOM     13  C   UNL A   1      32.853  21.348  24.870  1.00  0.00     0.001 A 
BRANCH   9  14
ATOM     14  N   UNL A   1      30.382  24.468  23.448  1.00  0.00    -0.352 N 
ATOM     15  H   UNL A   1      29.464  24.235  23.179  1.00  0.00     0.167 HD
BRANCH  14  16
ATOM     16  C   UNL A   1      30.716  25.814  23.162  1.00  0.00     0.077 A 
ATOM     17  C   UNL A   1      33.644  28.101  22.183  1.00  0.00     0.046 C 
ATOM     18  C   UNL A   1      32.289  27.624  22.635  1.00  0.00    -0.030 A 
ATOM     19  C   UNL A   1      31.333  28.572  23.029  1.00  0.00     0.006 A 
ATOM     20  C   UNL A   1      31.962  26.250  22.666  1.00  0.00     0.069 A 
ATOM     21  C   UNL A   1      30.064  28.168  23.429  1.00  0.00     0.023 A 
ATOM     22  Cl  UNL A   1      33.065  25.126  21.924  1.00  0.00    -0.082 Cl
ATOM     23  C   UNL A   1      29.762  26.810  23.487  1.00  0.00     0.066 A 
ATOM     24  Cl  UNL A   1      28.178  26.361  24.048  1.00  0.00    -0.082 Cl
ENDBRANCH  14  16
ENDBRANCH   9  14
ENDBRANCH   5   8
ENDBRANCH   3   4
ENDBRANCH   2   3
ENDBRANCH   1   2
BRANCH   1  25
ATOM     25  C   UNL A   1      33.674  28.852  27.168  1.00  0.00     0.116 C 
BRANCH  25  26
ATOM     26  N   UNL A   1      33.665  30.171  27.781  1.00  0.00    -0.352 N 
ATOM     27  C   UNL A   1      34.695  30.852  28.401  1.00  0.00     0.251 C 
ATOM     28  H   UNL A   1      32.804  30.646  27.749  1.00  0.00     0.163 HD
ATOM     29  O   UNL A   1      34.511  31.977  28.839  1.00  0.00    -0.269 OA
BRANCH  27  30
ATOM     30  C   UNL A   1      36.014  30.197  28.579  1.00  0.00     0.039 A 
ATOM     31  C   UNL A   1      36.908  30.195  27.504  1.00  0.00     0.014 A 
ATOM     32  C   UNL A   1      36.387  29.628  29.799  1.00  0.00     0.014 A 
ATOM     33  C   UNL A   1      38.211  29.722  27.685  1.00  0.00     0.010 A 
ATOM     34  C   UNL A   1      37.704  29.213  29.995  1.00  0.00     0.010 A 
ATOM     35  C   UNL A   1      38.638  29.278  28.948  1.00  0.00    -0.014 A 
BRANCH  35  36
ATOM     36  C   UNL A   1      40.065  28.944  29.205  1.00  0.00     0.031 A 
ATOM     37  C   UNL A   1      41.007  29.978  29.761  1.00  0.00     0.074 A 
ATOM     38  C   UNL A   1      40.533  27.729  28.849  1.00  0.00     0.049 A 
ATOM     39  N   UNL A   1      42.293  29.886  29.980  1.00  0.00    -0.248 NA
ATOM     40  C   UNL A   1      40.435  31.292  30.091  1.00  0.00     0.031 C 
ATOM     41  C   UNL A   1      39.740  26.664  28.228  1.00  0.00     0.029 A 
ATOM     42  N   UNL A   1      41.793  27.189  28.937  1.00  0.00    -0.354 N 
ATOM     43  C   UNL A   1      42.690  31.135  30.447  1.00  0.00     0.074 A 
ATOM     44  C   UNL A   1      41.512  31.976  30.451  1.00  0.00     0.031 C 
ATOM     45  C   UNL A   1      40.528  25.601  27.999  1.00  0.00     0.029 A 
ATOM     46  C   UNL A   1      41.887  25.913  28.429  1.00  0.00     0.049 A 
ATOM     47  H   UNL A   1      42.559  27.669  29.328  1.00  0.00     0.167 HD
ATOM     48  C   UNL A   1      43.919  31.535  30.852  1.00  0.00     0.037 A 
ATOM     49  C   UNL A   1      42.947  25.089  28.314  1.00  0.00     0.037 A 
ATOM     50  C   UNL A   1      45.078  30.682  30.889  1.00  0.00     0.049 A 
ATOM     51  C   UNL A   1      44.288  25.541  28.827  1.00  0.00     0.074 A 
ATOM     52  C   UNL A   1      46.346  30.974  31.364  1.00  0.00     0.029 A 
ATOM     53  N   UNL A   1      45.115  29.371  30.437  1.00  0.00    -0.354 N 
ATOM     54  N   UNL A   1      44.621  26.697  29.351  1.00  0.00    -0.248 NA
ATOM     55  C   UNL A   1      45.393  24.575  28.751  1.00  0.00     0.031 C 
ATOM     56  C   UNL A   1      47.157  29.852  31.168  1.00  0.00     0.029 A 
ATOM     57  C   UNL A   1      46.385  28.847  30.612  1.00  0.00     0.049 A 
ATOM     58  H   UNL A   1      44.351  28.885  30.050  1.00  0.00     0.167 HD
ATOM     59  C   UNL A   1      45.963  26.583  29.698  1.00  0.00     0.074 A 
ATOM     60  C   UNL A   1      46.379  25.245  29.333  1.00  0.00     0.031 C 
ATOM     61  C   UNL A   1      46.778  27.504  30.268  1.00  0.00     0.037 A 
BRANCH  48  62
ATOM     62  C   UNL A   1      44.085  32.959  31.306  1.00  0.00     0.058 A 
ATOM     63  C   UNL A   1      44.378  33.990  30.399  1.00  0.00     0.135 A 
ATOM     64  C   UNL A   1      43.866  33.309  32.648  1.00  0.00     0.135 A 
ATOM     65  F   UNL A   1      44.612  33.708  29.108  1.00  0.00    -0.206 F 
ATOM     66  C   UNL A   1      44.458  35.316  30.809  1.00  0.00     0.059 A 
ATOM     67  C   UNL A   1      43.918  34.632  33.076  1.00  0.00     0.059 A 
ATOM     68  F   UNL A   1      43.584  32.361  33.556  1.00  0.00    -0.206 F 
ATOM     69  C   UNL A   1      44.222  35.629  32.149  1.00  0.00     0.060 A 
BRANCH  69  70
ATOM     70  S   UNL A   1      44.289  37.360  32.656  1.00  0.00     0.124 S 
ATOM     71  O   UNL A   1      44.158  38.043  31.372  1.00  0.00    -0.237 OA
ATOM     72  O   UNL A   1      43.142  37.469  33.550  1.00  0.00    -0.237 OA
ATOM     73  O   UNL A   1      45.595  37.476  33.297  1.00  0.00    -0.744 OA
ENDBRANCH  69  70
ENDBRANCH  48  62
BRANCH  49  74
ATOM     74  C   UNL A   1      42.789  23.741  27.700  1.00  0.00     0.058 A 
ATOM     75  C   UNL A   1      42.508  22.615  28.487  1.00  0.00     0.135 A 
ATOM     76  C   UNL A   1      42.938  23.551  26.318  1.00  0.00     0.135 A 
ATOM     77  F   UNL A   1      42.360  22.746  29.815  1.00  0.00    -0.206 F 
ATOM     78  C   UNL A   1      42.414  21.343  27.934  1.00  0.00     0.059 A 
ATOM     79  C   UNL A   1      42.822  22.292  25.737  1.00  0.00     0.059 A 
ATOM     80  F   UNL A   1      43.186  24.599  25.517  1.00  0.00    -0.206 F 
ATOM     81  C   UNL A   1      42.578  21.191  26.556  1.00  0.00     0.060 A 
BRANCH  81  82
ATOM     82  S   UNL A   1      42.439  19.538  25.841  1.00  0.00     0.124 S 
ATOM     83  O   UNL A   1      42.821  18.698  26.969  1.00  0.00    -0.237 OA
ATOM     84  O   UNL A   1      41.032  19.486  25.453  1.00  0.00    -0.237 OA
ATOM     85  O   UNL A   1      43.385  19.576  24.730  1.00  0.00    -0.744 OA
ENDBRANCH  81  82
ENDBRANCH  49  74
BRANCH  61  86
ATOM     86  C   UNL A   1      48.185  27.083  30.585  1.00  0.00     0.058 A 
ATOM     87  C   UNL A   1      49.229  27.228  29.659  1.00  0.00     0.135 A 
ATOM     88  C   UNL A   1      48.499  26.569  31.854  1.00  0.00     0.135 A 
ATOM     89  F   UNL A   1      48.981  27.711  28.432  1.00  0.00    -0.206 F 
ATOM     90  C   UNL A   1      50.532  26.852  29.970  1.00  0.00     0.059 A 
ATOM     91  C   UNL A   1      49.798  26.209  32.195  1.00  0.00     0.059 A 
ATOM     92  F   UNL A   1      47.537  26.420  32.779  1.00  0.00    -0.206 F 
ATOM     93  C   UNL A   1      50.806  26.342  31.241  1.00  0.00     0.060 A 
BRANCH  93  94
ATOM     94  S   UNL A   1      52.504  25.880  31.644  1.00  0.00     0.124 S 
ATOM     95  O   UNL A   1      52.829  26.838  32.695  1.00  0.00    -0.237 OA
ATOM     96  O   UNL A   1      52.359  24.492  32.074  1.00  0.00    -0.237 OA
ATOM     97  O   UNL A   1      53.214  26.066  30.382  1.00  0.00    -0.744 OA
ENDBRANCH  93  94
ENDBRANCH  61  86
ENDBRANCH  35  36
ENDBRANCH  27  30
ENDBRANCH  25  26
ENDBRANCH   1  25
TORSDOF 16
ENDMDL
MODEL 3
REMARK VINA RESULT:     -11.7      2.581      8.957
REMARK SMILES Cc1ccc(Cl)c(Nc2ccccc2C(=O)NCCCCNC(=O)c2ccc(-c3c4nc(c(-c5c(F)cc(S(=O)(=O)[O-])cc5F)c5ccc([nH]5)c(-c5c(F)cc(S(=O)(=O)[O-])cc5F)c5nc(c(-c6c(F)cc(S(=O)(=O)[O-])cc6F)c6ccc3[nH]6)C=C5)C=C4)cc2)c1Cl
REMARK SMILES IDX 20 1 19 2 18 3 17 4 15 5 16 6 14 8 9 9 10 10 11 11 13 12
REMARK SMILES IDX 12 13 8 14 7 16 1 17 2 18 3 19 91 20 4 21 92 22 5 23 6 24
REMARK SMILES IDX 21 25 22 26 23 27 24 29 25 30 26 31 90 32 27 33 89 34 28 35
REMARK SMILES IDX 29 36 30 37 83 38 31 39 88 40 82 41 84 42 32 43 87 44 81 45
REMARK SMILES IDX 80 46 33 48 67 49 46 50 66 51 47 52 50 53 65 54 85 55 48 56
REMARK SMILES IDX 49 57 64 59 86 60 51 61 34 62 35 63 44 64 36 65 37 66 43 67
REMARK SMILES IDX 45 68 38 69 39 70 40 71 41 72 42 73 68 74 69 75 78 76 70 77
REMARK SMILES IDX 71 78 77 79 79 80 72 81 73 82 74 83 75 84 76 85 52 86 53 87
REMARK SMILES IDX 62 88 54 89 55 90 61 91 63 92 56 93 57 94 58 95 59 96 60 97
REMARK H PARENT 17 7 8 15 22 28 84 47 50 58
REMARK Flexibility Score: inf
ROOT
ATOM      1  C   UNL A   1      35.651  32.656  28.174  1.00  0.00     0.023 C 
ENDROOT
BRANCH   1   2
ATOM      2  C   UNL A   1      34.261  32.083  27.880  1.00  0.00     0.023 C 
BRANCH   2   3
ATOM      3  C   UNL A   1      34.199  30.653  27.362  1.00  0.00     0.116 C 
BRANCH   3   4
ATOM      4  N   UNL A   1      32.999  29.921  27.688  1.00  0.00    -0.352 N 
ATOM      5  C   UNL A   1      32.407  28.865  27.032  1.00  0.00     0.253 C 
ATOM      6  O   UNL A   1      31.440  28.330  27.579  1.00  0.00    -0.269 OA
ATOM      7  H   UNL A   1      32.534  30.222  28.502  1.00  0.00     0.163 HD
BRANCH   5   8
ATOM      8  C   UNL A   1      32.777  28.429  25.649  1.00  0.00     0.063 A 
ATOM      9  C   UNL A   1      33.426  27.239  25.255  1.00  0.00     0.051 A 
ATOM     10  C   UNL A   1      33.750  27.086  23.884  1.00  0.00     0.027 A 
ATOM     11  C   UNL A   1      33.384  28.026  22.920  1.00  0.00     0.002 A 
ATOM     12  C   UNL A   1      32.387  29.356  24.653  1.00  0.00     0.016 A 
ATOM     13  C   UNL A   1      32.677  29.154  23.303  1.00  0.00     0.001 A 
BRANCH   9  14
ATOM     14  N   UNL A   1      33.702  26.109  26.050  1.00  0.00    -0.352 N 
ATOM     15  H   UNL A   1      34.375  26.288  26.746  1.00  0.00     0.167 HD
BRANCH  14  16
ATOM     16  C   UNL A   1      33.227  24.776  26.070  1.00  0.00     0.077 A 
ATOM     17  C   UNL A   1      30.110  22.645  26.777  1.00  0.00     0.046 C 
ATOM     18  C   UNL A   1      31.531  23.052  26.498  1.00  0.00    -0.030 A 
ATOM     19  C   UNL A   1      32.528  22.065  26.477  1.00  0.00     0.006 A 
ATOM     20  C   UNL A   1      31.881  24.399  26.255  1.00  0.00     0.069 A 
ATOM     21  C   UNL A   1      33.848  22.402  26.198  1.00  0.00     0.023 A 
ATOM     22  Cl  UNL A   1      30.597  25.552  26.025  1.00  0.00    -0.082 Cl
ATOM     23  C   UNL A   1      34.187  23.736  25.992  1.00  0.00     0.066 A 
ATOM     24  Cl  UNL A   1      35.862  24.106  25.704  1.00  0.00    -0.082 Cl
ENDBRANCH  14  16
ENDBRANCH   9  14
ENDBRANCH   5   8
ENDBRANCH   3   4
ENDBRANCH   2   3
ENDBRANCH   1   2
BRANCH   1  25
ATOM     25  C   UNL A   1      36.111  32.721  29.631  1.00  0.00     0.116 C 
BRANCH  25  26
ATOM     26  N   UNL A   1      35.764  31.567  30.446  1.00  0.00    -0.352 N 
ATOM     27  C   UNL A   1      36.547  30.490  30.813  1.00  0.00     0.251 C 
ATOM     28  H   UNL A   1      34.840  31.552  30.784  1.00  0.00     0.163 HD
ATOM     29  O   UNL A   1      36.091  29.617  31.534  1.00  0.00    -0.269 OA
BRANCH  27  30
ATOM     30  C   UNL A   1      37.930  30.369  30.291  1.00  0.00     0.039 A 
ATOM     31  C   UNL A   1      38.994  30.453  31.195  1.00  0.00     0.014 A 
ATOM     32  C   UNL A   1      38.181  30.135  28.938  1.00  0.00     0.014 A 
ATOM     33  C   UNL A   1      40.297  30.194  30.761  1.00  0.00     0.010 A 
ATOM     34  C   UNL A   1      39.473  29.817  28.518  1.00  0.00     0.010 A 
ATOM     35  C   UNL A   1      40.541  29.818  29.429  1.00  0.00    -0.014 A 
BRANCH  35  36
ATOM     36  C   UNL A   1      41.889  29.362  28.993  1.00  0.00     0.031 A 
ATOM     37  C   UNL A   1      43.024  30.341  28.859  1.00  0.00     0.074 A 
ATOM     38  C   UNL A   1      42.064  28.074  28.629  1.00  0.00     0.049 A 
ATOM     39  N   UNL A   1      44.241  30.136  28.425  1.00  0.00    -0.248 NA
ATOM     40  C   UNL A   1      42.750  31.736  29.237  1.00  0.00     0.031 C 
ATOM     41  C   UNL A   1      41.024  27.041  28.639  1.00  0.00     0.029 A 
ATOM     42  N   UNL A   1      43.174  27.415  28.160  1.00  0.00    -0.354 N 
ATOM     43  C   UNL A   1      44.869  31.376  28.453  1.00  0.00     0.074 A 
ATOM     44  C   UNL A   1      43.889  32.334  28.917  1.00  0.00     0.031 C 
ATOM     45  C   UNL A   1      41.545  25.883  28.204  1.00  0.00     0.029 A 
ATOM     46  C   UNL A   1      42.947  26.090  27.859  1.00  0.00     0.049 A 
ATOM     47  H   UNL A   1      44.051  27.848  28.050  1.00  0.00     0.167 HD
ATOM     48  C   UNL A   1      46.151  31.682  28.137  1.00  0.00     0.037 A 
ATOM     49  C   UNL A   1      43.771  25.150  27.354  1.00  0.00     0.037 A 
ATOM     50  C   UNL A   1      47.135  30.719  27.718  1.00  0.00     0.049 A 
ATOM     51  C   UNL A   1      45.205  25.508  27.068  1.00  0.00     0.074 A 
ATOM     52  C   UNL A   1      48.480  30.921  27.459  1.00  0.00     0.029 A 
ATOM     53  N   UNL A   1      46.886  29.373  27.498  1.00  0.00    -0.354 N 
ATOM     54  N   UNL A   1      45.803  26.669  27.190  1.00  0.00    -0.248 NA
ATOM     55  C   UNL A   1      46.081  24.427  26.596  1.00  0.00     0.031 C 
ATOM     56  C   UNL A   1      49.036  29.705  27.050  1.00  0.00     0.029 A 
ATOM     57  C   UNL A   1      48.048  28.736  27.096  1.00  0.00     0.049 A 
ATOM     58  H   UNL A   1      46.011  28.934  27.611  1.00  0.00     0.167 HD
ATOM     59  C   UNL A   1      47.132  26.449  26.841  1.00  0.00     0.074 A 
ATOM     60  C   UNL A   1      47.252  25.043  26.513  1.00  0.00     0.031 C 
ATOM     61  C   UNL A   1      48.159  27.332  26.798  1.00  0.00     0.037 A 
BRANCH  48  62
ATOM     62  C   UNL A   1      46.580  33.120  28.242  1.00  0.00     0.058 A 
ATOM     63  C   UNL A   1      46.450  34.006  27.162  1.00  0.00     0.135 A 
ATOM     64  C   UNL A   1      47.049  33.635  29.461  1.00  0.00     0.135 A 
ATOM     65  F   UNL A   1      46.021  33.562  25.970  1.00  0.00    -0.206 F 
ATOM     66  C   UNL A   1      46.779  35.352  27.284  1.00  0.00     0.059 A 
ATOM     67  C   UNL A   1      47.362  34.982  29.612  1.00  0.00     0.059 A 
ATOM     68  F   UNL A   1      47.194  32.829  30.525  1.00  0.00    -0.206 F 
ATOM     69  C   UNL A   1      47.230  35.833  28.515  1.00  0.00     0.060 A 
BRANCH  69  70
ATOM     70  S   UNL A   1      47.614  37.591  28.666  1.00  0.00     0.124 S 
ATOM     71  O   UNL A   1      46.431  38.086  29.364  1.00  0.00    -0.237 OA
ATOM     72  O   UNL A   1      48.847  37.575  29.444  1.00  0.00    -0.237 OA
ATOM     73  O   UNL A   1      47.754  38.028  27.282  1.00  0.00    -0.744 OA
ENDBRANCH  69  70
ENDBRANCH  48  62
BRANCH  49  74
ATOM     74  C   UNL A   1      43.270  23.772  27.097  1.00  0.00     0.058 A 
ATOM     75  C   UNL A   1      43.152  22.838  28.137  1.00  0.00     0.135 A 
ATOM     76  C   UNL A   1      42.922  23.356  25.803  1.00  0.00     0.135 A 
ATOM     77  F   UNL A   1      43.477  23.188  29.391  1.00  0.00    -0.206 F 
ATOM     78  C   UNL A   1      42.741  21.531  27.901  1.00  0.00     0.059 A 
ATOM     79  C   UNL A   1      42.481  22.061  25.545  1.00  0.00     0.059 A 
ATOM     80  F   UNL A   1      42.995  24.217  24.776  1.00  0.00    -0.206 F 
ATOM     81  C   UNL A   1      42.412  21.150  26.598  1.00  0.00     0.060 A 
BRANCH  81  82
ATOM     82  S   UNL A   1      41.862  19.456  26.300  1.00  0.00     0.124 S 
ATOM     83  O   UNL A   1      42.547  19.142  25.052  1.00  0.00    -0.237 OA
ATOM     84  O   UNL A   1      42.346  18.760  27.488  1.00  0.00    -0.237 OA
ATOM     85  O   UNL A   1      40.411  19.588  26.211  1.00  0.00    -0.744 OA
ENDBRANCH  81  82
ENDBRANCH  49  74
BRANCH  61  86
ATOM     86  C   UNL A   1      49.517  26.797  26.435  1.00  0.00     0.058 A 
ATOM     87  C   UNL A   1      50.328  26.138  27.370  1.00  0.00     0.135 A 
ATOM     88  C   UNL A   1      49.990  26.909  25.117  1.00  0.00     0.135 A 
ATOM     89  F   UNL A   1      49.924  26.009  28.643  1.00  0.00    -0.206 F 
ATOM     90  C   UNL A   1      51.575  25.632  27.020  1.00  0.00     0.059 A 
ATOM     91  C   UNL A   1      51.223  26.389  24.738  1.00  0.00     0.059 A 
ATOM     92  F   UNL A   1      49.247  27.522  24.182  1.00  0.00    -0.206 F 
ATOM     93  C   UNL A   1      52.015  25.763  25.700  1.00  0.00     0.060 A 
BRANCH  93  94
ATOM     94  S   UNL A   1      53.624  25.081  25.248  1.00  0.00     0.124 S 
ATOM     95  O   UNL A   1      53.825  25.655  23.922  1.00  0.00    -0.237 OA
ATOM     96  O   UNL A   1      54.492  25.598  26.301  1.00  0.00    -0.237 OA
ATOM     97  O   UNL A   1      53.401  23.639  25.281  1.00  0.00    -0.744 OA
ENDBRANCH  93  94
ENDBRANCH  61  86
ENDBRANCH  35  36
ENDBRANCH  27  30
ENDBRANCH  25  26
ENDBRANCH   1  25
TORSDOF 16
ENDMDL
