MODEL 1
REMARK VINA RESULT:     -11.7      0.000      0.000
REMARK SMILES O=C(NCCCCNC(=O)c1cc(Cl)cc(S(=O)(=O)N[C@@H]2CONC2=O)c1F)c1ccc(-c2c3nc(c(-c4c(F)cc(S(=O)(=O)[O-])cc4F)c4ccc([nH]4)c(-c4c(F)cc(S(=O)(=O)[O-])cc4F)c4nc(c(-c5c(F)cc(S(=O)(=O)[O-])cc5F)c5ccc2[nH]5)C=C4)C=C3)cc1
REMARK SMILES IDX 5 1 4 2 3 3 1 4 2 5 29 7 30 8 94 9 31 10 93 11 32 12 33 13
REMARK SMILES IDX 34 14 87 15 35 16 92 17 86 18 88 19 36 20 91 21 85 22 84 23
REMARK SMILES IDX 37 25 71 26 50 27 70 28 51 29 54 30 69 31 89 32 52 33 53 34
REMARK SMILES IDX 68 36 90 37 55 38 38 39 39 40 48 41 40 42 41 43 47 44 49 45
REMARK SMILES IDX 42 46 43 47 44 48 45 49 46 50 72 51 73 52 82 53 74 54 75 55
REMARK SMILES IDX 81 56 83 57 76 58 77 59 78 60 79 61 80 62 56 63 57 64 66 65
REMARK SMILES IDX 58 66 59 67 65 68 67 69 60 70 61 71 62 72 63 73 64 74 6 75
REMARK SMILES IDX 7 76 8 77 9 78 10 80 11 81 12 82 27 83 13 84 16 85 28 86
REMARK SMILES IDX 14 87 15 88 17 89 18 90 19 91 20 92 21 94 22 95 25 96 23 97
REMARK SMILES IDX 24 98 26 99
REMARK H PARENT 3 6 88 24 54 35 8 79 20 93 24 100
REMARK Flexibility Score: inf
ROOT
ATOM      1  C   UNL A   1      35.627  23.510  25.480  1.00  0.00     0.023 C 
ENDROOT
BRANCH   1   2
ATOM      2  C   UNL A   1      37.023  24.017  25.142  1.00  0.00     0.116 C 
BRANCH   2   3
ATOM      3  N   UNL A   1      38.069  23.036  25.405  1.00  0.00    -0.352 N 
ATOM      4  O   UNL A   1      40.065  22.275  26.138  1.00  0.00    -0.269 OA
ATOM      5  C   UNL A   1      39.228  23.173  26.137  1.00  0.00     0.251 C 
ATOM      6  H   UNL A   1      37.926  22.149  25.003  1.00  0.00     0.163 HD
BRANCH   5   7
ATOM      7  C   UNL A   1      39.469  24.423  26.892  1.00  0.00     0.039 A 
ATOM      8  C   UNL A   1      40.249  25.434  26.333  1.00  0.00     0.014 A 
ATOM      9  C   UNL A   1      38.949  24.568  28.182  1.00  0.00     0.014 A 
ATOM     10  C   UNL A   1      40.672  26.490  27.129  1.00  0.00     0.010 A 
ATOM     11  C   UNL A   1      39.282  25.695  28.942  1.00  0.00     0.010 A 
ATOM     12  C   UNL A   1      40.183  26.645  28.438  1.00  0.00    -0.014 A 
BRANCH  12  13
ATOM     13  C   UNL A   1      40.597  27.850  29.205  1.00  0.00     0.031 A 
ATOM     14  C   UNL A   1      39.682  29.032  29.384  1.00  0.00     0.074 A 
ATOM     15  C   UNL A   1      41.797  27.825  29.819  1.00  0.00     0.049 A 
ATOM     16  N   UNL A   1      39.869  30.112  30.100  1.00  0.00    -0.248 NA
ATOM     17  C   UNL A   1      38.397  29.010  28.665  1.00  0.00     0.031 C 
ATOM     18  C   UNL A   1      42.782  26.746  29.693  1.00  0.00     0.029 A 
ATOM     19  N   UNL A   1      42.381  28.701  30.698  1.00  0.00    -0.354 N 
ATOM     20  C   UNL A   1      38.739  30.901  29.913  1.00  0.00     0.074 A 
ATOM     21  C   UNL A   1      37.880  30.188  28.991  1.00  0.00     0.031 C 
ATOM     22  C   UNL A   1      43.809  26.986  30.518  1.00  0.00     0.029 A 
ATOM     23  C   UNL A   1      43.593  28.267  31.178  1.00  0.00     0.049 A 
ATOM     24  H   UNL A   1      41.971  29.557  30.960  1.00  0.00     0.167 HD
ATOM     25  C   UNL A   1      38.442  32.101  30.469  1.00  0.00     0.037 A 
ATOM     26  C   UNL A   1      44.449  28.838  32.047  1.00  0.00     0.037 A 
ATOM     27  C   UNL A   1      39.300  32.799  31.396  1.00  0.00     0.049 A 
ATOM     28  C   UNL A   1      44.086  30.159  32.657  1.00  0.00     0.074 A 
ATOM     29  C   UNL A   1      39.087  34.020  32.016  1.00  0.00     0.029 A 
ATOM     30  N   UNL A   1      40.530  32.338  31.842  1.00  0.00    -0.354 N 
ATOM     31  N   UNL A   1      43.008  30.881  32.472  1.00  0.00    -0.248 NA
ATOM     32  C   UNL A   1      45.056  30.743  33.591  1.00  0.00     0.031 C 
ATOM     33  C   UNL A   1      40.202  34.310  32.812  1.00  0.00     0.029 A 
ATOM     34  C   UNL A   1      41.091  33.253  32.721  1.00  0.00     0.049 A 
ATOM     35  H   UNL A   1      40.945  31.487  31.573  1.00  0.00     0.167 HD
ATOM     36  C   UNL A   1      43.170  32.011  33.263  1.00  0.00     0.074 A 
ATOM     37  C   UNL A   1      44.432  31.855  33.958  1.00  0.00     0.031 C 
ATOM     38  C   UNL A   1      42.355  33.086  33.393  1.00  0.00     0.037 A 
BRANCH  25  39
ATOM     39  C   UNL A   1      37.136  32.750  30.094  1.00  0.00     0.058 A 
ATOM     40  C   UNL A   1      35.963  32.514  30.828  1.00  0.00     0.135 A 
ATOM     41  C   UNL A   1      37.069  33.667  29.032  1.00  0.00     0.135 A 
ATOM     42  F   UNL A   1      35.965  31.636  31.843  1.00  0.00    -0.206 F 
ATOM     43  C   UNL A   1      34.767  33.155  30.516  1.00  0.00     0.059 A 
ATOM     44  C   UNL A   1      35.889  34.336  28.715  1.00  0.00     0.059 A 
ATOM     45  F   UNL A   1      38.161  33.930  28.297  1.00  0.00    -0.206 F 
ATOM     46  C   UNL A   1      34.740  34.066  29.459  1.00  0.00     0.060 A 
BRANCH  46  47
ATOM     47  S   UNL A   1      33.186  34.904  29.080  1.00  0.00     0.124 S 
ATOM     48  O   UNL A   1      32.600  33.999  28.096  1.00  0.00    -0.237 OA
ATOM     49  O   UNL A   1      32.525  34.939  30.380  1.00  0.00    -0.237 OA
ATOM     50  O   UNL A   1      33.614  36.200  28.563  1.00  0.00    -0.744 OA
ENDBRANCH  46  47
ENDBRANCH  25  39
BRANCH  26  51
ATOM     51  C   UNL A   1      45.735  28.165  32.363  1.00  0.00     0.058 A 
ATOM     52  C   UNL A   1      45.850  27.276  33.440  1.00  0.00     0.135 A 
ATOM     53  C   UNL A   1      46.872  28.383  31.568  1.00  0.00     0.135 A 
ATOM     54  F   UNL A   1      44.790  27.036  34.227  1.00  0.00    -0.206 F 
ATOM     55  C   UNL A   1      47.052  26.640  33.732  1.00  0.00     0.059 A 
ATOM     56  C   UNL A   1      48.075  27.736  31.821  1.00  0.00     0.059 A 
ATOM     57  F   UNL A   1      46.807  29.208  30.511  1.00  0.00    -0.206 F 
ATOM     58  C   UNL A   1      48.159  26.875  32.914  1.00  0.00     0.060 A 
BRANCH  58  59
ATOM     59  S   UNL A   1      49.704  26.012  33.266  1.00  0.00     0.124 S 
ATOM     60  O   UNL A   1      50.637  27.124  33.398  1.00  0.00    -0.237 OA
ATOM     61  O   UNL A   1      49.385  25.295  34.497  1.00  0.00    -0.237 OA
ATOM     62  O   UNL A   1      49.888  25.166  32.090  1.00  0.00    -0.744 OA
ENDBRANCH  58  59
ENDBRANCH  26  51
BRANCH  38  63
ATOM     63  C   UNL A   1      42.815  34.170  34.325  1.00  0.00     0.058 A 
ATOM     64  C   UNL A   1      42.464  34.164  35.684  1.00  0.00     0.135 A 
ATOM     65  C   UNL A   1      43.610  35.227  33.856  1.00  0.00     0.135 A 
ATOM     66  F   UNL A   1      41.699  33.179  36.180  1.00  0.00    -0.206 F 
ATOM     67  C   UNL A   1      42.851  35.191  36.539  1.00  0.00     0.059 A 
ATOM     68  C   UNL A   1      44.030  36.252  34.698  1.00  0.00     0.059 A 
ATOM     69  F   UNL A   1      43.980  35.275  32.566  1.00  0.00    -0.206 F 
ATOM     70  C   UNL A   1      43.629  36.235  36.033  1.00  0.00     0.060 A 
BRANCH  70  71
ATOM     71  S   UNL A   1      44.120  37.567  37.147  1.00  0.00     0.124 S 
ATOM     72  O   UNL A   1      45.425  37.102  37.603  1.00  0.00    -0.237 OA
ATOM     73  O   UNL A   1      44.135  38.729  36.261  1.00  0.00    -0.237 OA
ATOM     74  O   UNL A   1      43.065  37.571  38.156  1.00  0.00    -0.744 OA
ENDBRANCH  70  71
ENDBRANCH  38  63
ENDBRANCH  12  13
ENDBRANCH   5   7
ENDBRANCH   2   3
ENDBRANCH   1   2
BRANCH   1  75
ATOM     75  C   UNL A   1      34.555  23.833  24.445  1.00  0.00     0.023 C 
BRANCH  75  76
ATOM     76  C   UNL A   1      33.621  24.977  24.819  1.00  0.00     0.116 C 
BRANCH  76  77
ATOM     77  N   UNL A   1      32.517  24.562  25.673  1.00  0.00    -0.352 N 
ATOM     78  C   UNL A   1      31.477  25.318  26.156  1.00  0.00     0.254 C 
ATOM     79  H   UNL A   1      32.517  23.615  25.940  1.00  0.00     0.163 HD
ATOM     80  O   UNL A   1      30.654  24.844  26.930  1.00  0.00    -0.269 OA
BRANCH  78  81
ATOM     81  C   UNL A   1      31.355  26.732  25.767  1.00  0.00     0.078 A 
ATOM     82  C   UNL A   1      31.987  27.709  26.537  1.00  0.00     0.037 A 
ATOM     83  C   UNL A   1      30.589  27.087  24.659  1.00  0.00     0.156 A 
ATOM     84  C   UNL A   1      31.900  29.041  26.142  1.00  0.00     0.043 A 
ATOM     85  C   UNL A   1      30.513  28.411  24.261  1.00  0.00     0.120 A 
ATOM     86  F   UNL A   1      29.945  26.122  23.999  1.00  0.00    -0.205 F 
ATOM     87  Cl  UNL A   1      32.693  30.256  27.064  1.00  0.00    -0.084 Cl
ATOM     88  C   UNL A   1      31.180  29.398  25.000  1.00  0.00     0.045 A 
BRANCH  85  89
ATOM     89  S   UNL A   1      29.587  28.924  22.852  1.00  0.00     0.244 S 
ATOM     90  O   UNL A   1      30.328  28.489  21.695  1.00  0.00    -0.207 OA
ATOM     91  O   UNL A   1      28.228  28.496  23.103  1.00  0.00    -0.207 OA
BRANCH  89  92
ATOM     92  N   UNL A   1      29.527  30.601  22.863  1.00  0.00    -0.196 NA
ATOM     93  H   UNL A   1      30.364  30.939  22.387  1.00  0.00     0.142 HD
BRANCH  92  94
ATOM     94  C   UNL A   1      28.367  31.248  22.226  1.00  0.00     0.189 C 
ATOM     95  C   UNL A   1      28.247  30.875  20.751  1.00  0.00     0.224 C 
ATOM     96  C   UNL A   1      28.432  32.738  22.078  1.00  0.00     0.264 C 
ATOM     97  O   UNL A   1      27.442  31.908  20.166  1.00  0.00    -0.271 OA
ATOM     98  N   UNL A   1      27.745  33.060  20.930  1.00  0.00    -0.233 N 
ATOM     99  O   UNL A   1      28.979  33.533  22.823  1.00  0.00    -0.271 OA
ATOM    100  H   UNL A   1      27.495  33.975  20.672  1.00  0.00     0.199 HD
ENDBRANCH  92  94
ENDBRANCH  89  92
ENDBRANCH  85  89
ENDBRANCH  78  81
ENDBRANCH  76  77
ENDBRANCH  75  76
ENDBRANCH   1  75
TORSDOF 17
ENDMDL
MODEL 2
REMARK VINA RESULT:     -11.7      5.239     10.305
REMARK SMILES O=C(NCCCCNC(=O)c1cc(Cl)cc(S(=O)(=O)N[C@@H]2CONC2=O)c1F)c1ccc(-c2c3nc(c(-c4c(F)cc(S(=O)(=O)[O-])cc4F)c4ccc([nH]4)c(-c4c(F)cc(S(=O)(=O)[O-])cc4F)c4nc(c(-c5c(F)cc(S(=O)(=O)[O-])cc5F)c5ccc2[nH]5)C=C4)C=C3)cc1
REMARK SMILES IDX 5 1 4 2 3 3 1 4 2 5 29 7 30 8 94 9 31 10 93 11 32 12 33 13
REMARK SMILES IDX 34 14 87 15 35 16 92 17 86 18 88 19 36 20 91 21 85 22 84 23
REMARK SMILES IDX 37 25 71 26 50 27 70 28 51 29 54 30 69 31 89 32 52 33 53 34
REMARK SMILES IDX 68 36 90 37 55 38 38 39 39 40 48 41 40 42 41 43 47 44 49 45
REMARK SMILES IDX 42 46 43 47 44 48 45 49 46 50 72 51 73 52 82 53 74 54 75 55
REMARK SMILES IDX 81 56 83 57 76 58 77 59 78 60 79 61 80 62 56 63 57 64 66 65
REMARK SMILES IDX 58 66 59 67 65 68 67 69 60 70 61 71 62 72 63 73 64 74 6 75
REMARK SMILES IDX 7 76 8 77 9 78 10 80 11 81 12 82 27 83 13 84 16 85 28 86
REMARK SMILES IDX 14 87 15 88 17 89 18 90 19 91 20 92 21 94 22 95 25 96 23 97
REMARK SMILES IDX 24 98 26 99
REMARK H PARENT 3 6 88 24 54 35 8 79 20 93 24 100
REMARK Flexibility Score: inf
ROOT
ATOM      1  C   UNL A   1      35.154  29.290  27.264  1.00  0.00     0.023 C 
ENDROOT
BRANCH   1   2
ATOM      2  C   UNL A   1      35.650  30.521  28.013  1.00  0.00     0.116 C 
BRANCH   2   3
ATOM      3  N   UNL A   1      35.538  30.396  29.461  1.00  0.00    -0.352 N 
ATOM      4  O   UNL A   1      36.190  29.859  31.555  1.00  0.00    -0.269 OA
ATOM      5  C   UNL A   1      36.501  30.046  30.382  1.00  0.00     0.251 C 
ATOM      6  H   UNL A   1      34.648  30.590  29.832  1.00  0.00     0.163 HD
BRANCH   5   7
ATOM      7  C   UNL A   1      37.901  29.868  29.940  1.00  0.00     0.039 A 
ATOM      8  C   UNL A   1      38.231  30.018  28.594  1.00  0.00     0.014 A 
ATOM      9  C   UNL A   1      38.883  29.506  30.867  1.00  0.00     0.014 A 
ATOM     10  C   UNL A   1      39.481  29.615  28.146  1.00  0.00     0.010 A 
ATOM     11  C   UNL A   1      40.180  29.213  30.427  1.00  0.00     0.010 A 
ATOM     12  C   UNL A   1      40.478  29.223  29.056  1.00  0.00    -0.014 A 
BRANCH  12  13
ATOM     13  C   UNL A   1      41.828  28.897  28.523  1.00  0.00     0.031 A 
ATOM     14  C   UNL A   1      42.941  29.911  28.502  1.00  0.00     0.074 A 
ATOM     15  C   UNL A   1      42.062  27.629  28.130  1.00  0.00     0.049 A 
ATOM     16  N   UNL A   1      44.192  29.748  28.153  1.00  0.00    -0.248 NA
ATOM     17  C   UNL A   1      42.614  31.285  28.917  1.00  0.00     0.031 C 
ATOM     18  C   UNL A   1      41.052  26.567  28.078  1.00  0.00     0.029 A 
ATOM     19  N   UNL A   1      43.218  27.002  27.743  1.00  0.00    -0.354 N 
ATOM     20  C   UNL A   1      44.799  30.991  28.293  1.00  0.00     0.074 A 
ATOM     21  C   UNL A   1      43.770  31.910  28.734  1.00  0.00     0.031 C 
ATOM     22  C   UNL A   1      41.643  25.410  27.753  1.00  0.00     0.029 A 
ATOM     23  C   UNL A   1      43.058  25.657  27.506  1.00  0.00     0.049 A 
ATOM     24  H   UNL A   1      44.079  27.469  27.644  1.00  0.00     0.167 HD
ATOM     25  C   UNL A   1      46.095  31.329  28.086  1.00  0.00     0.037 A 
ATOM     26  C   UNL A   1      43.946  24.722  27.120  1.00  0.00     0.037 A 
ATOM     27  C   UNL A   1      47.116  30.404  27.658  1.00  0.00     0.049 A 
ATOM     28  C   UNL A   1      45.376  25.123  26.913  1.00  0.00     0.074 A 
ATOM     29  C   UNL A   1      48.459  30.650  27.422  1.00  0.00     0.029 A 
ATOM     30  N   UNL A   1      46.911  29.055  27.407  1.00  0.00    -0.354 N 
ATOM     31  N   UNL A   1      45.927  26.303  27.061  1.00  0.00    -0.248 NA
ATOM     32  C   UNL A   1      46.302  24.069  26.485  1.00  0.00     0.031 C 
ATOM     33  C   UNL A   1      49.058  29.457  26.999  1.00  0.00     0.029 A 
ATOM     34  C   UNL A   1      48.099  28.459  27.011  1.00  0.00     0.049 A 
ATOM     35  H   UNL A   1      46.048  28.589  27.497  1.00  0.00     0.167 HD
ATOM     36  C   UNL A   1      47.268  26.136  26.739  1.00  0.00     0.074 A 
ATOM     37  C   UNL A   1      47.449  24.732  26.428  1.00  0.00     0.031 C 
ATOM     38  C   UNL A   1      48.257  27.062  26.692  1.00  0.00     0.037 A 
BRANCH  25  39
ATOM     39  C   UNL A   1      46.496  32.763  28.314  1.00  0.00     0.058 A 
ATOM     40  C   UNL A   1      46.981  33.200  29.557  1.00  0.00     0.135 A 
ATOM     41  C   UNL A   1      46.459  33.694  27.264  1.00  0.00     0.135 A 
ATOM     42  F   UNL A   1      47.024  32.357  30.601  1.00  0.00    -0.206 F 
ATOM     43  C   UNL A   1      47.403  34.512  29.754  1.00  0.00     0.059 A 
ATOM     44  C   UNL A   1      46.896  35.006  27.432  1.00  0.00     0.059 A 
ATOM     45  F   UNL A   1      46.004  33.330  26.054  1.00  0.00    -0.206 F 
ATOM     46  C   UNL A   1      47.359  35.408  28.684  1.00  0.00     0.060 A 
BRANCH  46  47
ATOM     47  S   UNL A   1      47.929  37.100  28.951  1.00  0.00     0.124 S 
ATOM     48  O   UNL A   1      46.816  37.667  29.707  1.00  0.00    -0.237 OA
ATOM     49  O   UNL A   1      49.165  36.899  29.700  1.00  0.00    -0.237 OA
ATOM     50  O   UNL A   1      48.097  37.621  27.598  1.00  0.00    -0.744 OA
ENDBRANCH  46  47
ENDBRANCH  25  39
BRANCH  26  51
ATOM     51  C   UNL A   1      43.491  23.327  26.887  1.00  0.00     0.058 A 
ATOM     52  C   UNL A   1      43.343  22.813  25.591  1.00  0.00     0.135 A 
ATOM     53  C   UNL A   1      43.219  22.472  27.967  1.00  0.00     0.135 A 
ATOM     54  F   UNL A   1      43.591  23.592  24.528  1.00  0.00    -0.206 F 
ATOM     55  C   UNL A   1      42.924  21.504  25.373  1.00  0.00     0.059 A 
ATOM     56  C   UNL A   1      42.829  21.153  27.775  1.00  0.00     0.059 A 
ATOM     57  F   UNL A   1      43.368  22.910  29.227  1.00  0.00    -0.206 F 
ATOM     58  C   UNL A   1      42.672  20.681  26.472  1.00  0.00     0.060 A 
BRANCH  58  59
ATOM     59  S   UNL A   1      42.174  18.970  26.186  1.00  0.00     0.124 S 
ATOM     60  O   UNL A   1      42.444  18.366  27.484  1.00  0.00    -0.237 OA
ATOM     61  O   UNL A   1      40.766  19.113  25.826  1.00  0.00    -0.237 OA
ATOM     62  O   UNL A   1      43.049  18.547  25.096  1.00  0.00    -0.744 OA
ENDBRANCH  58  59
ENDBRANCH  26  51
BRANCH  38  63
ATOM     63  C   UNL A   1      49.618  26.573  26.289  1.00  0.00     0.058 A 
ATOM     64  C   UNL A   1      50.485  25.975  27.218  1.00  0.00     0.135 A 
ATOM     65  C   UNL A   1      50.063  26.706  24.965  1.00  0.00     0.135 A 
ATOM     66  F   UNL A   1      50.110  25.832  28.498  1.00  0.00    -0.206 F 
ATOM     67  C   UNL A   1      51.764  25.563  26.856  1.00  0.00     0.059 A 
ATOM     68  C   UNL A   1      51.328  26.277  24.575  1.00  0.00     0.059 A 
ATOM     69  F   UNL A   1      49.269  27.263  24.037  1.00  0.00    -0.206 F 
ATOM     70  C   UNL A   1      52.178  25.725  25.533  1.00  0.00     0.060 A 
BRANCH  70  71
ATOM     71  S   UNL A   1      53.841  25.195  25.074  1.00  0.00     0.124 S 
ATOM     72  O   UNL A   1      53.649  23.763  24.881  1.00  0.00    -0.237 OA
ATOM     73  O   UNL A   1      54.096  25.970  23.862  1.00  0.00    -0.237 OA
ATOM     74  O   UNL A   1      54.647  25.572  26.231  1.00  0.00    -0.744 OA
ENDBRANCH  70  71
ENDBRANCH  38  63
ENDBRANCH  12  13
ENDBRANCH   5   7
ENDBRANCH   2   3
ENDBRANCH   1   2
BRANCH   1  75
ATOM     75  C   UNL A   1      33.640  29.113  27.244  1.00  0.00     0.023 C 
BRANCH  75  76
ATOM     76  C   UNL A   1      32.932  29.747  26.054  1.00  0.00     0.116 C 
BRANCH  76  77
ATOM     77  N   UNL A   1      33.600  29.491  24.785  1.00  0.00    -0.352 N 
ATOM     78  C   UNL A   1      33.360  28.488  23.878  1.00  0.00     0.254 C 
ATOM     79  H   UNL A   1      34.318  30.120  24.547  1.00  0.00     0.163 HD
ATOM     80  O   UNL A   1      34.056  28.357  22.879  1.00  0.00    -0.269 OA
BRANCH  78  81
ATOM     81  C   UNL A   1      32.267  27.531  24.114  1.00  0.00     0.078 A 
ATOM     82  C   UNL A   1      30.964  27.881  23.759  1.00  0.00     0.037 A 
ATOM     83  C   UNL A   1      32.534  26.302  24.716  1.00  0.00     0.156 A 
ATOM     84  C   UNL A   1      29.941  26.956  23.949  1.00  0.00     0.043 A 
ATOM     85  C   UNL A   1      31.517  25.380  24.894  1.00  0.00     0.120 A 
ATOM     86  F   UNL A   1      33.785  26.045  25.104  1.00  0.00    -0.205 F 
ATOM     87  Cl  UNL A   1      28.334  27.360  23.494  1.00  0.00    -0.084 Cl
ATOM     88  C   UNL A   1      30.210  25.701  24.500  1.00  0.00     0.045 A 
BRANCH  85  89
ATOM     89  S   UNL A   1      31.791  23.798  25.621  1.00  0.00     0.244 S 
ATOM     90  O   UNL A   1      32.370  24.038  26.918  1.00  0.00    -0.207 OA
ATOM     91  O   UNL A   1      30.550  23.073  25.452  1.00  0.00    -0.207 OA
BRANCH  89  92
ATOM     92  N   UNL A   1      32.907  22.985  24.668  1.00  0.00    -0.196 NA
ATOM     93  H   UNL A   1      33.558  23.679  24.300  1.00  0.00     0.142 HD
BRANCH  92  94
ATOM     94  C   UNL A   1      33.708  21.926  25.306  1.00  0.00     0.189 C 
ATOM     95  C   UNL A   1      35.055  21.737  24.613  1.00  0.00     0.224 C 
ATOM     96  C   UNL A   1      33.189  20.526  25.177  1.00  0.00     0.264 C 
ATOM     97  O   UNL A   1      35.485  20.420  24.982  1.00  0.00    -0.271 OA
ATOM     98  N   UNL A   1      34.283  19.692  25.140  1.00  0.00    -0.233 N 
ATOM     99  O   UNL A   1      32.024  20.171  25.118  1.00  0.00    -0.271 OA
ATOM    100  H   UNL A   1      34.235  18.712  25.215  1.00  0.00     0.199 HD
ENDBRANCH  92  94
ENDBRANCH  89  92
ENDBRANCH  85  89
ENDBRANCH  78  81
ENDBRANCH  76  77
ENDBRANCH  75  76
ENDBRANCH   1  75
TORSDOF 17
ENDMDL
MODEL 3
REMARK VINA RESULT:     -11.6      3.277      8.973
REMARK SMILES O=C(NCCCCNC(=O)c1cc(Cl)cc(S(=O)(=O)N[C@@H]2CONC2=O)c1F)c1ccc(-c2c3nc(c(-c4c(F)cc(S(=O)(=O)[O-])cc4F)c4ccc([nH]4)c(-c4c(F)cc(S(=O)(=O)[O-])cc4F)c4nc(c(-c5c(F)cc(S(=O)(=O)[O-])cc5F)c5ccc2[nH]5)C=C4)C=C3)cc1
REMARK SMILES IDX 5 1 4 2 3 3 1 4 2 5 29 7 30 8 94 9 31 10 93 11 32 12 33 13
REMARK SMILES IDX 34 14 87 15 35 16 92 17 86 18 88 19 36 20 91 21 85 22 84 23
REMARK SMILES IDX 37 25 71 26 50 27 70 28 51 29 54 30 69 31 89 32 52 33 53 34
REMARK SMILES IDX 68 36 90 37 55 38 38 39 39 40 48 41 40 42 41 43 47 44 49 45
REMARK SMILES IDX 42 46 43 47 44 48 45 49 46 50 72 51 73 52 82 53 74 54 75 55
REMARK SMILES IDX 81 56 83 57 76 58 77 59 78 60 79 61 80 62 56 63 57 64 66 65
REMARK SMILES IDX 58 66 59 67 65 68 67 69 60 70 61 71 62 72 63 73 64 74 6 75
REMARK SMILES IDX 7 76 8 77 9 78 10 80 11 81 12 82 27 83 13 84 16 85 28 86
REMARK SMILES IDX 14 87 15 88 17 89 18 90 19 91 20 92 21 94 22 95 25 96 23 97
REMARK SMILES IDX 24 98 26 99
REMARK H PARENT 3 6 88 24 54 35 8 79 20 93 24 100
REMARK Flexibility Score: inf
ROOT
ATOM      1  C   UNL A   1      38.810  22.745  26.511  1.00  0.00     0.023 C 
ENDROOT
BRANCH   1   2
ATOM      2  C   UNL A   1      40.107  23.374  27.004  1.00  0.00     0.116 C 
BRANCH   2   3
ATOM      3  N   UNL A   1      40.808  24.127  25.972  1.00  0.00    -0.352 N 
ATOM      4  O   UNL A   1      41.738  25.937  24.993  1.00  0.00    -0.269 OA
ATOM      5  C   UNL A   1      41.291  25.418  26.011  1.00  0.00     0.251 C 
ATOM      6  H   UNL A   1      40.959  23.645  25.128  1.00  0.00     0.163 HD
BRANCH   5   7
ATOM      7  C   UNL A   1      41.235  26.178  27.279  1.00  0.00     0.039 A 
ATOM      8  C   UNL A   1      40.180  25.973  28.167  1.00  0.00     0.014 A 
ATOM      9  C   UNL A   1      42.217  27.132  27.563  1.00  0.00     0.014 A 
ATOM     10  C   UNL A   1      39.998  26.850  29.227  1.00  0.00     0.010 A 
ATOM     11  C   UNL A   1      42.093  27.939  28.700  1.00  0.00     0.010 A 
ATOM     12  C   UNL A   1      40.959  27.835  29.519  1.00  0.00    -0.014 A 
BRANCH  12  13
ATOM     13  C   UNL A   1      40.755  28.679  30.727  1.00  0.00     0.031 A 
ATOM     14  C   UNL A   1      41.654  28.575  31.930  1.00  0.00     0.074 A 
ATOM     15  C   UNL A   1      39.786  29.615  30.686  1.00  0.00     0.049 A 
ATOM     16  N   UNL A   1      41.657  29.306  33.016  1.00  0.00    -0.248 NA
ATOM     17  C   UNL A   1      42.675  27.515  31.924  1.00  0.00     0.031 C 
ATOM     18  C   UNL A   1      38.833  29.789  29.584  1.00  0.00     0.029 A 
ATOM     19  N   UNL A   1      39.461  30.618  31.561  1.00  0.00    -0.354 N 
ATOM     20  C   UNL A   1      42.664  28.793  33.826  1.00  0.00     0.074 A 
ATOM     21  C   UNL A   1      43.236  27.668  33.118  1.00  0.00     0.031 C 
ATOM     22  C   UNL A   1      38.083  30.874  29.815  1.00  0.00     0.029 A 
ATOM     23  C   UNL A   1      38.450  31.433  31.110  1.00  0.00     0.049 A 
ATOM     24  H   UNL A   1      39.908  30.743  32.429  1.00  0.00     0.167 HD
ATOM     25  C   UNL A   1      43.080  29.230  35.040  1.00  0.00     0.037 A 
ATOM     26  C   UNL A   1      37.869  32.507  31.675  1.00  0.00     0.037 A 
ATOM     27  C   UNL A   1      42.512  30.361  35.733  1.00  0.00     0.049 A 
ATOM     28  C   UNL A   1      38.361  32.976  33.013  1.00  0.00     0.074 A 
ATOM     29  C   UNL A   1      42.865  30.882  36.967  1.00  0.00     0.029 A 
ATOM     30  N   UNL A   1      41.474  31.148  35.253  1.00  0.00    -0.354 N 
ATOM     31  N   UNL A   1      39.321  32.480  33.754  1.00  0.00    -0.248 NA
ATOM     32  C   UNL A   1      37.690  34.146  33.590  1.00  0.00     0.031 C 
ATOM     33  C   UNL A   1      42.022  31.965  37.246  1.00  0.00     0.029 A 
ATOM     34  C   UNL A   1      41.171  32.144  36.169  1.00  0.00     0.049 A 
ATOM     35  H   UNL A   1      41.020  31.018  34.389  1.00  0.00     0.167 HD
ATOM     36  C   UNL A   1      39.368  33.275  34.891  1.00  0.00     0.074 A 
ATOM     37  C   UNL A   1      38.366  34.308  34.719  1.00  0.00     0.031 C 
ATOM     38  C   UNL A   1      40.159  33.155  35.986  1.00  0.00     0.037 A 
BRANCH  25  39
ATOM     39  C   UNL A   1      44.206  28.487  35.710  1.00  0.00     0.058 A 
ATOM     40  C   UNL A   1      43.960  27.416  36.583  1.00  0.00     0.135 A 
ATOM     41  C   UNL A   1      45.544  28.805  35.426  1.00  0.00     0.135 A 
ATOM     42  F   UNL A   1      42.701  27.078  36.901  1.00  0.00    -0.206 F 
ATOM     43  C   UNL A   1      45.001  26.693  37.160  1.00  0.00     0.059 A 
ATOM     44  C   UNL A   1      46.601  28.082  35.975  1.00  0.00     0.059 A 
ATOM     45  F   UNL A   1      45.837  29.821  34.598  1.00  0.00    -0.206 F 
ATOM     46  C   UNL A   1      46.319  27.032  36.849  1.00  0.00     0.060 A 
BRANCH  46  47
ATOM     47  S   UNL A   1      47.656  26.072  37.590  1.00  0.00     0.124 S 
ATOM     48  O   UNL A   1      48.832  26.777  37.091  1.00  0.00    -0.237 OA
ATOM     49  O   UNL A   1      47.389  26.215  39.017  1.00  0.00    -0.237 OA
ATOM     50  O   UNL A   1      47.453  24.731  37.048  1.00  0.00    -0.744 OA
ENDBRANCH  46  47
ENDBRANCH  25  39
BRANCH  26  51
ATOM     51  C   UNL A   1      36.746  33.188  30.980  1.00  0.00     0.058 A 
ATOM     52  C   UNL A   1      36.968  34.021  29.875  1.00  0.00     0.135 A 
ATOM     53  C   UNL A   1      35.420  32.994  31.399  1.00  0.00     0.135 A 
ATOM     54  F   UNL A   1      38.218  34.237  29.437  1.00  0.00    -0.206 F 
ATOM     55  C   UNL A   1      35.916  34.652  29.219  1.00  0.00     0.059 A 
ATOM     56  C   UNL A   1      34.352  33.588  30.742  1.00  0.00     0.059 A 
ATOM     57  F   UNL A   1      35.154  32.187  32.439  1.00  0.00    -0.206 F 
ATOM     58  C   UNL A   1      34.611  34.427  29.660  1.00  0.00     0.060 A 
BRANCH  58  59
ATOM     59  S   UNL A   1      33.244  35.211  28.777  1.00  0.00     0.124 S 
ATOM     60  O   UNL A   1      32.657  34.074  28.079  1.00  0.00    -0.237 OA
ATOM     61  O   UNL A   1      32.452  35.770  29.868  1.00  0.00    -0.237 OA
ATOM     62  O   UNL A   1      33.915  36.196  27.934  1.00  0.00    -0.744 OA
ENDBRANCH  58  59
ENDBRANCH  26  51
BRANCH  38  63
ATOM     63  C   UNL A   1      39.963  34.171  37.073  1.00  0.00     0.058 A 
ATOM     64  C   UNL A   1      39.097  33.932  38.152  1.00  0.00     0.135 A 
ATOM     65  C   UNL A   1      40.643  35.398  37.036  1.00  0.00     0.135 A 
ATOM     66  F   UNL A   1      38.417  32.777  38.229  1.00  0.00    -0.206 F 
ATOM     67  C   UNL A   1      38.880  34.891  39.136  1.00  0.00     0.059 A 
ATOM     68  C   UNL A   1      40.461  36.362  38.023  1.00  0.00     0.059 A 
ATOM     69  F   UNL A   1      41.490  35.673  36.031  1.00  0.00    -0.206 F 
ATOM     70  C   UNL A   1      39.562  36.106  39.058  1.00  0.00     0.060 A 
BRANCH  70  71
ATOM     71  S   UNL A   1      39.268  37.349  40.334  1.00  0.00     0.124 S 
ATOM     72  O   UNL A   1      38.448  38.317  39.616  1.00  0.00    -0.237 OA
ATOM     73  O   UNL A   1      38.582  36.580  41.369  1.00  0.00    -0.237 OA
ATOM     74  O   UNL A   1      40.612  37.798  40.684  1.00  0.00    -0.744 OA
ENDBRANCH  70  71
ENDBRANCH  38  63
ENDBRANCH  12  13
ENDBRANCH   5   7
ENDBRANCH   2   3
ENDBRANCH   1   2
BRANCH   1  75
ATOM     75  C   UNL A   1      37.791  23.727  25.944  1.00  0.00     0.023 C 
BRANCH  75  76
ATOM     76  C   UNL A   1      36.478  23.102  25.489  1.00  0.00     0.116 C 
BRANCH  76  77
ATOM     77  N   UNL A   1      35.833  22.304  26.523  1.00  0.00    -0.352 N 
ATOM     78  C   UNL A   1      34.499  22.007  26.667  1.00  0.00     0.254 C 
ATOM     79  H   UNL A   1      36.431  21.929  27.208  1.00  0.00     0.163 HD
ATOM     80  O   UNL A   1      34.091  21.377  27.635  1.00  0.00    -0.269 OA
BRANCH  78  81
ATOM     81  C   UNL A   1      33.531  22.472  25.661  1.00  0.00     0.078 A 
ATOM     82  C   UNL A   1      33.296  21.692  24.528  1.00  0.00     0.037 A 
ATOM     83  C   UNL A   1      32.882  23.693  25.830  1.00  0.00     0.156 A 
ATOM     84  C   UNL A   1      32.350  22.118  23.599  1.00  0.00     0.043 A 
ATOM     85  C   UNL A   1      31.934  24.110  24.912  1.00  0.00     0.120 A 
ATOM     86  F   UNL A   1      33.195  24.435  26.895  1.00  0.00    -0.205 F 
ATOM     87  Cl  UNL A   1      32.030  21.160  22.210  1.00  0.00    -0.084 Cl
ATOM     88  C   UNL A   1      31.655  23.315  23.791  1.00  0.00     0.045 A 
BRANCH  85  89
ATOM     89  S   UNL A   1      31.055  25.628  25.081  1.00  0.00     0.244 S 
ATOM     90  O   UNL A   1      30.300  25.802  23.865  1.00  0.00    -0.207 OA
ATOM     91  O   UNL A   1      30.421  25.567  26.380  1.00  0.00    -0.207 OA
BRANCH  89  92
ATOM     92  N   UNL A   1      32.185  26.862  25.202  1.00  0.00    -0.196 NA
ATOM     93  H   UNL A   1      33.080  26.434  25.437  1.00  0.00     0.142 HD
BRANCH  92  94
ATOM     94  C   UNL A   1      32.401  27.710  24.017  1.00  0.00     0.189 C 
ATOM     95  C   UNL A   1      33.503  27.159  23.116  1.00  0.00     0.224 C 
ATOM     96  C   UNL A   1      32.973  29.072  24.266  1.00  0.00     0.264 C 
ATOM     97  O   UNL A   1      33.937  28.275  22.328  1.00  0.00    -0.271 OA
ATOM     98  N   UNL A   1      33.742  29.394  23.171  1.00  0.00    -0.233 N 
ATOM     99  O   UNL A   1      32.801  29.780  25.243  1.00  0.00    -0.271 OA
ATOM    100  H   UNL A   1      34.109  30.289  22.995  1.00  0.00     0.199 HD
ENDBRANCH  92  94
ENDBRANCH  89  92
ENDBRANCH  85  89
ENDBRANCH  78  81
ENDBRANCH  76  77
ENDBRANCH  75  76
ENDBRANCH   1  75
TORSDOF 17
ENDMDL
