MODEL 1
REMARK VINA RESULT:     -11.2      0.000      0.000
REMARK SMILES Cn1ccc(NC(=O)[C@@H]2CCCC[C@@H]2C(=O)NCCCCNC(=O)c2ccc(-c3c4nc(c(-c5c(F)cc(S(=O)(=O)[O-])cc5F)c5ccc([nH]5)c(-c5c(F)cc(S(=O)(=O)[O-])cc5F)c5nc(c(-c6c(F)cc(S(=O)(=O)[O-])cc6F)c6ccc3[nH]6)C=C5)C=C4)cc2)n1
REMARK SMILES IDX 20 1 19 2 18 3 17 4 15 5 16 6 14 8 9 9 10 10 11 11 13 12
REMARK SMILES IDX 12 13 7 14 6 15 8 17 5 18 1 19 2 20 3 21 91 22 4 23 21 24
REMARK SMILES IDX 22 25 23 26 24 28 25 29 26 30 90 31 27 32 89 33 28 34 29 35
REMARK SMILES IDX 30 36 83 37 31 38 88 39 82 40 84 41 32 42 87 43 81 44 80 45
REMARK SMILES IDX 33 47 67 48 46 49 66 50 47 51 50 52 65 53 85 54 48 55 49 56
REMARK SMILES IDX 64 58 86 59 51 60 34 61 35 62 44 63 36 64 37 65 43 66 45 67
REMARK SMILES IDX 38 68 39 69 40 70 41 71 42 72 68 73 69 74 78 75 70 76 71 77
REMARK SMILES IDX 77 78 79 79 72 80 73 81 74 82 75 83 76 84 52 85 53 86 62 87
REMARK SMILES IDX 54 88 55 89 61 90 63 91 56 92 57 93 58 94 59 95 60 96
REMARK H PARENT 17 7 6 16 22 27 84 46 50 57
REMARK Flexibility Score: inf
ROOT
ATOM      1  C   UNL A   1      33.457  28.346  25.737  1.00  0.00     0.023 C 
ENDROOT
BRANCH   1   2
ATOM      2  C   UNL A   1      32.013  28.409  25.247  1.00  0.00     0.023 C 
BRANCH   2   3
ATOM      3  C   UNL A   1      31.093  27.355  25.858  1.00  0.00     0.116 C 
BRANCH   3   4
ATOM      4  N   UNL A   1      30.698  26.393  24.860  1.00  0.00    -0.356 N 
ATOM      5  C   UNL A   1      31.262  25.216  24.487  1.00  0.00     0.223 C 
ATOM      6  O   UNL A   1      30.684  24.612  23.580  1.00  0.00    -0.275 OA
ATOM      7  H   UNL A   1      29.880  26.628  24.365  1.00  0.00     0.163 HD
BRANCH   5   8
ATOM      8  C   UNL A   1      32.491  24.637  25.216  1.00  0.00     0.091 C 
ATOM      9  C   UNL A   1      33.301  23.523  24.508  1.00  0.00     0.091 C 
ATOM     10  C   UNL A   1      32.351  22.367  24.154  1.00  0.00     0.014 C 
ATOM     11  C   UNL A   1      31.801  21.729  25.429  1.00  0.00     0.001 C 
ATOM     12  C   UNL A   1      32.038  24.029  26.571  1.00  0.00     0.014 C 
ATOM     13  C   UNL A   1      31.223  22.734  26.427  1.00  0.00     0.001 C 
BRANCH   9  14
ATOM     14  C   UNL A   1      34.230  23.882  23.346  1.00  0.00     0.229 C 
ATOM     15  N   UNL A   1      35.556  23.565  23.336  1.00  0.00    -0.309 N 
ATOM     16  H   UNL A   1      36.056  23.893  22.554  1.00  0.00     0.171 HD
ATOM     17  O   UNL A   1      33.801  24.469  22.345  1.00  0.00    -0.274 OA
BRANCH  15  18
ATOM     18  C   UNL A   1      36.301  22.859  24.247  1.00  0.00     0.154 A 
ATOM     19  C   UNL A   1      39.039  22.477  26.364  1.00  0.00     0.173 C 
ATOM     20  N   UNL A   1      37.835  22.299  25.590  1.00  0.00    -0.274 N 
ATOM     21  C   UNL A   1      37.193  21.131  25.312  1.00  0.00     0.110 A 
ATOM     22  N   UNL A   1      37.279  23.366  24.995  1.00  0.00    -0.155 NA
ATOM     23  C   UNL A   1      36.155  21.470  24.476  1.00  0.00     0.068 A 
ENDBRANCH  15  18
ENDBRANCH   9  14
ENDBRANCH   5   8
ENDBRANCH   3   4
ENDBRANCH   2   3
ENDBRANCH   1   2
BRANCH   1  24
ATOM     24  C   UNL A   1      33.616  28.523  27.239  1.00  0.00     0.116 C 
BRANCH  24  25
ATOM     25  N   UNL A   1      33.572  29.914  27.674  1.00  0.00    -0.352 N 
ATOM     26  C   UNL A   1      34.603  30.650  28.213  1.00  0.00     0.251 C 
ATOM     27  H   UNL A   1      32.710  30.378  27.571  1.00  0.00     0.163 HD
ATOM     28  O   UNL A   1      34.421  31.798  28.604  1.00  0.00    -0.269 OA
BRANCH  26  29
ATOM     29  C   UNL A   1      35.918  29.996  28.355  1.00  0.00     0.039 A 
ATOM     30  C   UNL A   1      36.824  30.063  27.294  1.00  0.00     0.014 A 
ATOM     31  C   UNL A   1      36.292  29.446  29.583  1.00  0.00     0.014 A 
ATOM     32  C   UNL A   1      38.141  29.649  27.494  1.00  0.00     0.010 A 
ATOM     33  C   UNL A   1      37.620  29.106  29.801  1.00  0.00     0.010 A 
ATOM     34  C   UNL A   1      38.560  29.213  28.763  1.00  0.00    -0.014 A 
BRANCH  34  35
ATOM     35  C   UNL A   1      39.976  28.865  29.039  1.00  0.00     0.031 A 
ATOM     36  C   UNL A   1      40.900  29.907  29.606  1.00  0.00     0.074 A 
ATOM     37  C   UNL A   1      40.451  27.652  28.690  1.00  0.00     0.049 A 
ATOM     38  N   UNL A   1      42.192  29.855  29.786  1.00  0.00    -0.248 NA
ATOM     39  C   UNL A   1      40.290  31.192  29.983  1.00  0.00     0.031 C 
ATOM     40  C   UNL A   1      39.667  26.575  28.080  1.00  0.00     0.029 A 
ATOM     41  N   UNL A   1      41.716  27.128  28.780  1.00  0.00    -0.354 N 
ATOM     42  C   UNL A   1      42.556  31.107  30.268  1.00  0.00     0.074 A 
ATOM     43  C   UNL A   1      41.354  31.910  30.309  1.00  0.00     0.031 C 
ATOM     44  C   UNL A   1      40.465  25.515  27.870  1.00  0.00     0.029 A 
ATOM     45  C   UNL A   1      41.821  25.847  28.293  1.00  0.00     0.049 A 
ATOM     46  H   UNL A   1      42.478  27.624  29.159  1.00  0.00     0.167 HD
ATOM     47  C   UNL A   1      43.777  31.540  30.661  1.00  0.00     0.037 A 
ATOM     48  C   UNL A   1      42.892  25.035  28.191  1.00  0.00     0.037 A 
ATOM     49  C   UNL A   1      44.958  30.721  30.663  1.00  0.00     0.049 A 
ATOM     50  C   UNL A   1      44.230  25.525  28.674  1.00  0.00     0.074 A 
ATOM     51  C   UNL A   1      46.231  31.046  31.098  1.00  0.00     0.029 A 
ATOM     52  N   UNL A   1      45.010  29.408  30.217  1.00  0.00    -0.354 N 
ATOM     53  N   UNL A   1      44.548  26.696  29.170  1.00  0.00    -0.248 NA
ATOM     54  C   UNL A   1      45.355  24.582  28.589  1.00  0.00     0.031 C 
ATOM     55  C   UNL A   1      47.058  29.936  30.895  1.00  0.00     0.029 A 
ATOM     56  C   UNL A   1      46.293  28.910  30.365  1.00  0.00     0.049 A 
ATOM     57  H   UNL A   1      44.248  28.905  29.851  1.00  0.00     0.167 HD
ATOM     58  C   UNL A   1      45.900  26.622  29.484  1.00  0.00     0.074 A 
ATOM     59  C   UNL A   1      46.340  25.289  29.125  1.00  0.00     0.031 C 
ATOM     60  C   UNL A   1      46.705  27.572  30.021  1.00  0.00     0.037 A 
BRANCH  47  61
ATOM     61  C   UNL A   1      43.886  32.962  31.130  1.00  0.00     0.058 A 
ATOM     62  C   UNL A   1      44.111  34.017  30.232  1.00  0.00     0.135 A 
ATOM     63  C   UNL A   1      43.754  33.279  32.492  1.00  0.00     0.135 A 
ATOM     64  F   UNL A   1      44.263  33.767  28.921  1.00  0.00    -0.206 F 
ATOM     65  C   UNL A   1      44.237  35.331  30.668  1.00  0.00     0.059 A 
ATOM     66  C   UNL A   1      43.851  34.590  32.948  1.00  0.00     0.059 A 
ATOM     67  F   UNL A   1      43.540  32.307  33.394  1.00  0.00    -0.206 F 
ATOM     68  C   UNL A   1      44.111  35.607  32.031  1.00  0.00     0.060 A 
BRANCH  68  69
ATOM     69  S   UNL A   1      44.286  37.315  32.587  1.00  0.00     0.124 S 
ATOM     70  O   UNL A   1      44.152  38.043  31.328  1.00  0.00    -0.237 OA
ATOM     71  O   UNL A   1      43.176  37.457  33.522  1.00  0.00    -0.237 OA
ATOM     72  O   UNL A   1      45.616  37.340  33.187  1.00  0.00    -0.744 OA
ENDBRANCH  68  69
ENDBRANCH  47  61
BRANCH  48  73
ATOM     73  C   UNL A   1      42.737  23.665  27.640  1.00  0.00     0.058 A 
ATOM     74  C   UNL A   1      42.471  22.578  28.487  1.00  0.00     0.135 A 
ATOM     75  C   UNL A   1      42.835  23.412  26.264  1.00  0.00     0.135 A 
ATOM     76  F   UNL A   1      42.374  22.769  29.812  1.00  0.00    -0.206 F 
ATOM     77  C   UNL A   1      42.324  21.286  27.991  1.00  0.00     0.059 A 
ATOM     78  C   UNL A   1      42.670  22.133  25.741  1.00  0.00     0.059 A 
ATOM     79  F   UNL A   1      43.070  24.422  25.411  1.00  0.00    -0.206 F 
ATOM     80  C   UNL A   1      42.424  21.074  26.616  1.00  0.00     0.060 A 
BRANCH  80  81
ATOM     81  S   UNL A   1      42.182  19.402  25.977  1.00  0.00     0.124 S 
ATOM     82  O   UNL A   1      42.667  18.591  27.087  1.00  0.00    -0.237 OA
ATOM     83  O   UNL A   1      40.741  19.367  25.741  1.00  0.00    -0.237 OA
ATOM     84  O   UNL A   1      43.006  19.383  24.772  1.00  0.00    -0.744 OA
ENDBRANCH  80  81
ENDBRANCH  48  73
BRANCH  60  85
ATOM     85  C   UNL A   1      48.131  27.194  30.299  1.00  0.00     0.058 A 
ATOM     86  C   UNL A   1      49.149  27.422  29.362  1.00  0.00     0.135 A 
ATOM     87  C   UNL A   1      48.492  26.663  31.548  1.00  0.00     0.135 A 
ATOM     88  F   UNL A   1      48.853  27.924  28.152  1.00  0.00    -0.206 F 
ATOM     89  C   UNL A   1      50.477  27.123  29.647  1.00  0.00     0.059 A 
ATOM     90  C   UNL A   1      49.815  26.376  31.863  1.00  0.00     0.059 A 
ATOM     91  F   UNL A   1      47.554  26.436  32.482  1.00  0.00    -0.206 F 
ATOM     92  C   UNL A   1      50.800  26.602  30.902  1.00  0.00     0.060 A 
BRANCH  92  93
ATOM     93  S   UNL A   1      52.533  26.265  31.282  1.00  0.00     0.124 S 
ATOM     94  O   UNL A   1      53.131  26.269  29.951  1.00  0.00    -0.237 OA
ATOM     95  O   UNL A   1      52.892  27.389  32.142  1.00  0.00    -0.237 OA
ATOM     96  O   UNL A   1      52.486  24.966  31.947  1.00  0.00    -0.744 OA
ENDBRANCH  92  93
ENDBRANCH  60  85
ENDBRANCH  34  35
ENDBRANCH  26  29
ENDBRANCH  24  25
ENDBRANCH   1  24
TORSDOF 16
ENDMDL
MODEL 2
REMARK VINA RESULT:     -11.1      3.288      5.124
REMARK SMILES Cn1ccc(NC(=O)[C@@H]2CCCC[C@@H]2C(=O)NCCCCNC(=O)c2ccc(-c3c4nc(c(-c5c(F)cc(S(=O)(=O)[O-])cc5F)c5ccc([nH]5)c(-c5c(F)cc(S(=O)(=O)[O-])cc5F)c5nc(c(-c6c(F)cc(S(=O)(=O)[O-])cc6F)c6ccc3[nH]6)C=C5)C=C4)cc2)n1
REMARK SMILES IDX 20 1 19 2 18 3 17 4 15 5 16 6 14 8 9 9 10 10 11 11 13 12
REMARK SMILES IDX 12 13 7 14 6 15 8 17 5 18 1 19 2 20 3 21 91 22 4 23 21 24
REMARK SMILES IDX 22 25 23 26 24 28 25 29 26 30 90 31 27 32 89 33 28 34 29 35
REMARK SMILES IDX 30 36 83 37 31 38 88 39 82 40 84 41 32 42 87 43 81 44 80 45
REMARK SMILES IDX 33 47 67 48 46 49 66 50 47 51 50 52 65 53 85 54 48 55 49 56
REMARK SMILES IDX 64 58 86 59 51 60 34 61 35 62 44 63 36 64 37 65 43 66 45 67
REMARK SMILES IDX 38 68 39 69 40 70 41 71 42 72 68 73 69 74 78 75 70 76 71 77
REMARK SMILES IDX 77 78 79 79 72 80 73 81 74 82 75 83 76 84 52 85 53 86 62 87
REMARK SMILES IDX 54 88 55 89 61 90 63 91 56 92 57 93 58 94 59 95 60 96
REMARK H PARENT 17 7 6 16 22 27 84 46 50 57
REMARK Flexibility Score: inf
ROOT
ATOM      1  C   UNL A   1      34.289  29.424  26.719  1.00  0.00     0.023 C 
ENDROOT
BRANCH   1   2
ATOM      2  C   UNL A   1      33.185  30.470  26.838  1.00  0.00     0.023 C 
BRANCH   2   3
ATOM      3  C   UNL A   1      31.778  29.893  26.973  1.00  0.00     0.116 C 
BRANCH   3   4
ATOM      4  N   UNL A   1      31.779  28.487  26.654  1.00  0.00    -0.356 N 
ATOM      5  C   UNL A   1      31.411  27.831  25.524  1.00  0.00     0.223 C 
ATOM      6  O   UNL A   1      31.520  26.603  25.562  1.00  0.00    -0.275 OA
ATOM      7  H   UNL A   1      32.102  27.904  27.378  1.00  0.00     0.163 HD
BRANCH   5   8
ATOM      8  C   UNL A   1      30.973  28.585  24.253  1.00  0.00     0.091 C 
ATOM      9  C   UNL A   1      30.147  27.813  23.195  1.00  0.00     0.091 C 
ATOM     10  C   UNL A   1      30.929  26.557  22.775  1.00  0.00     0.014 C 
ATOM     11  C   UNL A   1      32.227  26.956  22.074  1.00  0.00     0.001 C 
ATOM     12  C   UNL A   1      32.234  29.099  23.507  1.00  0.00     0.014 C 
ATOM     13  C   UNL A   1      33.057  27.984  22.843  1.00  0.00     0.001 C 
BRANCH   9  14
ATOM     14  C   UNL A   1      28.670  27.511  23.457  1.00  0.00     0.229 C 
ATOM     15  N   UNL A   1      27.681  28.425  23.244  1.00  0.00    -0.309 N 
ATOM     16  H   UNL A   1      26.777  28.127  23.496  1.00  0.00     0.171 HD
ATOM     17  O   UNL A   1      28.308  26.400  23.864  1.00  0.00    -0.274 OA
BRANCH  15  18
ATOM     18  C   UNL A   1      27.750  29.696  22.731  1.00  0.00     0.154 A 
ATOM     19  C   UNL A   1      28.253  31.954  20.128  1.00  0.00     0.173 C 
ATOM     20  N   UNL A   1      28.019  31.319  21.402  1.00  0.00    -0.274 N 
ATOM     21  C   UNL A   1      28.091  31.885  22.637  1.00  0.00     0.110 A 
ATOM     22  N   UNL A   1      27.762  30.002  21.435  1.00  0.00    -0.155 NA
ATOM     23  C   UNL A   1      27.872  30.861  23.527  1.00  0.00     0.068 A 
ENDBRANCH  15  18
ENDBRANCH   9  14
ENDBRANCH   5   8
ENDBRANCH   3   4
ENDBRANCH   2   3
ENDBRANCH   1   2
BRANCH   1  24
ATOM     24  C   UNL A   1      35.031  29.146  28.018  1.00  0.00     0.116 C 
BRANCH  24  25
ATOM     25  N   UNL A   1      35.177  30.319  28.872  1.00  0.00    -0.352 N 
ATOM     26  C   UNL A   1      36.335  30.790  29.446  1.00  0.00     0.251 C 
ATOM     27  H   UNL A   1      34.356  30.830  29.057  1.00  0.00     0.163 HD
ATOM     28  O   UNL A   1      36.317  31.754  30.204  1.00  0.00    -0.269 OA
BRANCH  26  29
ATOM     29  C   UNL A   1      37.589  30.066  29.166  1.00  0.00     0.039 A 
ATOM     30  C   UNL A   1      38.002  29.917  27.840  1.00  0.00     0.014 A 
ATOM     31  C   UNL A   1      38.412  29.665  30.221  1.00  0.00     0.014 A 
ATOM     32  C   UNL A   1      39.285  29.438  27.573  1.00  0.00     0.010 A 
ATOM     33  C   UNL A   1      39.713  29.261  29.955  1.00  0.00     0.010 A 
ATOM     34  C   UNL A   1      40.166  29.152  28.630  1.00  0.00    -0.014 A 
BRANCH  34  35
ATOM     35  C   UNL A   1      41.571  28.740  28.384  1.00  0.00     0.031 A 
ATOM     36  C   UNL A   1      42.657  29.779  28.374  1.00  0.00     0.074 A 
ATOM     37  C   UNL A   1      41.852  27.459  28.074  1.00  0.00     0.049 A 
ATOM     38  N   UNL A   1      43.915  29.656  28.042  1.00  0.00    -0.248 NA
ATOM     39  C   UNL A   1      42.265  31.147  28.750  1.00  0.00     0.031 C 
ATOM     40  C   UNL A   1      40.875  26.368  27.998  1.00  0.00     0.029 A 
ATOM     41  N   UNL A   1      43.042  26.859  27.746  1.00  0.00    -0.354 N 
ATOM     42  C   UNL A   1      44.457  30.932  28.140  1.00  0.00     0.074 A 
ATOM     43  C   UNL A   1      43.380  31.821  28.518  1.00  0.00     0.031 C 
ATOM     44  C   UNL A   1      41.510  25.232  27.663  1.00  0.00     0.029 A 
ATOM     45  C   UNL A   1      42.928  25.517  27.466  1.00  0.00     0.049 A 
ATOM     46  H   UNL A   1      43.898  27.344  27.715  1.00  0.00     0.167 HD
ATOM     47  C   UNL A   1      45.739  31.324  27.952  1.00  0.00     0.037 A 
ATOM     48  C   UNL A   1      43.859  24.622  27.085  1.00  0.00     0.037 A 
ATOM     49  C   UNL A   1      46.813  30.426  27.623  1.00  0.00     0.049 A 
ATOM     50  C   UNL A   1      45.286  25.072  26.925  1.00  0.00     0.074 A 
ATOM     51  C   UNL A   1      48.158  30.712  27.470  1.00  0.00     0.029 A 
ATOM     52  N   UNL A   1      46.666  29.063  27.406  1.00  0.00    -0.354 N 
ATOM     53  N   UNL A   1      45.790  26.275  27.066  1.00  0.00    -0.248 NA
ATOM     54  C   UNL A   1      46.271  24.045  26.558  1.00  0.00     0.031 C 
ATOM     55  C   UNL A   1      48.822  29.526  27.140  1.00  0.00     0.029 A 
ATOM     56  C   UNL A   1      47.896  28.496  27.119  1.00  0.00     0.049 A 
ATOM     57  H   UNL A   1      45.815  28.573  27.451  1.00  0.00     0.167 HD
ATOM     58  C   UNL A   1      47.155  26.144  26.835  1.00  0.00     0.074 A 
ATOM     59  C   UNL A   1      47.398  24.744  26.549  1.00  0.00     0.031 C 
ATOM     60  C   UNL A   1      48.119  27.096  26.858  1.00  0.00     0.037 A 
BRANCH  47  61
ATOM     61  C   UNL A   1      46.045  32.785  28.110  1.00  0.00     0.058 A 
ATOM     62  C   UNL A   1      45.913  33.683  27.039  1.00  0.00     0.135 A 
ATOM     63  C   UNL A   1      46.463  33.298  29.348  1.00  0.00     0.135 A 
ATOM     64  F   UNL A   1      45.534  33.240  25.829  1.00  0.00    -0.206 F 
ATOM     65  C   UNL A   1      46.220  35.032  27.178  1.00  0.00     0.059 A 
ATOM     66  C   UNL A   1      46.751  34.650  29.517  1.00  0.00     0.059 A 
ATOM     67  F   UNL A   1      46.608  32.483  30.405  1.00  0.00    -0.206 F 
ATOM     68  C   UNL A   1      46.644  35.505  28.421  1.00  0.00     0.060 A 
BRANCH  68  69
ATOM     69  S   UNL A   1      47.049  37.256  28.587  1.00  0.00     0.124 S 
ATOM     70  O   UNL A   1      46.261  37.624  29.761  1.00  0.00    -0.237 OA
ATOM     71  O   UNL A   1      48.495  37.228  28.778  1.00  0.00    -0.237 OA
ATOM     72  O   UNL A   1      46.597  37.829  27.323  1.00  0.00    -0.744 OA
ENDBRANCH  68  69
ENDBRANCH  47  61
BRANCH  48  73
ATOM     73  C   UNL A   1      43.479  23.203  26.862  1.00  0.00     0.058 A 
ATOM     74  C   UNL A   1      43.427  22.671  25.565  1.00  0.00     0.135 A 
ATOM     75  C   UNL A   1      43.177  22.348  27.933  1.00  0.00     0.135 A 
ATOM     76  F   UNL A   1      43.702  23.451  24.509  1.00  0.00    -0.206 F 
ATOM     77  C   UNL A   1      43.072  21.346  25.335  1.00  0.00     0.059 A 
ATOM     78  C   UNL A   1      42.840  21.013  27.729  1.00  0.00     0.059 A 
ATOM     79  F   UNL A   1      43.231  22.806  29.194  1.00  0.00    -0.206 F 
ATOM     80  C   UNL A   1      42.780  20.524  26.424  1.00  0.00     0.060 A 
BRANCH  80  81
ATOM     81  S   UNL A   1      42.369  18.792  26.119  1.00  0.00     0.124 S 
ATOM     82  O   UNL A   1      43.291  18.458  25.039  1.00  0.00    -0.237 OA
ATOM     83  O   UNL A   1      42.651  18.175  27.413  1.00  0.00    -0.237 OA
ATOM     84  O   UNL A   1      40.957  18.843  25.753  1.00  0.00    -0.744 OA
ENDBRANCH  80  81
ENDBRANCH  48  73
BRANCH  60  85
ATOM     85  C   UNL A   1      49.534  26.655  26.615  1.00  0.00     0.058 A 
ATOM     86  C   UNL A   1      50.378  26.278  27.669  1.00  0.00     0.135 A 
ATOM     87  C   UNL A   1      50.024  26.542  25.304  1.00  0.00     0.135 A 
ATOM     88  F   UNL A   1      49.956  26.373  28.941  1.00  0.00    -0.206 F 
ATOM     89  C   UNL A   1      51.668  25.816  27.434  1.00  0.00     0.059 A 
ATOM     90  C   UNL A   1      51.303  26.064  25.044  1.00  0.00     0.059 A 
ATOM     91  F   UNL A   1      49.249  26.883  24.262  1.00  0.00    -0.206 F 
ATOM     92  C   UNL A   1      52.121  25.710  26.116  1.00  0.00     0.060 A 
BRANCH  92  93
ATOM     93  S   UNL A   1      53.779  25.062  25.818  1.00  0.00     0.124 S 
ATOM     94  O   UNL A   1      53.488  23.702  25.375  1.00  0.00    -0.237 OA
ATOM     95  O   UNL A   1      54.293  25.966  24.794  1.00  0.00    -0.237 OA
ATOM     96  O   UNL A   1      54.425  25.173  27.123  1.00  0.00    -0.744 OA
ENDBRANCH  92  93
ENDBRANCH  60  85
ENDBRANCH  34  35
ENDBRANCH  26  29
ENDBRANCH  24  25
ENDBRANCH   1  24
TORSDOF 16
ENDMDL
MODEL 3
REMARK VINA RESULT:     -11.1      1.340      2.346
REMARK SMILES Cn1ccc(NC(=O)[C@@H]2CCCC[C@@H]2C(=O)NCCCCNC(=O)c2ccc(-c3c4nc(c(-c5c(F)cc(S(=O)(=O)[O-])cc5F)c5ccc([nH]5)c(-c5c(F)cc(S(=O)(=O)[O-])cc5F)c5nc(c(-c6c(F)cc(S(=O)(=O)[O-])cc6F)c6ccc3[nH]6)C=C5)C=C4)cc2)n1
REMARK SMILES IDX 20 1 19 2 18 3 17 4 15 5 16 6 14 8 9 9 10 10 11 11 13 12
REMARK SMILES IDX 12 13 7 14 6 15 8 17 5 18 1 19 2 20 3 21 91 22 4 23 21 24
REMARK SMILES IDX 22 25 23 26 24 28 25 29 26 30 90 31 27 32 89 33 28 34 29 35
REMARK SMILES IDX 30 36 83 37 31 38 88 39 82 40 84 41 32 42 87 43 81 44 80 45
REMARK SMILES IDX 33 47 67 48 46 49 66 50 47 51 50 52 65 53 85 54 48 55 49 56
REMARK SMILES IDX 64 58 86 59 51 60 34 61 35 62 44 63 36 64 37 65 43 66 45 67
REMARK SMILES IDX 38 68 39 69 40 70 41 71 42 72 68 73 69 74 78 75 70 76 71 77
REMARK SMILES IDX 77 78 79 79 72 80 73 81 74 82 75 83 76 84 52 85 53 86 62 87
REMARK SMILES IDX 54 88 55 89 61 90 63 91 56 92 57 93 58 94 59 95 60 96
REMARK H PARENT 17 7 6 16 22 27 84 46 50 57
REMARK Flexibility Score: inf
ROOT
ATOM      1  C   UNL A   1      32.383  28.249  26.362  1.00  0.00     0.023 C 
ENDROOT
BRANCH   1   2
ATOM      2  C   UNL A   1      31.358  27.297  26.970  1.00  0.00     0.023 C 
BRANCH   2   3
ATOM      3  C   UNL A   1      30.945  26.146  26.057  1.00  0.00     0.116 C 
BRANCH   3   4
ATOM      4  N   UNL A   1      31.440  24.893  26.571  1.00  0.00    -0.356 N 
ATOM      5  C   UNL A   1      32.469  24.108  26.162  1.00  0.00     0.223 C 
ATOM      6  O   UNL A   1      32.641  23.075  26.811  1.00  0.00    -0.275 OA
ATOM      7  H   UNL A   1      30.949  24.548  27.351  1.00  0.00     0.163 HD
BRANCH   5   8
ATOM      8  C   UNL A   1      33.410  24.535  25.018  1.00  0.00     0.091 C 
ATOM      9  C   UNL A   1      33.671  23.525  23.873  1.00  0.00     0.091 C 
ATOM     10  C   UNL A   1      34.198  22.213  24.479  1.00  0.00     0.014 C 
ATOM     11  C   UNL A   1      35.556  22.447  25.139  1.00  0.00     0.001 C 
ATOM     12  C   UNL A   1      34.807  24.870  25.608  1.00  0.00     0.014 C 
ATOM     13  C   UNL A   1      35.583  23.637  26.099  1.00  0.00     0.001 C 
BRANCH   9  14
ATOM     14  C   UNL A   1      32.591  23.280  22.817  1.00  0.00     0.229 C 
ATOM     15  N   UNL A   1      31.976  24.292  22.141  1.00  0.00    -0.309 N 
ATOM     16  H   UNL A   1      31.265  24.007  21.523  1.00  0.00     0.171 HD
ATOM     17  O   UNL A   1      32.240  22.131  22.519  1.00  0.00    -0.274 OA
BRANCH  15  18
ATOM     18  C   UNL A   1      32.196  25.646  22.190  1.00  0.00     0.154 A 
ATOM     19  C   UNL A   1      34.276  28.437  22.231  1.00  0.00     0.173 C 
ATOM     20  N   UNL A   1      33.158  27.527  22.261  1.00  0.00    -0.274 N 
ATOM     21  C   UNL A   1      31.889  27.787  22.678  1.00  0.00     0.110 A 
ATOM     22  N   UNL A   1      33.351  26.246  21.911  1.00  0.00    -0.155 NA
ATOM     23  C   UNL A   1      31.221  26.588  22.598  1.00  0.00     0.068 A 
ENDBRANCH  15  18
ENDBRANCH   9  14
ENDBRANCH   5   8
ENDBRANCH   3   4
ENDBRANCH   2   3
ENDBRANCH   1   2
BRANCH   1  24
ATOM     24  C   UNL A   1      33.528  28.616  27.294  1.00  0.00     0.116 C 
BRANCH  24  25
ATOM     25  N   UNL A   1      33.481  29.995  27.765  1.00  0.00    -0.352 N 
ATOM     26  C   UNL A   1      34.509  30.717  28.327  1.00  0.00     0.251 C 
ATOM     27  H   UNL A   1      32.619  30.461  27.670  1.00  0.00     0.163 HD
ATOM     28  O   UNL A   1      34.325  31.854  28.748  1.00  0.00    -0.269 OA
BRANCH  26  29
ATOM     29  C   UNL A   1      35.823  30.060  28.458  1.00  0.00     0.039 A 
ATOM     30  C   UNL A   1      36.704  30.089  27.373  1.00  0.00     0.014 A 
ATOM     31  C   UNL A   1      36.225  29.547  29.693  1.00  0.00     0.014 A 
ATOM     32  C   UNL A   1      38.024  29.674  27.554  1.00  0.00     0.010 A 
ATOM     33  C   UNL A   1      37.557  29.207  29.889  1.00  0.00     0.010 A 
ATOM     34  C   UNL A   1      38.471  29.276  28.825  1.00  0.00    -0.014 A 
BRANCH  34  35
ATOM     35  C   UNL A   1      39.892  28.928  29.078  1.00  0.00     0.031 A 
ATOM     36  C   UNL A   1      40.826  29.973  29.621  1.00  0.00     0.074 A 
ATOM     37  C   UNL A   1      40.359  27.713  28.728  1.00  0.00     0.049 A 
ATOM     38  N   UNL A   1      42.122  29.921  29.778  1.00  0.00    -0.248 NA
ATOM     39  C   UNL A   1      40.225  31.262  30.000  1.00  0.00     0.031 C 
ATOM     40  C   UNL A   1      39.563  26.632  28.141  1.00  0.00     0.029 A 
ATOM     41  N   UNL A   1      41.626  27.189  28.799  1.00  0.00    -0.354 N 
ATOM     42  C   UNL A   1      42.495  31.176  30.244  1.00  0.00     0.074 A 
ATOM     43  C   UNL A   1      41.295  31.981  30.302  1.00  0.00     0.031 C 
ATOM     44  C   UNL A   1      40.356  25.570  27.923  1.00  0.00     0.029 A 
ATOM     45  C   UNL A   1      41.721  25.903  28.319  1.00  0.00     0.049 A 
ATOM     46  H   UNL A   1      42.395  27.686  29.160  1.00  0.00     0.167 HD
ATOM     47  C   UNL A   1      43.724  31.612  30.611  1.00  0.00     0.037 A 
ATOM     48  C   UNL A   1      42.789  25.091  28.203  1.00  0.00     0.037 A 
ATOM     49  C   UNL A   1      44.905  30.791  30.597  1.00  0.00     0.049 A 
ATOM     50  C   UNL A   1      44.136  25.582  28.657  1.00  0.00     0.074 A 
ATOM     51  C   UNL A   1      46.185  31.118  31.006  1.00  0.00     0.029 A 
ATOM     52  N   UNL A   1      44.947  29.475  30.159  1.00  0.00    -0.354 N 
ATOM     53  N   UNL A   1      44.464  26.757  29.140  1.00  0.00    -0.248 NA
ATOM     54  C   UNL A   1      45.258  24.638  28.558  1.00  0.00     0.031 C 
ATOM     55  C   UNL A   1      47.008  30.006  30.796  1.00  0.00     0.029 A 
ATOM     56  C   UNL A   1      46.233  28.977  30.287  1.00  0.00     0.049 A 
ATOM     57  H   UNL A   1      44.178  28.971  29.811  1.00  0.00     0.167 HD
ATOM     58  C   UNL A   1      45.822  26.684  29.429  1.00  0.00     0.074 A 
ATOM     59  C   UNL A   1      46.254  25.348  29.071  1.00  0.00     0.031 C 
ATOM     60  C   UNL A   1      46.636  27.636  29.944  1.00  0.00     0.037 A 
BRANCH  47  61
ATOM     61  C   UNL A   1      43.843  33.037  31.069  1.00  0.00     0.058 A 
ATOM     62  C   UNL A   1      44.149  34.073  30.173  1.00  0.00     0.135 A 
ATOM     63  C   UNL A   1      43.638  33.375  32.416  1.00  0.00     0.135 A 
ATOM     64  F   UNL A   1      44.372  33.800  28.876  1.00  0.00    -0.206 F 
ATOM     65  C   UNL A   1      44.284  35.388  30.600  1.00  0.00     0.059 A 
ATOM     66  C   UNL A   1      43.742  34.689  32.862  1.00  0.00     0.059 A 
ATOM     67  F   UNL A   1      43.345  32.422  33.316  1.00  0.00    -0.206 F 
ATOM     68  C   UNL A   1      44.083  35.687  31.949  1.00  0.00     0.060 A 
BRANCH  68  69
ATOM     69  S   UNL A   1      44.271  37.397  32.493  1.00  0.00     0.124 S 
ATOM     70  O   UNL A   1      43.340  37.446  33.617  1.00  0.00    -0.237 OA
ATOM     71  O   UNL A   1      45.687  37.463  32.841  1.00  0.00    -0.237 OA
ATOM     72  O   UNL A   1      43.879  38.171  31.320  1.00  0.00    -0.744 OA
ENDBRANCH  68  69
ENDBRANCH  47  61
BRANCH  48  73
ATOM     73  C   UNL A   1      42.623  23.716  27.664  1.00  0.00     0.058 A 
ATOM     74  C   UNL A   1      42.544  22.613  28.527  1.00  0.00     0.135 A 
ATOM     75  C   UNL A   1      42.524  23.476  26.285  1.00  0.00     0.135 A 
ATOM     76  F   UNL A   1      42.639  22.792  29.854  1.00  0.00    -0.206 F 
ATOM     77  C   UNL A   1      42.390  21.318  28.043  1.00  0.00     0.059 A 
ATOM     78  C   UNL A   1      42.348  22.192  25.778  1.00  0.00     0.059 A 
ATOM     79  F   UNL A   1      42.576  24.501  25.420  1.00  0.00    -0.206 F 
ATOM     80  C   UNL A   1      42.292  21.118  26.666  1.00  0.00     0.060 A 
BRANCH  80  81
ATOM     81  S   UNL A   1      42.042  19.439  26.049  1.00  0.00     0.124 S 
ATOM     82  O   UNL A   1      40.607  19.434  25.786  1.00  0.00    -0.237 OA
ATOM     83  O   UNL A   1      42.906  19.410  24.872  1.00  0.00    -0.237 OA
ATOM     84  O   UNL A   1      42.484  18.605  27.161  1.00  0.00    -0.744 OA
ENDBRANCH  80  81
ENDBRANCH  48  73
BRANCH  60  85
ATOM     85  C   UNL A   1      48.068  27.259  30.199  1.00  0.00     0.058 A 
ATOM     86  C   UNL A   1      49.062  27.452  29.230  1.00  0.00     0.135 A 
ATOM     87  C   UNL A   1      48.457  26.765  31.454  1.00  0.00     0.135 A 
ATOM     88  F   UNL A   1      48.739  27.917  28.012  1.00  0.00    -0.206 F 
ATOM     89  C   UNL A   1      50.396  27.154  29.491  1.00  0.00     0.059 A 
ATOM     90  C   UNL A   1      49.786  26.481  31.745  1.00  0.00     0.059 A 
ATOM     91  F   UNL A   1      47.541  26.573  32.418  1.00  0.00    -0.206 F 
ATOM     92  C   UNL A   1      50.748  26.671  30.754  1.00  0.00     0.060 A 
BRANCH  92  93
ATOM     93  S   UNL A   1      52.488  26.336  31.100  1.00  0.00     0.124 S 
ATOM     94  O   UNL A   1      52.409  25.051  31.787  1.00  0.00    -0.237 OA
ATOM     95  O   UNL A   1      53.076  26.306  29.765  1.00  0.00    -0.237 OA
ATOM     96  O   UNL A   1      52.891  27.469  31.930  1.00  0.00    -0.744 OA
ENDBRANCH  92  93
ENDBRANCH  60  85
ENDBRANCH  34  35
ENDBRANCH  26  29
ENDBRANCH  24  25
ENDBRANCH   1  24
TORSDOF 16
ENDMDL
