MODEL 1
REMARK VINA RESULT:     -12.5      0.000      0.000
REMARK SMILES O=C(NCCCCNC(=O)[C@@H](c1ccccc1)N1C(=O)/C(=C\c2ccc(-c3ccc(F)cc3)o2)SC1=S)c1ccc(-c2c3nc(c(-c4c(F)cc(S(=O)(=O)[O-])cc4F)c4ccc([nH]4)c(-c4c(F)cc(S(=O)(=O)[O-])cc4F)c4nc(c(-c5c(F)cc(S(=O)(=O)[O-])cc5F)c5ccc2[nH]5)C=C4)C=C3)cc1
REMARK SMILES IDX 5 1 4 2 3 3 1 4 2 5 38 7 39 8 103 9 40 10 102 11 41 12 42 13
REMARK SMILES IDX 43 14 96 15 44 16 101 17 95 18 97 19 45 20 100 21 94 22
REMARK SMILES IDX 93 23 46 25 80 26 59 27 79 28 60 29 63 30 78 31 98 32 61 33
REMARK SMILES IDX 62 34 77 36 99 37 64 38 47 39 48 40 57 41 49 42 50 43 56 44
REMARK SMILES IDX 58 45 51 46 52 47 53 48 54 49 55 50 81 51 82 52 91 53 83 54
REMARK SMILES IDX 84 55 90 56 92 57 85 58 86 59 87 60 88 61 89 62 65 63 66 64
REMARK SMILES IDX 75 65 67 66 68 67 74 68 76 69 69 70 70 71 71 72 72 73 73 74
REMARK SMILES IDX 6 75 7 76 8 77 9 78 10 80 11 81 12 82 13 83 17 84 14 85
REMARK SMILES IDX 16 86 15 87 18 88 19 89 36 90 20 91 21 92 35 93 37 94 22 95
REMARK SMILES IDX 23 96 24 97 34 98 25 99 26 100 27 101 28 102 33 103 29 104
REMARK SMILES IDX 32 105 30 106 31 107
REMARK H PARENT 3 6 97 24 63 35 8 79
REMARK Flexibility Score: inf
ROOT
ATOM      1  C   UNL A   1      38.851  22.632  26.483  1.00  0.00     0.023 C 
ENDROOT
BRANCH   1   2
ATOM      2  C   UNL A   1      39.479  23.962  26.870  1.00  0.00     0.116 C 
BRANCH   2   3
ATOM      3  N   UNL A   1      40.367  24.512  25.852  1.00  0.00    -0.352 N 
ATOM      4  O   UNL A   1      41.828  26.015  24.993  1.00  0.00    -0.269 OA
ATOM      5  C   UNL A   1      41.192  25.610  25.959  1.00  0.00     0.251 C 
ATOM      6  H   UNL A   1      40.379  24.043  24.986  1.00  0.00     0.163 HD
BRANCH   5   7
ATOM      7  C   UNL A   1      41.250  26.312  27.256  1.00  0.00     0.039 A 
ATOM      8  C   UNL A   1      40.440  25.881  28.308  1.00  0.00     0.014 A 
ATOM      9  C   UNL A   1      42.014  27.475  27.374  1.00  0.00     0.014 A 
ATOM     10  C   UNL A   1      40.250  26.712  29.402  1.00  0.00     0.010 A 
ATOM     11  C   UNL A   1      41.894  28.261  28.523  1.00  0.00     0.010 A 
ATOM     12  C   UNL A   1      40.970  27.914  29.522  1.00  0.00    -0.014 A 
BRANCH  12  13
ATOM     13  C   UNL A   1      40.740  28.772  30.712  1.00  0.00     0.031 A 
ATOM     14  C   UNL A   1      41.645  28.703  31.913  1.00  0.00     0.074 A 
ATOM     15  C   UNL A   1      39.735  29.669  30.669  1.00  0.00     0.049 A 
ATOM     16  N   UNL A   1      41.604  29.412  33.013  1.00  0.00    -0.248 NA
ATOM     17  C   UNL A   1      42.728  27.708  31.885  1.00  0.00     0.031 C 
ATOM     18  C   UNL A   1      38.790  29.820  29.558  1.00  0.00     0.029 A 
ATOM     19  N   UNL A   1      39.362  30.644  31.557  1.00  0.00    -0.354 N 
ATOM     20  C   UNL A   1      42.624  28.923  33.823  1.00  0.00     0.074 A 
ATOM     21  C   UNL A   1      43.265  27.853  33.091  1.00  0.00     0.031 C 
ATOM     22  C   UNL A   1      37.994  30.872  29.798  1.00  0.00     0.029 A 
ATOM     23  C   UNL A   1      38.326  31.426  31.105  1.00  0.00     0.049 A 
ATOM     24  H   UNL A   1      39.794  30.772  32.432  1.00  0.00     0.167 HD
ATOM     25  C   UNL A   1      42.992  29.334  35.062  1.00  0.00     0.037 A 
ATOM     26  C   UNL A   1      37.705  32.472  31.680  1.00  0.00     0.037 A 
ATOM     27  C   UNL A   1      42.375  30.431  35.766  1.00  0.00     0.049 A 
ATOM     28  C   UNL A   1      38.154  32.929  33.035  1.00  0.00     0.074 A 
ATOM     29  C   UNL A   1      42.694  30.945  37.011  1.00  0.00     0.029 A 
ATOM     30  N   UNL A   1      41.318  31.189  35.282  1.00  0.00    -0.354 N 
ATOM     31  N   UNL A   1      39.121  32.453  33.783  1.00  0.00    -0.248 NA
ATOM     32  C   UNL A   1      37.426  34.056  33.628  1.00  0.00     0.031 C 
ATOM     33  C   UNL A   1      41.812  31.996  37.292  1.00  0.00     0.029 A 
ATOM     34  C   UNL A   1      40.968  32.160  36.207  1.00  0.00     0.049 A 
ATOM     35  H   UNL A   1      40.881  31.056  34.410  1.00  0.00     0.167 HD
ATOM     36  C   UNL A   1      39.125  33.232  34.933  1.00  0.00     0.074 A 
ATOM     37  C   UNL A   1      38.077  34.220  34.772  1.00  0.00     0.031 C 
ATOM     38  C   UNL A   1      39.921  33.134  36.027  1.00  0.00     0.037 A 
BRANCH  25  39
ATOM     39  C   UNL A   1      44.097  28.581  35.752  1.00  0.00     0.058 A 
ATOM     40  C   UNL A   1      45.445  28.941  35.606  1.00  0.00     0.135 A 
ATOM     41  C   UNL A   1      43.795  27.506  36.604  1.00  0.00     0.135 A 
ATOM     42  F   UNL A   1      45.791  29.952  34.792  1.00  0.00    -0.206 F 
ATOM     43  C   UNL A   1      46.459  28.246  36.260  1.00  0.00     0.059 A 
ATOM     44  C   UNL A   1      44.791  26.810  37.285  1.00  0.00     0.059 A 
ATOM     45  F   UNL A   1      42.522  27.120  36.780  1.00  0.00    -0.206 F 
ATOM     46  C   UNL A   1      46.122  27.178  37.094  1.00  0.00     0.060 A 
BRANCH  46  47
ATOM     47  S   UNL A   1      47.445  26.280  37.934  1.00  0.00     0.124 S 
ATOM     48  O   UNL A   1      47.445  26.924  39.244  1.00  0.00    -0.237 OA
ATOM     49  O   UNL A   1      46.960  24.904  37.905  1.00  0.00    -0.237 OA
ATOM     50  O   UNL A   1      48.614  26.546  37.103  1.00  0.00    -0.744 OA
ENDBRANCH  46  47
ENDBRANCH  25  39
BRANCH  26  51
ATOM     51  C   UNL A   1      36.600  33.154  30.960  1.00  0.00     0.058 A 
ATOM     52  C   UNL A   1      35.261  32.911  31.296  1.00  0.00     0.135 A 
ATOM     53  C   UNL A   1      36.864  34.098  29.956  1.00  0.00     0.135 A 
ATOM     54  F   UNL A   1      34.962  32.015  32.250  1.00  0.00    -0.206 F 
ATOM     55  C   UNL A   1      34.219  33.575  30.660  1.00  0.00     0.059 A 
ATOM     56  C   UNL A   1      35.841  34.794  29.322  1.00  0.00     0.059 A 
ATOM     57  F   UNL A   1      38.131  34.381  29.614  1.00  0.00    -0.206 F 
ATOM     58  C   UNL A   1      34.520  34.519  29.675  1.00  0.00     0.060 A 
BRANCH  58  59
ATOM     59  S   UNL A   1      33.169  35.431  28.899  1.00  0.00     0.124 S 
ATOM     60  O   UNL A   1      32.448  35.931  30.065  1.00  0.00    -0.237 OA
ATOM     61  O   UNL A   1      33.882  36.432  28.111  1.00  0.00    -0.237 OA
ATOM     62  O   UNL A   1      32.480  34.407  28.119  1.00  0.00    -0.744 OA
ENDBRANCH  58  59
ENDBRANCH  26  51
BRANCH  38  63
ATOM     63  C   UNL A   1      39.700  34.142  37.116  1.00  0.00     0.058 A 
ATOM     64  C   UNL A   1      40.220  35.443  37.028  1.00  0.00     0.135 A 
ATOM     65  C   UNL A   1      38.952  33.805  38.255  1.00  0.00     0.135 A 
ATOM     66  F   UNL A   1      40.949  35.809  35.963  1.00  0.00    -0.206 F 
ATOM     67  C   UNL A   1      40.031  36.368  38.049  1.00  0.00     0.059 A 
ATOM     68  C   UNL A   1      38.731  34.721  39.277  1.00  0.00     0.059 A 
ATOM     69  F   UNL A   1      38.428  32.576  38.380  1.00  0.00    -0.206 F 
ATOM     70  C   UNL A   1      39.289  35.996  39.173  1.00  0.00     0.060 A 
BRANCH  70  71
ATOM     71  S   UNL A   1      39.042  37.203  40.491  1.00  0.00     0.124 S 
ATOM     72  O   UNL A   1      40.418  37.505  40.872  1.00  0.00    -0.237 OA
ATOM     73  O   UNL A   1      38.323  38.274  39.809  1.00  0.00    -0.237 OA
ATOM     74  O   UNL A   1      38.262  36.466  41.481  1.00  0.00    -0.744 OA
ENDBRANCH  70  71
ENDBRANCH  38  63
ENDBRANCH  12  13
ENDBRANCH   5   7
ENDBRANCH   2   3
ENDBRANCH   1   2
BRANCH   1  75
ATOM     75  C   UNL A   1      37.651  22.738  25.547  1.00  0.00     0.023 C 
BRANCH  75  76
ATOM     76  C   UNL A   1      36.525  23.636  26.056  1.00  0.00     0.116 C 
BRANCH  76  77
ATOM     77  N   UNL A   1      35.570  22.886  26.842  1.00  0.00    -0.354 N 
ATOM     78  C   UNL A   1      34.570  22.036  26.467  1.00  0.00     0.247 C 
ATOM     79  H   UNL A   1      35.654  23.011  27.815  1.00  0.00     0.163 HD
ATOM     80  O   UNL A   1      33.790  21.669  27.355  1.00  0.00    -0.272 OA
BRANCH  78  81
ATOM     81  C   UNL A   1      34.298  21.633  24.981  1.00  0.00     0.211 C 
BRANCH  81  82
ATOM     82  C   UNL A   1      33.943  20.130  25.003  1.00  0.00    -0.016 A 
ATOM     83  C   UNL A   1      32.766  19.630  25.587  1.00  0.00     0.006 A 
ATOM     84  C   UNL A   1      34.865  19.204  24.485  1.00  0.00     0.006 A 
ATOM     85  C   UNL A   1      32.542  18.256  25.699  1.00  0.00     0.000 A 
ATOM     86  C   UNL A   1      34.627  17.829  24.573  1.00  0.00     0.000 A 
ATOM     87  C   UNL A   1      33.475  17.356  25.195  1.00  0.00     0.000 A 
ENDBRANCH  81  82
BRANCH  81  88
ATOM     88  N   UNL A   1      33.381  22.487  24.182  1.00  0.00    -0.276 N 
ATOM     89  C   UNL A   1      32.879  23.636  24.781  1.00  0.00     0.267 C 
ATOM     90  C   UNL A   1      32.566  22.036  23.161  1.00  0.00     0.149 C 
ATOM     91  O   UNL A   1      33.049  23.962  25.947  1.00  0.00    -0.268 OA
ATOM     92  C   UNL A   1      31.945  24.356  23.869  1.00  0.00     0.084 C 
ATOM     93  S   UNL A   1      31.666  23.391  22.478  1.00  0.00    -0.054 SA
ATOM     94  S   UNL A   1      32.331  20.497  22.564  1.00  0.00    -0.052 S 
ATOM     95  C   UNL A   1      31.323  25.522  24.086  1.00  0.00     0.068 C 
BRANCH  95  96
ATOM     96  C   UNL A   1      31.494  26.260  25.282  1.00  0.00     0.128 A 
ATOM     97  C   UNL A   1      30.771  26.216  26.468  1.00  0.00     0.051 A 
ATOM     98  O   UNL A   1      32.470  27.216  25.420  1.00  0.00    -0.457 OA
ATOM     99  C   UNL A   1      31.308  27.198  27.334  1.00  0.00     0.051 A 
ATOM    100  C   UNL A   1      32.334  27.800  26.643  1.00  0.00     0.134 A 
BRANCH 100 101
ATOM    101  C   UNL A   1      33.256  28.883  26.936  1.00  0.00     0.017 A 
ATOM    102  C   UNL A   1      32.776  30.170  27.225  1.00  0.00     0.015 A 
ATOM    103  C   UNL A   1      34.639  28.650  26.958  1.00  0.00     0.015 A 
ATOM    104  C   UNL A   1      33.661  31.205  27.534  1.00  0.00     0.040 A 
ATOM    105  C   UNL A   1      35.525  29.688  27.256  1.00  0.00     0.040 A 
ATOM    106  C   UNL A   1      35.028  30.954  27.544  1.00  0.00     0.123 A 
ATOM    107  F   UNL A   1      35.880  31.946  27.835  1.00  0.00    -0.207 F 
ENDBRANCH 100 101
ENDBRANCH  95  96
ENDBRANCH  81  88
ENDBRANCH  78  81
ENDBRANCH  76  77
ENDBRANCH  75  76
ENDBRANCH   1  75
TORSDOF 18
ENDMDL
MODEL 2
REMARK VINA RESULT:     -12.0      4.801      9.608
REMARK SMILES O=C(NCCCCNC(=O)[C@@H](c1ccccc1)N1C(=O)/C(=C\c2ccc(-c3ccc(F)cc3)o2)SC1=S)c1ccc(-c2c3nc(c(-c4c(F)cc(S(=O)(=O)[O-])cc4F)c4ccc([nH]4)c(-c4c(F)cc(S(=O)(=O)[O-])cc4F)c4nc(c(-c5c(F)cc(S(=O)(=O)[O-])cc5F)c5ccc2[nH]5)C=C4)C=C3)cc1
REMARK SMILES IDX 5 1 4 2 3 3 1 4 2 5 38 7 39 8 103 9 40 10 102 11 41 12 42 13
REMARK SMILES IDX 43 14 96 15 44 16 101 17 95 18 97 19 45 20 100 21 94 22
REMARK SMILES IDX 93 23 46 25 80 26 59 27 79 28 60 29 63 30 78 31 98 32 61 33
REMARK SMILES IDX 62 34 77 36 99 37 64 38 47 39 48 40 57 41 49 42 50 43 56 44
REMARK SMILES IDX 58 45 51 46 52 47 53 48 54 49 55 50 81 51 82 52 91 53 83 54
REMARK SMILES IDX 84 55 90 56 92 57 85 58 86 59 87 60 88 61 89 62 65 63 66 64
REMARK SMILES IDX 75 65 67 66 68 67 74 68 76 69 69 70 70 71 71 72 72 73 73 74
REMARK SMILES IDX 6 75 7 76 8 77 9 78 10 80 11 81 12 82 13 83 17 84 14 85
REMARK SMILES IDX 16 86 15 87 18 88 19 89 36 90 20 91 21 92 35 93 37 94 22 95
REMARK SMILES IDX 23 96 24 97 34 98 25 99 26 100 27 101 28 102 33 103 29 104
REMARK SMILES IDX 32 105 30 106 31 107
REMARK H PARENT 3 6 97 24 63 35 8 79
REMARK Flexibility Score: inf
ROOT
ATOM      1  C   UNL A   1      44.066  22.941  27.007  1.00  0.00     0.023 C 
ENDROOT
BRANCH   1   2
ATOM      2  C   UNL A   1      42.599  23.318  27.150  1.00  0.00     0.116 C 
BRANCH   2   3
ATOM      3  N   UNL A   1      42.089  24.128  26.049  1.00  0.00    -0.352 N 
ATOM      4  O   UNL A   1      41.095  25.937  25.117  1.00  0.00    -0.269 OA
ATOM      5  C   UNL A   1      41.566  25.401  26.113  1.00  0.00     0.251 C 
ATOM      6  H   UNL A   1      42.123  23.716  25.155  1.00  0.00     0.163 HD
BRANCH   5   7
ATOM      7  C   UNL A   1      41.546  26.080  27.423  1.00  0.00     0.039 A 
ATOM      8  C   UNL A   1      40.487  25.848  28.301  1.00  0.00     0.014 A 
ATOM      9  C   UNL A   1      42.516  27.042  27.712  1.00  0.00     0.014 A 
ATOM     10  C   UNL A   1      40.294  26.707  29.373  1.00  0.00     0.010 A 
ATOM     11  C   UNL A   1      42.371  27.842  28.849  1.00  0.00     0.010 A 
ATOM     12  C   UNL A   1      41.230  27.717  29.658  1.00  0.00    -0.014 A 
BRANCH  12  13
ATOM     13  C   UNL A   1      40.988  28.613  30.818  1.00  0.00     0.031 A 
ATOM     14  C   UNL A   1      41.891  28.594  32.023  1.00  0.00     0.074 A 
ATOM     15  C   UNL A   1      39.974  29.497  30.743  1.00  0.00     0.049 A 
ATOM     16  N   UNL A   1      41.840  29.339  33.099  1.00  0.00    -0.248 NA
ATOM     17  C   UNL A   1      42.985  27.610  32.031  1.00  0.00     0.031 C 
ATOM     18  C   UNL A   1      39.030  29.600  29.626  1.00  0.00     0.029 A 
ATOM     19  N   UNL A   1      39.588  30.497  31.597  1.00  0.00    -0.354 N 
ATOM     20  C   UNL A   1      42.863  28.889  33.926  1.00  0.00     0.074 A 
ATOM     21  C   UNL A   1      43.517  27.801  33.232  1.00  0.00     0.031 C 
ATOM     22  C   UNL A   1      38.222  30.650  29.829  1.00  0.00     0.029 A 
ATOM     23  C   UNL A   1      38.545  31.252  31.117  1.00  0.00     0.049 A 
ATOM     24  H   UNL A   1      40.016  30.659  32.468  1.00  0.00     0.167 HD
ATOM     25  C   UNL A   1      43.223  29.345  35.151  1.00  0.00     0.037 A 
ATOM     26  C   UNL A   1      37.911  32.310  31.655  1.00  0.00     0.037 A 
ATOM     27  C   UNL A   1      42.593  30.459  35.816  1.00  0.00     0.049 A 
ATOM     28  C   UNL A   1      38.352  32.817  32.995  1.00  0.00     0.074 A 
ATOM     29  C   UNL A   1      42.904  31.018  37.045  1.00  0.00     0.029 A 
ATOM     30  N   UNL A   1      41.530  31.188  35.306  1.00  0.00    -0.354 N 
ATOM     31  N   UNL A   1      39.323  32.377  33.760  1.00  0.00    -0.248 NA
ATOM     32  C   UNL A   1      37.611  33.956  33.548  1.00  0.00     0.031 C 
ATOM     33  C   UNL A   1      42.010  32.068  37.288  1.00  0.00     0.029 A 
ATOM     34  C   UNL A   1      41.167  32.186  36.196  1.00  0.00     0.049 A 
ATOM     35  H   UNL A   1      41.096  31.022  34.437  1.00  0.00     0.167 HD
ATOM     36  C   UNL A   1      39.316  33.195  34.883  1.00  0.00     0.074 A 
ATOM     37  C   UNL A   1      38.257  34.165  34.687  1.00  0.00     0.031 C 
ATOM     38  C   UNL A   1      40.110  33.142  35.981  1.00  0.00     0.037 A 
BRANCH  25  39
ATOM     39  C   UNL A   1      44.335  28.628  35.868  1.00  0.00     0.058 A 
ATOM     40  C   UNL A   1      45.675  29.032  35.756  1.00  0.00     0.135 A 
ATOM     41  C   UNL A   1      44.048  27.542  36.712  1.00  0.00     0.135 A 
ATOM     42  F   UNL A   1      46.007  30.054  34.951  1.00  0.00    -0.206 F 
ATOM     43  C   UNL A   1      46.693  28.370  36.435  1.00  0.00     0.059 A 
ATOM     44  C   UNL A   1      45.048  26.879  37.418  1.00  0.00     0.059 A 
ATOM     45  F   UNL A   1      42.784  27.116  36.857  1.00  0.00    -0.206 F 
ATOM     46  C   UNL A   1      46.371  27.291  37.260  1.00  0.00     0.060 A 
BRANCH  46  47
ATOM     47  S   UNL A   1      47.701  26.435  38.133  1.00  0.00     0.124 S 
ATOM     48  O   UNL A   1      48.775  27.422  38.062  1.00  0.00    -0.237 OA
ATOM     49  O   UNL A   1      47.124  26.222  39.456  1.00  0.00    -0.237 OA
ATOM     50  O   UNL A   1      47.904  25.227  37.339  1.00  0.00    -0.744 OA
ENDBRANCH  46  47
ENDBRANCH  25  39
BRANCH  26  51
ATOM     51  C   UNL A   1      36.801  32.955  30.910  1.00  0.00     0.058 A 
ATOM     52  C   UNL A   1      35.463  32.659  31.209  1.00  0.00     0.135 A 
ATOM     53  C   UNL A   1      37.055  33.916  29.920  1.00  0.00     0.135 A 
ATOM     54  F   UNL A   1      35.173  31.746  32.148  1.00  0.00    -0.206 F 
ATOM     55  C   UNL A   1      34.414  33.288  30.549  1.00  0.00     0.059 A 
ATOM     56  C   UNL A   1      36.023  34.578  29.263  1.00  0.00     0.059 A 
ATOM     57  F   UNL A   1      38.318  34.249  29.614  1.00  0.00    -0.206 F 
ATOM     58  C   UNL A   1      34.705  34.250  29.579  1.00  0.00     0.060 A 
BRANCH  58  59
ATOM     59  S   UNL A   1      33.341  35.117  28.774  1.00  0.00     0.124 S 
ATOM     60  O   UNL A   1      32.687  34.028  28.056  1.00  0.00    -0.237 OA
ATOM     61  O   UNL A   1      32.606  35.664  29.910  1.00  0.00    -0.237 OA
ATOM     62  O   UNL A   1      34.020  36.107  27.944  1.00  0.00    -0.744 OA
ENDBRANCH  58  59
ENDBRANCH  26  51
BRANCH  38  63
ATOM     63  C   UNL A   1      39.876  34.184  37.036  1.00  0.00     0.058 A 
ATOM     64  C   UNL A   1      39.133  33.901  38.193  1.00  0.00     0.135 A 
ATOM     65  C   UNL A   1      40.409  35.474  36.891  1.00  0.00     0.135 A 
ATOM     66  F   UNL A   1      38.596  32.685  38.371  1.00  0.00    -0.206 F 
ATOM     67  C   UNL A   1      38.900  34.875  39.159  1.00  0.00     0.059 A 
ATOM     68  C   UNL A   1      40.207  36.456  37.855  1.00  0.00     0.059 A 
ATOM     69  F   UNL A   1      41.133  35.788  35.806  1.00  0.00    -0.206 F 
ATOM     70  C   UNL A   1      39.437  36.151  38.978  1.00  0.00     0.060 A 
BRANCH  70  71
ATOM     71  S   UNL A   1      39.137  37.408  40.237  1.00  0.00     0.124 S 
ATOM     72  O   UNL A   1      40.487  37.905  40.481  1.00  0.00    -0.237 OA
ATOM     73  O   UNL A   1      38.235  38.331  39.556  1.00  0.00    -0.237 OA
ATOM     74  O   UNL A   1      38.538  36.651  41.332  1.00  0.00    -0.744 OA
ENDBRANCH  70  71
ENDBRANCH  38  63
ENDBRANCH  12  13
ENDBRANCH   5   7
ENDBRANCH   2   3
ENDBRANCH   1   2
BRANCH   1  75
ATOM     75  C   UNL A   1      45.028  23.778  27.845  1.00  0.00     0.023 C 
BRANCH  75  76
ATOM     76  C   UNL A   1      46.167  24.419  27.053  1.00  0.00     0.116 C 
BRANCH  76  77
ATOM     77  N   UNL A   1      46.282  25.830  27.350  1.00  0.00    -0.354 N 
ATOM     78  C   UNL A   1      47.247  26.531  28.014  1.00  0.00     0.247 C 
ATOM     79  H   UNL A   1      45.536  26.379  27.017  1.00  0.00     0.163 HD
ATOM     80  O   UNL A   1      46.995  27.715  28.271  1.00  0.00    -0.272 OA
BRANCH  78  81
ATOM     81  C   UNL A   1      48.556  25.878  28.566  1.00  0.00     0.211 C 
BRANCH  81  82
ATOM     82  C   UNL A   1      49.587  25.949  27.419  1.00  0.00    -0.016 A 
ATOM     83  C   UNL A   1      49.346  26.635  26.215  1.00  0.00     0.006 A 
ATOM     84  C   UNL A   1      50.794  25.239  27.541  1.00  0.00     0.006 A 
ATOM     85  C   UNL A   1      50.251  26.568  25.153  1.00  0.00     0.000 A 
ATOM     86  C   UNL A   1      51.711  25.197  26.488  1.00  0.00     0.000 A 
ATOM     87  C   UNL A   1      51.432  25.846  25.289  1.00  0.00     0.000 A 
ENDBRANCH  81  82
BRANCH  81  88
ATOM     88  N   UNL A   1      49.054  26.327  29.892  1.00  0.00    -0.276 N 
ATOM     89  C   UNL A   1      48.312  25.980  31.014  1.00  0.00     0.267 C 
ATOM     90  C   UNL A   1      49.827  27.452  30.109  1.00  0.00     0.149 C 
ATOM     91  O   UNL A   1      47.228  25.416  31.003  1.00  0.00    -0.268 OA
ATOM     92  C   UNL A   1      48.917  26.540  32.256  1.00  0.00     0.084 C 
ATOM     93  S   UNL A   1      50.205  27.590  31.827  1.00  0.00    -0.054 SA
ATOM     94  S   UNL A   1      50.377  28.609  29.042  1.00  0.00    -0.052 S 
ATOM     95  C   UNL A   1      48.510  26.363  33.520  1.00  0.00     0.068 C 
BRANCH  95  96
ATOM     96  C   UNL A   1      47.386  25.566  33.848  1.00  0.00     0.128 A 
ATOM     97  C   UNL A   1      46.032  25.876  33.810  1.00  0.00     0.051 A 
ATOM     98  O   UNL A   1      47.510  24.279  34.309  1.00  0.00    -0.457 OA
ATOM     99  C   UNL A   1      45.322  24.752  34.295  1.00  0.00     0.051 A 
ATOM    100  C   UNL A   1      46.269  23.805  34.609  1.00  0.00     0.134 A 
BRANCH 100 101
ATOM    101  C   UNL A   1      46.218  22.466  35.170  1.00  0.00     0.017 A 
ATOM    102  C   UNL A   1      46.484  21.346  34.368  1.00  0.00     0.015 A 
ATOM    103  C   UNL A   1      45.924  22.279  36.528  1.00  0.00     0.015 A 
ATOM    104  C   UNL A   1      46.461  20.061  34.914  1.00  0.00     0.040 A 
ATOM    105  C   UNL A   1      45.890  20.992  37.072  1.00  0.00     0.040 A 
ATOM    106  C   UNL A   1      46.161  19.897  36.261  1.00  0.00     0.123 A 
ATOM    107  F   UNL A   1      46.134  18.665  36.786  1.00  0.00    -0.207 F 
ENDBRANCH 100 101
ENDBRANCH  95  96
ENDBRANCH  81  88
ENDBRANCH  78  81
ENDBRANCH  76  77
ENDBRANCH  75  76
ENDBRANCH   1  75
TORSDOF 18
ENDMDL
MODEL 3
REMARK VINA RESULT:     -11.9      6.462     13.751
REMARK SMILES O=C(NCCCCNC(=O)[C@@H](c1ccccc1)N1C(=O)/C(=C\c2ccc(-c3ccc(F)cc3)o2)SC1=S)c1ccc(-c2c3nc(c(-c4c(F)cc(S(=O)(=O)[O-])cc4F)c4ccc([nH]4)c(-c4c(F)cc(S(=O)(=O)[O-])cc4F)c4nc(c(-c5c(F)cc(S(=O)(=O)[O-])cc5F)c5ccc2[nH]5)C=C4)C=C3)cc1
REMARK SMILES IDX 5 1 4 2 3 3 1 4 2 5 38 7 39 8 103 9 40 10 102 11 41 12 42 13
REMARK SMILES IDX 43 14 96 15 44 16 101 17 95 18 97 19 45 20 100 21 94 22
REMARK SMILES IDX 93 23 46 25 80 26 59 27 79 28 60 29 63 30 78 31 98 32 61 33
REMARK SMILES IDX 62 34 77 36 99 37 64 38 47 39 48 40 57 41 49 42 50 43 56 44
REMARK SMILES IDX 58 45 51 46 52 47 53 48 54 49 55 50 81 51 82 52 91 53 83 54
REMARK SMILES IDX 84 55 90 56 92 57 85 58 86 59 87 60 88 61 89 62 65 63 66 64
REMARK SMILES IDX 75 65 67 66 68 67 74 68 76 69 69 70 70 71 71 72 72 73 73 74
REMARK SMILES IDX 6 75 7 76 8 77 9 78 10 80 11 81 12 82 13 83 17 84 14 85
REMARK SMILES IDX 16 86 15 87 18 88 19 89 36 90 20 91 21 92 35 93 37 94 22 95
REMARK SMILES IDX 23 96 24 97 34 98 25 99 26 100 27 101 28 102 33 103 29 104
REMARK SMILES IDX 32 105 30 106 31 107
REMARK H PARENT 3 6 97 24 63 35 8 79
REMARK Flexibility Score: inf
ROOT
ATOM      1  C   UNL A   1      37.228  33.617  30.049  1.00  0.00     0.023 C 
ENDROOT
BRANCH   1   2
ATOM      2  C   UNL A   1      36.476  32.583  29.224  1.00  0.00     0.116 C 
BRANCH   2   3
ATOM      3  N   UNL A   1      36.027  31.429  29.995  1.00  0.00    -0.352 N 
ATOM      4  O   UNL A   1      36.216  29.359  30.896  1.00  0.00    -0.269 OA
ATOM      5  C   UNL A   1      36.745  30.295  30.308  1.00  0.00     0.251 C 
ATOM      6  H   UNL A   1      35.102  31.464  30.332  1.00  0.00     0.163 HD
BRANCH   5   7
ATOM      7  C   UNL A   1      38.153  30.222  29.872  1.00  0.00     0.039 A 
ATOM      8  C   UNL A   1      38.449  30.164  28.509  1.00  0.00     0.014 A 
ATOM      9  C   UNL A   1      39.161  30.078  30.828  1.00  0.00     0.014 A 
ATOM     10  C   UNL A   1      39.718  29.776  28.107  1.00  0.00     0.010 A 
ATOM     11  C   UNL A   1      40.462  29.784  30.414  1.00  0.00     0.010 A 
ATOM     12  C   UNL A   1      40.739  29.577  29.053  1.00  0.00    -0.014 A 
BRANCH  12  13
ATOM     13  C   UNL A   1      42.085  29.166  28.579  1.00  0.00     0.031 A 
ATOM     14  C   UNL A   1      43.257  30.110  28.635  1.00  0.00     0.074 A 
ATOM     15  C   UNL A   1      42.255  27.898  28.154  1.00  0.00     0.049 A 
ATOM     16  N   UNL A   1      44.504  29.893  28.299  1.00  0.00    -0.248 NA
ATOM     17  C   UNL A   1      43.000  31.475  29.121  1.00  0.00     0.031 C 
ATOM     18  C   UNL A   1      41.189  26.897  28.050  1.00  0.00     0.029 A 
ATOM     19  N   UNL A   1      43.383  27.222  27.768  1.00  0.00    -0.354 N 
ATOM     20  C   UNL A   1      45.169  31.099  28.492  1.00  0.00     0.074 A 
ATOM     21  C   UNL A   1      44.188  32.048  28.969  1.00  0.00     0.031 C 
ATOM     22  C   UNL A   1      41.725  25.719  27.699  1.00  0.00     0.029 A 
ATOM     23  C   UNL A   1      43.156  25.896  27.487  1.00  0.00     0.049 A 
ATOM     24  H   UNL A   1      44.269  27.645  27.699  1.00  0.00     0.167 HD
ATOM     25  C   UNL A   1      46.479  31.384  28.290  1.00  0.00     0.037 A 
ATOM     26  C   UNL A   1      44.004  24.928  27.096  1.00  0.00     0.037 A 
ATOM     27  C   UNL A   1      47.459  30.419  27.855  1.00  0.00     0.049 A 
ATOM     28  C   UNL A   1      45.455  25.261  26.915  1.00  0.00     0.074 A 
ATOM     29  C   UNL A   1      48.816  30.601  27.650  1.00  0.00     0.029 A 
ATOM     30  N   UNL A   1      47.188  29.090  27.565  1.00  0.00    -0.354 N 
ATOM     31  N   UNL A   1      46.063  26.408  27.103  1.00  0.00    -0.248 NA
ATOM     32  C   UNL A   1      46.331  24.175  26.462  1.00  0.00     0.031 C 
ATOM     33  C   UNL A   1      49.360  29.388  27.211  1.00  0.00     0.029 A 
ATOM     34  C   UNL A   1      48.349  28.443  27.176  1.00  0.00     0.049 A 
ATOM     35  H   UNL A   1      46.300  28.668  27.627  1.00  0.00     0.167 HD
ATOM     36  C   UNL A   1      47.399  26.179  26.802  1.00  0.00     0.074 A 
ATOM     37  C   UNL A   1      47.511  24.780  26.437  1.00  0.00     0.031 C 
ATOM     38  C   UNL A   1      48.439  27.049  26.819  1.00  0.00     0.037 A 
BRANCH  25  39
ATOM     39  C   UNL A   1      46.931  32.802  28.512  1.00  0.00     0.058 A 
ATOM     40  C   UNL A   1      47.512  33.216  29.721  1.00  0.00     0.135 A 
ATOM     41  C   UNL A   1      46.815  33.751  27.483  1.00  0.00     0.135 A 
ATOM     42  F   UNL A   1      47.633  32.354  30.743  1.00  0.00    -0.206 F 
ATOM     43  C   UNL A   1      47.939  34.527  29.911  1.00  0.00     0.059 A 
ATOM     44  C   UNL A   1      47.256  35.062  27.643  1.00  0.00     0.059 A 
ATOM     45  F   UNL A   1      46.268  33.408  26.306  1.00  0.00    -0.206 F 
ATOM     46  C   UNL A   1      47.802  35.445  28.867  1.00  0.00     0.060 A 
BRANCH  46  47
ATOM     47  S   UNL A   1      48.355  37.145  29.126  1.00  0.00     0.124 S 
ATOM     48  O   UNL A   1      47.422  37.600  30.153  1.00  0.00    -0.237 OA
ATOM     49  O   UNL A   1      49.736  36.964  29.562  1.00  0.00    -0.237 OA
ATOM     50  O   UNL A   1      48.192  37.758  27.812  1.00  0.00    -0.744 OA
ENDBRANCH  46  47
ENDBRANCH  25  39
BRANCH  26  51
ATOM     51  C   UNL A   1      43.490  23.555  26.864  1.00  0.00     0.058 A 
ATOM     52  C   UNL A   1      43.322  23.058  25.563  1.00  0.00     0.135 A 
ATOM     53  C   UNL A   1      43.205  22.696  27.936  1.00  0.00     0.135 A 
ATOM     54  F   UNL A   1      43.582  23.843  24.507  1.00  0.00    -0.206 F 
ATOM     55  C   UNL A   1      42.884  21.759  25.332  1.00  0.00     0.059 A 
ATOM     56  C   UNL A   1      42.789  21.386  27.732  1.00  0.00     0.059 A 
ATOM     57  F   UNL A   1      43.371  23.120  29.199  1.00  0.00    -0.206 F 
ATOM     58  C   UNL A   1      42.623  20.929  26.424  1.00  0.00     0.060 A 
BRANCH  58  59
ATOM     59  S   UNL A   1      42.121  19.221  26.121  1.00  0.00     0.124 S 
ATOM     60  O   UNL A   1      40.685  19.372  25.914  1.00  0.00    -0.237 OA
ATOM     61  O   UNL A   1      42.905  18.872  24.940  1.00  0.00    -0.237 OA
ATOM     62  O   UNL A   1      42.516  18.536  27.348  1.00  0.00    -0.744 OA
ENDBRANCH  58  59
ENDBRANCH  26  51
BRANCH  38  63
ATOM     63  C   UNL A   1      49.788  26.499  26.458  1.00  0.00     0.058 A 
ATOM     64  C   UNL A   1      50.272  26.548  25.142  1.00  0.00     0.135 A 
ATOM     65  C   UNL A   1      50.607  25.926  27.443  1.00  0.00     0.135 A 
ATOM     66  F   UNL A   1      49.521  27.077  24.165  1.00  0.00    -0.206 F 
ATOM     67  C   UNL A   1      51.514  26.018  24.807  1.00  0.00     0.059 A 
ATOM     68  C   UNL A   1      51.862  25.411  27.135  1.00  0.00     0.059 A 
ATOM     69  F   UNL A   1      50.191  25.864  28.717  1.00  0.00    -0.206 F 
ATOM     70  C   UNL A   1      52.299  25.446  25.810  1.00  0.00     0.060 A 
BRANCH  70  71
ATOM     71  S   UNL A   1      53.912  24.767  25.371  1.00  0.00     0.124 S 
ATOM     72  O   UNL A   1      54.675  25.011  26.592  1.00  0.00    -0.237 OA
ATOM     73  O   UNL A   1      53.601  23.369  25.088  1.00  0.00    -0.237 OA
ATOM     74  O   UNL A   1      54.308  25.561  24.213  1.00  0.00    -0.744 OA
ENDBRANCH  70  71
ENDBRANCH  38  63
ENDBRANCH  12  13
ENDBRANCH   5   7
ENDBRANCH   2   3
ENDBRANCH   1   2
BRANCH   1  75
ATOM     75  C   UNL A   1      38.510  34.140  29.409  1.00  0.00     0.023 C 
BRANCH  75  76
ATOM     76  C   UNL A   1      39.773  33.374  29.799  1.00  0.00     0.116 C 
BRANCH  76  77
ATOM     77  N   UNL A   1      40.806  34.270  30.270  1.00  0.00    -0.354 N 
ATOM     78  C   UNL A   1      41.465  34.331  31.464  1.00  0.00     0.247 C 
ATOM     79  H   UNL A   1      41.080  34.955  29.618  1.00  0.00     0.163 HD
ATOM     80  O   UNL A   1      42.183  35.321  31.652  1.00  0.00    -0.272 OA
BRANCH  78  81
ATOM     81  C   UNL A   1      41.246  33.301  32.619  1.00  0.00     0.211 C 
BRANCH  81  82
ATOM     82  C   UNL A   1      42.624  32.659  32.888  1.00  0.00    -0.016 A 
ATOM     83  C   UNL A   1      42.807  31.583  33.775  1.00  0.00     0.006 A 
ATOM     84  C   UNL A   1      43.765  33.214  32.283  1.00  0.00     0.006 A 
ATOM     85  C   UNL A   1      44.085  31.115  34.088  1.00  0.00     0.000 A 
ATOM     86  C   UNL A   1      45.041  32.725  32.576  1.00  0.00     0.000 A 
ATOM     87  C   UNL A   1      45.202  31.689  33.491  1.00  0.00     0.000 A 
ENDBRANCH  81  82
BRANCH  81  88
ATOM     88  N   UNL A   1      40.512  33.755  33.829  1.00  0.00    -0.276 N 
ATOM     89  C   UNL A   1      39.126  33.820  33.759  1.00  0.00     0.267 C 
ATOM     90  C   UNL A   1      41.023  34.601  34.794  1.00  0.00     0.149 C 
ATOM     91  O   UNL A   1      38.454  33.627  32.757  1.00  0.00    -0.268 OA
ATOM     92  C   UNL A   1      38.545  34.333  35.033  1.00  0.00     0.084 C 
ATOM     93  S   UNL A   1      39.818  34.856  36.058  1.00  0.00    -0.054 SA
ATOM     94  S   UNL A   1      42.502  35.365  34.891  1.00  0.00    -0.052 S 
ATOM     95  C   UNL A   1      37.250  34.473  35.347  1.00  0.00     0.068 C 
BRANCH  95  96
ATOM     96  C   UNL A   1      36.212  34.122  34.450  1.00  0.00     0.128 A 
ATOM     97  C   UNL A   1      35.535  32.919  34.297  1.00  0.00     0.051 A 
ATOM     98  O   UNL A   1      35.720  35.003  33.519  1.00  0.00    -0.457 OA
ATOM     99  C   UNL A   1      34.631  33.070  33.219  1.00  0.00     0.051 A 
ATOM    100  C   UNL A   1      34.794  34.356  32.759  1.00  0.00     0.134 A 
BRANCH 100 101
ATOM    101  C   UNL A   1      34.207  35.128  31.677  1.00  0.00     0.017 A 
ATOM    102  C   UNL A   1      33.863  36.476  31.867  1.00  0.00     0.015 A 
ATOM    103  C   UNL A   1      33.998  34.541  30.421  1.00  0.00     0.015 A 
ATOM    104  C   UNL A   1      33.325  37.225  30.819  1.00  0.00     0.040 A 
ATOM    105  C   UNL A   1      33.449  35.288  29.375  1.00  0.00     0.040 A 
ATOM    106  C   UNL A   1      33.121  36.622  29.584  1.00  0.00     0.123 A 
ATOM    107  F   UNL A   1      32.600  37.337  28.578  1.00  0.00    -0.207 F 
ENDBRANCH 100 101
ENDBRANCH  95  96
ENDBRANCH  81  88
ENDBRANCH  78  81
ENDBRANCH  76  77
ENDBRANCH  75  76
ENDBRANCH   1  75
TORSDOF 18
ENDMDL
