MODEL 1
REMARK VINA RESULT:     -11.8      0.000      0.000
REMARK SMILES COc1ccc(O[C@H]2CC[C@@]([NH2+]C(C)C)(C(=O)NCCCCNC(=O)c3ccc(-c4c5nc(c(-c6c(F)cc(S(=O)(=O)[O-])cc6F)c6ccc([nH]6)c(-c6c(F)cc(S(=O)(=O)[O-])cc6F)c6nc(c(-c7c(F)cc(S(=O)(=O)[O-])cc7F)c7ccc4[nH]7)C=C6)C=C5)cc3)C2)cc1
REMARK SMILES IDX 20 1 19 2 18 3 16 4 17 5 11 7 8 8 9 9 92 10 10 11 7 12 6 13
REMARK SMILES IDX 3 14 4 15 94 16 5 17 93 18 2 19 1 20 12 21 13 24 14 25 15 26
REMARK SMILES IDX 21 27 22 28 23 29 24 30 25 32 26 33 27 34 91 35 28 36 90 37
REMARK SMILES IDX 29 38 30 39 31 40 84 41 32 42 89 43 83 44 85 45 33 46 88 47
REMARK SMILES IDX 82 48 81 49 34 51 68 52 47 53 67 54 48 55 51 56 66 57 86 58
REMARK SMILES IDX 49 59 50 60 65 62 87 63 52 64 35 65 36 66 45 67 37 68 38 69
REMARK SMILES IDX 44 70 46 71 39 72 40 73 41 74 42 75 43 76 69 77 70 78 79 79
REMARK SMILES IDX 71 80 72 81 78 82 80 83 73 84 74 85 75 86 76 87 77 88 53 89
REMARK SMILES IDX 54 90 63 91 55 92 56 93 62 94 64 95 57 96 58 97 59 98 60 99
REMARK SMILES IDX 61 100
REMARK H PARENT 18 6 12 22 12 23 23 31 85 50 51 61
REMARK Flexibility Score: inf
ROOT
ATOM      1  C   UNL A   1      37.853  21.925  25.391  1.00  0.00     0.023 C 
ENDROOT
BRANCH   1   2
ATOM      2  C   UNL A   1      36.581  21.077  25.389  1.00  0.00     0.116 C 
BRANCH   2   3
ATOM      3  N   UNL A   1      35.684  21.452  26.466  1.00  0.00    -0.351 N 
ATOM      4  C   UNL A   1      34.315  21.431  26.519  1.00  0.00     0.281 C 
ATOM      5  O   UNL A   1      33.794  21.717  27.601  1.00  0.00    -0.268 OA
ATOM      6  H   UNL A   1      36.128  21.769  27.286  1.00  0.00     0.163 HD
BRANCH   4   7
ATOM      7  C   UNL A   1      33.473  20.978  25.279  1.00  0.00     0.179 C 
ATOM      8  C   UNL A   1      31.752  22.658  24.778  1.00  0.00     0.180 C 
ATOM      9  C   UNL A   1      32.636  22.538  23.545  1.00  0.00     0.052 C 
ATOM     10  C   UNL A   1      31.963  21.295  25.441  1.00  0.00     0.124 C 
ATOM     11  C   UNL A   1      33.881  21.815  24.036  1.00  0.00     0.083 C 
BRANCH   8  12
ATOM     12  O   UNL A   1      32.202  23.660  25.685  1.00  0.00    -0.490 OA
BRANCH  12  13
ATOM     13  C   UNL A   1      31.802  24.951  25.503  1.00  0.00     0.119 A 
ATOM     14  C   UNL A   1      31.331  27.687  25.106  1.00  0.00     0.119 A 
ATOM     15  C   UNL A   1      30.424  26.738  24.634  1.00  0.00     0.050 A 
ATOM     16  C   UNL A   1      32.443  27.271  25.834  1.00  0.00     0.050 A 
ATOM     17  C   UNL A   1      30.655  25.374  24.835  1.00  0.00     0.050 A 
ATOM     18  C   UNL A   1      32.678  25.907  26.023  1.00  0.00     0.050 A 
BRANCH  14  19
ATOM     19  O   UNL A   1      31.021  28.992  24.833  1.00  0.00    -0.497 OA
ATOM     20  C   UNL A   1      31.815  29.942  25.539  1.00  0.00     0.278 C 
ENDBRANCH  14  19
ENDBRANCH  12  13
ENDBRANCH   8  12
BRANCH   7  21
ATOM     21  N   UNL A   1      33.705  19.530  25.010  1.00  0.00    -0.332 N 
ATOM     22  H   UNL A   1      34.090  19.118  25.859  1.00  0.00     0.347 HD
ATOM     23  H   UNL A   1      34.325  19.509  24.200  1.00  0.00     0.347 HD
BRANCH  21  24
ATOM     24  C   UNL A   1      32.539  18.725  24.617  1.00  0.00     0.176 C 
ATOM     25  C   UNL A   1      32.514  18.366  23.130  1.00  0.00     0.075 C 
ATOM     26  C   UNL A   1      32.586  17.435  25.443  1.00  0.00     0.075 C 
ENDBRANCH  21  24
ENDBRANCH   7  21
ENDBRANCH   4   7
ENDBRANCH   2   3
ENDBRANCH   1   2
BRANCH   1  27
ATOM     27  C   UNL A   1      37.622  23.420  25.622  1.00  0.00     0.023 C 
BRANCH  27  28
ATOM     28  C   UNL A   1      38.665  24.105  26.497  1.00  0.00     0.116 C 
BRANCH  28  29
ATOM     29  N   UNL A   1      39.901  24.384  25.783  1.00  0.00    -0.352 N 
ATOM     30  C   UNL A   1      40.849  25.346  26.030  1.00  0.00     0.251 C 
ATOM     31  H   UNL A   1      40.084  23.800  25.012  1.00  0.00     0.163 HD
ATOM     32  O   UNL A   1      41.752  25.531  25.215  1.00  0.00    -0.269 OA
BRANCH  30  33
ATOM     33  C   UNL A   1      40.769  26.175  27.252  1.00  0.00     0.039 A 
ATOM     34  C   UNL A   1      41.552  27.327  27.334  1.00  0.00     0.014 A 
ATOM     35  C   UNL A   1      39.930  25.823  28.314  1.00  0.00     0.014 A 
ATOM     36  C   UNL A   1      41.453  28.154  28.455  1.00  0.00     0.010 A 
ATOM     37  C   UNL A   1      39.768  26.692  29.392  1.00  0.00     0.010 A 
ATOM     38  C   UNL A   1      40.534  27.863  29.478  1.00  0.00    -0.014 A 
BRANCH  38  39
ATOM     39  C   UNL A   1      40.372  28.783  30.636  1.00  0.00     0.031 A 
ATOM     40  C   UNL A   1      41.227  28.624  31.865  1.00  0.00     0.074 A 
ATOM     41  C   UNL A   1      39.436  29.754  30.585  1.00  0.00     0.049 A 
ATOM     42  N   UNL A   1      41.231  29.334  32.965  1.00  0.00    -0.248 NA
ATOM     43  C   UNL A   1      42.188  27.509  31.872  1.00  0.00     0.031 C 
ATOM     44  C   UNL A   1      38.503  29.971  29.477  1.00  0.00     0.029 A 
ATOM     45  N   UNL A   1      39.114  30.739  31.485  1.00  0.00    -0.354 N 
ATOM     46  C   UNL A   1      42.196  28.761  33.786  1.00  0.00     0.074 A 
ATOM     47  C   UNL A   1      42.704  27.599  33.090  1.00  0.00     0.031 C 
ATOM     48  C   UNL A   1      37.737  31.040  29.747  1.00  0.00     0.029 A 
ATOM     49  C   UNL A   1      38.096  31.563  31.061  1.00  0.00     0.049 A 
ATOM     50  H   UNL A   1      39.567  30.846  32.352  1.00  0.00     0.167 HD
ATOM     51  C   UNL A   1      42.646  29.185  34.990  1.00  0.00     0.037 A 
ATOM     52  C   UNL A   1      37.517  32.619  31.664  1.00  0.00     0.037 A 
ATOM     53  C   UNL A   1      42.142  30.346  35.677  1.00  0.00     0.049 A 
ATOM     54  C   UNL A   1      38.026  33.061  33.011  1.00  0.00     0.074 A 
ATOM     55  C   UNL A   1      42.547  30.872  36.892  1.00  0.00     0.029 A 
ATOM     56  N   UNL A   1      41.123  31.164  35.211  1.00  0.00    -0.354 N 
ATOM     57  N   UNL A   1      38.984  32.542  33.742  1.00  0.00    -0.248 NA
ATOM     58  C   UNL A   1      37.386  34.241  33.608  1.00  0.00     0.031 C 
ATOM     59  C   UNL A   1      41.745  31.982  37.179  1.00  0.00     0.029 A 
ATOM     60  C   UNL A   1      40.878  32.182  36.118  1.00  0.00     0.049 A 
ATOM     61  H   UNL A   1      40.645  31.039  34.358  1.00  0.00     0.167 HD
ATOM     62  C   UNL A   1      39.081  33.350  34.870  1.00  0.00     0.074 A 
ATOM     63  C   UNL A   1      38.100  34.403  34.712  1.00  0.00     0.031 C 
ATOM     64  C   UNL A   1      39.902  33.229  35.943  1.00  0.00     0.037 A 
BRANCH  51  65
ATOM     65  C   UNL A   1      43.760  28.402  35.635  1.00  0.00     0.058 A 
ATOM     66  C   UNL A   1      45.108  28.686  35.359  1.00  0.00     0.135 A 
ATOM     67  C   UNL A   1      43.486  27.393  36.573  1.00  0.00     0.135 A 
ATOM     68  F   UNL A   1      45.429  29.628  34.457  1.00  0.00    -0.206 F 
ATOM     69  C   UNL A   1      46.142  27.986  35.970  1.00  0.00     0.059 A 
ATOM     70  C   UNL A   1      44.506  26.701  37.222  1.00  0.00     0.059 A 
ATOM     71  F   UNL A   1      42.217  27.077  36.875  1.00  0.00    -0.206 F 
ATOM     72  C   UNL A   1      45.831  26.997  36.904  1.00  0.00     0.060 A 
BRANCH  72  73
ATOM     73  S   UNL A   1      47.187  26.115  37.705  1.00  0.00     0.124 S 
ATOM     74  O   UNL A   1      47.425  26.949  38.879  1.00  0.00    -0.237 OA
ATOM     75  O   UNL A   1      46.595  24.807  37.966  1.00  0.00    -0.237 OA
ATOM     76  O   UNL A   1      48.246  26.132  36.700  1.00  0.00    -0.744 OA
ENDBRANCH  72  73
ENDBRANCH  51  65
BRANCH  52  77
ATOM     77  C   UNL A   1      36.396  33.341  31.000  1.00  0.00     0.058 A 
ATOM     78  C   UNL A   1      36.619  34.183  29.900  1.00  0.00     0.135 A 
ATOM     79  C   UNL A   1      35.078  33.219  31.469  1.00  0.00     0.135 A 
ATOM     80  F   UNL A   1      37.861  34.335  29.414  1.00  0.00    -0.206 F 
ATOM     81  C   UNL A   1      35.586  34.907  29.312  1.00  0.00     0.059 A 
ATOM     82  C   UNL A   1      34.024  33.907  30.878  1.00  0.00     0.059 A 
ATOM     83  F   UNL A   1      34.804  32.412  32.506  1.00  0.00    -0.206 F 
ATOM     84  C   UNL A   1      34.291  34.765  29.812  1.00  0.00     0.060 A 
BRANCH  84  85
ATOM     85  S   UNL A   1      32.954  35.699  29.037  1.00  0.00     0.124 S 
ATOM     86  O   UNL A   1      32.372  34.699  28.151  1.00  0.00    -0.237 OA
ATOM     87  O   UNL A   1      32.142  36.085  30.188  1.00  0.00    -0.237 OA
ATOM     88  O   UNL A   1      33.653  36.799  28.377  1.00  0.00    -0.744 OA
ENDBRANCH  84  85
ENDBRANCH  52  77
BRANCH  64  89
ATOM     89  C   UNL A   1      39.802  34.286  37.010  1.00  0.00     0.058 A 
ATOM     90  C   UNL A   1      39.104  34.068  38.208  1.00  0.00     0.135 A 
ATOM     91  C   UNL A   1      40.429  35.532  36.837  1.00  0.00     0.135 A 
ATOM     92  F   UNL A   1      38.482  32.898  38.424  1.00  0.00    -0.206 F 
ATOM     93  C   UNL A   1      38.995  35.059  39.178  1.00  0.00     0.059 A 
ATOM     94  C   UNL A   1      40.363  36.525  37.809  1.00  0.00     0.059 A 
ATOM     95  F   UNL A   1      41.123  35.790  35.717  1.00  0.00    -0.206 F 
ATOM     96  C   UNL A   1      39.626  36.287  38.967  1.00  0.00     0.060 A 
BRANCH  96  97
ATOM     97  S   UNL A   1      39.479  37.564  40.235  1.00  0.00     0.124 S 
ATOM     98  O   UNL A   1      40.874  37.934  40.442  1.00  0.00    -0.237 OA
ATOM     99  O   UNL A   1      38.649  38.566  39.572  1.00  0.00    -0.237 OA
ATOM    100  O   UNL A   1      38.841  36.866  41.347  1.00  0.00    -0.744 OA
ENDBRANCH  96  97
ENDBRANCH  64  89
ENDBRANCH  38  39
ENDBRANCH  30  33
ENDBRANCH  28  29
ENDBRANCH  27  28
ENDBRANCH   1  27
TORSDOF 19
ENDMDL
MODEL 2
REMARK VINA RESULT:     -11.7      1.248      3.910
REMARK SMILES COc1ccc(O[C@H]2CC[C@@]([NH2+]C(C)C)(C(=O)NCCCCNC(=O)c3ccc(-c4c5nc(c(-c6c(F)cc(S(=O)(=O)[O-])cc6F)c6ccc([nH]6)c(-c6c(F)cc(S(=O)(=O)[O-])cc6F)c6nc(c(-c7c(F)cc(S(=O)(=O)[O-])cc7F)c7ccc4[nH]7)C=C6)C=C5)cc3)C2)cc1
REMARK SMILES IDX 20 1 19 2 18 3 16 4 17 5 11 7 8 8 9 9 92 10 10 11 7 12 6 13
REMARK SMILES IDX 3 14 4 15 94 16 5 17 93 18 2 19 1 20 12 21 13 24 14 25 15 26
REMARK SMILES IDX 21 27 22 28 23 29 24 30 25 32 26 33 27 34 91 35 28 36 90 37
REMARK SMILES IDX 29 38 30 39 31 40 84 41 32 42 89 43 83 44 85 45 33 46 88 47
REMARK SMILES IDX 82 48 81 49 34 51 68 52 47 53 67 54 48 55 51 56 66 57 86 58
REMARK SMILES IDX 49 59 50 60 65 62 87 63 52 64 35 65 36 66 45 67 37 68 38 69
REMARK SMILES IDX 44 70 46 71 39 72 40 73 41 74 42 75 43 76 69 77 70 78 79 79
REMARK SMILES IDX 71 80 72 81 78 82 80 83 73 84 74 85 75 86 76 87 77 88 53 89
REMARK SMILES IDX 54 90 63 91 55 92 56 93 62 94 64 95 57 96 58 97 59 98 60 99
REMARK SMILES IDX 61 100
REMARK H PARENT 18 6 12 22 12 23 23 31 85 50 51 61
REMARK Flexibility Score: inf
ROOT
ATOM      1  C   UNL A   1      38.159  23.982  26.131  1.00  0.00     0.023 C 
ENDROOT
BRANCH   1   2
ATOM      2  C   UNL A   1      36.802  23.545  25.579  1.00  0.00     0.116 C 
BRANCH   2   3
ATOM      3  N   UNL A   1      35.861  23.248  26.643  1.00  0.00    -0.351 N 
ATOM      4  C   UNL A   1      34.495  23.137  26.605  1.00  0.00     0.281 C 
ATOM      5  O   UNL A   1      33.935  22.780  27.646  1.00  0.00    -0.268 OA
ATOM      6  H   UNL A   1      36.266  23.103  27.529  1.00  0.00     0.163 HD
BRANCH   4   7
ATOM      7  C   UNL A   1      33.711  23.370  25.270  1.00  0.00     0.179 C 
ATOM      8  C   UNL A   1      33.562  21.265  24.011  1.00  0.00     0.180 C 
ATOM      9  C   UNL A   1      32.138  21.720  24.297  1.00  0.00     0.052 C 
ATOM     10  C   UNL A   1      34.327  22.589  24.079  1.00  0.00     0.124 C 
ATOM     11  C   UNL A   1      32.284  22.769  25.389  1.00  0.00     0.083 C 
BRANCH   8  12
ATOM     12  O   UNL A   1      34.081  20.407  25.022  1.00  0.00    -0.490 OA
BRANCH  12  13
ATOM     13  C   UNL A   1      33.786  19.077  24.984  1.00  0.00     0.119 A 
ATOM     14  C   UNL A   1      33.536  16.284  24.906  1.00  0.00     0.119 A 
ATOM     15  C   UNL A   1      32.579  17.061  25.556  1.00  0.00     0.050 A 
ATOM     16  C   UNL A   1      34.587  16.907  24.238  1.00  0.00     0.050 A 
ATOM     17  C   UNL A   1      32.699  18.454  25.593  1.00  0.00     0.050 A 
ATOM     18  C   UNL A   1      34.712  18.298  24.286  1.00  0.00     0.050 A 
BRANCH  14  19
ATOM     19  O   UNL A   1      33.335  14.931  24.954  1.00  0.00    -0.497 OA
ATOM     20  C   UNL A   1      32.238  14.530  25.769  1.00  0.00     0.278 C 
ENDBRANCH  14  19
ENDBRANCH  12  13
ENDBRANCH   8  12
BRANCH   7  21
ATOM     21  N   UNL A   1      33.620  24.830  24.983  1.00  0.00    -0.332 N 
ATOM     22  H   UNL A   1      33.761  24.954  23.980  1.00  0.00     0.347 HD
ATOM     23  H   UNL A   1      34.330  25.259  25.576  1.00  0.00     0.347 HD
BRANCH  21  24
ATOM     24  C   UNL A   1      32.365  25.508  25.340  1.00  0.00     0.176 C 
ATOM     25  C   UNL A   1      32.542  26.624  26.370  1.00  0.00     0.075 C 
ATOM     26  C   UNL A   1      31.793  26.103  24.049  1.00  0.00     0.075 C 
ENDBRANCH  21  24
ENDBRANCH   7  21
ENDBRANCH   4   7
ENDBRANCH   2   3
ENDBRANCH   1   2
BRANCH   1  27
ATOM     27  C   UNL A   1      39.101  22.831  26.488  1.00  0.00     0.023 C 
BRANCH  27  28
ATOM     28  C   UNL A   1      40.471  23.257  27.005  1.00  0.00     0.116 C 
BRANCH  28  29
ATOM     29  N   UNL A   1      41.240  23.992  26.014  1.00  0.00    -0.352 N 
ATOM     30  C   UNL A   1      41.666  25.297  26.038  1.00  0.00     0.251 C 
ATOM     31  H   UNL A   1      41.492  23.481  25.211  1.00  0.00     0.163 HD
ATOM     32  O   UNL A   1      42.170  25.790  25.030  1.00  0.00    -0.269 OA
BRANCH  30  33
ATOM     33  C   UNL A   1      41.492  26.116  27.258  1.00  0.00     0.039 A 
ATOM     34  C   UNL A   1      42.400  27.145  27.511  1.00  0.00     0.014 A 
ATOM     35  C   UNL A   1      40.443  25.874  28.151  1.00  0.00     0.014 A 
ATOM     36  C   UNL A   1      42.223  27.965  28.627  1.00  0.00     0.010 A 
ATOM     37  C   UNL A   1      40.219  26.745  29.215  1.00  0.00     0.010 A 
ATOM     38  C   UNL A   1      41.111  27.796  29.471  1.00  0.00    -0.014 A 
BRANCH  38  39
ATOM     39  C   UNL A   1      40.881  28.717  30.616  1.00  0.00     0.031 A 
ATOM     40  C   UNL A   1      41.713  28.605  31.866  1.00  0.00     0.074 A 
ATOM     41  C   UNL A   1      39.905  29.643  30.534  1.00  0.00     0.049 A 
ATOM     42  N   UNL A   1      41.658  29.322  32.960  1.00  0.00    -0.248 NA
ATOM     43  C   UNL A   1      42.722  27.534  31.906  1.00  0.00     0.031 C 
ATOM     44  C   UNL A   1      38.989  29.811  29.403  1.00  0.00     0.029 A 
ATOM     45  N   UNL A   1      39.517  30.621  31.418  1.00  0.00    -0.354 N 
ATOM     46  C   UNL A   1      42.628  28.800  33.808  1.00  0.00     0.074 A 
ATOM     47  C   UNL A   1      43.203  27.656  33.135  1.00  0.00     0.031 C 
ATOM     48  C   UNL A   1      38.171  30.846  29.645  1.00  0.00     0.029 A 
ATOM     49  C   UNL A   1      38.474  31.394  30.963  1.00  0.00     0.049 A 
ATOM     50  H   UNL A   1      39.944  30.754  32.294  1.00  0.00     0.167 HD
ATOM     51  C   UNL A   1      43.030  29.252  35.019  1.00  0.00     0.037 A 
ATOM     52  C   UNL A   1      37.834  32.429  31.543  1.00  0.00     0.037 A 
ATOM     53  C   UNL A   1      42.458  30.395  35.684  1.00  0.00     0.049 A 
ATOM     54  C   UNL A   1      38.290  32.903  32.898  1.00  0.00     0.074 A 
ATOM     55  C   UNL A   1      42.810  30.948  36.903  1.00  0.00     0.029 A 
ATOM     56  N   UNL A   1      41.415  31.163  35.186  1.00  0.00    -0.354 N 
ATOM     57  N   UNL A   1      39.253  32.433  33.655  1.00  0.00    -0.248 NA
ATOM     58  C   UNL A   1      37.585  34.057  33.469  1.00  0.00     0.031 C 
ATOM     59  C   UNL A   1      41.953  32.023  37.162  1.00  0.00     0.029 A 
ATOM     60  C   UNL A   1      41.103  32.176  36.079  1.00  0.00     0.049 A 
ATOM     61  H   UNL A   1      40.964  31.011  34.324  1.00  0.00     0.167 HD
ATOM     62  C   UNL A   1      39.286  33.253  34.779  1.00  0.00     0.074 A 
ATOM     63  C   UNL A   1      38.264  34.260  34.588  1.00  0.00     0.031 C 
ATOM     64  C   UNL A   1      40.086  33.177  35.871  1.00  0.00     0.037 A 
BRANCH  51  65
ATOM     65  C   UNL A   1      44.162  28.525  35.697  1.00  0.00     0.058 A 
ATOM     66  C   UNL A   1      43.921  27.465  36.587  1.00  0.00     0.135 A 
ATOM     67  C   UNL A   1      45.499  28.852  35.419  1.00  0.00     0.135 A 
ATOM     68  F   UNL A   1      42.662  27.121  36.903  1.00  0.00    -0.206 F 
ATOM     69  C   UNL A   1      44.962  26.771  37.195  1.00  0.00     0.059 A 
ATOM     70  C   UNL A   1      46.558  28.150  35.991  1.00  0.00     0.059 A 
ATOM     71  F   UNL A   1      45.790  29.856  34.577  1.00  0.00    -0.206 F 
ATOM     72  C   UNL A   1      46.278  27.118  36.887  1.00  0.00     0.060 A 
BRANCH  72  73
ATOM     73  S   UNL A   1      47.615  26.191  37.668  1.00  0.00     0.124 S 
ATOM     74  O   UNL A   1      47.461  26.580  39.067  1.00  0.00    -0.237 OA
ATOM     75  O   UNL A   1      47.261  24.811  37.352  1.00  0.00    -0.237 OA
ATOM     76  O   UNL A   1      48.814  26.696  37.006  1.00  0.00    -0.744 OA
ENDBRANCH  72  73
ENDBRANCH  51  65
BRANCH  52  77
ATOM     77  C   UNL A   1      36.698  33.094  30.846  1.00  0.00     0.058 A 
ATOM     78  C   UNL A   1      36.913  33.970  29.771  1.00  0.00     0.135 A 
ATOM     79  C   UNL A   1      35.373  32.884  31.258  1.00  0.00     0.135 A 
ATOM     80  F   UNL A   1      38.161  34.206  29.339  1.00  0.00    -0.206 F 
ATOM     81  C   UNL A   1      35.862  34.642  29.154  1.00  0.00     0.059 A 
ATOM     82  C   UNL A   1      34.303  33.518  30.637  1.00  0.00     0.059 A 
ATOM     83  F   UNL A   1      35.108  32.041  32.269  1.00  0.00    -0.206 F 
ATOM     84  C   UNL A   1      34.559  34.411  29.598  1.00  0.00     0.060 A 
BRANCH  84  85
ATOM     85  S   UNL A   1      33.200  35.279  28.786  1.00  0.00     0.124 S 
ATOM     86  O   UNL A   1      32.438  35.766  29.929  1.00  0.00    -0.237 OA
ATOM     87  O   UNL A   1      33.905  36.294  28.008  1.00  0.00    -0.237 OA
ATOM     88  O   UNL A   1      32.557  34.231  27.997  1.00  0.00    -0.744 OA
ENDBRANCH  84  85
ENDBRANCH  52  77
BRANCH  64  89
ATOM     89  C   UNL A   1      39.913  34.237  36.926  1.00  0.00     0.058 A 
ATOM     90  C   UNL A   1      40.585  35.468  36.858  1.00  0.00     0.135 A 
ATOM     91  C   UNL A   1      39.049  34.023  38.013  1.00  0.00     0.135 A 
ATOM     92  F   UNL A   1      41.425  35.725  35.844  1.00  0.00    -0.206 F 
ATOM     93  C   UNL A   1      40.439  36.432  37.851  1.00  0.00     0.059 A 
ATOM     94  C   UNL A   1      38.861  34.987  38.999  1.00  0.00     0.059 A 
ATOM     95  F   UNL A   1      38.370  32.870  38.121  1.00  0.00    -0.206 F 
ATOM     96  C   UNL A   1      39.576  36.181  38.920  1.00  0.00     0.060 A 
BRANCH  96  97
ATOM     97  S   UNL A   1      39.394  37.441  40.200  1.00  0.00     0.124 S 
ATOM     98  O   UNL A   1      38.415  38.336  39.593  1.00  0.00    -0.237 OA
ATOM     99  O   UNL A   1      38.920  36.661  41.339  1.00  0.00    -0.237 OA
ATOM    100  O   UNL A   1      40.742  37.983  40.336  1.00  0.00    -0.744 OA
ENDBRANCH  96  97
ENDBRANCH  64  89
ENDBRANCH  38  39
ENDBRANCH  30  33
ENDBRANCH  28  29
ENDBRANCH  27  28
ENDBRANCH   1  27
TORSDOF 19
ENDMDL
MODEL 3
REMARK VINA RESULT:     -11.2      6.346      8.391
REMARK SMILES COc1ccc(O[C@H]2CC[C@@]([NH2+]C(C)C)(C(=O)NCCCCNC(=O)c3ccc(-c4c5nc(c(-c6c(F)cc(S(=O)(=O)[O-])cc6F)c6ccc([nH]6)c(-c6c(F)cc(S(=O)(=O)[O-])cc6F)c6nc(c(-c7c(F)cc(S(=O)(=O)[O-])cc7F)c7ccc4[nH]7)C=C6)C=C5)cc3)C2)cc1
REMARK SMILES IDX 20 1 19 2 18 3 16 4 17 5 11 7 8 8 9 9 92 10 10 11 7 12 6 13
REMARK SMILES IDX 3 14 4 15 94 16 5 17 93 18 2 19 1 20 12 21 13 24 14 25 15 26
REMARK SMILES IDX 21 27 22 28 23 29 24 30 25 32 26 33 27 34 91 35 28 36 90 37
REMARK SMILES IDX 29 38 30 39 31 40 84 41 32 42 89 43 83 44 85 45 33 46 88 47
REMARK SMILES IDX 82 48 81 49 34 51 68 52 47 53 67 54 48 55 51 56 66 57 86 58
REMARK SMILES IDX 49 59 50 60 65 62 87 63 52 64 35 65 36 66 45 67 37 68 38 69
REMARK SMILES IDX 44 70 46 71 39 72 40 73 41 74 42 75 43 76 69 77 70 78 79 79
REMARK SMILES IDX 71 80 72 81 78 82 80 83 73 84 74 85 75 86 76 87 77 88 53 89
REMARK SMILES IDX 54 90 63 91 55 92 56 93 62 94 64 95 57 96 58 97 59 98 60 99
REMARK SMILES IDX 61 100
REMARK H PARENT 18 6 12 22 12 23 23 31 85 50 51 61
REMARK Flexibility Score: inf
ROOT
ATOM      1  C   UNL A   1      37.393  20.223  25.073  1.00  0.00     0.023 C 
ENDROOT
BRANCH   1   2
ATOM      2  C   UNL A   1      36.515  21.472  25.143  1.00  0.00     0.116 C 
BRANCH   2   3
ATOM      3  N   UNL A   1      35.639  21.448  26.300  1.00  0.00    -0.351 N 
ATOM      4  C   UNL A   1      34.282  21.269  26.374  1.00  0.00     0.281 C 
ATOM      5  O   UNL A   1      33.790  21.199  27.504  1.00  0.00    -0.268 OA
ATOM      6  H   UNL A   1      36.089  21.580  27.166  1.00  0.00     0.163 HD
BRANCH   4   7
ATOM      7  C   UNL A   1      33.429  21.076  25.075  1.00  0.00     0.179 C 
ATOM      8  C   UNL A   1      31.671  22.789  24.968  1.00  0.00     0.180 C 
ATOM      9  C   UNL A   1      32.537  22.955  23.727  1.00  0.00     0.052 C 
ATOM     10  C   UNL A   1      31.917  21.319  25.320  1.00  0.00     0.124 C 
ATOM     11  C   UNL A   1      33.802  22.169  24.037  1.00  0.00     0.083 C 
BRANCH   8  12
ATOM     12  O   UNL A   1      32.118  23.581  26.064  1.00  0.00    -0.490 OA
BRANCH  12  13
ATOM     13  C   UNL A   1      32.148  24.938  25.937  1.00  0.00     0.119 A 
ATOM     14  C   UNL A   1      31.898  27.731  25.858  1.00  0.00     0.119 A 
ATOM     15  C   UNL A   1      33.157  27.135  25.906  1.00  0.00     0.050 A 
ATOM     16  C   UNL A   1      30.762  26.928  25.784  1.00  0.00     0.050 A 
ATOM     17  C   UNL A   1      33.285  25.743  25.941  1.00  0.00     0.050 A 
ATOM     18  C   UNL A   1      30.890  25.537  25.832  1.00  0.00     0.050 A 
BRANCH  14  19
ATOM     19  O   UNL A   1      31.887  29.099  25.853  1.00  0.00    -0.497 OA
ATOM     20  C   UNL A   1      32.987  29.696  26.535  1.00  0.00     0.278 C 
ENDBRANCH  14  19
ENDBRANCH  12  13
ENDBRANCH   8  12
BRANCH   7  21
ATOM     21  N   UNL A   1      33.682  19.725  24.497  1.00  0.00    -0.332 N 
ATOM     22  H   UNL A   1      34.296  19.226  25.141  1.00  0.00     0.347 HD
ATOM     23  H   UNL A   1      34.077  19.903  23.574  1.00  0.00     0.347 HD
BRANCH  21  24
ATOM     24  C   UNL A   1      32.511  18.870  24.251  1.00  0.00     0.176 C 
ATOM     25  C   UNL A   1      32.420  18.353  22.814  1.00  0.00     0.075 C 
ATOM     26  C   UNL A   1      32.617  17.677  25.207  1.00  0.00     0.075 C 
ENDBRANCH  21  24
ENDBRANCH   7  21
ENDBRANCH   4   7
ENDBRANCH   2   3
ENDBRANCH   1   2
BRANCH   1  27
ATOM     27  C   UNL A   1      38.894  20.503  24.987  1.00  0.00     0.023 C 
BRANCH  27  28
ATOM     28  C   UNL A   1      39.641  20.427  26.313  1.00  0.00     0.116 C 
BRANCH  28  29
ATOM     29  N   UNL A   1      40.683  19.414  26.313  1.00  0.00    -0.352 N 
ATOM     30  C   UNL A   1      42.046  19.568  26.384  1.00  0.00     0.251 C 
ATOM     31  H   UNL A   1      40.367  18.484  26.254  1.00  0.00     0.163 HD
ATOM     32  O   UNL A   1      42.777  18.595  26.207  1.00  0.00    -0.269 OA
BRANCH  30  33
ATOM     33  C   UNL A   1      42.632  20.902  26.639  1.00  0.00     0.039 A 
ATOM     34  C   UNL A   1      42.891  21.741  25.555  1.00  0.00     0.014 A 
ATOM     35  C   UNL A   1      42.929  21.327  27.938  1.00  0.00     0.014 A 
ATOM     36  C   UNL A   1      43.394  23.024  25.776  1.00  0.00     0.010 A 
ATOM     37  C   UNL A   1      43.349  22.637  28.163  1.00  0.00     0.010 A 
ATOM     38  C   UNL A   1      43.594  23.498  27.085  1.00  0.00    -0.014 A 
BRANCH  38  39
ATOM     39  C   UNL A   1      44.057  24.891  27.324  1.00  0.00     0.031 A 
ATOM     40  C   UNL A   1      45.505  25.259  27.137  1.00  0.00     0.074 A 
ATOM     41  C   UNL A   1      43.171  25.823  27.732  1.00  0.00     0.049 A 
ATOM     42  N   UNL A   1      46.088  26.420  27.294  1.00  0.00    -0.248 NA
ATOM     43  C   UNL A   1      46.425  24.178  26.746  1.00  0.00     0.031 C 
ATOM     44  C   UNL A   1      41.754  25.577  28.011  1.00  0.00     0.029 A 
ATOM     45  N   UNL A   1      43.328  27.163  27.984  1.00  0.00    -0.354 N 
ATOM     46  C   UNL A   1      47.433  26.214  27.010  1.00  0.00     0.074 A 
ATOM     47  C   UNL A   1      47.595  24.801  26.747  1.00  0.00     0.031 C 
ATOM     48  C   UNL A   1      41.165  26.732  28.362  1.00  0.00     0.029 A 
ATOM     49  C   UNL A   1      42.167  27.792  28.371  1.00  0.00     0.049 A 
ATOM     50  H   UNL A   1      44.190  27.630  27.896  1.00  0.00     0.167 HD
ATOM     51  C   UNL A   1      48.435  27.122  26.937  1.00  0.00     0.037 A 
ATOM     52  C   UNL A   1      41.936  29.079  28.698  1.00  0.00     0.037 A 
ATOM     53  C   UNL A   1      48.269  28.529  27.194  1.00  0.00     0.049 A 
ATOM     54  C   UNL A   1      43.071  30.066  28.624  1.00  0.00     0.074 A 
ATOM     55  C   UNL A   1      49.216  29.536  27.125  1.00  0.00     0.029 A 
ATOM     56  N   UNL A   1      47.076  29.132  27.568  1.00  0.00    -0.354 N 
ATOM     57  N   UNL A   1      44.323  29.861  28.291  1.00  0.00    -0.248 NA
ATOM     58  C   UNL A   1      42.758  31.463  28.954  1.00  0.00     0.031 C 
ATOM     59  C   UNL A   1      48.607  30.739  27.498  1.00  0.00     0.029 A 
ATOM     60  C   UNL A   1      47.267  30.493  27.745  1.00  0.00     0.049 A 
ATOM     61  H   UNL A   1      46.219  28.661  27.689  1.00  0.00     0.167 HD
ATOM     62  C   UNL A   1      44.939  31.107  28.344  1.00  0.00     0.074 A 
ATOM     63  C   UNL A   1      43.916  32.061  28.717  1.00  0.00     0.031 C 
ATOM     64  C   UNL A   1      46.235  31.433  28.110  1.00  0.00     0.037 A 
BRANCH  51  65
ATOM     65  C   UNL A   1      49.800  26.626  26.538  1.00  0.00     0.058 A 
ATOM     66  C   UNL A   1      50.662  26.026  27.472  1.00  0.00     0.135 A 
ATOM     67  C   UNL A   1      50.235  26.702  25.205  1.00  0.00     0.135 A 
ATOM     68  F   UNL A   1      50.305  25.942  28.764  1.00  0.00    -0.206 F 
ATOM     69  C   UNL A   1      51.912  25.541  27.105  1.00  0.00     0.059 A 
ATOM     70  C   UNL A   1      51.471  26.194  24.809  1.00  0.00     0.059 A 
ATOM     71  F   UNL A   1      49.456  27.266  24.270  1.00  0.00    -0.206 F 
ATOM     72  C   UNL A   1      52.306  25.626  25.769  1.00  0.00     0.060 A 
BRANCH  72  73
ATOM     73  S   UNL A   1      53.924  24.970  25.308  1.00  0.00     0.124 S 
ATOM     74  O   UNL A   1      53.660  23.534  25.284  1.00  0.00    -0.237 OA
ATOM     75  O   UNL A   1      54.153  25.594  24.009  1.00  0.00    -0.237 OA
ATOM     76  O   UNL A   1      54.798  25.428  26.384  1.00  0.00    -0.744 OA
ENDBRANCH  72  73
ENDBRANCH  51  65
BRANCH  52  77
ATOM     77  C   UNL A   1      40.575  29.514  29.118  1.00  0.00     0.058 A 
ATOM     78  C   UNL A   1      40.269  29.754  30.467  1.00  0.00     0.135 A 
ATOM     79  C   UNL A   1      39.544  29.676  28.179  1.00  0.00     0.135 A 
ATOM     80  F   UNL A   1      41.218  29.611  31.405  1.00  0.00    -0.206 F 
ATOM     81  C   UNL A   1      38.985  30.102  30.874  1.00  0.00     0.059 A 
ATOM     82  C   UNL A   1      38.261  30.055  28.558  1.00  0.00     0.059 A 
ATOM     83  F   UNL A   1      39.786  29.479  26.874  1.00  0.00    -0.206 F 
ATOM     84  C   UNL A   1      37.985  30.246  29.911  1.00  0.00     0.060 A 
BRANCH  84  85
ATOM     85  S   UNL A   1      36.324  30.708  30.446  1.00  0.00     0.124 S 
ATOM     86  O   UNL A   1      36.062  29.715  31.480  1.00  0.00    -0.237 OA
ATOM     87  O   UNL A   1      36.521  32.078  30.910  1.00  0.00    -0.237 OA
ATOM     88  O   UNL A   1      35.530  30.577  29.227  1.00  0.00    -0.744 OA
ENDBRANCH  84  85
ENDBRANCH  52  77
BRANCH  64  89
ATOM     89  C   UNL A   1      46.609  32.887  28.212  1.00  0.00     0.058 A 
ATOM     90  C   UNL A   1      47.132  33.438  29.392  1.00  0.00     0.135 A 
ATOM     91  C   UNL A   1      46.456  33.739  27.105  1.00  0.00     0.135 A 
ATOM     92  F   UNL A   1      47.296  32.671  30.482  1.00  0.00    -0.206 F 
ATOM     93  C   UNL A   1      47.451  34.789  29.486  1.00  0.00     0.059 A 
ATOM     94  C   UNL A   1      46.802  35.085  27.165  1.00  0.00     0.059 A 
ATOM     95  F   UNL A   1      45.974  33.262  25.946  1.00  0.00    -0.206 F 
ATOM     96  C   UNL A   1      47.279  35.606  28.366  1.00  0.00     0.060 A 
BRANCH  96  97
ATOM     97  S   UNL A   1      47.699  37.357  28.500  1.00  0.00     0.124 S 
ATOM     98  O   UNL A   1      47.898  37.502  29.937  1.00  0.00    -0.237 OA
ATOM     99  O   UNL A   1      48.904  37.451  27.680  1.00  0.00    -0.237 OA
ATOM    100  O   UNL A   1      46.524  38.030  27.956  1.00  0.00    -0.744 OA
ENDBRANCH  96  97
ENDBRANCH  64  89
ENDBRANCH  38  39
ENDBRANCH  30  33
ENDBRANCH  28  29
ENDBRANCH  27  28
ENDBRANCH   1  27
TORSDOF 19
ENDMDL
