MODEL 1
REMARK VINA RESULT:     -10.4      0.000      0.000
REMARK SMILES CC[N@@H+]1CCC[C@@H]1C[N@@H+](C)C[C@H]([NH3+])C(=O)NCCCCNC(=O)c1ccc(-c2c3nc(c(-c4c(F)cc(S(=O)(=O)[O-])cc4F)c4ccc([nH]4)c(-c4c(F)cc(S(=O)(=O)[O-])cc4F)c4nc(c(-c5c(F)cc(S(=O)(=O)[O-])cc5F)c5ccc2[nH]5)C=C4)C=C3)cc1
REMARK SMILES IDX 17 1 16 2 14 3 15 4 12 6 11 7 9 8 10 9 8 11 7 12 3 13 4 14
REMARK SMILES IDX 5 16 6 17 2 18 1 19 13 20 18 24 19 25 20 26 21 27 22 28
REMARK SMILES IDX 23 30 24 31 25 32 89 33 26 34 88 35 27 36 28 37 29 38 82 39
REMARK SMILES IDX 30 40 87 41 81 42 83 43 31 44 86 45 80 46 79 47 32 49 66 50
REMARK SMILES IDX 45 51 65 52 46 53 49 54 64 55 84 56 47 57 48 58 63 60 85 61
REMARK SMILES IDX 50 62 33 63 34 64 43 65 35 66 36 67 42 68 44 69 37 70 38 71
REMARK SMILES IDX 39 72 40 73 41 74 67 75 68 76 77 77 69 78 70 79 76 80 78 81
REMARK SMILES IDX 71 82 72 83 73 84 74 85 75 86 51 87 52 88 61 89 53 90 54 91
REMARK SMILES IDX 60 92 62 93 55 94 56 95 57 96 58 97 59 98
REMARK H PARENT 16 5 9 10 3 15 13 21 13 22 13 23 21 29 83 48 49 59
REMARK Flexibility Score: inf
ROOT
ATOM      1  C   UNL A   1      38.865  23.180  26.290  1.00  0.00     0.116 C 
ENDROOT
BRANCH   1   2
ATOM      2  N   UNL A   1      37.840  22.193  26.010  1.00  0.00    -0.351 N 
ATOM      3  C   UNL A   1      36.918  22.069  25.012  1.00  0.00     0.284 C 
ATOM      4  O   UNL A   1      36.375  20.956  24.927  1.00  0.00    -0.268 OA
ATOM      5  H   UNL A   1      37.803  21.465  26.673  1.00  0.00     0.163 HD
BRANCH   3   6
ATOM      6  C   UNL A   1      36.477  23.197  24.041  1.00  0.00     0.326 C 
BRANCH   6   7
ATOM      7  C   UNL A   1      34.985  23.646  23.954  1.00  0.00     0.338 C 
BRANCH   7   8
ATOM      8  N   UNL A   1      33.883  22.806  23.450  1.00  0.00    -0.327 N 
ATOM      9  C   UNL A   1      33.413  23.286  22.144  1.00  0.00     0.333 C 
ATOM     10  H   UNL A   1      34.294  21.876  23.359  1.00  0.00     0.348 HD
BRANCH   8  11
ATOM     11  C   UNL A   1      32.742  22.644  24.368  1.00  0.00     0.327 C 
BRANCH  11  12
ATOM     12  C   UNL A   1      32.224  21.215  24.701  1.00  0.00     0.239 C 
ATOM     13  N   UNL A   1      32.631  20.631  26.000  1.00  0.00    -0.328 N 
ATOM     14  C   UNL A   1      32.844  19.186  25.830  1.00  0.00     0.262 C 
ATOM     15  H   UNL A   1      31.838  20.863  26.596  1.00  0.00     0.348 HD
ATOM     16  C   UNL A   1      32.618  18.831  24.376  1.00  0.00     0.068 C 
ATOM     17  C   UNL A   1      32.521  20.150  23.650  1.00  0.00     0.077 C 
BRANCH  13  18
ATOM     18  C   UNL A   1      33.705  21.236  26.793  1.00  0.00     0.259 C 
ATOM     19  C   UNL A   1      33.305  22.282  27.826  1.00  0.00     0.071 C 
ENDBRANCH  13  18
ENDBRANCH  11  12
ENDBRANCH   8  11
ENDBRANCH   7   8
ENDBRANCH   6   7
BRANCH   6  20
ATOM     20  N   UNL A   1      37.039  22.984  22.679  1.00  0.00    -0.343 N 
ATOM     21  H   UNL A   1      36.508  22.256  22.202  1.00  0.00     0.345 HD
ATOM     22  H   UNL A   1      38.015  22.698  22.755  1.00  0.00     0.345 HD
ATOM     23  H   UNL A   1      36.979  23.852  22.147  1.00  0.00     0.345 HD
ENDBRANCH   6  20
ENDBRANCH   3   6
ENDBRANCH   1   2
BRANCH   1  24
ATOM     24  C   UNL A   1      39.968  22.693  27.232  1.00  0.00     0.023 C 
BRANCH  24  25
ATOM     25  C   UNL A   1      41.327  22.332  26.610  1.00  0.00     0.023 C 
BRANCH  25  26
ATOM     26  C   UNL A   1      42.393  23.424  26.460  1.00  0.00     0.116 C 
BRANCH  26  27
ATOM     27  N   UNL A   1      42.067  24.523  25.566  1.00  0.00    -0.352 N 
ATOM     28  C   UNL A   1      41.881  25.858  25.865  1.00  0.00     0.251 C 
ATOM     29  H   UNL A   1      41.967  24.282  24.617  1.00  0.00     0.163 HD
ATOM     30  O   UNL A   1      41.693  26.659  24.951  1.00  0.00    -0.269 OA
BRANCH  28  31
ATOM     31  C   UNL A   1      41.828  26.320  27.274  1.00  0.00     0.039 A 
ATOM     32  C   UNL A   1      42.915  27.052  27.766  1.00  0.00     0.014 A 
ATOM     33  C   UNL A   1      40.714  26.103  28.089  1.00  0.00     0.014 A 
ATOM     34  C   UNL A   1      42.823  27.685  29.008  1.00  0.00     0.010 A 
ATOM     35  C   UNL A   1      40.602  26.777  29.309  1.00  0.00     0.010 A 
ATOM     36  C   UNL A   1      41.634  27.617  29.753  1.00  0.00    -0.014 A 
BRANCH  36  37
ATOM     37  C   UNL A   1      41.403  28.549  30.889  1.00  0.00     0.031 A 
ATOM     38  C   UNL A   1      42.187  28.457  32.166  1.00  0.00     0.074 A 
ATOM     39  C   UNL A   1      40.395  29.442  30.786  1.00  0.00     0.049 A 
ATOM     40  N   UNL A   1      42.088  29.192  33.244  1.00  0.00    -0.248 NA
ATOM     41  C   UNL A   1      43.194  27.391  32.253  1.00  0.00     0.031 C 
ATOM     42  C   UNL A   1      39.500  29.571  29.632  1.00  0.00     0.029 A 
ATOM     43  N   UNL A   1      39.943  30.397  31.661  1.00  0.00    -0.354 N 
ATOM     44  C   UNL A   1      43.011  28.675  34.145  1.00  0.00     0.074 A 
ATOM     45  C   UNL A   1      43.634  27.539  33.497  1.00  0.00     0.031 C 
ATOM     46  C   UNL A   1      38.622  30.560  29.862  1.00  0.00     0.029 A 
ATOM     47  C   UNL A   1      38.872  31.118  31.186  1.00  0.00     0.049 A 
ATOM     48  H   UNL A   1      40.345  30.552  32.546  1.00  0.00     0.167 HD
ATOM     49  C   UNL A   1      43.318  29.116  35.391  1.00  0.00     0.037 A 
ATOM     50  C   UNL A   1      38.165  32.118  31.747  1.00  0.00     0.037 A 
ATOM     51  C   UNL A   1      42.703  30.254  36.027  1.00  0.00     0.049 A 
ATOM     52  C   UNL A   1      38.554  32.618  33.109  1.00  0.00     0.074 A 
ATOM     53  C   UNL A   1      43.008  30.826  37.250  1.00  0.00     0.029 A 
ATOM     54  N   UNL A   1      41.652  30.989  35.496  1.00  0.00    -0.354 N 
ATOM     55  N   UNL A   1      39.501  32.182  33.903  1.00  0.00    -0.248 NA
ATOM     56  C   UNL A   1      37.788  33.750  33.646  1.00  0.00     0.031 C 
ATOM     57  C   UNL A   1      42.116  31.883  37.476  1.00  0.00     0.029 A 
ATOM     58  C   UNL A   1      41.281  31.993  36.376  1.00  0.00     0.049 A 
ATOM     59  H   UNL A   1      41.231  30.821  34.622  1.00  0.00     0.167 HD
ATOM     60  C   UNL A   1      39.456  32.996  35.029  1.00  0.00     0.074 A 
ATOM     61  C   UNL A   1      38.397  33.960  34.805  1.00  0.00     0.031 C 
ATOM     62  C   UNL A   1      40.221  32.944  36.147  1.00  0.00     0.037 A 
BRANCH  49  63
ATOM     63  C   UNL A   1      44.373  28.360  36.150  1.00  0.00     0.058 A 
ATOM     64  C   UNL A   1      45.735  28.679  36.029  1.00  0.00     0.135 A 
ATOM     65  C   UNL A   1      44.020  27.322  37.027  1.00  0.00     0.135 A 
ATOM     66  F   UNL A   1      46.129  29.657  35.198  1.00  0.00    -0.206 F 
ATOM     67  C   UNL A   1      46.713  27.971  36.719  1.00  0.00     0.059 A 
ATOM     68  C   UNL A   1      44.980  26.615  37.746  1.00  0.00     0.059 A 
ATOM     69  F   UNL A   1      42.732  26.980  37.186  1.00  0.00    -0.206 F 
ATOM     70  C   UNL A   1      46.326  26.934  37.570  1.00  0.00     0.060 A 
BRANCH  70  71
ATOM     71  S   UNL A   1      47.607  26.008  38.443  1.00  0.00     0.124 S 
ATOM     72  O   UNL A   1      48.774  26.856  38.228  1.00  0.00    -0.237 OA
ATOM     73  O   UNL A   1      47.093  25.970  39.809  1.00  0.00    -0.237 OA
ATOM     74  O   UNL A   1      47.627  24.723  37.750  1.00  0.00    -0.744 OA
ENDBRANCH  70  71
ENDBRANCH  49  63
BRANCH  50  75
ATOM     75  C   UNL A   1      37.038  32.730  30.999  1.00  0.00     0.058 A 
ATOM     76  C   UNL A   1      37.273  33.653  29.970  1.00  0.00     0.135 A 
ATOM     77  C   UNL A   1      35.707  32.370  31.266  1.00  0.00     0.135 A 
ATOM     78  F   UNL A   1      38.528  34.029  29.681  1.00  0.00    -0.206 F 
ATOM     79  C   UNL A   1      36.230  34.206  29.235  1.00  0.00     0.059 A 
ATOM     80  C   UNL A   1      34.649  32.894  30.532  1.00  0.00     0.059 A 
ATOM     81  F   UNL A   1      35.434  31.475  32.227  1.00  0.00    -0.206 F 
ATOM     82  C   UNL A   1      34.920  33.816  29.520  1.00  0.00     0.060 A 
BRANCH  82  83
ATOM     83  S   UNL A   1      33.576  34.480  28.512  1.00  0.00     0.124 S 
ATOM     84  O   UNL A   1      34.261  35.527  27.763  1.00  0.00    -0.237 OA
ATOM     85  O   UNL A   1      33.160  33.310  27.744  1.00  0.00    -0.237 OA
ATOM     86  O   UNL A   1      32.611  34.940  29.507  1.00  0.00    -0.744 OA
ENDBRANCH  82  83
ENDBRANCH  50  75
BRANCH  62  87
ATOM     87  C   UNL A   1      39.948  33.967  37.212  1.00  0.00     0.058 A 
ATOM     88  C   UNL A   1      39.102  33.689  38.297  1.00  0.00     0.135 A 
ATOM     89  C   UNL A   1      40.566  35.228  37.168  1.00  0.00     0.135 A 
ATOM     90  F   UNL A   1      38.479  32.502  38.380  1.00  0.00    -0.206 F 
ATOM     91  C   UNL A   1      38.861  34.631  39.291  1.00  0.00     0.059 A 
ATOM     92  C   UNL A   1      40.356  36.177  38.163  1.00  0.00     0.059 A 
ATOM     93  F   UNL A   1      41.388  35.542  36.154  1.00  0.00    -0.206 F 
ATOM     94  C   UNL A   1      39.493  35.874  39.215  1.00  0.00     0.060 A 
BRANCH  94  95
ATOM     95  S   UNL A   1      39.198  37.080  40.527  1.00  0.00     0.124 S 
ATOM     96  O   UNL A   1      38.602  36.245  41.565  1.00  0.00    -0.237 OA
ATOM     97  O   UNL A   1      40.541  37.578  40.806  1.00  0.00    -0.237 OA
ATOM     98  O   UNL A   1      38.297  38.045  39.901  1.00  0.00    -0.744 OA
ENDBRANCH  94  95
ENDBRANCH  62  87
ENDBRANCH  36  37
ENDBRANCH  28  31
ENDBRANCH  26  27
ENDBRANCH  25  26
ENDBRANCH  24  25
ENDBRANCH   1  24
TORSDOF 20
ENDMDL
MODEL 2
REMARK VINA RESULT:     -10.0      1.104      2.071
REMARK SMILES CC[N@@H+]1CCC[C@@H]1C[N@@H+](C)C[C@H]([NH3+])C(=O)NCCCCNC(=O)c1ccc(-c2c3nc(c(-c4c(F)cc(S(=O)(=O)[O-])cc4F)c4ccc([nH]4)c(-c4c(F)cc(S(=O)(=O)[O-])cc4F)c4nc(c(-c5c(F)cc(S(=O)(=O)[O-])cc5F)c5ccc2[nH]5)C=C4)C=C3)cc1
REMARK SMILES IDX 17 1 16 2 14 3 15 4 12 6 11 7 9 8 10 9 8 11 7 12 3 13 4 14
REMARK SMILES IDX 5 16 6 17 2 18 1 19 13 20 18 24 19 25 20 26 21 27 22 28
REMARK SMILES IDX 23 30 24 31 25 32 89 33 26 34 88 35 27 36 28 37 29 38 82 39
REMARK SMILES IDX 30 40 87 41 81 42 83 43 31 44 86 45 80 46 79 47 32 49 66 50
REMARK SMILES IDX 45 51 65 52 46 53 49 54 64 55 84 56 47 57 48 58 63 60 85 61
REMARK SMILES IDX 50 62 33 63 34 64 43 65 35 66 36 67 42 68 44 69 37 70 38 71
REMARK SMILES IDX 39 72 40 73 41 74 67 75 68 76 77 77 69 78 70 79 76 80 78 81
REMARK SMILES IDX 71 82 72 83 73 84 74 85 75 86 51 87 52 88 61 89 53 90 54 91
REMARK SMILES IDX 60 92 62 93 55 94 56 95 57 96 58 97 59 98
REMARK H PARENT 16 5 9 10 3 15 13 21 13 22 13 23 21 29 83 48 49 59
REMARK Flexibility Score: inf
ROOT
ATOM      1  C   UNL A   1      40.171  22.189  27.113  1.00  0.00     0.116 C 
ENDROOT
BRANCH   1   2
ATOM      2  N   UNL A   1      39.498  21.228  26.258  1.00  0.00    -0.351 N 
ATOM      3  C   UNL A   1      38.335  21.273  25.546  1.00  0.00     0.284 C 
ATOM      4  O   UNL A   1      38.195  20.373  24.704  1.00  0.00    -0.268 OA
ATOM      5  H   UNL A   1      39.978  20.372  26.175  1.00  0.00     0.163 HD
BRANCH   3   6
ATOM      6  C   UNL A   1      37.192  22.305  25.742  1.00  0.00     0.326 C 
BRANCH   6   7
ATOM      7  C   UNL A   1      35.703  21.849  25.830  1.00  0.00     0.338 C 
BRANCH   7   8
ATOM      8  N   UNL A   1      34.609  22.657  26.401  1.00  0.00    -0.327 N 
ATOM      9  C   UNL A   1      33.982  21.965  27.533  1.00  0.00     0.333 C 
ATOM     10  H   UNL A   1      35.064  23.514  26.715  1.00  0.00     0.348 HD
BRANCH   8  11
ATOM     11  C   UNL A   1      33.577  23.090  25.442  1.00  0.00     0.327 C 
BRANCH  11  12
ATOM     12  C   UNL A   1      33.065  24.558  25.478  1.00  0.00     0.239 C 
ATOM     13  N   UNL A   1      32.192  25.001  24.366  1.00  0.00    -0.328 N 
ATOM     14  C   UNL A   1      32.493  26.406  24.052  1.00  0.00     0.262 C 
ATOM     15  H   UNL A   1      31.261  24.856  24.754  1.00  0.00     0.348 HD
ATOM     16  C   UNL A   1      33.620  26.871  24.947  1.00  0.00     0.068 C 
ATOM     17  C   UNL A   1      34.146  25.625  25.615  1.00  0.00     0.077 C 
BRANCH  13  18
ATOM     18  C   UNL A   1      32.065  24.199  23.146  1.00  0.00     0.259 C 
ATOM     19  C   UNL A   1      32.938  24.589  21.959  1.00  0.00     0.071 C 
ENDBRANCH  13  18
ENDBRANCH  11  12
ENDBRANCH   8  11
ENDBRANCH   7   8
ENDBRANCH   6   7
BRANCH   6  20
ATOM     20  N   UNL A   1      37.334  23.449  24.801  1.00  0.00    -0.343 N 
ATOM     21  H   UNL A   1      38.145  24.008  25.065  1.00  0.00     0.345 HD
ATOM     22  H   UNL A   1      36.495  24.028  24.839  1.00  0.00     0.345 HD
ATOM     23  H   UNL A   1      37.459  23.095  23.853  1.00  0.00     0.345 HD
ENDBRANCH   6  20
ENDBRANCH   3   6
ENDBRANCH   1   2
BRANCH   1  24
ATOM     24  C   UNL A   1      41.589  21.785  27.519  1.00  0.00     0.023 C 
BRANCH  24  25
ATOM     25  C   UNL A   1      42.727  22.094  26.532  1.00  0.00     0.023 C 
BRANCH  25  26
ATOM     26  C   UNL A   1      43.242  23.533  26.412  1.00  0.00     0.116 C 
BRANCH  26  27
ATOM     27  N   UNL A   1      42.473  24.423  25.557  1.00  0.00    -0.352 N 
ATOM     28  C   UNL A   1      41.917  25.650  25.858  1.00  0.00     0.251 C 
ATOM     29  H   UNL A   1      42.330  24.106  24.635  1.00  0.00     0.163 HD
ATOM     30  O   UNL A   1      41.369  26.298  24.968  1.00  0.00    -0.269 OA
BRANCH  28  31
ATOM     31  C   UNL A   1      41.906  26.156  27.253  1.00  0.00     0.039 A 
ATOM     32  C   UNL A   1      42.959  26.983  27.659  1.00  0.00     0.014 A 
ATOM     33  C   UNL A   1      40.858  25.886  28.136  1.00  0.00     0.014 A 
ATOM     34  C   UNL A   1      42.888  27.651  28.884  1.00  0.00     0.010 A 
ATOM     35  C   UNL A   1      40.762  26.592  29.339  1.00  0.00     0.010 A 
ATOM     36  C   UNL A   1      41.750  27.522  29.697  1.00  0.00    -0.014 A 
BRANCH  36  37
ATOM     37  C   UNL A   1      41.511  28.474  30.815  1.00  0.00     0.031 A 
ATOM     38  C   UNL A   1      42.305  28.421  32.089  1.00  0.00     0.074 A 
ATOM     39  C   UNL A   1      40.489  29.348  30.700  1.00  0.00     0.049 A 
ATOM     40  N   UNL A   1      42.200  29.176  33.152  1.00  0.00    -0.248 NA
ATOM     41  C   UNL A   1      43.329  27.373  32.191  1.00  0.00     0.031 C 
ATOM     42  C   UNL A   1      39.584  29.439  29.550  1.00  0.00     0.029 A 
ATOM     43  N   UNL A   1      40.027  30.314  31.559  1.00  0.00    -0.354 N 
ATOM     44  C   UNL A   1      43.137  28.693  34.057  1.00  0.00     0.074 A 
ATOM     45  C   UNL A   1      43.774  27.553  33.429  1.00  0.00     0.031 C 
ATOM     46  C   UNL A   1      38.692  30.418  29.765  1.00  0.00     0.029 A 
ATOM     47  C   UNL A   1      38.941  31.008  31.076  1.00  0.00     0.049 A 
ATOM     48  H   UNL A   1      40.432  30.494  32.437  1.00  0.00     0.167 HD
ATOM     49  C   UNL A   1      43.445  29.164  35.292  1.00  0.00     0.037 A 
ATOM     50  C   UNL A   1      38.222  32.008  31.620  1.00  0.00     0.037 A 
ATOM     51  C   UNL A   1      42.816  30.306  35.908  1.00  0.00     0.049 A 
ATOM     52  C   UNL A   1      38.612  32.543  32.969  1.00  0.00     0.074 A 
ATOM     53  C   UNL A   1      43.119  30.908  37.117  1.00  0.00     0.029 A 
ATOM     54  N   UNL A   1      41.750  31.013  35.369  1.00  0.00    -0.354 N 
ATOM     55  N   UNL A   1      39.571  32.139  33.765  1.00  0.00    -0.248 NA
ATOM     56  C   UNL A   1      37.832  33.674  33.487  1.00  0.00     0.031 C 
ATOM     57  C   UNL A   1      42.213  31.955  37.327  1.00  0.00     0.029 A 
ATOM     58  C   UNL A   1      41.368  32.029  36.230  1.00  0.00     0.049 A 
ATOM     59  H   UNL A   1      41.327  30.820  34.502  1.00  0.00     0.167 HD
ATOM     60  C   UNL A   1      39.520  32.974  34.875  1.00  0.00     0.074 A 
ATOM     61  C   UNL A   1      38.445  33.917  34.638  1.00  0.00     0.031 C 
ATOM     62  C   UNL A   1      40.292  32.958  35.989  1.00  0.00     0.037 A 
BRANCH  49  63
ATOM     63  C   UNL A   1      44.516  28.441  36.059  1.00  0.00     0.058 A 
ATOM     64  C   UNL A   1      45.868  28.805  35.953  1.00  0.00     0.135 A 
ATOM     65  C   UNL A   1      44.189  27.390  36.931  1.00  0.00     0.135 A 
ATOM     66  F   UNL A   1      46.238  29.798  35.128  1.00  0.00    -0.206 F 
ATOM     67  C   UNL A   1      46.862  28.127  36.651  1.00  0.00     0.059 A 
ATOM     68  C   UNL A   1      45.164  26.713  37.657  1.00  0.00     0.059 A 
ATOM     69  F   UNL A   1      42.911  27.005  37.075  1.00  0.00    -0.206 F 
ATOM     70  C   UNL A   1      46.501  27.076  37.495  1.00  0.00     0.060 A 
BRANCH  70  71
ATOM     71  S   UNL A   1      47.802  26.189  38.379  1.00  0.00     0.124 S 
ATOM     72  O   UNL A   1      48.651  25.750  37.277  1.00  0.00    -0.237 OA
ATOM     73  O   UNL A   1      48.364  27.228  39.237  1.00  0.00    -0.237 OA
ATOM     74  O   UNL A   1      47.078  25.130  39.076  1.00  0.00    -0.744 OA
ENDBRANCH  70  71
ENDBRANCH  49  63
BRANCH  50  75
ATOM     75  C   UNL A   1      37.081  32.586  30.866  1.00  0.00     0.058 A 
ATOM     76  C   UNL A   1      37.287  33.574  29.893  1.00  0.00     0.135 A 
ATOM     77  C   UNL A   1      35.769  32.131  31.072  1.00  0.00     0.135 A 
ATOM     78  F   UNL A   1      38.523  34.042  29.665  1.00  0.00    -0.206 F 
ATOM     79  C   UNL A   1      36.233  34.098  29.152  1.00  0.00     0.059 A 
ATOM     80  C   UNL A   1      34.701  32.625  30.330  1.00  0.00     0.059 A 
ATOM     81  F   UNL A   1      35.525  31.172  31.978  1.00  0.00    -0.206 F 
ATOM     82  C   UNL A   1      34.943  33.613  29.375  1.00  0.00     0.060 A 
BRANCH  82  83
ATOM     83  S   UNL A   1      33.589  34.243  28.358  1.00  0.00     0.124 S 
ATOM     84  O   UNL A   1      33.182  33.043  27.637  1.00  0.00    -0.237 OA
ATOM     85  O   UNL A   1      32.652  34.736  29.363  1.00  0.00    -0.237 OA
ATOM     86  O   UNL A   1      34.232  35.279  27.554  1.00  0.00    -0.744 OA
ENDBRANCH  82  83
ENDBRANCH  50  75
BRANCH  62  87
ATOM     87  C   UNL A   1      40.009  33.999  37.033  1.00  0.00     0.058 A 
ATOM     88  C   UNL A   1      39.169  33.733  38.126  1.00  0.00     0.135 A 
ATOM     89  C   UNL A   1      40.613  35.265  36.963  1.00  0.00     0.135 A 
ATOM     90  F   UNL A   1      38.560  32.540  38.234  1.00  0.00    -0.206 F 
ATOM     91  C   UNL A   1      38.919  34.692  39.102  1.00  0.00     0.059 A 
ATOM     92  C   UNL A   1      40.394  36.232  37.940  1.00  0.00     0.059 A 
ATOM     93  F   UNL A   1      41.429  35.569  35.942  1.00  0.00    -0.206 F 
ATOM     94  C   UNL A   1      39.537  35.940  39.000  1.00  0.00     0.060 A 
BRANCH  94  95
ATOM     95  S   UNL A   1      39.231  37.168  40.288  1.00  0.00     0.124 S 
ATOM     96  O   UNL A   1      40.589  37.489  40.715  1.00  0.00    -0.237 OA
ATOM     97  O   UNL A   1      38.529  38.221  39.560  1.00  0.00    -0.237 OA
ATOM     98  O   UNL A   1      38.420  36.441  41.261  1.00  0.00    -0.744 OA
ENDBRANCH  94  95
ENDBRANCH  62  87
ENDBRANCH  36  37
ENDBRANCH  28  31
ENDBRANCH  26  27
ENDBRANCH  25  26
ENDBRANCH  24  25
ENDBRANCH   1  24
TORSDOF 20
ENDMDL
MODEL 3
REMARK VINA RESULT:      -9.9      5.332      7.333
REMARK SMILES CC[N@@H+]1CCC[C@@H]1C[N@@H+](C)C[C@H]([NH3+])C(=O)NCCCCNC(=O)c1ccc(-c2c3nc(c(-c4c(F)cc(S(=O)(=O)[O-])cc4F)c4ccc([nH]4)c(-c4c(F)cc(S(=O)(=O)[O-])cc4F)c4nc(c(-c5c(F)cc(S(=O)(=O)[O-])cc5F)c5ccc2[nH]5)C=C4)C=C3)cc1
REMARK SMILES IDX 17 1 16 2 14 3 15 4 12 6 11 7 9 8 10 9 8 11 7 12 3 13 4 14
REMARK SMILES IDX 5 16 6 17 2 18 1 19 13 20 18 24 19 25 20 26 21 27 22 28
REMARK SMILES IDX 23 30 24 31 25 32 89 33 26 34 88 35 27 36 28 37 29 38 82 39
REMARK SMILES IDX 30 40 87 41 81 42 83 43 31 44 86 45 80 46 79 47 32 49 66 50
REMARK SMILES IDX 45 51 65 52 46 53 49 54 64 55 84 56 47 57 48 58 63 60 85 61
REMARK SMILES IDX 50 62 33 63 34 64 43 65 35 66 36 67 42 68 44 69 37 70 38 71
REMARK SMILES IDX 39 72 40 73 41 74 67 75 68 76 77 77 69 78 70 79 76 80 78 81
REMARK SMILES IDX 71 82 72 83 73 84 74 85 75 86 51 87 52 88 61 89 53 90 54 91
REMARK SMILES IDX 60 92 62 93 55 94 56 95 57 96 58 97 59 98
REMARK H PARENT 16 5 9 10 3 15 13 21 13 22 13 23 21 29 83 48 49 59
REMARK Flexibility Score: inf
ROOT
ATOM      1  C   UNL A   1      34.644  23.664  24.378  1.00  0.00     0.116 C 
ENDROOT
BRANCH   1   2
ATOM      2  N   UNL A   1      33.999  23.784  23.084  1.00  0.00    -0.351 N 
ATOM      3  C   UNL A   1      33.525  24.850  22.378  1.00  0.00     0.284 C 
ATOM      4  O   UNL A   1      33.280  24.627  21.182  1.00  0.00    -0.268 OA
ATOM      5  H   UNL A   1      33.879  22.921  22.623  1.00  0.00     0.163 HD
BRANCH   3   6
ATOM      6  C   UNL A   1      33.235  26.262  22.955  1.00  0.00     0.326 C 
BRANCH   6   7
ATOM      7  C   UNL A   1      32.326  26.446  24.210  1.00  0.00     0.338 C 
BRANCH   7   8
ATOM      8  N   UNL A   1      32.795  26.928  25.522  1.00  0.00    -0.327 N 
ATOM      9  C   UNL A   1      31.697  26.944  26.497  1.00  0.00     0.333 C 
ATOM     10  H   UNL A   1      33.508  26.254  25.801  1.00  0.00     0.348 HD
BRANCH   8  11
ATOM     11  C   UNL A   1      33.475  28.235  25.509  1.00  0.00     0.327 C 
BRANCH  11  12
ATOM     12  C   UNL A   1      33.751  28.969  26.852  1.00  0.00     0.239 C 
ATOM     13  N   UNL A   1      32.870  30.110  27.196  1.00  0.00    -0.328 N 
ATOM     14  C   UNL A   1      33.666  31.138  27.883  1.00  0.00     0.262 C 
ATOM     15  H   UNL A   1      32.170  29.667  27.790  1.00  0.00     0.348 HD
ATOM     16  C   UNL A   1      35.106  30.678  27.942  1.00  0.00     0.068 C 
ATOM     17  C   UNL A   1      35.179  29.469  27.043  1.00  0.00     0.077 C 
BRANCH  13  18
ATOM     18  C   UNL A   1      31.984  30.705  26.192  1.00  0.00     0.259 C 
ATOM     19  C   UNL A   1      31.400  32.078  26.501  1.00  0.00     0.071 C 
ENDBRANCH  13  18
ENDBRANCH  11  12
ENDBRANCH   8  11
ENDBRANCH   7   8
ENDBRANCH   6   7
BRANCH   6  20
ATOM     20  N   UNL A   1      32.839  27.211  21.879  1.00  0.00    -0.343 N 
ATOM     21  H   UNL A   1      32.850  28.163  22.244  1.00  0.00     0.345 HD
ATOM     22  H   UNL A   1      31.900  26.983  21.552  1.00  0.00     0.345 HD
ATOM     23  H   UNL A   1      33.497  27.137  21.102  1.00  0.00     0.345 HD
ENDBRANCH   6  20
ENDBRANCH   3   6
ENDBRANCH   1   2
BRANCH   1  24
ATOM     24  C   UNL A   1      34.682  22.239  24.934  1.00  0.00     0.023 C 
BRANCH  24  25
ATOM     25  C   UNL A   1      35.874  21.855  25.826  1.00  0.00     0.023 C 
BRANCH  25  26
ATOM     26  C   UNL A   1      37.172  22.664  25.728  1.00  0.00     0.116 C 
BRANCH  26  27
ATOM     27  N   UNL A   1      38.390  21.978  26.129  1.00  0.00    -0.352 N 
ATOM     28  C   UNL A   1      39.488  22.479  26.799  1.00  0.00     0.251 C 
ATOM     29  H   UNL A   1      38.437  21.024  25.890  1.00  0.00     0.163 HD
ATOM     30  O   UNL A   1      40.394  21.715  27.127  1.00  0.00    -0.269 OA
BRANCH  28  31
ATOM     31  C   UNL A   1      39.620  23.935  27.056  1.00  0.00     0.039 A 
ATOM     32  C   UNL A   1      39.466  24.385  28.371  1.00  0.00     0.014 A 
ATOM     33  C   UNL A   1      39.952  24.843  26.047  1.00  0.00     0.014 A 
ATOM     34  C   UNL A   1      39.787  25.706  28.698  1.00  0.00     0.010 A 
ATOM     35  C   UNL A   1      40.321  26.149  26.381  1.00  0.00     0.010 A 
ATOM     36  C   UNL A   1      40.294  26.575  27.717  1.00  0.00    -0.014 A 
BRANCH  36  37
ATOM     37  C   UNL A   1      40.952  27.850  28.110  1.00  0.00     0.031 A 
ATOM     38  C   UNL A   1      42.436  28.047  28.002  1.00  0.00     0.074 A 
ATOM     39  C   UNL A   1      40.188  28.818  28.662  1.00  0.00     0.049 A 
ATOM     40  N   UNL A   1      43.149  29.098  28.317  1.00  0.00    -0.248 NA
ATOM     41  C   UNL A   1      43.222  26.913  27.497  1.00  0.00     0.031 C 
ATOM     42  C   UNL A   1      38.745  28.715  28.906  1.00  0.00     0.029 A 
ATOM     43  N   UNL A   1      40.511  30.067  29.128  1.00  0.00    -0.354 N 
ATOM     44  C   UNL A   1      44.471  28.753  28.060  1.00  0.00     0.074 A 
ATOM     45  C   UNL A   1      44.461  27.380  27.596  1.00  0.00     0.031 C 
ATOM     46  C   UNL A   1      38.307  29.857  29.456  1.00  0.00     0.029 A 
ATOM     47  C   UNL A   1      39.436  30.765  29.629  1.00  0.00     0.049 A 
ATOM     48  H   UNL A   1      41.425  30.431  29.107  1.00  0.00     0.167 HD
ATOM     49  C   UNL A   1      45.585  29.516  28.186  1.00  0.00     0.037 A 
ATOM     50  C   UNL A   1      39.360  31.997  30.168  1.00  0.00     0.037 A 
ATOM     51  C   UNL A   1      45.589  30.885  28.637  1.00  0.00     0.049 A 
ATOM     52  C   UNL A   1      40.601  32.838  30.255  1.00  0.00     0.074 A 
ATOM     53  C   UNL A   1      46.657  31.763  28.716  1.00  0.00     0.029 A 
ATOM     54  N   UNL A   1      44.474  31.574  29.093  1.00  0.00    -0.354 N 
ATOM     55  N   UNL A   1      41.827  32.531  29.908  1.00  0.00    -0.248 NA
ATOM     56  C   UNL A   1      40.448  34.196  30.795  1.00  0.00     0.031 C 
ATOM     57  C   UNL A   1      46.194  32.970  29.255  1.00  0.00     0.029 A 
ATOM     58  C   UNL A   1      44.831  32.857  29.477  1.00  0.00     0.049 A 
ATOM     59  H   UNL A   1      43.563  31.205  29.138  1.00  0.00     0.167 HD
ATOM     60  C   UNL A   1      42.591  33.661  30.173  1.00  0.00     0.074 A 
ATOM     61  C   UNL A   1      41.685  34.664  30.696  1.00  0.00     0.031 C 
ATOM     62  C   UNL A   1      43.923  33.846  30.003  1.00  0.00     0.037 A 
BRANCH  49  63
ATOM     63  C   UNL A   1      46.900  28.881  27.829  1.00  0.00     0.058 A 
ATOM     64  C   UNL A   1      47.370  28.860  26.505  1.00  0.00     0.135 A 
ATOM     65  C   UNL A   1      47.714  28.309  28.820  1.00  0.00     0.135 A 
ATOM     66  F   UNL A   1      46.629  29.386  25.517  1.00  0.00    -0.206 F 
ATOM     67  C   UNL A   1      48.579  28.259  26.171  1.00  0.00     0.059 A 
ATOM     68  C   UNL A   1      48.939  27.723  28.512  1.00  0.00     0.059 A 
ATOM     69  F   UNL A   1      47.317  28.307  30.102  1.00  0.00    -0.206 F 
ATOM     70  C   UNL A   1      49.354  27.685  27.181  1.00  0.00     0.060 A 
BRANCH  70  71
ATOM     71  S   UNL A   1      50.911  26.890  26.731  1.00  0.00     0.124 S 
ATOM     72  O   UNL A   1      51.429  27.816  25.730  1.00  0.00    -0.237 OA
ATOM     73  O   UNL A   1      51.629  26.861  28.001  1.00  0.00    -0.237 OA
ATOM     74  O   UNL A   1      50.491  25.586  26.224  1.00  0.00    -0.744 OA
ENDBRANCH  70  71
ENDBRANCH  49  63
BRANCH  50  75
ATOM     75  C   UNL A   1      38.049  32.513  30.636  1.00  0.00     0.058 A 
ATOM     76  C   UNL A   1      37.661  32.386  31.977  1.00  0.00     0.135 A 
ATOM     77  C   UNL A   1      37.177  33.183  29.762  1.00  0.00     0.135 A 
ATOM     78  F   UNL A   1      38.459  31.750  32.848  1.00  0.00    -0.206 F 
ATOM     79  C   UNL A   1      36.452  32.897  32.438  1.00  0.00     0.059 A 
ATOM     80  C   UNL A   1      35.973  33.720  30.202  1.00  0.00     0.059 A 
ATOM     81  F   UNL A   1      37.514  33.347  28.474  1.00  0.00    -0.206 F 
ATOM     82  C   UNL A   1      35.617  33.568  31.543  1.00  0.00     0.060 A 
BRANCH  82  83
ATOM     83  S   UNL A   1      34.084  34.295  32.163  1.00  0.00     0.124 S 
ATOM     84  O   UNL A   1      33.498  33.172  32.885  1.00  0.00    -0.237 OA
ATOM     85  O   UNL A   1      34.576  35.398  32.984  1.00  0.00    -0.237 OA
ATOM     86  O   UNL A   1      33.389  34.697  30.943  1.00  0.00    -0.744 OA
ENDBRANCH  82  83
ENDBRANCH  50  75
BRANCH  62  87
ATOM     87  C   UNL A   1      44.480  35.190  30.374  1.00  0.00     0.058 A 
ATOM     88  C   UNL A   1      44.477  36.262  29.466  1.00  0.00     0.135 A 
ATOM     89  C   UNL A   1      44.990  35.423  31.661  1.00  0.00     0.135 A 
ATOM     90  F   UNL A   1      44.009  36.089  28.219  1.00  0.00    -0.206 F 
ATOM     91  C   UNL A   1      44.979  37.511  29.815  1.00  0.00     0.059 A 
ATOM     92  C   UNL A   1      45.477  36.671  32.038  1.00  0.00     0.059 A 
ATOM     93  F   UNL A   1      45.011  34.434  32.568  1.00  0.00    -0.206 F 
ATOM     94  C   UNL A   1      45.478  37.706  31.104  1.00  0.00     0.060 A 
BRANCH  94  95
ATOM     95  S   UNL A   1      46.100  39.340  31.558  1.00  0.00     0.124 S 
ATOM     96  O   UNL A   1      45.054  39.812  32.460  1.00  0.00    -0.237 OA
ATOM     97  O   UNL A   1      47.382  39.028  32.181  1.00  0.00    -0.237 OA
ATOM     98  O   UNL A   1      46.186  40.035  30.276  1.00  0.00    -0.744 OA
ENDBRANCH  94  95
ENDBRANCH  62  87
ENDBRANCH  36  37
ENDBRANCH  28  31
ENDBRANCH  26  27
ENDBRANCH  25  26
ENDBRANCH  24  25
ENDBRANCH   1  24
TORSDOF 20
ENDMDL
