MODEL 1
REMARK VINA RESULT:     -12.0      0.000      0.000
REMARK SMILES Cc1[nH]c2ccccc2c1/N=N\c1ccccc1C(=O)NCCCCNC(=O)c1ccc(-c2c3nc(c(-c4c(F)cc(S(=O)(=O)[O-])cc4F)c4ccc([nH]4)c(-c4c(F)cc(S(=O)(=O)[O-])cc4F)c4nc(c(-c5c(F)cc(S(=O)(=O)[O-])cc5F)c5ccc2[nH]5)C=C4)C=C3)cc1
REMARK SMILES IDX 24 1 23 2 22 3 21 4 19 5 20 6 18 8 13 9 14 10 15 11 17 12
REMARK SMILES IDX 16 13 12 14 11 15 10 16 1 17 2 18 3 19 4 20 9 22 5 23 8 24
REMARK SMILES IDX 6 25 7 26 25 27 26 28 27 29 28 31 29 32 30 33 94 34 31 35
REMARK SMILES IDX 93 36 32 37 33 38 34 39 87 40 35 41 92 42 86 43 88 44 36 45
REMARK SMILES IDX 91 46 85 47 84 48 37 50 71 51 50 52 70 53 51 54 54 55 69 56
REMARK SMILES IDX 89 57 52 58 53 59 68 61 90 62 55 63 38 64 39 65 48 66 40 67
REMARK SMILES IDX 41 68 47 69 49 70 42 71 43 72 44 73 45 74 46 75 72 76 73 77
REMARK SMILES IDX 82 78 74 79 75 80 81 81 83 82 76 83 77 84 78 85 79 86 80 87
REMARK SMILES IDX 56 88 57 89 66 90 58 91 59 92 65 93 67 94 60 95 61 96 62 97
REMARK SMILES IDX 63 98 64 99
REMARK H PARENT 21 7 3 21 26 30 88 49 54 60
REMARK Flexibility Score: inf
ROOT
ATOM      1  C   UNL A   1      32.328  28.168  26.334  1.00  0.00     0.023 C 
ENDROOT
BRANCH   1   2
ATOM      2  C   UNL A   1      32.552  28.439  24.847  1.00  0.00     0.023 C 
BRANCH   2   3
ATOM      3  C   UNL A   1      33.770  27.766  24.229  1.00  0.00     0.116 C 
BRANCH   3   4
ATOM      4  N   UNL A   1      33.458  26.857  23.144  1.00  0.00    -0.352 N 
ATOM      5  C   UNL A   1      32.880  25.612  23.198  1.00  0.00     0.253 C 
ATOM      6  O   UNL A   1      32.718  24.971  22.160  1.00  0.00    -0.269 OA
ATOM      7  H   UNL A   1      33.694  27.176  22.242  1.00  0.00     0.163 HD
BRANCH   5   8
ATOM      8  C   UNL A   1      32.528  24.973  24.488  1.00  0.00     0.067 A 
ATOM      9  C   UNL A   1      33.476  24.448  25.385  1.00  0.00     0.098 A 
ATOM     10  C   UNL A   1      33.011  23.839  26.564  1.00  0.00     0.031 A 
ATOM     11  C   UNL A   1      31.651  23.831  26.888  1.00  0.00     0.002 A 
ATOM     12  C   UNL A   1      31.165  24.996  24.837  1.00  0.00     0.016 A 
ATOM     13  C   UNL A   1      30.730  24.430  26.034  1.00  0.00     0.001 A 
BRANCH   9  14
ATOM     14  N   UNL A   1      34.868  24.503  25.139  1.00  0.00    -0.150 NA
ATOM     15  N   UNL A   1      35.249  23.765  24.198  1.00  0.00    -0.148 NA
BRANCH  15  16
ATOM     16  C   UNL A   1      35.324  22.400  24.523  1.00  0.00     0.114 A 
ATOM     17  C   UNL A   1      37.623  22.397  25.755  1.00  0.00     0.067 C 
ATOM     18  C   UNL A   1      36.376  21.824  25.200  1.00  0.00     0.041 A 
ATOM     19  N   UNL A   1      36.105  20.480  25.268  1.00  0.00    -0.357 N 
ATOM     20  C   UNL A   1      34.845  20.215  24.776  1.00  0.00     0.048 A 
ATOM     21  H   UNL A   1      36.723  19.801  25.620  1.00  0.00     0.166 HD
ATOM     22  C   UNL A   1      34.326  21.415  24.284  1.00  0.00     0.027 A 
ATOM     23  C   UNL A   1      34.140  19.006  24.736  1.00  0.00     0.027 A 
ATOM     24  C   UNL A   1      33.033  21.402  23.718  1.00  0.00     0.012 A 
ATOM     25  C   UNL A   1      32.855  19.024  24.193  1.00  0.00     0.002 A 
ATOM     26  C   UNL A   1      32.308  20.202  23.689  1.00  0.00     0.001 A 
ENDBRANCH  15  16
ENDBRANCH   9  14
ENDBRANCH   5   8
ENDBRANCH   3   4
ENDBRANCH   2   3
ENDBRANCH   1   2
BRANCH   1  27
ATOM     27  C   UNL A   1      33.478  28.530  27.269  1.00  0.00     0.116 C 
BRANCH  27  28
ATOM     28  N   UNL A   1      33.472  29.922  27.696  1.00  0.00    -0.352 N 
ATOM     29  C   UNL A   1      34.481  30.681  28.249  1.00  0.00     0.251 C 
ATOM     30  H   UNL A   1      32.617  30.393  27.571  1.00  0.00     0.163 HD
ATOM     31  O   UNL A   1      34.258  31.819  28.627  1.00  0.00    -0.269 OA
BRANCH  29  32
ATOM     32  C   UNL A   1      35.827  30.088  28.423  1.00  0.00     0.039 A 
ATOM     33  C   UNL A   1      36.723  30.131  27.351  1.00  0.00     0.014 A 
ATOM     34  C   UNL A   1      36.216  29.529  29.642  1.00  0.00     0.014 A 
ATOM     35  C   UNL A   1      38.039  29.703  27.533  1.00  0.00     0.010 A 
ATOM     36  C   UNL A   1      37.547  29.168  29.843  1.00  0.00     0.010 A 
ATOM     37  C   UNL A   1      38.476  29.266  28.795  1.00  0.00    -0.014 A 
BRANCH  37  38
ATOM     38  C   UNL A   1      39.905  28.939  29.045  1.00  0.00     0.031 A 
ATOM     39  C   UNL A   1      40.837  29.980  29.598  1.00  0.00     0.074 A 
ATOM     40  C   UNL A   1      40.376  27.722  28.702  1.00  0.00     0.049 A 
ATOM     41  N   UNL A   1      42.125  29.901  29.816  1.00  0.00    -0.248 NA
ATOM     42  C   UNL A   1      40.253  31.289  29.924  1.00  0.00     0.031 C 
ATOM     43  C   UNL A   1      39.586  26.644  28.101  1.00  0.00     0.029 A 
ATOM     44  N   UNL A   1      41.639  27.191  28.800  1.00  0.00    -0.354 N 
ATOM     45  C   UNL A   1      42.507  31.151  30.288  1.00  0.00     0.074 A 
ATOM     46  C   UNL A   1      41.323  31.984  30.281  1.00  0.00     0.031 C 
ATOM     47  C   UNL A   1      40.376  25.577  27.904  1.00  0.00     0.029 A 
ATOM     48  C   UNL A   1      41.733  25.900  28.332  1.00  0.00     0.049 A 
ATOM     49  H   UNL A   1      42.404  27.686  29.169  1.00  0.00     0.167 HD
ATOM     50  C   UNL A   1      43.726  31.561  30.712  1.00  0.00     0.037 A 
ATOM     51  C   UNL A   1      42.792  25.071  28.256  1.00  0.00     0.037 A 
ATOM     52  C   UNL A   1      44.895  30.721  30.747  1.00  0.00     0.049 A 
ATOM     53  C   UNL A   1      44.131  25.542  28.753  1.00  0.00     0.074 A 
ATOM     54  C   UNL A   1      46.162  31.028  31.213  1.00  0.00     0.029 A 
ATOM     55  N   UNL A   1      44.941  29.407  30.302  1.00  0.00    -0.354 N 
ATOM     56  N   UNL A   1      44.460  26.709  29.256  1.00  0.00    -0.248 NA
ATOM     57  C   UNL A   1      45.243  24.582  28.684  1.00  0.00     0.031 C 
ATOM     58  C   UNL A   1      46.981  29.910  31.022  1.00  0.00     0.029 A 
ATOM     59  C   UNL A   1      46.216  28.894  30.474  1.00  0.00     0.049 A 
ATOM     60  H   UNL A   1      44.179  28.913  29.922  1.00  0.00     0.167 HD
ATOM     61  C   UNL A   1      45.806  26.614  29.587  1.00  0.00     0.074 A 
ATOM     62  C   UNL A   1      46.230  25.274  29.237  1.00  0.00     0.031 C 
ATOM     63  C   UNL A   1      46.619  27.553  30.132  1.00  0.00     0.037 A 
BRANCH  50  64
ATOM     64  C   UNL A   1      43.855  32.982  31.184  1.00  0.00     0.058 A 
ATOM     65  C   UNL A   1      44.186  34.021  30.300  1.00  0.00     0.135 A 
ATOM     66  C   UNL A   1      43.617  33.315  32.527  1.00  0.00     0.135 A 
ATOM     67  F   UNL A   1      44.439  33.755  29.009  1.00  0.00    -0.206 F 
ATOM     68  C   UNL A   1      44.307  35.336  30.736  1.00  0.00     0.059 A 
ATOM     69  C   UNL A   1      43.707  34.629  32.980  1.00  0.00     0.059 A 
ATOM     70  F   UNL A   1      43.297  32.361  33.415  1.00  0.00    -0.206 F 
ATOM     71  C   UNL A   1      44.068  35.630  32.078  1.00  0.00     0.060 A 
BRANCH  71  72
ATOM     72  S   UNL A   1      44.226  37.341  32.629  1.00  0.00     0.124 S 
ATOM     73  O   UNL A   1      45.569  37.339  33.201  1.00  0.00    -0.237 OA
ATOM     74  O   UNL A   1      44.070  38.088  31.385  1.00  0.00    -0.237 OA
ATOM     75  O   UNL A   1      43.136  37.492  33.588  1.00  0.00    -0.744 OA
ENDBRANCH  71  72
ENDBRANCH  50  64
BRANCH  51  76
ATOM     76  C   UNL A   1      42.625  23.698  27.711  1.00  0.00     0.058 A 
ATOM     77  C   UNL A   1      42.669  23.463  26.329  1.00  0.00     0.135 A 
ATOM     78  C   UNL A   1      42.423  22.596  28.555  1.00  0.00     0.135 A 
ATOM     79  F   UNL A   1      42.854  24.487  25.481  1.00  0.00    -0.206 F 
ATOM     80  C   UNL A   1      42.502  22.187  25.800  1.00  0.00     0.059 A 
ATOM     81  C   UNL A   1      42.275  21.307  28.052  1.00  0.00     0.059 A 
ATOM     82  F   UNL A   1      42.389  22.766  29.887  1.00  0.00    -0.206 F 
ATOM     83  C   UNL A   1      42.304  21.115  26.671  1.00  0.00     0.060 A 
BRANCH  83  84
ATOM     84  S   UNL A   1      42.131  19.456  25.979  1.00  0.00     0.124 S 
ATOM     85  O   UNL A   1      42.969  19.546  24.790  1.00  0.00    -0.237 OA
ATOM     86  O   UNL A   1      42.640  18.616  27.058  1.00  0.00    -0.237 OA
ATOM     87  O   UNL A   1      40.695  19.345  25.734  1.00  0.00    -0.744 OA
ENDBRANCH  83  84
ENDBRANCH  51  76
BRANCH  63  88
ATOM     88  C   UNL A   1      48.038  27.154  30.422  1.00  0.00     0.058 A 
ATOM     89  C   UNL A   1      49.079  27.430  29.522  1.00  0.00     0.135 A 
ATOM     90  C   UNL A   1      48.366  26.530  31.636  1.00  0.00     0.135 A 
ATOM     91  F   UNL A   1      48.817  28.018  28.345  1.00  0.00    -0.206 F 
ATOM     92  C   UNL A   1      50.396  27.082  29.809  1.00  0.00     0.059 A 
ATOM     93  C   UNL A   1      49.678  26.195  31.953  1.00  0.00     0.059 A 
ATOM     94  F   UNL A   1      47.408  26.253  32.534  1.00  0.00    -0.206 F 
ATOM     95  C   UNL A   1      50.685  26.464  31.027  1.00  0.00     0.060 A 
BRANCH  95  96
ATOM     96  S   UNL A   1      52.402  26.048  31.403  1.00  0.00     0.124 S 
ATOM     97  O   UNL A   1      52.773  27.127  32.313  1.00  0.00    -0.237 OA
ATOM     98  O   UNL A   1      52.280  24.724  32.006  1.00  0.00    -0.237 OA
ATOM     99  O   UNL A   1      53.051  26.076  30.095  1.00  0.00    -0.744 OA
ENDBRANCH  95  96
ENDBRANCH  63  88
ENDBRANCH  37  38
ENDBRANCH  29  32
ENDBRANCH  27  28
ENDBRANCH   1  27
TORSDOF 16
ENDMDL
MODEL 2
REMARK VINA RESULT:     -11.8      1.009      2.255
REMARK SMILES Cc1[nH]c2ccccc2c1/N=N\c1ccccc1C(=O)NCCCCNC(=O)c1ccc(-c2c3nc(c(-c4c(F)cc(S(=O)(=O)[O-])cc4F)c4ccc([nH]4)c(-c4c(F)cc(S(=O)(=O)[O-])cc4F)c4nc(c(-c5c(F)cc(S(=O)(=O)[O-])cc5F)c5ccc2[nH]5)C=C4)C=C3)cc1
REMARK SMILES IDX 24 1 23 2 22 3 21 4 19 5 20 6 18 8 13 9 14 10 15 11 17 12
REMARK SMILES IDX 16 13 12 14 11 15 10 16 1 17 2 18 3 19 4 20 9 22 5 23 8 24
REMARK SMILES IDX 6 25 7 26 25 27 26 28 27 29 28 31 29 32 30 33 94 34 31 35
REMARK SMILES IDX 93 36 32 37 33 38 34 39 87 40 35 41 92 42 86 43 88 44 36 45
REMARK SMILES IDX 91 46 85 47 84 48 37 50 71 51 50 52 70 53 51 54 54 55 69 56
REMARK SMILES IDX 89 57 52 58 53 59 68 61 90 62 55 63 38 64 39 65 48 66 40 67
REMARK SMILES IDX 41 68 47 69 49 70 42 71 43 72 44 73 45 74 46 75 72 76 73 77
REMARK SMILES IDX 82 78 74 79 75 80 81 81 83 82 76 83 77 84 78 85 79 86 80 87
REMARK SMILES IDX 56 88 57 89 66 90 58 91 59 92 65 93 67 94 60 95 61 96 62 97
REMARK SMILES IDX 63 98 64 99
REMARK H PARENT 21 7 3 21 26 30 88 49 54 60
REMARK Flexibility Score: inf
ROOT
ATOM      1  C   UNL A   1      33.603  28.195  25.876  1.00  0.00     0.023 C 
ENDROOT
BRANCH   1   2
ATOM      2  C   UNL A   1      33.863  26.737  25.500  1.00  0.00     0.023 C 
BRANCH   2   3
ATOM      3  C   UNL A   1      32.960  25.711  26.172  1.00  0.00     0.116 C 
BRANCH   3   4
ATOM      4  N   UNL A   1      31.575  25.774  25.749  1.00  0.00    -0.352 N 
ATOM      5  C   UNL A   1      30.992  25.263  24.616  1.00  0.00     0.253 C 
ATOM      6  O   UNL A   1      29.793  25.444  24.414  1.00  0.00    -0.269 OA
ATOM      7  H   UNL A   1      30.966  26.251  26.361  1.00  0.00     0.163 HD
BRANCH   5   8
ATOM      8  C   UNL A   1      31.791  24.576  23.573  1.00  0.00     0.067 A 
ATOM      9  C   UNL A   1      32.131  23.212  23.620  1.00  0.00     0.098 A 
ATOM     10  C   UNL A   1      32.920  22.686  22.582  1.00  0.00     0.031 A 
ATOM     11  C   UNL A   1      33.286  23.467  21.482  1.00  0.00     0.002 A 
ATOM     12  C   UNL A   1      32.130  25.347  22.446  1.00  0.00     0.016 A 
ATOM     13  C   UNL A   1      32.871  24.793  21.404  1.00  0.00     0.001 A 
BRANCH   9  14
ATOM     14  N   UNL A   1      31.717  22.361  24.673  1.00  0.00    -0.150 NA
ATOM     15  N   UNL A   1      32.486  22.365  25.664  1.00  0.00    -0.148 NA
BRANCH  15  16
ATOM     16  C   UNL A   1      33.670  21.628  25.485  1.00  0.00     0.114 A 
ATOM     17  C   UNL A   1      32.627  19.275  25.061  1.00  0.00     0.067 C 
ATOM     18  C   UNL A   1      33.705  20.275  25.229  1.00  0.00     0.041 A 
ATOM     19  N   UNL A   1      35.032  19.925  25.179  1.00  0.00    -0.357 N 
ATOM     20  C   UNL A   1      35.832  21.043  25.258  1.00  0.00     0.048 A 
ATOM     21  H   UNL A   1      35.365  19.003  25.097  1.00  0.00     0.166 HD
ATOM     22  C   UNL A   1      34.995  22.144  25.465  1.00  0.00     0.027 A 
ATOM     23  C   UNL A   1      37.224  21.152  25.161  1.00  0.00     0.027 A 
ATOM     24  C   UNL A   1      35.586  23.419  25.584  1.00  0.00     0.012 A 
ATOM     25  C   UNL A   1      37.782  22.428  25.259  1.00  0.00     0.002 A 
ATOM     26  C   UNL A   1      36.978  23.546  25.469  1.00  0.00     0.001 A 
ENDBRANCH  15  16
ENDBRANCH   9  14
ENDBRANCH   5   8
ENDBRANCH   3   4
ENDBRANCH   2   3
ENDBRANCH   1   2
BRANCH   1  27
ATOM     27  C   UNL A   1      33.414  28.488  27.362  1.00  0.00     0.116 C 
BRANCH  27  28
ATOM     28  N   UNL A   1      33.420  29.907  27.686  1.00  0.00    -0.352 N 
ATOM     29  C   UNL A   1      34.436  30.696  28.181  1.00  0.00     0.251 C 
ATOM     30  H   UNL A   1      32.568  30.375  27.528  1.00  0.00     0.163 HD
ATOM     31  O   UNL A   1      34.222  31.861  28.475  1.00  0.00    -0.269 OA
BRANCH  29  32
ATOM     32  C   UNL A   1      35.778  30.108  28.395  1.00  0.00     0.039 A 
ATOM     33  C   UNL A   1      36.692  30.118  27.338  1.00  0.00     0.014 A 
ATOM     34  C   UNL A   1      36.145  29.585  29.637  1.00  0.00     0.014 A 
ATOM     35  C   UNL A   1      38.004  29.693  27.555  1.00  0.00     0.010 A 
ATOM     36  C   UNL A   1      37.472  29.229  29.871  1.00  0.00     0.010 A 
ATOM     37  C   UNL A   1      38.419  29.294  28.837  1.00  0.00    -0.014 A 
BRANCH  37  38
ATOM     38  C   UNL A   1      39.842  28.973  29.121  1.00  0.00     0.031 A 
ATOM     39  C   UNL A   1      40.752  30.012  29.713  1.00  0.00     0.074 A 
ATOM     40  C   UNL A   1      40.331  27.764  28.775  1.00  0.00     0.049 A 
ATOM     41  N   UNL A   1      42.034  29.939  29.965  1.00  0.00    -0.248 NA
ATOM     42  C   UNL A   1      40.150  31.313  30.041  1.00  0.00     0.031 C 
ATOM     43  C   UNL A   1      39.565  26.689  28.138  1.00  0.00     0.029 A 
ATOM     44  N   UNL A   1      41.594  27.239  28.899  1.00  0.00    -0.354 N 
ATOM     45  C   UNL A   1      42.395  31.184  30.464  1.00  0.00     0.074 A 
ATOM     46  C   UNL A   1      41.206  32.010  30.436  1.00  0.00     0.031 C 
ATOM     47  C   UNL A   1      40.367  25.629  27.948  1.00  0.00     0.029 A 
ATOM     48  C   UNL A   1      41.710  25.956  28.417  1.00  0.00     0.049 A 
ATOM     49  H   UNL A   1      42.346  27.734  29.295  1.00  0.00     0.167 HD
ATOM     50  C   UNL A   1      43.599  31.596  30.926  1.00  0.00     0.037 A 
ATOM     51  C   UNL A   1      42.777  25.135  28.358  1.00  0.00     0.037 A 
ATOM     52  C   UNL A   1      44.773  30.763  30.982  1.00  0.00     0.049 A 
ATOM     53  C   UNL A   1      44.099  25.608  28.898  1.00  0.00     0.074 A 
ATOM     54  C   UNL A   1      46.024  31.072  31.486  1.00  0.00     0.029 A 
ATOM     55  N   UNL A   1      44.839  29.456  30.521  1.00  0.00    -0.354 N 
ATOM     56  N   UNL A   1      44.405  26.769  29.425  1.00  0.00    -0.248 NA
ATOM     57  C   UNL A   1      45.218  24.656  28.846  1.00  0.00     0.031 C 
ATOM     58  C   UNL A   1      46.856  29.962  31.302  1.00  0.00     0.029 A 
ATOM     59  C   UNL A   1      46.113  28.949  30.720  1.00  0.00     0.049 A 
ATOM     60  H   UNL A   1      44.092  28.963  30.114  1.00  0.00     0.167 HD
ATOM     61  C   UNL A   1      45.743  26.679  29.791  1.00  0.00     0.074 A 
ATOM     62  C   UNL A   1      46.185  25.347  29.435  1.00  0.00     0.031 C 
ATOM     63  C   UNL A   1      46.534  27.615  30.371  1.00  0.00     0.037 A 
BRANCH  50  64
ATOM     64  C   UNL A   1      43.705  33.012  31.421  1.00  0.00     0.058 A 
ATOM     65  C   UNL A   1      43.480  33.336  32.768  1.00  0.00     0.135 A 
ATOM     66  C   UNL A   1      44.062  34.051  30.547  1.00  0.00     0.135 A 
ATOM     67  F   UNL A   1      43.121  32.383  33.642  1.00  0.00    -0.206 F 
ATOM     68  C   UNL A   1      43.576  34.646  33.227  1.00  0.00     0.059 A 
ATOM     69  C   UNL A   1      44.189  35.365  30.989  1.00  0.00     0.059 A 
ATOM     70  F   UNL A   1      44.288  33.796  29.249  1.00  0.00    -0.206 F 
ATOM     71  C   UNL A   1      43.928  35.654  32.329  1.00  0.00     0.060 A 
BRANCH  71  72
ATOM     72  S   UNL A   1      44.052  37.348  32.939  1.00  0.00     0.124 S 
ATOM     73  O   UNL A   1      43.970  38.110  31.696  1.00  0.00    -0.237 OA
ATOM     74  O   UNL A   1      42.894  37.451  33.821  1.00  0.00    -0.237 OA
ATOM     75  O   UNL A   1      45.349  37.376  33.607  1.00  0.00    -0.744 OA
ENDBRANCH  71  72
ENDBRANCH  50  64
BRANCH  51  76
ATOM     76  C   UNL A   1      42.633  23.769  27.791  1.00  0.00     0.058 A 
ATOM     77  C   UNL A   1      42.707  23.554  26.406  1.00  0.00     0.135 A 
ATOM     78  C   UNL A   1      42.426  22.653  28.615  1.00  0.00     0.135 A 
ATOM     79  F   UNL A   1      42.899  24.592  25.577  1.00  0.00    -0.206 F 
ATOM     80  C   UNL A   1      42.563  22.284  25.856  1.00  0.00     0.059 A 
ATOM     81  C   UNL A   1      42.300  21.369  28.090  1.00  0.00     0.059 A 
ATOM     82  F   UNL A   1      42.364  22.803  29.947  1.00  0.00    -0.206 F 
ATOM     83  C   UNL A   1      42.358  21.198  26.708  1.00  0.00     0.060 A 
BRANCH  83  84
ATOM     84  S   UNL A   1      42.215  19.547  25.988  1.00  0.00     0.124 S 
ATOM     85  O   UNL A   1      43.079  19.662  24.820  1.00  0.00    -0.237 OA
ATOM     86  O   UNL A   1      42.707  18.696  27.067  1.00  0.00    -0.237 OA
ATOM     87  O   UNL A   1      40.786  19.428  25.709  1.00  0.00    -0.744 OA
ENDBRANCH  83  84
ENDBRANCH  51  76
BRANCH  63  88
ATOM     88  C   UNL A   1      47.948  27.222  30.693  1.00  0.00     0.058 A 
ATOM     89  C   UNL A   1      48.285  26.620  31.915  1.00  0.00     0.135 A 
ATOM     90  C   UNL A   1      48.969  27.406  29.747  1.00  0.00     0.135 A 
ATOM     91  F   UNL A   1      47.346  26.428  32.855  1.00  0.00    -0.206 F 
ATOM     92  C   UNL A   1      49.591  26.233  32.197  1.00  0.00     0.059 A 
ATOM     93  C   UNL A   1      50.277  27.005  29.998  1.00  0.00     0.059 A 
ATOM     94  F   UNL A   1      48.697  27.968  28.559  1.00  0.00    -0.206 F 
ATOM     95  C   UNL A   1      50.580  26.430  31.232  1.00  0.00     0.060 A 
BRANCH  95  96
ATOM     96  S   UNL A   1      52.266  25.892  31.595  1.00  0.00     0.124 S 
ATOM     97  O   UNL A   1      52.651  26.827  32.648  1.00  0.00    -0.237 OA
ATOM     98  O   UNL A   1      52.073  24.508  32.015  1.00  0.00    -0.237 OA
ATOM     99  O   UNL A   1      52.957  26.063  30.320  1.00  0.00    -0.744 OA
ENDBRANCH  95  96
ENDBRANCH  63  88
ENDBRANCH  37  38
ENDBRANCH  29  32
ENDBRANCH  27  28
ENDBRANCH   1  27
TORSDOF 16
ENDMDL
MODEL 3
REMARK VINA RESULT:     -11.8      4.862     10.390
REMARK SMILES Cc1[nH]c2ccccc2c1/N=N\c1ccccc1C(=O)NCCCCNC(=O)c1ccc(-c2c3nc(c(-c4c(F)cc(S(=O)(=O)[O-])cc4F)c4ccc([nH]4)c(-c4c(F)cc(S(=O)(=O)[O-])cc4F)c4nc(c(-c5c(F)cc(S(=O)(=O)[O-])cc5F)c5ccc2[nH]5)C=C4)C=C3)cc1
REMARK SMILES IDX 24 1 23 2 22 3 21 4 19 5 20 6 18 8 13 9 14 10 15 11 17 12
REMARK SMILES IDX 16 13 12 14 11 15 10 16 1 17 2 18 3 19 4 20 9 22 5 23 8 24
REMARK SMILES IDX 6 25 7 26 25 27 26 28 27 29 28 31 29 32 30 33 94 34 31 35
REMARK SMILES IDX 93 36 32 37 33 38 34 39 87 40 35 41 92 42 86 43 88 44 36 45
REMARK SMILES IDX 91 46 85 47 84 48 37 50 71 51 50 52 70 53 51 54 54 55 69 56
REMARK SMILES IDX 89 57 52 58 53 59 68 61 90 62 55 63 38 64 39 65 48 66 40 67
REMARK SMILES IDX 41 68 47 69 49 70 42 71 43 72 44 73 45 74 46 75 72 76 73 77
REMARK SMILES IDX 82 78 74 79 75 80 81 81 83 82 76 83 77 84 78 85 79 86 80 87
REMARK SMILES IDX 56 88 57 89 66 90 58 91 59 92 65 93 67 94 60 95 61 96 62 97
REMARK SMILES IDX 63 98 64 99
REMARK H PARENT 21 7 3 21 26 30 88 49 54 60
REMARK Flexibility Score: inf
ROOT
ATOM      1  C   UNL A   1      37.409  23.635  26.033  1.00  0.00     0.023 C 
ENDROOT
BRANCH   1   2
ATOM      2  C   UNL A   1      37.696  22.349  25.261  1.00  0.00     0.023 C 
BRANCH   2   3
ATOM      3  C   UNL A   1      36.615  21.279  25.334  1.00  0.00     0.116 C 
BRANCH   3   4
ATOM      4  N   UNL A   1      35.685  21.452  26.433  1.00  0.00    -0.352 N 
ATOM      5  C   UNL A   1      34.312  21.449  26.412  1.00  0.00     0.253 C 
ATOM      6  O   UNL A   1      33.687  21.641  27.453  1.00  0.00    -0.269 OA
ATOM      7  H   UNL A   1      36.095  21.591  27.318  1.00  0.00     0.163 HD
BRANCH   5   8
ATOM      8  C   UNL A   1      33.554  21.313  25.145  1.00  0.00     0.067 A 
ATOM      9  C   UNL A   1      33.335  22.372  24.247  1.00  0.00     0.098 A 
ATOM     10  C   UNL A   1      32.572  22.121  23.092  1.00  0.00     0.031 A 
ATOM     11  C   UNL A   1      32.116  20.834  22.791  1.00  0.00     0.002 A 
ATOM     12  C   UNL A   1      33.124  20.013  24.818  1.00  0.00     0.016 A 
ATOM     13  C   UNL A   1      32.412  19.775  23.645  1.00  0.00     0.001 A 
BRANCH   9  14
ATOM     14  N   UNL A   1      33.844  23.674  24.468  1.00  0.00    -0.150 NA
ATOM     15  N   UNL A   1      33.292  24.283  25.416  1.00  0.00    -0.148 NA
BRANCH  15  16
ATOM     16  C   UNL A   1      32.017  24.793  25.116  1.00  0.00     0.114 A 
ATOM     17  C   UNL A   1      30.589  23.280  26.688  1.00  0.00     0.067 C 
ATOM     18  C   UNL A   1      30.849  24.334  25.681  1.00  0.00     0.041 A 
ATOM     19  N   UNL A   1      29.829  25.038  25.091  1.00  0.00    -0.357 N 
ATOM     20  C   UNL A   1      30.332  26.025  24.272  1.00  0.00     0.048 A 
ATOM     21  H   UNL A   1      28.871  24.864  25.234  1.00  0.00     0.166 HD
ATOM     22  C   UNL A   1      31.723  25.889  24.257  1.00  0.00     0.027 A 
ATOM     23  C   UNL A   1      29.656  27.018  23.553  1.00  0.00     0.027 A 
ATOM     24  C   UNL A   1      32.475  26.793  23.478  1.00  0.00     0.012 A 
ATOM     25  C   UNL A   1      30.424  27.915  22.808  1.00  0.00     0.002 A 
ATOM     26  C   UNL A   1      31.813  27.805  22.768  1.00  0.00     0.001 A 
ENDBRANCH  15  16
ENDBRANCH   9  14
ENDBRANCH   5   8
ENDBRANCH   3   4
ENDBRANCH   2   3
ENDBRANCH   1   2
BRANCH   1  27
ATOM     27  C   UNL A   1      38.587  24.258  26.776  1.00  0.00     0.116 C 
BRANCH  27  28
ATOM     28  N   UNL A   1      39.729  24.553  25.923  1.00  0.00    -0.352 N 
ATOM     29  C   UNL A   1      40.757  25.455  26.102  1.00  0.00     0.251 C 
ATOM     30  H   UNL A   1      39.774  24.031  25.089  1.00  0.00     0.163 HD
ATOM     31  O   UNL A   1      41.587  25.624  25.224  1.00  0.00    -0.269 OA
BRANCH  29  32
ATOM     32  C   UNL A   1      40.821  26.247  27.352  1.00  0.00     0.039 A 
ATOM     33  C   UNL A   1      41.704  27.329  27.416  1.00  0.00     0.014 A 
ATOM     34  C   UNL A   1      39.993  25.950  28.437  1.00  0.00     0.014 A 
ATOM     35  C   UNL A   1      41.685  28.171  28.529  1.00  0.00     0.010 A 
ATOM     36  C   UNL A   1      39.926  26.830  29.515  1.00  0.00     0.010 A 
ATOM     37  C   UNL A   1      40.760  27.959  29.565  1.00  0.00    -0.014 A 
BRANCH  37  38
ATOM     38  C   UNL A   1      40.629  28.922  30.690  1.00  0.00     0.031 A 
ATOM     39  C   UNL A   1      41.500  28.790  31.908  1.00  0.00     0.074 A 
ATOM     40  C   UNL A   1      39.672  29.871  30.642  1.00  0.00     0.049 A 
ATOM     41  N   UNL A   1      41.483  29.490  33.014  1.00  0.00    -0.248 NA
ATOM     42  C   UNL A   1      42.503  27.715  31.895  1.00  0.00     0.031 C 
ATOM     43  C   UNL A   1      38.724  30.066  29.542  1.00  0.00     0.029 A 
ATOM     44  N   UNL A   1      39.331  30.845  31.548  1.00  0.00    -0.354 N 
ATOM     45  C   UNL A   1      42.457  28.932  33.831  1.00  0.00     0.074 A 
ATOM     46  C   UNL A   1      43.015  27.805  33.113  1.00  0.00     0.031 C 
ATOM     47  C   UNL A   1      37.925  31.106  29.828  1.00  0.00     0.029 A 
ATOM     48  C   UNL A   1      38.279  31.634  31.142  1.00  0.00     0.049 A 
ATOM     49  H   UNL A   1      39.795  30.968  32.406  1.00  0.00     0.167 HD
ATOM     50  C   UNL A   1      42.868  29.334  35.057  1.00  0.00     0.037 A 
ATOM     51  C   UNL A   1      37.667  32.663  31.759  1.00  0.00     0.037 A 
ATOM     52  C   UNL A   1      42.332  30.474  35.756  1.00  0.00     0.049 A 
ATOM     53  C   UNL A   1      38.155  33.106  33.110  1.00  0.00     0.074 A 
ATOM     54  C   UNL A   1      42.721  30.995  36.978  1.00  0.00     0.029 A 
ATOM     55  N   UNL A   1      41.295  31.270  35.294  1.00  0.00    -0.354 N 
ATOM     56  N   UNL A   1      39.122  32.604  33.842  1.00  0.00    -0.248 NA
ATOM     57  C   UNL A   1      37.478  34.260  33.718  1.00  0.00     0.031 C 
ATOM     58  C   UNL A   1      41.900  32.089  37.269  1.00  0.00     0.029 A 
ATOM     59  C   UNL A   1      41.024  32.273  36.211  1.00  0.00     0.049 A 
ATOM     60  H   UNL A   1      40.821  31.143  34.441  1.00  0.00     0.167 HD
ATOM     61  C   UNL A   1      39.187  33.397  34.981  1.00  0.00     0.074 A 
ATOM     62  C   UNL A   1      38.169  34.417  34.840  1.00  0.00     0.031 C 
ATOM     63  C   UNL A   1      40.015  33.290  36.049  1.00  0.00     0.037 A 
BRANCH  50  64
ATOM     64  C   UNL A   1      43.960  28.541  35.718  1.00  0.00     0.058 A 
ATOM     65  C   UNL A   1      45.315  28.835  35.499  1.00  0.00     0.135 A 
ATOM     66  C   UNL A   1      43.651  27.494  36.602  1.00  0.00     0.135 A 
ATOM     67  F   UNL A   1      45.666  29.815  34.651  1.00  0.00    -0.206 F 
ATOM     68  C   UNL A   1      46.327  28.100  36.108  1.00  0.00     0.059 A 
ATOM     69  C   UNL A   1      44.647  26.762  37.243  1.00  0.00     0.059 A 
ATOM     70  F   UNL A   1      42.371  27.171  36.847  1.00  0.00    -0.206 F 
ATOM     71  C   UNL A   1      45.983  27.064  36.977  1.00  0.00     0.060 A 
BRANCH  71  72
ATOM     72  S   UNL A   1      47.306  26.121  37.762  1.00  0.00     0.124 S 
ATOM     73  O   UNL A   1      46.788  24.760  37.668  1.00  0.00    -0.237 OA
ATOM     74  O   UNL A   1      48.454  26.421  36.913  1.00  0.00    -0.237 OA
ATOM     75  O   UNL A   1      47.366  26.677  39.110  1.00  0.00    -0.744 OA
ENDBRANCH  71  72
ENDBRANCH  50  64
BRANCH  51  76
ATOM     76  C   UNL A   1      36.541  33.368  31.090  1.00  0.00     0.058 A 
ATOM     77  C   UNL A   1      36.774  34.225  30.003  1.00  0.00     0.135 A 
ATOM     78  C   UNL A   1      35.216  33.198  31.516  1.00  0.00     0.135 A 
ATOM     79  F   UNL A   1      38.026  34.423  29.564  1.00  0.00    -0.206 F 
ATOM     80  C   UNL A   1      35.735  34.902  29.373  1.00  0.00     0.059 A 
ATOM     81  C   UNL A   1      34.157  33.848  30.888  1.00  0.00     0.059 A 
ATOM     82  F   UNL A   1      34.939  32.377  32.541  1.00  0.00    -0.206 F 
ATOM     83  C   UNL A   1      34.429  34.708  29.825  1.00  0.00     0.060 A 
BRANCH  83  84
ATOM     84  S   UNL A   1      33.082  35.558  28.973  1.00  0.00     0.124 S 
ATOM     85  O   UNL A   1      32.493  34.471  28.200  1.00  0.00    -0.237 OA
ATOM     86  O   UNL A   1      32.281  36.060  30.085  1.00  0.00    -0.237 OA
ATOM     87  O   UNL A   1      33.773  36.584  28.196  1.00  0.00    -0.744 OA
ENDBRANCH  83  84
ENDBRANCH  51  76
BRANCH  63  88
ATOM     88  C   UNL A   1      39.884  34.324  37.132  1.00  0.00     0.058 A 
ATOM     89  C   UNL A   1      40.646  35.502  37.121  1.00  0.00     0.135 A 
ATOM     90  C   UNL A   1      38.950  34.154  38.166  1.00  0.00     0.135 A 
ATOM     91  F   UNL A   1      41.557  35.708  36.158  1.00  0.00    -0.206 F 
ATOM     92  C   UNL A   1      40.500  36.468  38.112  1.00  0.00     0.059 A 
ATOM     93  C   UNL A   1      38.771  35.117  39.153  1.00  0.00     0.059 A 
ATOM     94  F   UNL A   1      38.190  33.048  38.216  1.00  0.00    -0.206 F 
ATOM     95  C   UNL A   1      39.560  36.267  39.124  1.00  0.00     0.060 A 
BRANCH  95  96
ATOM     96  S   UNL A   1      39.356  37.543  40.385  1.00  0.00     0.124 S 
ATOM     97  O   UNL A   1      38.152  38.224  39.920  1.00  0.00    -0.237 OA
ATOM     98  O   UNL A   1      39.208  36.758  41.607  1.00  0.00    -0.237 OA
ATOM     99  O   UNL A   1      40.592  38.314  40.290  1.00  0.00    -0.744 OA
ENDBRANCH  95  96
ENDBRANCH  63  88
ENDBRANCH  37  38
ENDBRANCH  29  32
ENDBRANCH  27  28
ENDBRANCH   1  27
TORSDOF 16
ENDMDL
