MODEL 1
REMARK VINA RESULT:     -12.0      0.000      0.000
REMARK SMILES C=C1c2ccccc2C(=O)N1[C@](C)(C(=O)NCCCCNC(=O)c1ccc(-c2c3nc(c(-c4c(F)cc(S(=O)(=O)[O-])cc4F)c4ccc([nH]4)c(-c4c(F)cc(S(=O)(=O)[O-])cc4F)c4nc(c(-c5c(F)cc(S(=O)(=O)[O-])cc5F)c5ccc2[nH]5)C=C4)C=C3)cc1)C(F)(F)F
REMARK SMILES IDX 19 1 18 2 17 3 16 4 14 5 15 6 12 8 13 9 11 10 1 11 2 12 3 13
REMARK SMILES IDX 4 14 8 15 9 16 5 17 7 18 10 19 6 20 90 21 91 22 92 23 93 24
REMARK SMILES IDX 20 25 21 26 22 27 23 29 24 30 25 31 89 32 26 33 88 34 27 35
REMARK SMILES IDX 28 36 29 37 82 38 30 39 87 40 81 41 83 42 31 43 86 44 80 45
REMARK SMILES IDX 79 46 32 48 66 49 45 50 65 51 46 52 49 53 64 54 84 55 47 56
REMARK SMILES IDX 48 57 63 59 85 60 50 61 33 62 34 63 43 64 35 65 36 66 42 67
REMARK SMILES IDX 44 68 37 69 38 70 39 71 40 72 41 73 67 74 68 75 77 76 69 77
REMARK SMILES IDX 70 78 76 79 78 80 71 81 72 82 73 83 74 84 75 85 51 86 52 87
REMARK SMILES IDX 61 88 53 89 54 90 60 91 62 92 55 93 56 94 57 95 58 96 59 97
REMARK H PARENT 16 7 21 28 83 47 49 58
REMARK Flexibility Score: inf
ROOT
ATOM      1  C   UNL A   1      31.959  28.239  27.638  1.00  0.00     0.023 C 
ENDROOT
BRANCH   1   2
ATOM      2  C   UNL A   1      31.317  27.435  26.510  1.00  0.00     0.023 C 
BRANCH   2   3
ATOM      3  C   UNL A   1      32.085  26.202  26.054  1.00  0.00     0.116 C 
BRANCH   3   4
ATOM      4  N   UNL A   1      31.796  24.987  26.794  1.00  0.00    -0.354 N 
ATOM      5  C   UNL A   1      32.253  23.711  26.612  1.00  0.00     0.255 C 
ATOM      6  O   UNL A   1      32.348  23.060  27.662  1.00  0.00    -0.272 OA
ATOM      7  H   UNL A   1      31.171  25.100  27.546  1.00  0.00     0.163 HD
BRANCH   5   8
ATOM      8  C   UNL A   1      32.716  23.094  25.251  1.00  0.00     0.219 C 
ATOM      9  C   UNL A   1      32.352  23.920  23.999  1.00  0.00     0.056 C 
BRANCH   8  10
ATOM     10  N   UNL A   1      34.194  22.833  25.322  1.00  0.00    -0.285 N 
ATOM     11  C   UNL A   1      34.570  20.463  24.652  1.00  0.00     0.038 C 
ATOM     12  C   UNL A   1      34.934  21.666  25.102  1.00  0.00     0.046 C 
ATOM     13  C   UNL A   1      36.341  21.969  25.414  1.00  0.00     0.010 A 
ATOM     14  C   UNL A   1      37.504  21.214  25.438  1.00  0.00     0.011 A 
ATOM     15  C   UNL A   1      36.410  23.312  25.755  1.00  0.00     0.049 A 
ATOM     16  C   UNL A   1      35.076  23.874  25.626  1.00  0.00     0.260 C 
ATOM     17  C   UNL A   1      38.704  21.831  25.824  1.00  0.00     0.001 A 
ATOM     18  C   UNL A   1      37.574  23.951  26.148  1.00  0.00     0.014 A 
ATOM     19  O   UNL A   1      34.877  25.071  25.745  1.00  0.00    -0.269 OA
ATOM     20  C   UNL A   1      38.738  23.189  26.186  1.00  0.00     0.001 A 
ENDBRANCH   8  10
BRANCH   8  21
ATOM     21  C   UNL A   1      31.767  21.864  25.175  1.00  0.00     0.420 C 
ATOM     22  F   UNL A   1      32.129  20.900  26.065  1.00  0.00    -0.168 F 
ATOM     23  F   UNL A   1      30.494  22.204  25.528  1.00  0.00    -0.168 F 
ATOM     24  F   UNL A   1      31.680  21.273  23.965  1.00  0.00    -0.168 F 
ENDBRANCH   8  21
ENDBRANCH   5   8
ENDBRANCH   3   4
ENDBRANCH   2   3
ENDBRANCH   1   2
BRANCH   1  25
ATOM     25  C   UNL A   1      33.344  28.820  27.357  1.00  0.00     0.116 C 
BRANCH  25  26
ATOM     26  N   UNL A   1      33.494  30.219  27.744  1.00  0.00    -0.352 N 
ATOM     27  C   UNL A   1      34.594  30.887  28.233  1.00  0.00     0.251 C 
ATOM     28  H   UNL A   1      32.685  30.770  27.638  1.00  0.00     0.163 HD
ATOM     29  O   UNL A   1      34.510  32.065  28.566  1.00  0.00    -0.269 OA
BRANCH  27  30
ATOM     30  C   UNL A   1      35.869  30.160  28.403  1.00  0.00     0.039 A 
ATOM     31  C   UNL A   1      36.765  30.109  27.334  1.00  0.00     0.014 A 
ATOM     32  C   UNL A   1      36.206  29.599  29.636  1.00  0.00     0.014 A 
ATOM     33  C   UNL A   1      38.053  29.612  27.539  1.00  0.00     0.010 A 
ATOM     34  C   UNL A   1      37.513  29.176  29.860  1.00  0.00     0.010 A 
ATOM     35  C   UNL A   1      38.458  29.207  28.822  1.00  0.00    -0.014 A 
BRANCH  35  36
ATOM     36  C   UNL A   1      39.873  28.871  29.124  1.00  0.00     0.031 A 
ATOM     37  C   UNL A   1      40.789  29.911  29.704  1.00  0.00     0.074 A 
ATOM     38  C   UNL A   1      40.358  27.662  28.776  1.00  0.00     0.049 A 
ATOM     39  N   UNL A   1      42.080  29.855  29.902  1.00  0.00    -0.248 NA
ATOM     40  C   UNL A   1      40.176  31.193  30.083  1.00  0.00     0.031 C 
ATOM     41  C   UNL A   1      39.582  26.580  28.163  1.00  0.00     0.029 A 
ATOM     42  N   UNL A   1      41.626  27.143  28.869  1.00  0.00    -0.354 N 
ATOM     43  C   UNL A   1      42.439  31.097  30.409  1.00  0.00     0.074 A 
ATOM     44  C   UNL A   1      41.235  31.901  30.448  1.00  0.00     0.031 C 
ATOM     45  C   UNL A   1      40.383  25.523  27.957  1.00  0.00     0.029 A 
ATOM     46  C   UNL A   1      41.739  25.864  28.376  1.00  0.00     0.049 A 
ATOM     47  H   UNL A   1      42.384  27.641  29.253  1.00  0.00     0.167 HD
ATOM     48  C   UNL A   1      43.656  31.523  30.825  1.00  0.00     0.037 A 
ATOM     49  C   UNL A   1      42.813  25.061  28.261  1.00  0.00     0.037 A 
ATOM     50  C   UNL A   1      44.844  30.713  30.811  1.00  0.00     0.049 A 
ATOM     51  C   UNL A   1      44.157  25.560  28.713  1.00  0.00     0.074 A 
ATOM     52  C   UNL A   1      46.110  31.033  31.268  1.00  0.00     0.029 A 
ATOM     53  N   UNL A   1      44.914  29.418  30.313  1.00  0.00    -0.354 N 
ATOM     54  N   UNL A   1      44.469  26.722  29.236  1.00  0.00    -0.248 NA
ATOM     55  C   UNL A   1      45.297  24.646  28.551  1.00  0.00     0.031 C 
ATOM     56  C   UNL A   1      46.953  29.944  31.019  1.00  0.00     0.029 A 
ATOM     57  C   UNL A   1      46.205  28.933  30.436  1.00  0.00     0.049 A 
ATOM     58  H   UNL A   1      44.157  28.919  29.931  1.00  0.00     0.167 HD
ATOM     59  C   UNL A   1      45.835  26.672  29.483  1.00  0.00     0.074 A 
ATOM     60  C   UNL A   1      46.290  25.363  29.060  1.00  0.00     0.031 C 
ATOM     61  C   UNL A   1      46.640  27.625  30.012  1.00  0.00     0.037 A 
BRANCH  48  62
ATOM     62  C   UNL A   1      43.754  32.933  31.334  1.00  0.00     0.058 A 
ATOM     63  C   UNL A   1      43.588  33.233  32.696  1.00  0.00     0.135 A 
ATOM     64  C   UNL A   1      44.020  33.995  30.456  1.00  0.00     0.135 A 
ATOM     65  F   UNL A   1      43.317  32.255  33.574  1.00  0.00    -0.206 F 
ATOM     66  C   UNL A   1      43.646  34.540  33.165  1.00  0.00     0.059 A 
ATOM     67  C   UNL A   1      44.107  35.309  30.907  1.00  0.00     0.059 A 
ATOM     68  F   UNL A   1      44.188  33.764  29.144  1.00  0.00    -0.206 F 
ATOM     69  C   UNL A   1      43.898  35.574  32.261  1.00  0.00     0.060 A 
BRANCH  69  70
ATOM     70  S   UNL A   1      43.949  37.269  32.878  1.00  0.00     0.124 S 
ATOM     71  O   UNL A   1      45.265  37.308  33.508  1.00  0.00    -0.237 OA
ATOM     72  O   UNL A   1      43.809  38.054  31.655  1.00  0.00    -0.237 OA
ATOM     73  O   UNL A   1      42.812  37.331  33.791  1.00  0.00    -0.744 OA
ENDBRANCH  69  70
ENDBRANCH  48  62
BRANCH  49  74
ATOM     74  C   UNL A   1      42.659  23.690  27.707  1.00  0.00     0.058 A 
ATOM     75  C   UNL A   1      42.530  22.585  28.561  1.00  0.00     0.135 A 
ATOM     76  C   UNL A   1      42.614  23.459  26.323  1.00  0.00     0.135 A 
ATOM     77  F   UNL A   1      42.574  22.757  29.890  1.00  0.00    -0.206 F 
ATOM     78  C   UNL A   1      42.370  21.296  28.065  1.00  0.00     0.059 A 
ATOM     79  C   UNL A   1      42.435  22.180  25.804  1.00  0.00     0.059 A 
ATOM     80  F   UNL A   1      42.719  24.485  25.466  1.00  0.00    -0.206 F 
ATOM     81  C   UNL A   1      42.320  21.103  26.683  1.00  0.00     0.060 A 
BRANCH  81  82
ATOM     82  S   UNL A   1      42.052  19.434  26.049  1.00  0.00     0.124 S 
ATOM     83  O   UNL A   1      40.609  19.427  25.840  1.00  0.00    -0.237 OA
ATOM     84  O   UNL A   1      42.873  19.426  24.842  1.00  0.00    -0.237 OA
ATOM     85  O   UNL A   1      42.539  18.584  27.132  1.00  0.00    -0.744 OA
ENDBRANCH  81  82
ENDBRANCH  49  74
BRANCH  61  86
ATOM     86  C   UNL A   1      48.093  27.288  30.183  1.00  0.00     0.058 A 
ATOM     87  C   UNL A   1      49.032  27.572  29.182  1.00  0.00     0.135 A 
ATOM     88  C   UNL A   1      48.559  26.741  31.389  1.00  0.00     0.135 A 
ATOM     89  F   UNL A   1      48.633  28.086  28.008  1.00  0.00    -0.206 F 
ATOM     90  C   UNL A   1      50.388  27.322  29.367  1.00  0.00     0.059 A 
ATOM     91  C   UNL A   1      49.913  26.500  31.604  1.00  0.00     0.059 A 
ATOM     92  F   UNL A   1      47.700  26.456  32.380  1.00  0.00    -0.206 F 
ATOM     93  C   UNL A   1      50.820  26.790  30.584  1.00  0.00     0.060 A 
BRANCH  93  94
ATOM     94  S   UNL A   1      52.588  26.526  30.837  1.00  0.00     0.124 S 
ATOM     95  O   UNL A   1      52.596  25.265  31.570  1.00  0.00    -0.237 OA
ATOM     96  O   UNL A   1      53.095  26.468  29.469  1.00  0.00    -0.237 OA
ATOM     97  O   UNL A   1      53.000  27.700  31.600  1.00  0.00    -0.744 OA
ENDBRANCH  93  94
ENDBRANCH  61  86
ENDBRANCH  35  36
ENDBRANCH  27  30
ENDBRANCH  25  26
ENDBRANCH   1  25
TORSDOF 16
ENDMDL
MODEL 2
REMARK VINA RESULT:     -11.7      1.804      3.313
REMARK SMILES C=C1c2ccccc2C(=O)N1[C@](C)(C(=O)NCCCCNC(=O)c1ccc(-c2c3nc(c(-c4c(F)cc(S(=O)(=O)[O-])cc4F)c4ccc([nH]4)c(-c4c(F)cc(S(=O)(=O)[O-])cc4F)c4nc(c(-c5c(F)cc(S(=O)(=O)[O-])cc5F)c5ccc2[nH]5)C=C4)C=C3)cc1)C(F)(F)F
REMARK SMILES IDX 19 1 18 2 17 3 16 4 14 5 15 6 12 8 13 9 11 10 1 11 2 12 3 13
REMARK SMILES IDX 4 14 8 15 9 16 5 17 7 18 10 19 6 20 90 21 91 22 92 23 93 24
REMARK SMILES IDX 20 25 21 26 22 27 23 29 24 30 25 31 89 32 26 33 88 34 27 35
REMARK SMILES IDX 28 36 29 37 82 38 30 39 87 40 81 41 83 42 31 43 86 44 80 45
REMARK SMILES IDX 79 46 32 48 66 49 45 50 65 51 46 52 49 53 64 54 84 55 47 56
REMARK SMILES IDX 48 57 63 59 85 60 50 61 33 62 34 63 43 64 35 65 36 66 42 67
REMARK SMILES IDX 44 68 37 69 38 70 39 71 40 72 41 73 67 74 68 75 77 76 69 77
REMARK SMILES IDX 70 78 76 79 78 80 71 81 72 82 73 83 74 84 75 85 51 86 52 87
REMARK SMILES IDX 61 88 53 89 54 90 60 91 62 92 55 93 56 94 57 95 58 96 59 97
REMARK H PARENT 16 7 21 28 83 47 49 58
REMARK Flexibility Score: inf
ROOT
ATOM      1  C   UNL A   1      32.222  28.924  26.372  1.00  0.00     0.023 C 
ENDROOT
BRANCH   1   2
ATOM      2  C   UNL A   1      31.471  27.608  26.554  1.00  0.00     0.023 C 
BRANCH   2   3
ATOM      3  C   UNL A   1      32.336  26.364  26.695  1.00  0.00     0.116 C 
BRANCH   3   4
ATOM      4  N   UNL A   1      31.691  25.119  26.320  1.00  0.00    -0.354 N 
ATOM      5  C   UNL A   1      31.927  24.285  25.262  1.00  0.00     0.255 C 
ATOM      6  O   UNL A   1      31.700  23.092  25.506  1.00  0.00    -0.272 OA
ATOM      7  H   UNL A   1      30.969  24.829  26.923  1.00  0.00     0.163 HD
BRANCH   5   8
ATOM      8  C   UNL A   1      32.512  24.714  23.876  1.00  0.00     0.219 C 
ATOM      9  C   UNL A   1      32.495  23.617  22.790  1.00  0.00     0.056 C 
BRANCH   8  10
ATOM     10  N   UNL A   1      31.790  25.949  23.413  1.00  0.00    -0.285 N 
ATOM     11  C   UNL A   1      33.478  27.453  22.365  1.00  0.00     0.038 C 
ATOM     12  C   UNL A   1      32.265  27.121  22.814  1.00  0.00     0.046 C 
ATOM     13  C   UNL A   1      31.122  28.038  22.672  1.00  0.00     0.010 A 
ATOM     14  C   UNL A   1      30.985  29.338  22.209  1.00  0.00     0.011 A 
ATOM     15  C   UNL A   1      29.996  27.373  23.135  1.00  0.00     0.049 A 
ATOM     16  C   UNL A   1      30.400  26.035  23.532  1.00  0.00     0.260 C 
ATOM     17  C   UNL A   1      29.717  29.940  22.245  1.00  0.00     0.001 A 
ATOM     18  C   UNL A   1      28.732  27.938  23.191  1.00  0.00     0.014 A 
ATOM     19  O   UNL A   1      29.580  25.195  23.860  1.00  0.00    -0.269 OA
ATOM     20  C   UNL A   1      28.599  29.248  22.741  1.00  0.00     0.001 A 
ENDBRANCH   8  10
BRANCH   8  21
ATOM     21  C   UNL A   1      34.016  24.850  24.246  1.00  0.00     0.420 C 
ATOM     22  F   UNL A   1      34.398  23.891  25.133  1.00  0.00    -0.168 F 
ATOM     23  F   UNL A   1      34.810  24.653  23.155  1.00  0.00    -0.168 F 
ATOM     24  F   UNL A   1      34.378  26.039  24.770  1.00  0.00    -0.168 F 
ENDBRANCH   8  21
ENDBRANCH   5   8
ENDBRANCH   3   4
ENDBRANCH   2   3
ENDBRANCH   1   2
BRANCH   1  25
ATOM     25  C   UNL A   1      33.493  29.103  27.202  1.00  0.00     0.116 C 
BRANCH  25  26
ATOM     26  N   UNL A   1      33.566  30.374  27.914  1.00  0.00    -0.352 N 
ATOM     27  C   UNL A   1      34.613  30.938  28.609  1.00  0.00     0.251 C 
ATOM     28  H   UNL A   1      32.742  30.912  27.895  1.00  0.00     0.163 HD
ATOM     29  O   UNL A   1      34.464  32.001  29.204  1.00  0.00    -0.269 OA
BRANCH  27  30
ATOM     30  C   UNL A   1      35.906  30.227  28.677  1.00  0.00     0.039 A 
ATOM     31  C   UNL A   1      36.715  30.187  27.540  1.00  0.00     0.014 A 
ATOM     32  C   UNL A   1      36.348  29.671  29.879  1.00  0.00     0.014 A 
ATOM     33  C   UNL A   1      38.022  29.706  27.642  1.00  0.00     0.010 A 
ATOM     34  C   UNL A   1      37.674  29.265  29.998  1.00  0.00     0.010 A 
ATOM     35  C   UNL A   1      38.532  29.307  28.888  1.00  0.00    -0.014 A 
BRANCH  35  36
ATOM     36  C   UNL A   1      39.971  28.989  29.076  1.00  0.00     0.031 A 
ATOM     37  C   UNL A   1      40.925  30.052  29.543  1.00  0.00     0.074 A 
ATOM     38  C   UNL A   1      40.435  27.773  28.724  1.00  0.00     0.049 A 
ATOM     39  N   UNL A   1      42.229  30.010  29.631  1.00  0.00    -0.248 NA
ATOM     40  C   UNL A   1      40.336  31.342  29.935  1.00  0.00     0.031 C 
ATOM     41  C   UNL A   1      39.618  26.668  28.214  1.00  0.00     0.029 A 
ATOM     42  N   UNL A   1      41.710  27.265  28.723  1.00  0.00    -0.354 N 
ATOM     43  C   UNL A   1      42.619  31.270  30.067  1.00  0.00     0.074 A 
ATOM     44  C   UNL A   1      41.416  32.067  30.185  1.00  0.00     0.031 C 
ATOM     45  C   UNL A   1      40.407  25.610  27.972  1.00  0.00     0.029 A 
ATOM     46  C   UNL A   1      41.791  25.971  28.262  1.00  0.00     0.049 A 
ATOM     47  H   UNL A   1      42.494  27.778  29.025  1.00  0.00     0.167 HD
ATOM     48  C   UNL A   1      43.864  31.715  30.362  1.00  0.00     0.037 A 
ATOM     49  C   UNL A   1      42.858  25.171  28.078  1.00  0.00     0.037 A 
ATOM     50  C   UNL A   1      45.053  30.912  30.270  1.00  0.00     0.049 A 
ATOM     51  C   UNL A   1      44.232  25.693  28.396  1.00  0.00     0.074 A 
ATOM     52  C   UNL A   1      46.351  31.253  30.606  1.00  0.00     0.029 A 
ATOM     53  N   UNL A   1      45.091  29.603  29.808  1.00  0.00    -0.354 N 
ATOM     54  N   UNL A   1      44.577  26.872  28.855  1.00  0.00    -0.248 NA
ATOM     55  C   UNL A   1      45.361  24.781  28.165  1.00  0.00     0.031 C 
ATOM     56  C   UNL A   1      47.179  30.162  30.317  1.00  0.00     0.029 A 
ATOM     57  C   UNL A   1      46.391  29.130  29.833  1.00  0.00     0.049 A 
ATOM     58  H   UNL A   1      44.308  29.088  29.507  1.00  0.00     0.167 HD
ATOM     59  C   UNL A   1      45.961  26.838  28.984  1.00  0.00     0.074 A 
ATOM     60  C   UNL A   1      46.388  25.519  28.564  1.00  0.00     0.031 C 
ATOM     61  C   UNL A   1      46.800  27.812  29.413  1.00  0.00     0.037 A 
BRANCH  48  62
ATOM     62  C   UNL A   1      43.993  33.141  30.818  1.00  0.00     0.058 A 
ATOM     63  C   UNL A   1      43.902  33.486  32.176  1.00  0.00     0.135 A 
ATOM     64  C   UNL A   1      44.214  34.172  29.892  1.00  0.00     0.135 A 
ATOM     65  F   UNL A   1      43.676  32.539  33.100  1.00  0.00    -0.206 F 
ATOM     66  C   UNL A   1      43.989  34.808  32.597  1.00  0.00     0.059 A 
ATOM     67  C   UNL A   1      44.329  35.500  30.293  1.00  0.00     0.059 A 
ATOM     68  F   UNL A   1      44.310  33.896  28.582  1.00  0.00    -0.206 F 
ATOM     69  C   UNL A   1      44.195  35.810  31.647  1.00  0.00     0.060 A 
BRANCH  69  70
ATOM     70  S   UNL A   1      44.283  37.525  32.204  1.00  0.00     0.124 S 
ATOM     71  O   UNL A   1      43.780  38.235  31.032  1.00  0.00    -0.237 OA
ATOM     72  O   UNL A   1      43.404  37.524  33.369  1.00  0.00    -0.237 OA
ATOM     73  O   UNL A   1      45.701  37.714  32.493  1.00  0.00    -0.744 OA
ENDBRANCH  69  70
ENDBRANCH  48  62
BRANCH  49  74
ATOM     74  C   UNL A   1      42.669  23.783  27.582  1.00  0.00     0.058 A 
ATOM     75  C   UNL A   1      42.477  22.723  28.479  1.00  0.00     0.135 A 
ATOM     76  C   UNL A   1      42.652  23.491  26.209  1.00  0.00     0.135 A 
ATOM     77  F   UNL A   1      42.492  22.954  29.801  1.00  0.00    -0.206 F 
ATOM     78  C   UNL A   1      42.282  21.420  28.037  1.00  0.00     0.059 A 
ATOM     79  C   UNL A   1      42.440  22.198  25.741  1.00  0.00     0.059 A 
ATOM     80  F   UNL A   1      42.817  24.474  25.310  1.00  0.00    -0.206 F 
ATOM     81  C   UNL A   1      42.262  21.167  26.664  1.00  0.00     0.060 A 
BRANCH  81  82
ATOM     82  S   UNL A   1      41.950  19.481  26.097  1.00  0.00     0.124 S 
ATOM     83  O   UNL A   1      40.523  19.529  25.802  1.00  0.00    -0.237 OA
ATOM     84  O   UNL A   1      42.838  19.373  24.943  1.00  0.00    -0.237 OA
ATOM     85  O   UNL A   1      42.332  18.667  27.248  1.00  0.00    -0.744 OA
ENDBRANCH  81  82
ENDBRANCH  49  74
BRANCH  61  86
ATOM     86  C   UNL A   1      48.265  27.489  29.467  1.00  0.00     0.058 A 
ATOM     87  C   UNL A   1      49.120  27.786  28.396  1.00  0.00     0.135 A 
ATOM     88  C   UNL A   1      48.830  26.942  30.630  1.00  0.00     0.135 A 
ATOM     89  F   UNL A   1      48.624  28.299  27.259  1.00  0.00    -0.206 F 
ATOM     90  C   UNL A   1      50.489  27.548  28.473  1.00  0.00     0.059 A 
ATOM     91  C   UNL A   1      50.199  26.715  30.737  1.00  0.00     0.059 A 
ATOM     92  F   UNL A   1      48.054  26.646  31.685  1.00  0.00    -0.206 F 
ATOM     93  C   UNL A   1      51.020  27.017  29.650  1.00  0.00     0.060 A 
BRANCH  93  94
ATOM     94  S   UNL A   1      52.805  26.770  29.762  1.00  0.00     0.124 S 
ATOM     95  O   UNL A   1      53.281  28.136  29.946  1.00  0.00    -0.237 OA
ATOM     96  O   UNL A   1      52.928  25.893  30.922  1.00  0.00    -0.237 OA
ATOM     97  O   UNL A   1      53.142  26.153  28.482  1.00  0.00    -0.744 OA
ENDBRANCH  93  94
ENDBRANCH  61  86
ENDBRANCH  35  36
ENDBRANCH  27  30
ENDBRANCH  25  26
ENDBRANCH   1  25
TORSDOF 16
ENDMDL
MODEL 3
REMARK VINA RESULT:     -11.5      4.673     10.383
REMARK SMILES C=C1c2ccccc2C(=O)N1[C@](C)(C(=O)NCCCCNC(=O)c1ccc(-c2c3nc(c(-c4c(F)cc(S(=O)(=O)[O-])cc4F)c4ccc([nH]4)c(-c4c(F)cc(S(=O)(=O)[O-])cc4F)c4nc(c(-c5c(F)cc(S(=O)(=O)[O-])cc5F)c5ccc2[nH]5)C=C4)C=C3)cc1)C(F)(F)F
REMARK SMILES IDX 19 1 18 2 17 3 16 4 14 5 15 6 12 8 13 9 11 10 1 11 2 12 3 13
REMARK SMILES IDX 4 14 8 15 9 16 5 17 7 18 10 19 6 20 90 21 91 22 92 23 93 24
REMARK SMILES IDX 20 25 21 26 22 27 23 29 24 30 25 31 89 32 26 33 88 34 27 35
REMARK SMILES IDX 28 36 29 37 82 38 30 39 87 40 81 41 83 42 31 43 86 44 80 45
REMARK SMILES IDX 79 46 32 48 66 49 45 50 65 51 46 52 49 53 64 54 84 55 47 56
REMARK SMILES IDX 48 57 63 59 85 60 50 61 33 62 34 63 43 64 35 65 36 66 42 67
REMARK SMILES IDX 44 68 37 69 38 70 39 71 40 72 41 73 67 74 68 75 77 76 69 77
REMARK SMILES IDX 70 78 76 79 78 80 71 81 72 82 73 83 74 84 75 85 51 86 52 87
REMARK SMILES IDX 61 88 53 89 54 90 60 91 62 92 55 93 56 94 57 95 58 96 59 97
REMARK H PARENT 16 7 21 28 83 47 49 58
REMARK Flexibility Score: inf
ROOT
ATOM      1  C   UNL A   1      37.485  22.949  25.643  1.00  0.00     0.023 C 
ENDROOT
BRANCH   1   2
ATOM      2  C   UNL A   1      36.427  23.469  24.674  1.00  0.00     0.023 C 
BRANCH   2   3
ATOM      3  C   UNL A   1      35.310  24.299  25.294  1.00  0.00     0.116 C 
BRANCH   3   4
ATOM      4  N   UNL A   1      34.163  23.540  25.759  1.00  0.00    -0.354 N 
ATOM      5  C   UNL A   1      32.980  23.256  25.134  1.00  0.00     0.255 C 
ATOM      6  O   UNL A   1      32.491  22.166  25.464  1.00  0.00    -0.272 OA
ATOM      7  H   UNL A   1      34.251  23.173  26.667  1.00  0.00     0.163 HD
BRANCH   5   8
ATOM      8  C   UNL A   1      32.296  24.132  24.034  1.00  0.00     0.219 C 
ATOM      9  C   UNL A   1      30.930  23.611  23.537  1.00  0.00     0.056 C 
BRANCH   8  10
ATOM     10  N   UNL A   1      32.189  25.542  24.542  1.00  0.00    -0.285 N 
ATOM     11  C   UNL A   1      32.560  27.066  22.607  1.00  0.00     0.038 C 
ATOM     12  C   UNL A   1      32.362  26.769  23.893  1.00  0.00     0.046 C 
ATOM     13  C   UNL A   1      32.236  27.827  24.909  1.00  0.00     0.010 A 
ATOM     14  C   UNL A   1      32.363  29.208  24.879  1.00  0.00     0.011 A 
ATOM     15  C   UNL A   1      31.937  27.212  26.116  1.00  0.00     0.049 A 
ATOM     16  C   UNL A   1      31.834  25.782  25.873  1.00  0.00     0.260 C 
ATOM     17  C   UNL A   1      32.205  29.929  26.073  1.00  0.00     0.001 A 
ATOM     18  C   UNL A   1      31.782  27.890  27.313  1.00  0.00     0.014 A 
ATOM     19  O   UNL A   1      31.456  25.016  26.743  1.00  0.00    -0.269 OA
ATOM     20  C   UNL A   1      31.925  29.274  27.285  1.00  0.00     0.001 A 
ENDBRANCH   8  10
BRANCH   8  21
ATOM     21  C   UNL A   1      33.255  23.864  22.839  1.00  0.00     0.420 C 
ATOM     22  F   UNL A   1      33.719  22.585  22.851  1.00  0.00    -0.168 F 
ATOM     23  F   UNL A   1      32.601  23.986  21.648  1.00  0.00    -0.168 F 
ATOM     24  F   UNL A   1      34.330  24.675  22.766  1.00  0.00    -0.168 F 
ENDBRANCH   8  21
ENDBRANCH   5   8
ENDBRANCH   3   4
ENDBRANCH   2   3
ENDBRANCH   1   2
BRANCH   1  25
ATOM     25  C   UNL A   1      38.355  24.001  26.329  1.00  0.00     0.116 C 
BRANCH  25  26
ATOM     26  N   UNL A   1      39.778  23.679  26.348  1.00  0.00    -0.352 N 
ATOM     27  C   UNL A   1      40.827  24.349  26.937  1.00  0.00     0.251 C 
ATOM     28  H   UNL A   1      40.026  22.856  25.868  1.00  0.00     0.163 HD
ATOM     29  O   UNL A   1      41.980  23.953  26.789  1.00  0.00    -0.269 OA
BRANCH  27  30
ATOM     30  C   UNL A   1      40.562  25.581  27.707  1.00  0.00     0.039 A 
ATOM     31  C   UNL A   1      39.499  25.595  28.613  1.00  0.00     0.014 A 
ATOM     32  C   UNL A   1      41.405  26.687  27.588  1.00  0.00     0.014 A 
ATOM     33  C   UNL A   1      39.361  26.669  29.494  1.00  0.00     0.010 A 
ATOM     34  C   UNL A   1      41.314  27.719  28.518  1.00  0.00     0.010 A 
ATOM     35  C   UNL A   1      40.310  27.705  29.499  1.00  0.00    -0.014 A 
BRANCH  35  36
ATOM     36  C   UNL A   1      40.317  28.751  30.554  1.00  0.00     0.031 A 
ATOM     37  C   UNL A   1      41.243  28.631  31.731  1.00  0.00     0.074 A 
ATOM     38  C   UNL A   1      39.415  29.752  30.504  1.00  0.00     0.049 A 
ATOM     39  N   UNL A   1      41.297  29.359  32.816  1.00  0.00    -0.248 NA
ATOM     40  C   UNL A   1      42.216  27.529  31.696  1.00  0.00     0.031 C 
ATOM     41  C   UNL A   1      38.431  29.954  29.437  1.00  0.00     0.029 A 
ATOM     42  N   UNL A   1      39.164  30.778  31.380  1.00  0.00    -0.354 N 
ATOM     43  C   UNL A   1      42.293  28.793  33.602  1.00  0.00     0.074 A 
ATOM     44  C   UNL A   1      42.787  27.635  32.887  1.00  0.00     0.031 C 
ATOM     45  C   UNL A   1      37.701  31.047  29.710  1.00  0.00     0.029 A 
ATOM     46  C   UNL A   1      38.129  31.597  30.992  1.00  0.00     0.049 A 
ATOM     47  H   UNL A   1      39.677  30.916  32.209  1.00  0.00     0.167 HD
ATOM     48  C   UNL A   1      42.767  29.212  34.800  1.00  0.00     0.037 A 
ATOM     49  C   UNL A   1      37.576  32.661  31.605  1.00  0.00     0.037 A 
ATOM     50  C   UNL A   1      42.292  30.379  35.494  1.00  0.00     0.049 A 
ATOM     51  C   UNL A   1      38.107  33.098  32.942  1.00  0.00     0.074 A 
ATOM     52  C   UNL A   1      42.751  30.920  36.681  1.00  0.00     0.029 A 
ATOM     53  N   UNL A   1      41.249  31.187  35.062  1.00  0.00    -0.354 N 
ATOM     54  N   UNL A   1      39.084  32.579  33.648  1.00  0.00    -0.248 NA
ATOM     55  C   UNL A   1      37.458  34.257  33.571  1.00  0.00     0.031 C 
ATOM     56  C   UNL A   1      41.965  32.038  36.985  1.00  0.00     0.029 A 
ATOM     57  C   UNL A   1      41.038  32.211  35.969  1.00  0.00     0.049 A 
ATOM     58  H   UNL A   1      40.736  31.052  34.233  1.00  0.00     0.167 HD
ATOM     59  C   UNL A   1      39.178  33.359  34.794  1.00  0.00     0.074 A 
ATOM     60  C   UNL A   1      38.166  34.390  34.684  1.00  0.00     0.031 C 
ATOM     61  C   UNL A   1      40.027  33.232  35.843  1.00  0.00     0.037 A 
BRANCH  48  62
ATOM     62  C   UNL A   1      43.862  28.397  35.429  1.00  0.00     0.058 A 
ATOM     63  C   UNL A   1      43.577  27.377  36.350  1.00  0.00     0.135 A 
ATOM     64  C   UNL A   1      45.207  28.634  35.105  1.00  0.00     0.135 A 
ATOM     65  F   UNL A   1      42.308  27.122  36.705  1.00  0.00    -0.206 F 
ATOM     66  C   UNL A   1      44.590  26.644  36.958  1.00  0.00     0.059 A 
ATOM     67  C   UNL A   1      46.236  27.895  35.683  1.00  0.00     0.059 A 
ATOM     68  F   UNL A   1      45.533  29.596  34.229  1.00  0.00    -0.206 F 
ATOM     69  C   UNL A   1      45.918  26.916  36.624  1.00  0.00     0.060 A 
BRANCH  69  70
ATOM     70  S   UNL A   1      47.224  25.972  37.436  1.00  0.00     0.124 S 
ATOM     71  O   UNL A   1      47.937  25.419  36.289  1.00  0.00    -0.237 OA
ATOM     72  O   UNL A   1      47.937  27.001  38.187  1.00  0.00    -0.237 OA
ATOM     73  O   UNL A   1      46.491  25.005  38.246  1.00  0.00    -0.744 OA
ENDBRANCH  69  70
ENDBRANCH  48  62
BRANCH  49  74
ATOM     74  C   UNL A   1      36.465  33.400  30.951  1.00  0.00     0.058 A 
ATOM     75  C   UNL A   1      35.157  33.314  31.451  1.00  0.00     0.135 A 
ATOM     76  C   UNL A   1      36.687  34.222  29.835  1.00  0.00     0.135 A 
ATOM     77  F   UNL A   1      34.896  32.536  32.512  1.00  0.00    -0.206 F 
ATOM     78  C   UNL A   1      34.105  34.009  30.864  1.00  0.00     0.059 A 
ATOM     79  C   UNL A   1      35.654  34.942  29.242  1.00  0.00     0.059 A 
ATOM     80  F   UNL A   1      37.923  34.348  29.328  1.00  0.00    -0.206 F 
ATOM     81  C   UNL A   1      34.365  34.824  29.761  1.00  0.00     0.060 A 
BRANCH  81  82
ATOM     82  S   UNL A   1      33.004  35.769  29.042  1.00  0.00     0.124 S 
ATOM     83  O   UNL A   1      33.718  36.848  28.370  1.00  0.00    -0.237 OA
ATOM     84  O   UNL A   1      32.369  34.783  28.172  1.00  0.00    -0.237 OA
ATOM     85  O   UNL A   1      32.217  36.160  30.209  1.00  0.00    -0.744 OA
ENDBRANCH  81  82
ENDBRANCH  49  74
BRANCH  61  86
ATOM     86  C   UNL A   1      39.915  34.239  36.951  1.00  0.00     0.058 A 
ATOM     87  C   UNL A   1      40.553  35.485  36.873  1.00  0.00     0.135 A 
ATOM     88  C   UNL A   1      39.103  33.981  38.068  1.00  0.00     0.135 A 
ATOM     89  F   UNL A   1      41.347  35.773  35.831  1.00  0.00    -0.206 F 
ATOM     90  C   UNL A   1      40.394  36.444  37.869  1.00  0.00     0.059 A 
ATOM     91  C   UNL A   1      38.914  34.933  39.065  1.00  0.00     0.059 A 
ATOM     92  F   UNL A   1      38.467  32.804  38.185  1.00  0.00    -0.206 F 
ATOM     93  C   UNL A   1      39.568  36.160  38.959  1.00  0.00     0.060 A 
BRANCH  93  94
ATOM     94  S   UNL A   1      39.321  37.434  40.214  1.00  0.00     0.124 S 
ATOM     95  O   UNL A   1      38.659  36.680  41.272  1.00  0.00    -0.237 OA
ATOM     96  O   UNL A   1      40.687  37.863  40.500  1.00  0.00    -0.237 OA
ATOM     97  O   UNL A   1      38.491  38.424  39.533  1.00  0.00    -0.744 OA
ENDBRANCH  93  94
ENDBRANCH  61  86
ENDBRANCH  35  36
ENDBRANCH  27  30
ENDBRANCH  25  26
ENDBRANCH   1  25
TORSDOF 16
ENDMDL
