MODEL 1
REMARK VINA RESULT:     -13.7      0.000      0.000
REMARK SMILES Cc1cccc(OCC(=O)Nc2cc(C(=O)NCCCCNC(=O)c3ccc(-c4c5nc(c(-c6c(F)cc(S(=O)(=O)[O-])cc6F)c6ccc([nH]6)c(-c6c(F)cc(S(=O)(=O)[O-])cc6F)c6nc(c(-c7c(F)cc(S(=O)(=O)[O-])cc7F)c7ccc4[nH]7)C=C6)C=C5)cc3)c(Cl)cc2Cl)c1
REMARK SMILES IDX 19 1 18 2 17 3 15 4 16 5 14 7 12 8 13 9 94 10 93 11 95 12
REMARK SMILES IDX 91 13 92 14 11 15 9 16 10 17 8 19 7 20 6 21 1 22 2 23 3 24
REMARK SMILES IDX 96 25 4 26 5 27 20 28 21 29 22 30 23 31 24 33 25 34 26 35
REMARK SMILES IDX 90 36 27 37 89 38 28 39 29 40 30 41 83 42 31 43 88 44 82 45
REMARK SMILES IDX 84 46 32 47 87 48 81 49 80 50 33 52 67 53 46 54 66 55 47 56
REMARK SMILES IDX 50 57 65 58 85 59 48 60 49 61 64 63 86 64 51 65 34 66 35 67
REMARK SMILES IDX 44 68 36 69 37 70 43 71 45 72 38 73 39 74 40 75 41 76 42 77
REMARK SMILES IDX 68 78 69 79 78 80 70 81 71 82 77 83 79 84 72 85 73 86 74 87
REMARK SMILES IDX 75 88 76 89 52 90 53 91 62 92 54 93 55 94 61 95 63 96 56 97
REMARK SMILES IDX 57 98 58 99 59 100 60 101
REMARK H PARENT 17 6 11 18 22 32 84 51 50 62
REMARK Flexibility Score: inf
ROOT
ATOM      1  C   UNL A   1      32.018  29.448  26.443  1.00  0.00     0.023 C 
ENDROOT
BRANCH   1   2
ATOM      2  C   UNL A   1      31.864  29.782  24.956  1.00  0.00     0.116 C 
BRANCH   2   3
ATOM      3  N   UNL A   1      32.930  29.331  24.086  1.00  0.00    -0.352 N 
ATOM      4  C   UNL A   1      33.172  28.081  23.561  1.00  0.00     0.252 C 
ATOM      5  O   UNL A   1      33.950  27.983  22.614  1.00  0.00    -0.269 OA
ATOM      6  H   UNL A   1      33.581  30.024  23.832  1.00  0.00     0.163 HD
BRANCH   4   7
ATOM      7  C   UNL A   1      32.573  26.839  24.128  1.00  0.00     0.060 A 
ATOM      8  C   UNL A   1      32.635  24.940  25.673  1.00  0.00     0.061 A 
ATOM      9  C   UNL A   1      33.182  26.140  25.199  1.00  0.00     0.043 A 
ATOM     10  C   UNL A   1      31.403  24.511  25.131  1.00  0.00     0.066 A 
ATOM     11  C   UNL A   1      30.753  25.233  24.136  1.00  0.00     0.044 A 
ATOM     12  Cl  UNL A   1      30.636  23.054  25.684  1.00  0.00    -0.082 Cl
ATOM     13  C   UNL A   1      31.344  26.383  23.618  1.00  0.00     0.055 A 
ATOM     14  Cl  UNL A   1      30.501  27.142  22.309  1.00  0.00    -0.083 Cl
BRANCH   8  15
ATOM     15  N   UNL A   1      33.225  24.073  26.613  1.00  0.00    -0.322 N 
ATOM     16  C   UNL A   1      34.386  23.385  26.756  1.00  0.00     0.262 C 
ATOM     17  O   UNL A   1      34.460  22.655  27.755  1.00  0.00    -0.271 OA
ATOM     18  H   UNL A   1      32.627  23.924  27.382  1.00  0.00     0.170 HD
BRANCH  16  19
ATOM     19  C   UNL A   1      35.585  23.544  25.834  1.00  0.00     0.329 C 
BRANCH  19  20
ATOM     20  O   UNL A   1      35.730  22.645  24.758  1.00  0.00    -0.484 OA
BRANCH  20  21
ATOM     21  C   UNL A   1      34.629  22.022  24.248  1.00  0.00     0.120 A 
ATOM     22  C   UNL A   1      32.417  18.931  24.195  1.00  0.00     0.044 C 
ATOM     23  C   UNL A   1      32.920  20.326  23.977  1.00  0.00    -0.047 A 
ATOM     24  C   UNL A   1      32.264  21.129  23.037  1.00  0.00     0.003 A 
ATOM     25  C   UNL A   1      34.098  20.787  24.599  1.00  0.00     0.049 A 
ATOM     26  C   UNL A   1      32.815  22.339  22.657  1.00  0.00     0.004 A 
ATOM     27  C   UNL A   1      34.009  22.748  23.236  1.00  0.00     0.046 A 
ENDBRANCH  20  21
ENDBRANCH  19  20
ENDBRANCH  16  19
ENDBRANCH   8  15
ENDBRANCH   4   7
ENDBRANCH   2   3
ENDBRANCH   1   2
BRANCH   1  28
ATOM     28  C   UNL A   1      32.905  30.354  27.306  1.00  0.00     0.023 C 
BRANCH  28  29
ATOM     29  C   UNL A   1      34.416  30.090  27.291  1.00  0.00     0.116 C 
BRANCH  29  30
ATOM     30  N   UNL A   1      35.223  31.248  27.680  1.00  0.00    -0.352 N 
ATOM     31  C   UNL A   1      36.519  31.290  28.189  1.00  0.00     0.251 C 
ATOM     32  H   UNL A   1      34.787  32.124  27.563  1.00  0.00     0.163 HD
ATOM     33  O   UNL A   1      37.027  32.337  28.534  1.00  0.00    -0.269 OA
BRANCH  31  34
ATOM     34  C   UNL A   1      37.273  30.017  28.252  1.00  0.00     0.039 A 
ATOM     35  C   UNL A   1      37.176  29.233  29.405  1.00  0.00     0.014 A 
ATOM     36  C   UNL A   1      38.250  29.771  27.298  1.00  0.00     0.014 A 
ATOM     37  C   UNL A   1      38.211  28.355  29.720  1.00  0.00     0.010 A 
ATOM     38  C   UNL A   1      39.324  28.988  27.662  1.00  0.00     0.010 A 
ATOM     39  C   UNL A   1      39.332  28.319  28.898  1.00  0.00    -0.014 A 
BRANCH  39  40
ATOM     40  C   UNL A   1      40.603  27.689  29.247  1.00  0.00     0.031 A 
ATOM     41  C   UNL A   1      40.864  26.288  28.840  1.00  0.00     0.074 A 
ATOM     42  C   UNL A   1      41.604  28.462  29.723  1.00  0.00     0.049 A 
ATOM     43  N   UNL A   1      41.896  25.592  29.174  1.00  0.00    -0.248 NA
ATOM     44  C   UNL A   1      39.913  25.538  28.028  1.00  0.00     0.031 C 
ATOM     45  C   UNL A   1      43.038  28.195  29.644  1.00  0.00     0.029 A 
ATOM     46  N   UNL A   1      41.505  29.574  30.561  1.00  0.00    -0.354 N 
ATOM     47  C   UNL A   1      41.894  24.435  28.421  1.00  0.00     0.074 A 
ATOM     48  C   UNL A   1      40.608  24.429  27.767  1.00  0.00     0.031 C 
ATOM     49  C   UNL A   1      43.676  28.958  30.545  1.00  0.00     0.029 A 
ATOM     50  C   UNL A   1      42.655  29.582  31.372  1.00  0.00     0.049 A 
ATOM     51  H   UNL A   1      40.770  30.228  30.581  1.00  0.00     0.167 HD
ATOM     52  C   UNL A   1      43.036  23.690  28.341  1.00  0.00     0.037 A 
ATOM     53  C   UNL A   1      42.566  29.401  32.724  1.00  0.00     0.037 A 
ATOM     54  C   UNL A   1      44.039  24.183  29.288  1.00  0.00     0.049 A 
ATOM     55  C   UNL A   1      43.306  28.189  33.238  1.00  0.00     0.074 A 
ATOM     56  C   UNL A   1      45.145  25.006  29.147  1.00  0.00     0.029 A 
ATOM     57  N   UNL A   1      43.799  24.083  30.657  1.00  0.00    -0.354 N 
ATOM     58  N   UNL A   1      43.645  27.165  32.506  1.00  0.00    -0.248 NA
ATOM     59  C   UNL A   1      43.709  28.040  34.634  1.00  0.00     0.031 C 
ATOM     60  C   UNL A   1      45.526  25.456  30.437  1.00  0.00     0.029 A 
ATOM     61  C   UNL A   1      44.668  24.892  31.365  1.00  0.00     0.049 A 
ATOM     62  H   UNL A   1      43.106  23.513  31.064  1.00  0.00     0.167 HD
ATOM     63  C   UNL A   1      44.231  26.212  33.300  1.00  0.00     0.074 A 
ATOM     64  C   UNL A   1      44.288  26.827  34.613  1.00  0.00     0.031 C 
ATOM     65  C   UNL A   1      44.595  24.987  32.817  1.00  0.00     0.037 A 
BRANCH  52  66
ATOM     66  C   UNL A   1      43.351  22.726  27.200  1.00  0.00     0.058 A 
ATOM     67  C   UNL A   1      42.666  21.493  27.089  1.00  0.00     0.135 A 
ATOM     68  C   UNL A   1      44.367  22.901  26.238  1.00  0.00     0.135 A 
ATOM     69  F   UNL A   1      41.596  21.215  27.846  1.00  0.00    -0.206 F 
ATOM     70  C   UNL A   1      43.048  20.478  26.203  1.00  0.00     0.059 A 
ATOM     71  C   UNL A   1      44.804  21.885  25.380  1.00  0.00     0.059 A 
ATOM     72  F   UNL A   1      44.943  24.089  26.033  1.00  0.00    -0.206 F 
ATOM     73  C   UNL A   1      44.147  20.666  25.379  1.00  0.00     0.060 A 
BRANCH  73  74
ATOM     74  S   UNL A   1      44.687  19.323  24.306  1.00  0.00     0.124 S 
ATOM     75  O   UNL A   1      46.092  19.178  24.675  1.00  0.00    -0.237 OA
ATOM     76  O   UNL A   1      43.806  18.234  24.716  1.00  0.00    -0.237 OA
ATOM     77  O   UNL A   1      44.451  19.845  22.962  1.00  0.00    -0.744 OA
ENDBRANCH  73  74
ENDBRANCH  52  66
BRANCH  53  78
ATOM     78  C   UNL A   1      41.297  29.916  33.312  1.00  0.00     0.058 A 
ATOM     79  C   UNL A   1      41.215  31.285  33.612  1.00  0.00     0.135 A 
ATOM     80  C   UNL A   1      40.095  29.208  33.178  1.00  0.00     0.135 A 
ATOM     81  F   UNL A   1      42.339  31.994  33.802  1.00  0.00    -0.206 F 
ATOM     82  C   UNL A   1      40.002  31.964  33.595  1.00  0.00     0.059 A 
ATOM     83  C   UNL A   1      38.864  29.867  33.171  1.00  0.00     0.059 A 
ATOM     84  F   UNL A   1      40.111  27.894  32.912  1.00  0.00    -0.206 F 
ATOM     85  C   UNL A   1      38.841  31.256  33.298  1.00  0.00     0.060 A 
BRANCH  85  86
ATOM     86  S   UNL A   1      37.348  32.200  32.911  1.00  0.00     0.124 S 
ATOM     87  O   UNL A   1      36.678  32.275  34.205  1.00  0.00    -0.237 OA
ATOM     88  O   UNL A   1      37.912  33.451  32.415  1.00  0.00    -0.237 OA
ATOM     89  O   UNL A   1      36.685  31.379  31.903  1.00  0.00    -0.744 OA
ENDBRANCH  85  86
ENDBRANCH  53  78
BRANCH  65  90
ATOM     90  C   UNL A   1      44.995  23.795  33.661  1.00  0.00     0.058 A 
ATOM     91  C   UNL A   1      44.124  22.746  34.006  1.00  0.00     0.135 A 
ATOM     92  C   UNL A   1      46.346  23.609  34.045  1.00  0.00     0.135 A 
ATOM     93  F   UNL A   1      42.850  22.728  33.592  1.00  0.00    -0.206 F 
ATOM     94  C   UNL A   1      44.537  21.639  34.751  1.00  0.00     0.059 A 
ATOM     95  C   UNL A   1      46.792  22.483  34.736  1.00  0.00     0.059 A 
ATOM     96  F   UNL A   1      47.290  24.514  33.746  1.00  0.00    -0.206 F 
ATOM     97  C   UNL A   1      45.873  21.515  35.112  1.00  0.00     0.060 A 
BRANCH  97  98
ATOM     98  S   UNL A   1      46.427  20.057  36.016  1.00  0.00     0.124 S 
ATOM     99  O   UNL A   1      47.873  20.251  36.023  1.00  0.00    -0.237 OA
ATOM    100  O   UNL A   1      45.767  20.205  37.311  1.00  0.00    -0.237 OA
ATOM    101  O   UNL A   1      45.939  18.955  35.195  1.00  0.00    -0.744 OA
ENDBRANCH  97  98
ENDBRANCH  65  90
ENDBRANCH  39  40
ENDBRANCH  31  34
ENDBRANCH  29  30
ENDBRANCH  28  29
ENDBRANCH   1  28
TORSDOF 18
ENDMDL
MODEL 2
REMARK VINA RESULT:     -13.3      4.648     11.184
REMARK SMILES Cc1cccc(OCC(=O)Nc2cc(C(=O)NCCCCNC(=O)c3ccc(-c4c5nc(c(-c6c(F)cc(S(=O)(=O)[O-])cc6F)c6ccc([nH]6)c(-c6c(F)cc(S(=O)(=O)[O-])cc6F)c6nc(c(-c7c(F)cc(S(=O)(=O)[O-])cc7F)c7ccc4[nH]7)C=C6)C=C5)cc3)c(Cl)cc2Cl)c1
REMARK SMILES IDX 19 1 18 2 17 3 15 4 16 5 14 7 12 8 13 9 94 10 93 11 95 12
REMARK SMILES IDX 91 13 92 14 11 15 9 16 10 17 8 19 7 20 6 21 1 22 2 23 3 24
REMARK SMILES IDX 96 25 4 26 5 27 20 28 21 29 22 30 23 31 24 33 25 34 26 35
REMARK SMILES IDX 90 36 27 37 89 38 28 39 29 40 30 41 83 42 31 43 88 44 82 45
REMARK SMILES IDX 84 46 32 47 87 48 81 49 80 50 33 52 67 53 46 54 66 55 47 56
REMARK SMILES IDX 50 57 65 58 85 59 48 60 49 61 64 63 86 64 51 65 34 66 35 67
REMARK SMILES IDX 44 68 36 69 37 70 43 71 45 72 38 73 39 74 40 75 41 76 42 77
REMARK SMILES IDX 68 78 69 79 78 80 70 81 71 82 77 83 79 84 72 85 73 86 74 87
REMARK SMILES IDX 75 88 76 89 52 90 53 91 62 92 54 93 55 94 61 95 63 96 56 97
REMARK SMILES IDX 57 98 58 99 59 100 60 101
REMARK H PARENT 17 6 11 18 22 32 84 51 50 62
REMARK Flexibility Score: inf
ROOT
ATOM      1  C   UNL A   1      36.369  21.750  26.046  1.00  0.00     0.023 C 
ENDROOT
BRANCH   1   2
ATOM      2  C   UNL A   1      34.963  21.673  25.443  1.00  0.00     0.116 C 
BRANCH   2   3
ATOM      3  N   UNL A   1      34.829  22.126  24.074  1.00  0.00    -0.352 N 
ATOM      4  C   UNL A   1      34.408  23.342  23.584  1.00  0.00     0.252 C 
ATOM      5  O   UNL A   1      34.654  23.619  22.411  1.00  0.00    -0.269 OA
ATOM      6  H   UNL A   1      35.077  21.463  23.390  1.00  0.00     0.163 HD
BRANCH   4   7
ATOM      7  C   UNL A   1      33.620  24.311  24.399  1.00  0.00     0.060 A 
ATOM      8  C   UNL A   1      33.455  26.367  25.717  1.00  0.00     0.061 A 
ATOM      9  C   UNL A   1      34.196  25.504  24.900  1.00  0.00     0.043 A 
ATOM     10  C   UNL A   1      32.090  26.074  25.931  1.00  0.00     0.066 A 
ATOM     11  C   UNL A   1      31.491  24.948  25.374  1.00  0.00     0.044 A 
ATOM     12  Cl  UNL A   1      31.088  27.108  26.902  1.00  0.00    -0.082 Cl
ATOM     13  C   UNL A   1      32.256  24.055  24.628  1.00  0.00     0.055 A 
ATOM     14  Cl  UNL A   1      31.434  22.634  24.076  1.00  0.00    -0.083 Cl
BRANCH   8  15
ATOM     15  N   UNL A   1      33.953  27.491  26.405  1.00  0.00    -0.322 N 
ATOM     16  C   UNL A   1      33.935  28.842  26.270  1.00  0.00     0.262 C 
ATOM     17  O   UNL A   1      34.593  29.475  27.107  1.00  0.00    -0.271 OA
ATOM     18  H   UNL A   1      34.457  27.221  27.208  1.00  0.00     0.170 HD
BRANCH  16  19
ATOM     19  C   UNL A   1      33.092  29.579  25.240  1.00  0.00     0.329 C 
BRANCH  19  20
ATOM     20  O   UNL A   1      33.357  29.358  23.873  1.00  0.00    -0.484 OA
BRANCH  20  21
ATOM     21  C   UNL A   1      32.641  28.418  23.192  1.00  0.00     0.120 A 
ATOM     22  C   UNL A   1      32.638  25.598  20.643  1.00  0.00     0.044 C 
ATOM     23  C   UNL A   1      32.206  26.537  21.729  1.00  0.00    -0.047 A 
ATOM     24  C   UNL A   1      30.850  26.577  22.069  1.00  0.00     0.003 A 
ATOM     25  C   UNL A   1      33.107  27.451  22.311  1.00  0.00     0.049 A 
ATOM     26  C   UNL A   1      30.378  27.565  22.914  1.00  0.00     0.004 A 
ATOM     27  C   UNL A   1      31.271  28.495  23.429  1.00  0.00     0.046 A 
ENDBRANCH  20  21
ENDBRANCH  19  20
ENDBRANCH  16  19
ENDBRANCH   8  15
ENDBRANCH   4   7
ENDBRANCH   2   3
ENDBRANCH   1   2
BRANCH   1  28
ATOM     28  C   UNL A   1      36.968  23.133  26.326  1.00  0.00     0.023 C 
BRANCH  28  29
ATOM     29  C   UNL A   1      38.395  23.401  25.831  1.00  0.00     0.116 C 
BRANCH  29  30
ATOM     30  N   UNL A   1      39.433  23.065  26.809  1.00  0.00    -0.352 N 
ATOM     31  C   UNL A   1      40.109  23.898  27.699  1.00  0.00     0.251 C 
ATOM     32  H   UNL A   1      39.688  22.115  26.843  1.00  0.00     0.163 HD
ATOM     33  O   UNL A   1      41.003  23.474  28.402  1.00  0.00    -0.269 OA
BRANCH  31  34
ATOM     34  C   UNL A   1      39.666  25.307  27.791  1.00  0.00     0.039 A 
ATOM     35  C   UNL A   1      40.132  26.223  26.844  1.00  0.00     0.014 A 
ATOM     36  C   UNL A   1      39.030  25.734  28.949  1.00  0.00     0.014 A 
ATOM     37  C   UNL A   1      40.180  27.577  27.172  1.00  0.00     0.010 A 
ATOM     38  C   UNL A   1      39.179  27.054  29.317  1.00  0.00     0.010 A 
ATOM     39  C   UNL A   1      39.801  27.969  28.451  1.00  0.00    -0.014 A 
BRANCH  39  40
ATOM     40  C   UNL A   1      40.073  29.280  29.037  1.00  0.00     0.031 A 
ATOM     41  C   UNL A   1      39.028  30.331  29.000  1.00  0.00     0.074 A 
ATOM     42  C   UNL A   1      41.174  29.436  29.804  1.00  0.00     0.049 A 
ATOM     43  N   UNL A   1      39.180  31.551  29.387  1.00  0.00    -0.248 NA
ATOM     44  C   UNL A   1      37.698  30.069  28.461  1.00  0.00     0.031 C 
ATOM     45  C   UNL A   1      41.376  30.417  30.867  1.00  0.00     0.029 A 
ATOM     46  N   UNL A   1      42.427  28.844  29.636  1.00  0.00    -0.354 N 
ATOM     47  C   UNL A   1      37.936  32.149  29.416  1.00  0.00     0.074 A 
ATOM     48  C   UNL A   1      37.060  31.197  28.776  1.00  0.00     0.031 C 
ATOM     49  C   UNL A   1      42.691  30.524  31.120  1.00  0.00     0.029 A 
ATOM     50  C   UNL A   1      43.384  29.772  30.086  1.00  0.00     0.049 A 
ATOM     51  H   UNL A   1      42.607  27.947  29.272  1.00  0.00     0.167 HD
ATOM     52  C   UNL A   1      37.776  33.322  30.097  1.00  0.00     0.037 A 
ATOM     53  C   UNL A   1      44.284  30.332  29.222  1.00  0.00     0.037 A 
ATOM     54  C   UNL A   1      39.076  33.853  30.517  1.00  0.00     0.049 A 
ATOM     55  C   UNL A   1      44.190  31.835  29.116  1.00  0.00     0.074 A 
ATOM     56  C   UNL A   1      39.766  33.814  31.718  1.00  0.00     0.029 A 
ATOM     57  N   UNL A   1      39.991  34.274  29.555  1.00  0.00    -0.354 N 
ATOM     58  N   UNL A   1      43.139  32.534  29.441  1.00  0.00    -0.248 NA
ATOM     59  C   UNL A   1      45.284  32.665  28.620  1.00  0.00     0.031 C 
ATOM     60  C   UNL A   1      41.120  34.146  31.459  1.00  0.00     0.029 A 
ATOM     61  C   UNL A   1      41.251  34.408  30.106  1.00  0.00     0.049 A 
ATOM     62  H   UNL A   1      39.770  34.450  28.611  1.00  0.00     0.167 HD
ATOM     63  C   UNL A   1      43.362  33.856  29.149  1.00  0.00     0.074 A 
ATOM     64  C   UNL A   1      44.735  33.890  28.680  1.00  0.00     0.031 C 
ATOM     65  C   UNL A   1      42.392  34.807  29.291  1.00  0.00     0.037 A 
BRANCH  52  66
ATOM     66  C   UNL A   1      36.441  33.819  30.645  1.00  0.00     0.058 A 
ATOM     67  C   UNL A   1      35.418  34.249  29.767  1.00  0.00     0.135 A 
ATOM     68  C   UNL A   1      36.129  33.987  32.009  1.00  0.00     0.135 A 
ATOM     69  F   UNL A   1      35.500  34.052  28.444  1.00  0.00    -0.206 F 
ATOM     70  C   UNL A   1      34.261  34.908  30.199  1.00  0.00     0.059 A 
ATOM     71  C   UNL A   1      35.008  34.691  32.465  1.00  0.00     0.059 A 
ATOM     72  F   UNL A   1      36.858  33.416  32.972  1.00  0.00    -0.206 F 
ATOM     73  C   UNL A   1      34.083  35.164  31.551  1.00  0.00     0.060 A 
BRANCH  73  74
ATOM     74  S   UNL A   1      32.637  36.093  32.091  1.00  0.00     0.124 S 
ATOM     75  O   UNL A   1      32.252  36.801  30.874  1.00  0.00    -0.237 OA
ATOM     76  O   UNL A   1      31.735  35.029  32.519  1.00  0.00    -0.237 OA
ATOM     77  O   UNL A   1      33.156  36.940  33.161  1.00  0.00    -0.744 OA
ENDBRANCH  73  74
ENDBRANCH  52  66
BRANCH  53  78
ATOM     78  C   UNL A   1      44.661  29.438  28.091  1.00  0.00     0.058 A 
ATOM     79  C   UNL A   1      45.682  28.497  28.304  1.00  0.00     0.135 A 
ATOM     80  C   UNL A   1      43.786  29.214  27.020  1.00  0.00     0.135 A 
ATOM     81  F   UNL A   1      46.576  28.695  29.284  1.00  0.00    -0.206 F 
ATOM     82  C   UNL A   1      45.723  27.295  27.607  1.00  0.00     0.059 A 
ATOM     83  C   UNL A   1      43.816  28.019  26.298  1.00  0.00     0.059 A 
ATOM     84  F   UNL A   1      42.803  30.087  26.756  1.00  0.00    -0.206 F 
ATOM     85  C   UNL A   1      44.738  27.036  26.657  1.00  0.00     0.060 A 
BRANCH  85  86
ATOM     86  S   UNL A   1      44.580  25.344  26.040  1.00  0.00     0.124 S 
ATOM     87  O   UNL A   1      43.903  24.669  27.143  1.00  0.00    -0.237 OA
ATOM     88  O   UNL A   1      43.782  25.544  24.834  1.00  0.00    -0.237 OA
ATOM     89  O   UNL A   1      45.963  24.942  25.807  1.00  0.00    -0.744 OA
ENDBRANCH  85  86
ENDBRANCH  53  78
BRANCH  65  90
ATOM     90  C   UNL A   1      42.462  36.219  28.750  1.00  0.00     0.058 A 
ATOM     91  C   UNL A   1      43.064  37.294  29.429  1.00  0.00     0.135 A 
ATOM     92  C   UNL A   1      42.028  36.505  27.432  1.00  0.00     0.135 A 
ATOM     93  F   UNL A   1      43.637  37.131  30.629  1.00  0.00    -0.206 F 
ATOM     94  C   UNL A   1      43.151  38.576  28.883  1.00  0.00     0.059 A 
ATOM     95  C   UNL A   1      42.160  37.763  26.845  1.00  0.00     0.059 A 
ATOM     96  F   UNL A   1      41.471  35.561  26.658  1.00  0.00    -0.206 F 
ATOM     97  C   UNL A   1      42.695  38.803  27.589  1.00  0.00     0.060 A 
BRANCH  97  98
ATOM     98  S   UNL A   1      42.863  40.438  26.852  1.00  0.00     0.124 S 
ATOM     99  O   UNL A   1      43.418  41.203  27.964  1.00  0.00    -0.237 OA
ATOM    100  O   UNL A   1      43.775  40.202  25.735  1.00  0.00    -0.237 OA
ATOM    101  O   UNL A   1      41.495  40.772  26.473  1.00  0.00    -0.744 OA
ENDBRANCH  97  98
ENDBRANCH  65  90
ENDBRANCH  39  40
ENDBRANCH  31  34
ENDBRANCH  29  30
ENDBRANCH  28  29
ENDBRANCH   1  28
TORSDOF 18
ENDMDL
MODEL 3
REMARK VINA RESULT:     -12.3      1.602      2.327
REMARK SMILES Cc1cccc(OCC(=O)Nc2cc(C(=O)NCCCCNC(=O)c3ccc(-c4c5nc(c(-c6c(F)cc(S(=O)(=O)[O-])cc6F)c6ccc([nH]6)c(-c6c(F)cc(S(=O)(=O)[O-])cc6F)c6nc(c(-c7c(F)cc(S(=O)(=O)[O-])cc7F)c7ccc4[nH]7)C=C6)C=C5)cc3)c(Cl)cc2Cl)c1
REMARK SMILES IDX 19 1 18 2 17 3 15 4 16 5 14 7 12 8 13 9 94 10 93 11 95 12
REMARK SMILES IDX 91 13 92 14 11 15 9 16 10 17 8 19 7 20 6 21 1 22 2 23 3 24
REMARK SMILES IDX 96 25 4 26 5 27 20 28 21 29 22 30 23 31 24 33 25 34 26 35
REMARK SMILES IDX 90 36 27 37 89 38 28 39 29 40 30 41 83 42 31 43 88 44 82 45
REMARK SMILES IDX 84 46 32 47 87 48 81 49 80 50 33 52 67 53 46 54 66 55 47 56
REMARK SMILES IDX 50 57 65 58 85 59 48 60 49 61 64 63 86 64 51 65 34 66 35 67
REMARK SMILES IDX 44 68 36 69 37 70 43 71 45 72 38 73 39 74 40 75 41 76 42 77
REMARK SMILES IDX 68 78 69 79 78 80 70 81 71 82 77 83 79 84 72 85 73 86 74 87
REMARK SMILES IDX 75 88 76 89 52 90 53 91 62 92 54 93 55 94 61 95 63 96 56 97
REMARK SMILES IDX 57 98 58 99 59 100 60 101
REMARK H PARENT 17 6 11 18 22 32 84 51 50 62
REMARK Flexibility Score: inf
ROOT
ATOM      1  C   UNL A   1      31.411  29.511  25.992  1.00  0.00     0.023 C 
ENDROOT
BRANCH   1   2
ATOM      2  C   UNL A   1      31.513  29.399  24.468  1.00  0.00     0.116 C 
BRANCH   2   3
ATOM      3  N   UNL A   1      32.784  28.945  23.944  1.00  0.00    -0.352 N 
ATOM      4  C   UNL A   1      33.225  27.667  23.682  1.00  0.00     0.252 C 
ATOM      5  O   UNL A   1      34.212  27.522  22.964  1.00  0.00    -0.269 OA
ATOM      6  H   UNL A   1      33.430  29.659  23.745  1.00  0.00     0.163 HD
BRANCH   4   7
ATOM      7  C   UNL A   1      32.588  26.457  24.276  1.00  0.00     0.060 A 
ATOM      8  C   UNL A   1      32.547  24.644  25.922  1.00  0.00     0.061 A 
ATOM      9  C   UNL A   1      33.126  25.817  25.420  1.00  0.00     0.043 A 
ATOM     10  C   UNL A   1      31.350  24.186  25.328  1.00  0.00     0.066 A 
ATOM     11  C   UNL A   1      30.765  24.853  24.257  1.00  0.00     0.044 A 
ATOM     12  Cl  UNL A   1      30.546  22.760  25.910  1.00  0.00    -0.082 Cl
ATOM     13  C   UNL A   1      31.391  25.974  23.716  1.00  0.00     0.055 A 
ATOM     14  Cl  UNL A   1      30.634  26.660  22.318  1.00  0.00    -0.083 Cl
BRANCH   8  15
ATOM     15  N   UNL A   1      33.074  23.829  26.943  1.00  0.00    -0.322 N 
ATOM     16  C   UNL A   1      34.138  23.007  27.124  1.00  0.00     0.262 C 
ATOM     17  O   UNL A   1      34.178  22.407  28.207  1.00  0.00    -0.271 OA
ATOM     18  H   UNL A   1      32.513  23.866  27.752  1.00  0.00     0.170 HD
BRANCH  16  19
ATOM     19  C   UNL A   1      35.286  22.875  26.134  1.00  0.00     0.329 C 
BRANCH  19  20
ATOM     20  O   UNL A   1      35.182  21.913  25.108  1.00  0.00    -0.484 OA
BRANCH  20  21
ATOM     21  C   UNL A   1      34.276  22.093  24.105  1.00  0.00     0.120 A 
ATOM     22  C   UNL A   1      33.074  24.231  21.201  1.00  0.00     0.044 C 
ATOM     23  C   UNL A   1      33.242  23.084  22.151  1.00  0.00    -0.047 A 
ATOM     24  C   UNL A   1      32.292  22.057  22.125  1.00  0.00     0.003 A 
ATOM     25  C   UNL A   1      34.250  23.088  23.136  1.00  0.00     0.049 A 
ATOM     26  C   UNL A   1      32.292  21.090  23.114  1.00  0.00     0.004 A 
ATOM     27  C   UNL A   1      33.256  21.146  24.111  1.00  0.00     0.046 A 
ENDBRANCH  20  21
ENDBRANCH  19  20
ENDBRANCH  16  19
ENDBRANCH   8  15
ENDBRANCH   4   7
ENDBRANCH   2   3
ENDBRANCH   1   2
BRANCH   1  28
ATOM     28  C   UNL A   1      32.027  30.738  26.676  1.00  0.00     0.023 C 
BRANCH  28  29
ATOM     29  C   UNL A   1      33.406  30.570  27.325  1.00  0.00     0.116 C 
BRANCH  29  30
ATOM     30  N   UNL A   1      33.944  31.805  27.900  1.00  0.00    -0.352 N 
ATOM     31  C   UNL A   1      35.135  32.010  28.594  1.00  0.00     0.251 C 
ATOM     32  H   UNL A   1      33.384  32.606  27.776  1.00  0.00     0.163 HD
ATOM     33  O   UNL A   1      35.406  33.091  29.074  1.00  0.00    -0.269 OA
BRANCH  31  34
ATOM     34  C   UNL A   1      36.081  30.875  28.685  1.00  0.00     0.039 A 
ATOM     35  C   UNL A   1      36.113  30.118  29.859  1.00  0.00     0.014 A 
ATOM     36  C   UNL A   1      37.081  30.759  27.729  1.00  0.00     0.014 A 
ATOM     37  C   UNL A   1      37.276  29.423  30.189  1.00  0.00     0.010 A 
ATOM     38  C   UNL A   1      38.267  30.166  28.106  1.00  0.00     0.010 A 
ATOM     39  C   UNL A   1      38.385  29.542  29.359  1.00  0.00    -0.014 A 
BRANCH  39  40
ATOM     40  C   UNL A   1      39.741  29.131  29.714  1.00  0.00     0.031 A 
ATOM     41  C   UNL A   1      40.238  27.799  29.294  1.00  0.00     0.074 A 
ATOM     42  C   UNL A   1      40.593  30.055  30.209  1.00  0.00     0.049 A 
ATOM     43  N   UNL A   1      41.369  27.282  29.631  1.00  0.00    -0.248 NA
ATOM     44  C   UNL A   1      39.434  26.909  28.464  1.00  0.00     0.031 C 
ATOM     45  C   UNL A   1      42.052  30.034  30.141  1.00  0.00     0.029 A 
ATOM     46  N   UNL A   1      40.302  31.124  31.058  1.00  0.00    -0.354 N 
ATOM     47  C   UNL A   1      41.568  26.151  28.865  1.00  0.00     0.074 A 
ATOM     48  C   UNL A   1      40.307  25.937  28.199  1.00  0.00     0.031 C 
ATOM     49  C   UNL A   1      42.545  30.883  31.058  1.00  0.00     0.029 A 
ATOM     50  C   UNL A   1      41.427  31.315  31.880  1.00  0.00     0.049 A 
ATOM     51  H   UNL A   1      39.467  31.644  31.077  1.00  0.00     0.167 HD
ATOM     52  C   UNL A   1      42.820  25.610  28.789  1.00  0.00     0.037 A 
ATOM     53  C   UNL A   1      41.358  31.105  33.230  1.00  0.00     0.037 A 
ATOM     54  C   UNL A   1      43.718  26.253  29.753  1.00  0.00     0.049 A 
ATOM     55  C   UNL A   1      42.288  30.029  33.738  1.00  0.00     0.074 A 
ATOM     56  C   UNL A   1      44.671  27.252  29.632  1.00  0.00     0.029 A 
ATOM     57  N   UNL A   1      43.487  26.097  31.117  1.00  0.00    -0.354 N 
ATOM     58  N   UNL A   1      42.801  29.086  32.998  1.00  0.00    -0.248 NA
ATOM     59  C   UNL A   1      42.699  29.932  35.136  1.00  0.00     0.031 C 
ATOM     60  C   UNL A   1      44.960  27.744  30.930  1.00  0.00     0.029 A 
ATOM     61  C   UNL A   1      44.201  27.031  31.843  1.00  0.00     0.049 A 
ATOM     62  H   UNL A   1      42.896  25.414  31.511  1.00  0.00     0.167 HD
ATOM     63  C   UNL A   1      43.532  28.234  33.787  1.00  0.00     0.074 A 
ATOM     64  C   UNL A   1      43.474  28.834  35.108  1.00  0.00     0.031 C 
ATOM     65  C   UNL A   1      44.101  27.094  33.295  1.00  0.00     0.037 A 
BRANCH  52  66
ATOM     66  C   UNL A   1      43.303  24.727  27.641  1.00  0.00     0.058 A 
ATOM     67  C   UNL A   1      43.699  23.389  27.879  1.00  0.00     0.135 A 
ATOM     68  C   UNL A   1      43.489  25.147  26.309  1.00  0.00     0.135 A 
ATOM     69  F   UNL A   1      43.480  22.792  29.058  1.00  0.00    -0.206 F 
ATOM     70  C   UNL A   1      44.345  22.597  26.922  1.00  0.00     0.059 A 
ATOM     71  C   UNL A   1      44.180  24.398  25.350  1.00  0.00     0.059 A 
ATOM     72  F   UNL A   1      42.948  26.278  25.847  1.00  0.00    -0.206 F 
ATOM     73  C   UNL A   1      44.621  23.125  25.670  1.00  0.00     0.060 A 
BRANCH  73  74
ATOM     74  S   UNL A   1      45.533  22.131  24.475  1.00  0.00     0.124 S 
ATOM     75  O   UNL A   1      44.460  21.487  23.725  1.00  0.00    -0.237 OA
ATOM     76  O   UNL A   1      46.293  23.146  23.753  1.00  0.00    -0.237 OA
ATOM     77  O   UNL A   1      46.326  21.235  25.312  1.00  0.00    -0.744 OA
ENDBRANCH  73  74
ENDBRANCH  52  66
BRANCH  53  78
ATOM     78  C   UNL A   1      40.016  31.391  33.811  1.00  0.00     0.058 A 
ATOM     79  C   UNL A   1      39.732  32.710  34.201  1.00  0.00     0.135 A 
ATOM     80  C   UNL A   1      38.931  30.533  33.589  1.00  0.00     0.135 A 
ATOM     81  F   UNL A   1      40.739  33.555  34.475  1.00  0.00    -0.206 F 
ATOM     82  C   UNL A   1      38.436  33.210  34.191  1.00  0.00     0.059 A 
ATOM     83  C   UNL A   1      37.619  31.010  33.587  1.00  0.00     0.059 A 
ATOM     84  F   UNL A   1      39.140  29.257  33.233  1.00  0.00    -0.206 F 
ATOM     85  C   UNL A   1      37.394  32.369  33.809  1.00  0.00     0.060 A 
BRANCH  85  86
ATOM     86  S   UNL A   1      35.791  33.119  33.439  1.00  0.00     0.124 S 
ATOM     87  O   UNL A   1      35.247  33.370  34.769  1.00  0.00    -0.237 OA
ATOM     88  O   UNL A   1      36.187  34.301  32.682  1.00  0.00    -0.237 OA
ATOM     89  O   UNL A   1      35.111  32.087  32.663  1.00  0.00    -0.744 OA
ENDBRANCH  85  86
ENDBRANCH  53  78
BRANCH  65  90
ATOM     90  C   UNL A   1      44.689  25.977  34.130  1.00  0.00     0.058 A 
ATOM     91  C   UNL A   1      46.068  25.795  34.345  1.00  0.00     0.135 A 
ATOM     92  C   UNL A   1      43.845  25.112  34.869  1.00  0.00     0.135 A 
ATOM     93  F   UNL A   1      46.975  26.627  33.815  1.00  0.00    -0.206 F 
ATOM     94  C   UNL A   1      46.576  24.779  35.157  1.00  0.00     0.059 A 
ATOM     95  C   UNL A   1      44.330  24.130  35.732  1.00  0.00     0.059 A 
ATOM     96  F   UNL A   1      42.509  25.202  34.788  1.00  0.00    -0.206 F 
ATOM     97  C   UNL A   1      45.700  23.950  35.847  1.00  0.00     0.060 A 
BRANCH  97  98
ATOM     98  S   UNL A   1      46.346  22.679  36.948  1.00  0.00     0.124 S 
ATOM     99  O   UNL A   1      45.770  21.470  36.369  1.00  0.00    -0.237 OA
ATOM    100  O   UNL A   1      47.793  22.820  36.797  1.00  0.00    -0.237 OA
ATOM    101  O   UNL A   1      45.820  23.071  38.251  1.00  0.00    -0.744 OA
ENDBRANCH  97  98
ENDBRANCH  65  90
ENDBRANCH  39  40
ENDBRANCH  31  34
ENDBRANCH  29  30
ENDBRANCH  28  29
ENDBRANCH   1  28
TORSDOF 18
ENDMDL
