MODEL 1
REMARK VINA RESULT:     -11.9      0.000      0.000
REMARK SMILES CC(=O)N[C@@]1(C(=O)NCCCCNC(=O)c2ccc(-c3c4nc(c(-c5c(F)cc(S(=O)(=O)[O-])cc5F)c5ccc([nH]5)c(-c5c(F)cc(S(=O)(=O)[O-])cc5F)c5nc(c(-c6c(F)cc(S(=O)(=O)[O-])cc6F)c6ccc3[nH]6)C=C5)C=C4)cc2)CCCc2ccccc21
REMARK SMILES IDX 11 1 10 2 9 3 8 4 6 5 7 6 5 8 82 9 90 10 83 11 85 12 89 13
REMARK SMILES IDX 84 14 86 15 88 16 87 17 4 18 1 19 2 20 3 21 12 23 13 24
REMARK SMILES IDX 14 25 15 27 16 28 17 29 81 30 18 31 80 32 19 33 20 34 21 35
REMARK SMILES IDX 74 36 22 37 79 38 73 39 75 40 23 41 78 42 72 43 71 44 24 46
REMARK SMILES IDX 58 47 37 48 57 49 38 50 41 51 56 52 76 53 39 54 40 55 55 57
REMARK SMILES IDX 77 58 42 59 25 60 26 61 35 62 27 63 28 64 34 65 36 66 29 67
REMARK SMILES IDX 30 68 31 69 32 70 33 71 59 72 60 73 69 74 61 75 62 76 68 77
REMARK SMILES IDX 70 78 63 79 64 80 65 81 66 82 67 83 43 84 44 85 53 86 45 87
REMARK SMILES IDX 46 88 52 89 54 90 47 91 48 92 49 93 50 94 51 95
REMARK H PARENT 8 7 4 22 13 26 75 45 41 56
REMARK Flexibility Score: inf
ROOT
ATOM      1  C   UNL A   1      32.891  28.256  25.742  1.00  0.00     0.023 C 
ENDROOT
BRANCH   1   2
ATOM      2  C   UNL A   1      33.645  27.371  24.747  1.00  0.00     0.023 C 
BRANCH   2   3
ATOM      3  C   UNL A   1      32.782  26.297  24.093  1.00  0.00     0.116 C 
BRANCH   3   4
ATOM      4  N   UNL A   1      33.586  25.409  23.275  1.00  0.00    -0.354 N 
ATOM      5  C   UNL A   1      34.065  24.150  23.514  1.00  0.00     0.250 C 
ATOM      6  O   UNL A   1      34.647  23.611  22.566  1.00  0.00    -0.272 OA
ATOM      7  H   UNL A   1      33.830  25.775  22.394  1.00  0.00     0.163 HD
BRANCH   5   8
ATOM      8  C   UNL A   1      33.966  23.481  24.931  1.00  0.00     0.144 C 
ATOM      9  C   UNL A   1      35.114  24.079  25.814  1.00  0.00     0.044 C 
ATOM     10  C   UNL A   1      34.200  21.952  24.857  1.00  0.00    -0.010 A 
ATOM     11  C   UNL A   1      36.492  23.703  25.294  1.00  0.00     0.008 C 
ATOM     12  C   UNL A   1      35.488  21.391  25.065  1.00  0.00    -0.042 A 
ATOM     13  C   UNL A   1      33.158  21.069  24.518  1.00  0.00     0.007 A 
ATOM     14  C   UNL A   1      36.696  22.210  25.450  1.00  0.00     0.036 C 
ATOM     15  C   UNL A   1      35.682  20.001  24.966  1.00  0.00     0.004 A 
ATOM     16  C   UNL A   1      33.371  19.691  24.407  1.00  0.00     0.000 A 
ATOM     17  C   UNL A   1      34.630  19.156  24.635  1.00  0.00     0.000 A 
BRANCH   8  18
ATOM     18  N   UNL A   1      32.702  23.825  25.640  1.00  0.00    -0.338 N 
ATOM     19  C   UNL A   1      32.832  22.566  27.809  1.00  0.00     0.114 C 
ATOM     20  C   UNL A   1      32.234  23.603  26.896  1.00  0.00     0.217 C 
ATOM     21  O   UNL A   1      31.252  24.258  27.255  1.00  0.00    -0.275 OA
ATOM     22  H   UNL A   1      32.067  24.322  25.075  1.00  0.00     0.164 HD
ENDBRANCH   8  18
ENDBRANCH   5   8
ENDBRANCH   3   4
ENDBRANCH   2   3
ENDBRANCH   1   2
BRANCH   1  23
ATOM     23  C   UNL A   1      33.615  28.491  27.064  1.00  0.00     0.116 C 
BRANCH  23  24
ATOM     24  N   UNL A   1      33.547  29.877  27.498  1.00  0.00    -0.352 N 
ATOM     25  C   UNL A   1      34.509  30.623  28.144  1.00  0.00     0.251 C 
ATOM     26  H   UNL A   1      32.701  30.344  27.305  1.00  0.00     0.163 HD
ATOM     27  O   UNL A   1      34.253  31.729  28.584  1.00  0.00    -0.269 OA
BRANCH  25  28
ATOM     28  C   UNL A   1      35.847  30.025  28.316  1.00  0.00     0.039 A 
ATOM     29  C   UNL A   1      36.746  30.066  27.250  1.00  0.00     0.014 A 
ATOM     30  C   UNL A   1      36.226  29.511  29.558  1.00  0.00     0.014 A 
ATOM     31  C   UNL A   1      38.063  29.656  27.455  1.00  0.00     0.010 A 
ATOM     32  C   UNL A   1      37.555  29.169  29.778  1.00  0.00     0.010 A 
ATOM     33  C   UNL A   1      38.486  29.245  28.731  1.00  0.00    -0.014 A 
BRANCH  33  34
ATOM     34  C   UNL A   1      39.904  28.902  28.997  1.00  0.00     0.031 A 
ATOM     35  C   UNL A   1      40.835  29.946  29.546  1.00  0.00     0.074 A 
ATOM     36  C   UNL A   1      40.367  27.679  28.671  1.00  0.00     0.049 A 
ATOM     37  N   UNL A   1      42.123  29.871  29.762  1.00  0.00    -0.248 NA
ATOM     38  C   UNL A   1      40.247  31.256  29.867  1.00  0.00     0.031 C 
ATOM     39  C   UNL A   1      39.569  26.600  28.082  1.00  0.00     0.029 A 
ATOM     40  N   UNL A   1      41.625  27.141  28.772  1.00  0.00    -0.354 N 
ATOM     41  C   UNL A   1      42.500  31.124  30.227  1.00  0.00     0.074 A 
ATOM     42  C   UNL A   1      41.317  31.956  30.214  1.00  0.00     0.031 C 
ATOM     43  C   UNL A   1      40.354  25.525  27.893  1.00  0.00     0.029 A 
ATOM     44  C   UNL A   1      41.714  25.848  28.311  1.00  0.00     0.049 A 
ATOM     45  H   UNL A   1      42.394  27.634  29.142  1.00  0.00     0.167 HD
ATOM     46  C   UNL A   1      43.718  31.537  30.649  1.00  0.00     0.037 A 
ATOM     47  C   UNL A   1      42.773  25.021  28.227  1.00  0.00     0.037 A 
ATOM     48  C   UNL A   1      44.885  30.695  30.685  1.00  0.00     0.049 A 
ATOM     49  C   UNL A   1      44.116  25.500  28.710  1.00  0.00     0.074 A 
ATOM     50  C   UNL A   1      46.152  31.001  31.149  1.00  0.00     0.029 A 
ATOM     51  N   UNL A   1      44.928  29.382  30.240  1.00  0.00    -0.354 N 
ATOM     52  N   UNL A   1      44.442  26.670  29.206  1.00  0.00    -0.248 NA
ATOM     53  C   UNL A   1      45.231  24.548  28.629  1.00  0.00     0.031 C 
ATOM     54  C   UNL A   1      46.970  29.883  30.952  1.00  0.00     0.029 A 
ATOM     55  C   UNL A   1      46.202  28.868  30.405  1.00  0.00     0.049 A 
ATOM     56  H   UNL A   1      44.163  28.889  29.863  1.00  0.00     0.167 HD
ATOM     57  C   UNL A   1      45.794  26.583  29.523  1.00  0.00     0.074 A 
ATOM     58  C   UNL A   1      46.221  25.246  29.169  1.00  0.00     0.031 C 
ATOM     59  C   UNL A   1      46.606  27.528  30.059  1.00  0.00     0.037 A 
BRANCH  46  60
ATOM     60  C   UNL A   1      43.847  32.962  31.111  1.00  0.00     0.058 A 
ATOM     61  C   UNL A   1      44.134  34.002  30.212  1.00  0.00     0.135 A 
ATOM     62  C   UNL A   1      43.654  33.297  32.460  1.00  0.00     0.135 A 
ATOM     63  F   UNL A   1      44.344  33.736  28.913  1.00  0.00    -0.206 F 
ATOM     64  C   UNL A   1      44.256  35.320  30.640  1.00  0.00     0.059 A 
ATOM     65  C   UNL A   1      43.744  34.611  32.906  1.00  0.00     0.059 A 
ATOM     66  F   UNL A   1      43.379  32.340  33.361  1.00  0.00    -0.206 F 
ATOM     67  C   UNL A   1      44.061  35.615  31.991  1.00  0.00     0.060 A 
BRANCH  67  68
ATOM     68  S   UNL A   1      44.219  37.329  32.529  1.00  0.00     0.124 S 
ATOM     69  O   UNL A   1      44.047  38.046  31.269  1.00  0.00    -0.237 OA
ATOM     70  O   UNL A   1      43.126  37.459  33.488  1.00  0.00    -0.237 OA
ATOM     71  O   UNL A   1      45.561  37.383  33.103  1.00  0.00    -0.744 OA
ENDBRANCH  67  68
ENDBRANCH  46  60
BRANCH  47  72
ATOM     72  C   UNL A   1      42.603  23.646  27.687  1.00  0.00     0.058 A 
ATOM     73  C   UNL A   1      42.665  23.403  26.308  1.00  0.00     0.135 A 
ATOM     74  C   UNL A   1      42.392  22.549  28.536  1.00  0.00     0.135 A 
ATOM     75  F   UNL A   1      42.859  24.421  25.455  1.00  0.00    -0.206 F 
ATOM     76  C   UNL A   1      42.508  22.123  25.785  1.00  0.00     0.059 A 
ATOM     77  C   UNL A   1      42.256  21.256  28.038  1.00  0.00     0.059 A 
ATOM     78  F   UNL A   1      42.344  22.725  29.866  1.00  0.00    -0.206 F 
ATOM     79  C   UNL A   1      42.306  21.055  26.660  1.00  0.00     0.060 A 
BRANCH  79  80
ATOM     80  S   UNL A   1      42.154  19.390  25.975  1.00  0.00     0.124 S 
ATOM     81  O   UNL A   1      42.615  18.572  27.090  1.00  0.00    -0.237 OA
ATOM     82  O   UNL A   1      40.729  19.312  25.670  1.00  0.00    -0.237 OA
ATOM     83  O   UNL A   1      43.034  19.426  24.810  1.00  0.00    -0.744 OA
ENDBRANCH  79  80
ENDBRANCH  47  72
BRANCH  59  84
ATOM     84  C   UNL A   1      48.031  27.140  30.335  1.00  0.00     0.058 A 
ATOM     85  C   UNL A   1      49.045  27.329  29.384  1.00  0.00     0.135 A 
ATOM     86  C   UNL A   1      48.395  26.633  31.594  1.00  0.00     0.135 A 
ATOM     87  F   UNL A   1      48.747  27.804  28.165  1.00  0.00    -0.206 F 
ATOM     88  C   UNL A   1      50.370  27.014  29.665  1.00  0.00     0.059 A 
ATOM     89  C   UNL A   1      49.718  26.334  31.904  1.00  0.00     0.059 A 
ATOM     90  F   UNL A   1      47.464  26.442  32.541  1.00  0.00    -0.206 F 
ATOM     91  C   UNL A   1      50.698  26.519  30.930  1.00  0.00     0.060 A 
BRANCH  91  92
ATOM     92  S   UNL A   1      52.427  26.158  31.297  1.00  0.00     0.124 S 
ATOM     93  O   UNL A   1      52.334  24.813  31.856  1.00  0.00    -0.237 OA
ATOM     94  O   UNL A   1      53.054  26.257  29.983  1.00  0.00    -0.237 OA
ATOM     95  O   UNL A   1      52.799  27.207  32.243  1.00  0.00    -0.744 OA
ENDBRANCH  91  92
ENDBRANCH  59  84
ENDBRANCH  33  34
ENDBRANCH  25  28
ENDBRANCH  23  24
ENDBRANCH   1  23
TORSDOF 15
ENDMDL
MODEL 2
REMARK VINA RESULT:     -11.5      0.807      1.744
REMARK SMILES CC(=O)N[C@@]1(C(=O)NCCCCNC(=O)c2ccc(-c3c4nc(c(-c5c(F)cc(S(=O)(=O)[O-])cc5F)c5ccc([nH]5)c(-c5c(F)cc(S(=O)(=O)[O-])cc5F)c5nc(c(-c6c(F)cc(S(=O)(=O)[O-])cc6F)c6ccc3[nH]6)C=C5)C=C4)cc2)CCCc2ccccc21
REMARK SMILES IDX 11 1 10 2 9 3 8 4 6 5 7 6 5 8 82 9 90 10 83 11 85 12 89 13
REMARK SMILES IDX 84 14 86 15 88 16 87 17 4 18 1 19 2 20 3 21 12 23 13 24
REMARK SMILES IDX 14 25 15 27 16 28 17 29 81 30 18 31 80 32 19 33 20 34 21 35
REMARK SMILES IDX 74 36 22 37 79 38 73 39 75 40 23 41 78 42 72 43 71 44 24 46
REMARK SMILES IDX 58 47 37 48 57 49 38 50 41 51 56 52 76 53 39 54 40 55 55 57
REMARK SMILES IDX 77 58 42 59 25 60 26 61 35 62 27 63 28 64 34 65 36 66 29 67
REMARK SMILES IDX 30 68 31 69 32 70 33 71 59 72 60 73 69 74 61 75 62 76 68 77
REMARK SMILES IDX 70 78 63 79 64 80 65 81 66 82 67 83 43 84 44 85 53 86 45 87
REMARK SMILES IDX 46 88 52 89 54 90 47 91 48 92 49 93 50 94 51 95
REMARK H PARENT 8 7 4 22 13 26 75 45 41 56
REMARK Flexibility Score: inf
ROOT
ATOM      1  C   UNL A   1      32.764  28.355  25.960  1.00  0.00     0.023 C 
ENDROOT
BRANCH   1   2
ATOM      2  C   UNL A   1      33.340  27.328  24.983  1.00  0.00     0.023 C 
BRANCH   2   3
ATOM      3  C   UNL A   1      33.896  26.076  25.654  1.00  0.00     0.116 C 
BRANCH   3   4
ATOM      4  N   UNL A   1      32.838  25.127  25.946  1.00  0.00    -0.354 N 
ATOM      5  C   UNL A   1      32.748  23.781  25.723  1.00  0.00     0.250 C 
ATOM      6  O   UNL A   1      31.741  23.230  26.180  1.00  0.00    -0.272 OA
ATOM      7  H   UNL A   1      32.046  25.520  26.379  1.00  0.00     0.163 HD
BRANCH   5   8
ATOM      8  C   UNL A   1      33.809  23.011  24.859  1.00  0.00     0.144 C 
ATOM      9  C   UNL A   1      33.842  23.686  23.445  1.00  0.00     0.044 C 
ATOM     10  C   UNL A   1      33.405  21.530  24.646  1.00  0.00    -0.010 A 
ATOM     11  C   UNL A   1      32.527  23.518  22.700  1.00  0.00     0.008 C 
ATOM     12  C   UNL A   1      32.681  21.121  23.495  1.00  0.00    -0.042 A 
ATOM     13  C   UNL A   1      33.685  20.550  25.616  1.00  0.00     0.007 A 
ATOM     14  C   UNL A   1      32.323  22.055  22.365  1.00  0.00     0.036 C 
ATOM     15  C   UNL A   1      32.301  19.775  23.337  1.00  0.00     0.004 A 
ATOM     16  C   UNL A   1      33.286  19.219  25.451  1.00  0.00     0.000 A 
ATOM     17  C   UNL A   1      32.599  18.830  24.311  1.00  0.00     0.000 A 
BRANCH   8  18
ATOM     18  N   UNL A   1      35.193  23.147  25.394  1.00  0.00    -0.338 N 
ATOM     19  C   UNL A   1      36.680  22.656  23.432  1.00  0.00     0.114 C 
ATOM     20  C   UNL A   1      36.427  23.161  24.827  1.00  0.00     0.217 C 
ATOM     21  O   UNL A   1      37.362  23.567  25.522  1.00  0.00    -0.275 OA
ATOM     22  H   UNL A   1      35.218  23.248  26.373  1.00  0.00     0.164 HD
ENDBRANCH   8  18
ENDBRANCH   5   8
ENDBRANCH   3   4
ENDBRANCH   2   3
ENDBRANCH   1   2
BRANCH   1  23
ATOM     23  C   UNL A   1      33.621  28.610  27.197  1.00  0.00     0.116 C 
BRANCH  23  24
ATOM     24  N   UNL A   1      33.564  29.994  27.638  1.00  0.00    -0.352 N 
ATOM     25  C   UNL A   1      34.537  30.731  28.281  1.00  0.00     0.251 C 
ATOM     26  H   UNL A   1      32.720  30.467  27.454  1.00  0.00     0.163 HD
ATOM     27  O   UNL A   1      34.291  31.836  28.727  1.00  0.00    -0.269 OA
BRANCH  25  28
ATOM     28  C   UNL A   1      35.872  30.124  28.439  1.00  0.00     0.039 A 
ATOM     29  C   UNL A   1      36.750  30.133  27.355  1.00  0.00     0.014 A 
ATOM     30  C   UNL A   1      36.271  29.633  29.685  1.00  0.00     0.014 A 
ATOM     31  C   UNL A   1      38.067  29.714  27.543  1.00  0.00     0.010 A 
ATOM     32  C   UNL A   1      37.600  29.283  29.886  1.00  0.00     0.010 A 
ATOM     33  C   UNL A   1      38.511  29.327  28.819  1.00  0.00    -0.014 A 
BRANCH  33  34
ATOM     34  C   UNL A   1      39.931  28.976  29.066  1.00  0.00     0.031 A 
ATOM     35  C   UNL A   1      40.875  30.014  29.605  1.00  0.00     0.074 A 
ATOM     36  C   UNL A   1      40.384  27.752  28.729  1.00  0.00     0.049 A 
ATOM     37  N   UNL A   1      42.165  29.932  29.803  1.00  0.00    -0.248 NA
ATOM     38  C   UNL A   1      40.297  31.326  29.937  1.00  0.00     0.031 C 
ATOM     39  C   UNL A   1      39.573  26.679  28.148  1.00  0.00     0.029 A 
ATOM     40  N   UNL A   1      41.640  27.208  28.812  1.00  0.00    -0.354 N 
ATOM     41  C   UNL A   1      42.554  31.182  30.266  1.00  0.00     0.074 A 
ATOM     42  C   UNL A   1      41.375  32.019  30.272  1.00  0.00     0.031 C 
ATOM     43  C   UNL A   1      40.349  25.601  27.945  1.00  0.00     0.029 A 
ATOM     44  C   UNL A   1      41.717  25.916  28.346  1.00  0.00     0.049 A 
ATOM     45  H   UNL A   1      42.416  27.696  29.173  1.00  0.00     0.167 HD
ATOM     46  C   UNL A   1      43.780  31.588  30.673  1.00  0.00     0.037 A 
ATOM     47  C   UNL A   1      42.770  25.084  28.245  1.00  0.00     0.037 A 
ATOM     48  C   UNL A   1      44.943  30.740  30.691  1.00  0.00     0.049 A 
ATOM     49  C   UNL A   1      44.122  25.555  28.711  1.00  0.00     0.074 A 
ATOM     50  C   UNL A   1      46.218  31.038  31.139  1.00  0.00     0.029 A 
ATOM     51  N   UNL A   1      44.973  29.428  30.242  1.00  0.00    -0.354 N 
ATOM     52  N   UNL A   1      44.460  26.722  29.206  1.00  0.00    -0.248 NA
ATOM     53  C   UNL A   1      45.231  24.597  28.612  1.00  0.00     0.031 C 
ATOM     54  C   UNL A   1      47.027  29.917  30.927  1.00  0.00     0.029 A 
ATOM     55  C   UNL A   1      46.247  28.907  30.388  1.00  0.00     0.049 A 
ATOM     56  H   UNL A   1      44.201  28.940  29.873  1.00  0.00     0.167 HD
ATOM     57  C   UNL A   1      45.816  26.628  29.504  1.00  0.00     0.074 A 
ATOM     58  C   UNL A   1      46.232  25.289  29.140  1.00  0.00     0.031 C 
ATOM     59  C   UNL A   1      46.640  27.566  30.032  1.00  0.00     0.037 A 
BRANCH  46  60
ATOM     60  C   UNL A   1      43.922  33.011  31.138  1.00  0.00     0.058 A 
ATOM     61  C   UNL A   1      44.239  34.047  30.244  1.00  0.00     0.135 A 
ATOM     62  C   UNL A   1      43.712  33.348  32.483  1.00  0.00     0.135 A 
ATOM     63  F   UNL A   1      44.467  33.777  28.949  1.00  0.00    -0.206 F 
ATOM     64  C   UNL A   1      44.374  35.362  30.674  1.00  0.00     0.059 A 
ATOM     65  C   UNL A   1      43.814  34.661  32.931  1.00  0.00     0.059 A 
ATOM     66  F   UNL A   1      43.407  32.396  33.380  1.00  0.00    -0.206 F 
ATOM     67  C   UNL A   1      44.161  35.660  32.022  1.00  0.00     0.060 A 
BRANCH  67  68
ATOM     68  S   UNL A   1      44.336  37.372  32.564  1.00  0.00     0.124 S 
ATOM     69  O   UNL A   1      43.290  37.463  33.579  1.00  0.00    -0.237 OA
ATOM     70  O   UNL A   1      45.707  37.406  33.061  1.00  0.00    -0.237 OA
ATOM     71  O   UNL A   1      44.095  38.140  31.346  1.00  0.00    -0.744 OA
ENDBRANCH  67  68
ENDBRANCH  46  60
BRANCH  47  72
ATOM     72  C   UNL A   1      42.585  23.712  27.703  1.00  0.00     0.058 A 
ATOM     73  C   UNL A   1      42.591  23.478  26.321  1.00  0.00     0.135 A 
ATOM     74  C   UNL A   1      42.418  22.607  28.552  1.00  0.00     0.135 A 
ATOM     75  F   UNL A   1      42.743  24.503  25.468  1.00  0.00    -0.206 F 
ATOM     76  C   UNL A   1      42.420  22.201  25.796  1.00  0.00     0.059 A 
ATOM     77  C   UNL A   1      42.269  21.317  28.052  1.00  0.00     0.059 A 
ATOM     78  F   UNL A   1      42.425  22.775  29.884  1.00  0.00    -0.206 F 
ATOM     79  C   UNL A   1      42.261  21.126  26.671  1.00  0.00     0.060 A 
BRANCH  79  80
ATOM     80  S   UNL A   1      42.092  19.464  25.982  1.00  0.00     0.124 S 
ATOM     81  O   UNL A   1      42.930  19.553  24.792  1.00  0.00    -0.237 OA
ATOM     82  O   UNL A   1      42.604  18.629  27.065  1.00  0.00    -0.237 OA
ATOM     83  O   UNL A   1      40.657  19.348  25.739  1.00  0.00    -0.744 OA
ENDBRANCH  79  80
ENDBRANCH  47  72
BRANCH  59  84
ATOM     84  C   UNL A   1      48.067  27.170  30.288  1.00  0.00     0.058 A 
ATOM     85  C   UNL A   1      49.083  27.434  29.358  1.00  0.00     0.135 A 
ATOM     86  C   UNL A   1      48.429  26.578  31.509  1.00  0.00     0.135 A 
ATOM     87  F   UNL A   1      48.788  27.992  28.174  1.00  0.00    -0.206 F 
ATOM     88  C   UNL A   1      50.410  27.110  29.623  1.00  0.00     0.059 A 
ATOM     89  C   UNL A   1      49.752  26.268  31.805  1.00  0.00     0.059 A 
ATOM     90  F   UNL A   1      47.494  26.314  32.436  1.00  0.00    -0.206 F 
ATOM     91  C   UNL A   1      50.735  26.530  30.851  1.00  0.00     0.060 A 
BRANCH  91  92
ATOM     92  S   UNL A   1      52.466  26.156  31.201  1.00  0.00     0.124 S 
ATOM     93  O   UNL A   1      52.357  24.869  31.881  1.00  0.00    -0.237 OA
ATOM     94  O   UNL A   1      53.055  26.122  29.867  1.00  0.00    -0.237 OA
ATOM     95  O   UNL A   1      52.891  27.274  32.039  1.00  0.00    -0.744 OA
ENDBRANCH  91  92
ENDBRANCH  59  84
ENDBRANCH  33  34
ENDBRANCH  25  28
ENDBRANCH  23  24
ENDBRANCH   1  23
TORSDOF 15
ENDMDL
MODEL 3
REMARK VINA RESULT:     -11.3      0.463      8.311
REMARK SMILES CC(=O)N[C@@]1(C(=O)NCCCCNC(=O)c2ccc(-c3c4nc(c(-c5c(F)cc(S(=O)(=O)[O-])cc5F)c5ccc([nH]5)c(-c5c(F)cc(S(=O)(=O)[O-])cc5F)c5nc(c(-c6c(F)cc(S(=O)(=O)[O-])cc6F)c6ccc3[nH]6)C=C5)C=C4)cc2)CCCc2ccccc21
REMARK SMILES IDX 11 1 10 2 9 3 8 4 6 5 7 6 5 8 82 9 90 10 83 11 85 12 89 13
REMARK SMILES IDX 84 14 86 15 88 16 87 17 4 18 1 19 2 20 3 21 12 23 13 24
REMARK SMILES IDX 14 25 15 27 16 28 17 29 81 30 18 31 80 32 19 33 20 34 21 35
REMARK SMILES IDX 74 36 22 37 79 38 73 39 75 40 23 41 78 42 72 43 71 44 24 46
REMARK SMILES IDX 58 47 37 48 57 49 38 50 41 51 56 52 76 53 39 54 40 55 55 57
REMARK SMILES IDX 77 58 42 59 25 60 26 61 35 62 27 63 28 64 34 65 36 66 29 67
REMARK SMILES IDX 30 68 31 69 32 70 33 71 59 72 60 73 69 74 61 75 62 76 68 77
REMARK SMILES IDX 70 78 63 79 64 80 65 81 66 82 67 83 43 84 44 85 53 86 45 87
REMARK SMILES IDX 46 88 52 89 54 90 47 91 48 92 49 93 50 94 51 95
REMARK H PARENT 8 7 4 22 13 26 75 45 41 56
REMARK Flexibility Score: inf
ROOT
ATOM      1  C   UNL A   1      32.777  27.850  25.881  1.00  0.00     0.023 C 
ENDROOT
BRANCH   1   2
ATOM      2  C   UNL A   1      33.411  27.171  24.665  1.00  0.00     0.023 C 
BRANCH   2   3
ATOM      3  C   UNL A   1      32.570  26.045  24.073  1.00  0.00     0.116 C 
BRANCH   3   4
ATOM      4  N   UNL A   1      33.373  25.184  23.225  1.00  0.00    -0.354 N 
ATOM      5  C   UNL A   1      33.943  23.964  23.462  1.00  0.00     0.250 C 
ATOM      6  O   UNL A   1      34.495  23.435  22.491  1.00  0.00    -0.272 OA
ATOM      7  H   UNL A   1      33.536  25.540  22.322  1.00  0.00     0.163 HD
BRANCH   5   8
ATOM      8  C   UNL A   1      33.978  23.330  24.898  1.00  0.00     0.144 C 
ATOM      9  C   UNL A   1      35.111  24.052  25.703  1.00  0.00     0.044 C 
ATOM     10  C   UNL A   1      34.343  21.825  24.848  1.00  0.00    -0.010 A 
ATOM     11  C   UNL A   1      36.489  23.782  25.119  1.00  0.00     0.008 C 
ATOM     12  C   UNL A   1      35.684  21.386  25.000  1.00  0.00    -0.042 A 
ATOM     13  C   UNL A   1      33.367  20.845  24.587  1.00  0.00     0.007 A 
ATOM     14  C   UNL A   1      36.833  22.318  25.300  1.00  0.00     0.036 C 
ATOM     15  C   UNL A   1      35.996  20.016  24.924  1.00  0.00     0.004 A 
ATOM     16  C   UNL A   1      33.695  19.488  24.498  1.00  0.00     0.000 A 
ATOM     17  C   UNL A   1      35.008  19.072  24.671  1.00  0.00     0.000 A 
BRANCH   8  18
ATOM     18  N   UNL A   1      32.726  23.582  25.666  1.00  0.00    -0.338 N 
ATOM     19  C   UNL A   1      33.134  22.521  27.905  1.00  0.00     0.114 C 
ATOM     20  C   UNL A   1      32.363  23.408  26.963  1.00  0.00     0.217 C 
ATOM     21  O   UNL A   1      31.334  23.973  27.342  1.00  0.00    -0.275 OA
ATOM     22  H   UNL A   1      32.004  23.957  25.111  1.00  0.00     0.164 HD
ENDBRANCH   8  18
ENDBRANCH   5   8
ENDBRANCH   3   4
ENDBRANCH   2   3
ENDBRANCH   1   2
BRANCH   1  23
ATOM     23  C   UNL A   1      33.760  28.238  26.981  1.00  0.00     0.116 C 
BRANCH  23  24
ATOM     24  N   UNL A   1      33.584  29.610  27.428  1.00  0.00    -0.352 N 
ATOM     25  C   UNL A   1      34.486  30.423  28.081  1.00  0.00     0.251 C 
ATOM     26  H   UNL A   1      32.704  30.011  27.240  1.00  0.00     0.163 HD
ATOM     27  O   UNL A   1      34.144  31.501  28.531  1.00  0.00    -0.269 OA
BRANCH  25  28
ATOM     28  C   UNL A   1      35.867  29.931  28.247  1.00  0.00     0.039 A 
ATOM     29  C   UNL A   1      36.749  30.024  27.171  1.00  0.00     0.014 A 
ATOM     30  C   UNL A   1      36.296  29.464  29.492  1.00  0.00     0.014 A 
ATOM     31  C   UNL A   1      38.096  29.717  27.367  1.00  0.00     0.010 A 
ATOM     32  C   UNL A   1      37.648  29.227  29.702  1.00  0.00     0.010 A 
ATOM     33  C   UNL A   1      38.561  29.358  28.644  1.00  0.00    -0.014 A 
BRANCH  33  34
ATOM     34  C   UNL A   1      40.003  29.127  28.900  1.00  0.00     0.031 A 
ATOM     35  C   UNL A   1      40.617  27.794  28.573  1.00  0.00     0.074 A 
ATOM     36  C   UNL A   1      40.736  30.087  29.499  1.00  0.00     0.049 A 
ATOM     37  N   UNL A   1      41.831  27.367  28.803  1.00  0.00    -0.248 NA
ATOM     38  C   UNL A   1      39.742  26.803  27.928  1.00  0.00     0.031 C 
ATOM     39  C   UNL A   1      40.237  31.401  29.912  1.00  0.00     0.029 A 
ATOM     40  N   UNL A   1      42.054  30.100  29.880  1.00  0.00    -0.354 N 
ATOM     41  C   UNL A   1      41.861  26.055  28.347  1.00  0.00     0.074 A 
ATOM     42  C   UNL A   1      40.531  25.740  27.875  1.00  0.00     0.031 C 
ATOM     43  C   UNL A   1      41.240  32.097  30.471  1.00  0.00     0.029 A 
ATOM     44  C   UNL A   1      42.443  31.270  30.489  1.00  0.00     0.049 A 
ATOM     45  H   UNL A   1      42.666  29.343  29.729  1.00  0.00     0.167 HD
ATOM     46  C   UNL A   1      42.909  25.199  28.305  1.00  0.00     0.037 A 
ATOM     47  C   UNL A   1      43.631  31.632  31.011  1.00  0.00     0.037 A 
ATOM     48  C   UNL A   1      44.236  25.530  28.752  1.00  0.00     0.049 A 
ATOM     49  C   UNL A   1      44.783  30.665  30.946  1.00  0.00     0.074 A 
ATOM     50  C   UNL A   1      45.380  24.754  28.698  1.00  0.00     0.029 A 
ATOM     51  N   UNL A   1      44.598  26.737  29.333  1.00  0.00    -0.354 N 
ATOM     52  N   UNL A   1      44.810  29.450  30.454  1.00  0.00    -0.248 NA
ATOM     53  C   UNL A   1      46.065  31.121  31.498  1.00  0.00     0.031 C 
ATOM     54  C   UNL A   1      46.426  25.478  29.280  1.00  0.00     0.029 A 
ATOM     55  C   UNL A   1      45.943  26.721  29.657  1.00  0.00     0.049 A 
ATOM     56  H   UNL A   1      43.987  27.493  29.492  1.00  0.00     0.167 HD
ATOM     57  C   UNL A   1      46.118  29.006  30.612  1.00  0.00     0.074 A 
ATOM     58  C   UNL A   1      46.853  30.086  31.237  1.00  0.00     0.031 C 
ATOM     59  C   UNL A   1      46.661  27.812  30.268  1.00  0.00     0.037 A 
BRANCH  46  60
ATOM     60  C   UNL A   1      42.660  23.824  27.751  1.00  0.00     0.058 A 
ATOM     61  C   UNL A   1      42.627  23.585  26.368  1.00  0.00     0.135 A 
ATOM     62  C   UNL A   1      42.480  22.729  28.610  1.00  0.00     0.135 A 
ATOM     63  F   UNL A   1      42.777  24.599  25.502  1.00  0.00    -0.206 F 
ATOM     64  C   UNL A   1      42.393  22.314  25.855  1.00  0.00     0.059 A 
ATOM     65  C   UNL A   1      42.272  21.443  28.119  1.00  0.00     0.059 A 
ATOM     66  F   UNL A   1      42.500  22.902  29.941  1.00  0.00    -0.206 F 
ATOM     67  C   UNL A   1      42.214  21.248  26.740  1.00  0.00     0.060 A 
BRANCH  67  68
ATOM     68  S   UNL A   1      41.916  19.604  26.059  1.00  0.00     0.124 S 
ATOM     69  O   UNL A   1      42.288  18.752  27.185  1.00  0.00    -0.237 OA
ATOM     70  O   UNL A   1      40.493  19.649  25.741  1.00  0.00    -0.237 OA
ATOM     71  O   UNL A   1      42.811  19.546  24.907  1.00  0.00    -0.744 OA
ENDBRANCH  67  68
ENDBRANCH  46  60
BRANCH  47  72
ATOM     72  C   UNL A   1      43.797  32.978  31.619  1.00  0.00     0.058 A 
ATOM     73  C   UNL A   1      44.113  34.091  30.827  1.00  0.00     0.135 A 
ATOM     74  C   UNL A   1      43.628  33.183  32.997  1.00  0.00     0.135 A 
ATOM     75  F   UNL A   1      44.289  33.945  29.505  1.00  0.00    -0.206 F 
ATOM     76  C   UNL A   1      44.271  35.358  31.379  1.00  0.00     0.059 A 
ATOM     77  C   UNL A   1      43.758  34.445  33.569  1.00  0.00     0.059 A 
ATOM     78  F   UNL A   1      43.306  32.154  33.797  1.00  0.00    -0.206 F 
ATOM     79  C   UNL A   1      44.090  35.525  32.752  1.00  0.00     0.060 A 
BRANCH  79  80
ATOM     80  S   UNL A   1      44.248  37.183  33.453  1.00  0.00     0.124 S 
ATOM     81  O   UNL A   1      42.939  37.367  34.069  1.00  0.00    -0.237 OA
ATOM     82  O   UNL A   1      45.371  37.023  34.372  1.00  0.00    -0.237 OA
ATOM     83  O   UNL A   1      44.520  38.015  32.285  1.00  0.00    -0.744 OA
ENDBRANCH  79  80
ENDBRANCH  47  72
BRANCH  59  84
ATOM     84  C   UNL A   1      48.130  27.620  30.522  1.00  0.00     0.058 A 
ATOM     85  C   UNL A   1      48.600  26.978  31.678  1.00  0.00     0.135 A 
ATOM     86  C   UNL A   1      49.073  28.027  29.564  1.00  0.00     0.135 A 
ATOM     87  F   UNL A   1      47.740  26.577  32.626  1.00  0.00    -0.206 F 
ATOM     88  C   UNL A   1      49.959  26.759  31.882  1.00  0.00     0.059 A 
ATOM     89  C   UNL A   1      50.434  27.796  29.737  1.00  0.00     0.059 A 
ATOM     90  F   UNL A   1      48.673  28.637  28.438  1.00  0.00    -0.206 F 
ATOM     91  C   UNL A   1      50.868  27.169  30.905  1.00  0.00     0.060 A 
BRANCH  91  92
ATOM     92  S   UNL A   1      52.624  26.838  31.162  1.00  0.00     0.124 S 
ATOM     93  O   UNL A   1      52.590  25.957  32.325  1.00  0.00    -0.237 OA
ATOM     94  O   UNL A   1      53.013  26.212  29.902  1.00  0.00    -0.237 OA
ATOM     95  O   UNL A   1      53.188  28.165  31.395  1.00  0.00    -0.744 OA
ENDBRANCH  91  92
ENDBRANCH  59  84
ENDBRANCH  33  34
ENDBRANCH  25  28
ENDBRANCH  23  24
ENDBRANCH   1  23
TORSDOF 15
ENDMDL
