MODEL 1
REMARK VINA RESULT:     -10.7      0.000      0.000
REMARK SMILES COc1c(C(=O)NCCCCNC(=O)c2ccc(-c3c4nc(c(-c5c(F)cc(S(=O)(=O)[O-])cc5F)c5ccc([nH]5)c(-c5c(F)cc(S(=O)(=O)[O-])cc5F)c5nc(c(-c6c(F)cc(S(=O)(=O)[O-])cc6F)c6ccc3[nH]6)C=C5)C=C4)cc2)ccc(F)c1F
REMARK SMILES IDX 10 1 9 2 8 3 7 4 5 5 6 6 4 8 3 9 85 10 81 11 83 12 86 13
REMARK SMILES IDX 82 14 84 15 2 16 1 17 11 18 12 19 13 20 14 22 15 23 16 24
REMARK SMILES IDX 80 25 17 26 79 27 18 28 19 29 20 30 73 31 21 32 78 33 72 34
REMARK SMILES IDX 74 35 22 36 77 37 71 38 70 39 23 41 57 42 36 43 56 44 37 45
REMARK SMILES IDX 40 46 55 47 75 48 38 49 39 50 54 52 76 53 41 54 24 55 25 56
REMARK SMILES IDX 34 57 26 58 27 59 33 60 35 61 28 62 29 63 30 64 31 65 32 66
REMARK SMILES IDX 58 67 59 68 68 69 60 70 61 71 67 72 69 73 62 74 63 75 64 76
REMARK SMILES IDX 65 77 66 78 42 79 43 80 52 81 44 82 45 83 51 84 53 85 46 86
REMARK SMILES IDX 47 87 48 88 49 89 50 90
REMARK H PARENT 7 7 12 21 74 40 40 51
REMARK Flexibility Score: inf
ROOT
ATOM      1  C   UNL A   1      33.797  28.073  25.395  1.00  0.00     0.023 C 
ENDROOT
BRANCH   1   2
ATOM      2  C   UNL A   1      33.291  29.277  24.587  1.00  0.00     0.023 C 
BRANCH   2   3
ATOM      3  C   UNL A   1      33.329  29.083  23.069  1.00  0.00     0.116 C 
BRANCH   3   4
ATOM      4  N   UNL A   1      31.993  29.073  22.514  1.00  0.00    -0.352 N 
ATOM      5  C   UNL A   1      30.904  28.244  22.600  1.00  0.00     0.255 C 
ATOM      6  O   UNL A   1      29.929  28.632  21.956  1.00  0.00    -0.269 OA
ATOM      7  H   UNL A   1      31.824  29.851  21.934  1.00  0.00     0.163 HD
BRANCH   5   8
ATOM      8  C   UNL A   1      30.833  26.975  23.410  1.00  0.00     0.085 A 
ATOM      9  C   UNL A   1      31.233  25.748  22.832  1.00  0.00     0.170 A 
ATOM     10  C   UNL A   1      31.042  24.535  23.511  1.00  0.00     0.201 A 
ATOM     11  C   UNL A   1      30.381  26.928  24.740  1.00  0.00     0.021 A 
ATOM     12  C   UNL A   1      30.517  24.522  24.792  1.00  0.00     0.162 A 
ATOM     13  F   UNL A   1      31.391  23.376  22.931  1.00  0.00    -0.200 F 
ATOM     14  C   UNL A   1      30.205  25.715  25.421  1.00  0.00     0.043 A 
ATOM     15  F   UNL A   1      30.335  23.366  25.441  1.00  0.00    -0.204 F 
BRANCH   9  16
ATOM     16  O   UNL A   1      31.790  25.650  21.580  1.00  0.00    -0.493 OA
ATOM     17  C   UNL A   1      33.218  25.626  21.674  1.00  0.00     0.278 C 
ENDBRANCH   9  16
ENDBRANCH   5   8
ENDBRANCH   3   4
ENDBRANCH   2   3
ENDBRANCH   1   2
BRANCH   1  18
ATOM     18  C   UNL A   1      33.755  28.237  26.912  1.00  0.00     0.116 C 
BRANCH  18  19
ATOM     19  N   UNL A   1      33.571  29.616  27.336  1.00  0.00    -0.352 N 
ATOM     20  C   UNL A   1      34.473  30.449  27.950  1.00  0.00     0.251 C 
ATOM     21  H   UNL A   1      32.684  30.002  27.159  1.00  0.00     0.163 HD
ATOM     22  O   UNL A   1      34.118  31.562  28.330  1.00  0.00    -0.269 OA
BRANCH  20  23
ATOM     23  C   UNL A   1      35.854  29.982  28.191  1.00  0.00     0.039 A 
ATOM     24  C   UNL A   1      36.788  30.090  27.156  1.00  0.00     0.014 A 
ATOM     25  C   UNL A   1      36.230  29.456  29.429  1.00  0.00     0.014 A 
ATOM     26  C   UNL A   1      38.114  29.724  27.384  1.00  0.00     0.010 A 
ATOM     27  C   UNL A   1      37.566  29.151  29.674  1.00  0.00     0.010 A 
ATOM     28  C   UNL A   1      38.520  29.279  28.652  1.00  0.00    -0.014 A 
BRANCH  28  29
ATOM     29  C   UNL A   1      39.937  28.935  28.927  1.00  0.00     0.031 A 
ATOM     30  C   UNL A   1      40.858  29.962  29.529  1.00  0.00     0.074 A 
ATOM     31  C   UNL A   1      40.406  27.720  28.583  1.00  0.00     0.049 A 
ATOM     32  N   UNL A   1      42.135  29.871  29.793  1.00  0.00    -0.248 NA
ATOM     33  C   UNL A   1      40.270  31.271  29.850  1.00  0.00     0.031 C 
ATOM     34  C   UNL A   1      39.621  26.658  27.949  1.00  0.00     0.029 A 
ATOM     35  N   UNL A   1      41.657  27.173  28.713  1.00  0.00    -0.354 N 
ATOM     36  C   UNL A   1      42.507  31.112  30.297  1.00  0.00     0.074 A 
ATOM     37  C   UNL A   1      41.331  31.954  30.252  1.00  0.00     0.031 C 
ATOM     38  C   UNL A   1      40.404  25.581  27.768  1.00  0.00     0.029 A 
ATOM     39  C   UNL A   1      41.749  25.885  28.244  1.00  0.00     0.049 A 
ATOM     40  H   UNL A   1      42.419  27.659  29.104  1.00  0.00     0.167 HD
ATOM     41  C   UNL A   1      43.711  31.505  30.776  1.00  0.00     0.037 A 
ATOM     42  C   UNL A   1      42.800  25.042  28.206  1.00  0.00     0.037 A 
ATOM     43  C   UNL A   1      44.868  30.654  30.843  1.00  0.00     0.049 A 
ATOM     44  C   UNL A   1      44.122  25.497  28.759  1.00  0.00     0.074 A 
ATOM     45  C   UNL A   1      46.122  30.940  31.357  1.00  0.00     0.029 A 
ATOM     46  N   UNL A   1      44.914  29.344  30.387  1.00  0.00    -0.354 N 
ATOM     47  N   UNL A   1      44.443  26.656  29.283  1.00  0.00    -0.248 NA
ATOM     48  C   UNL A   1      45.225  24.526  28.725  1.00  0.00     0.031 C 
ATOM     49  C   UNL A   1      46.934  29.813  31.182  1.00  0.00     0.029 A 
ATOM     50  C   UNL A   1      46.175  28.812  30.597  1.00  0.00     0.049 A 
ATOM     51  H   UNL A   1      44.160  28.864  29.973  1.00  0.00     0.167 HD
ATOM     52  C   UNL A   1      45.773  26.545  29.669  1.00  0.00     0.074 A 
ATOM     53  C   UNL A   1      46.196  25.202  29.324  1.00  0.00     0.031 C 
ATOM     54  C   UNL A   1      46.573  27.468  30.257  1.00  0.00     0.037 A 
BRANCH  41  55
ATOM     55  C   UNL A   1      43.827  32.920  31.273  1.00  0.00     0.058 A 
ATOM     56  C   UNL A   1      44.216  33.968  30.423  1.00  0.00     0.135 A 
ATOM     57  C   UNL A   1      43.538  33.236  32.611  1.00  0.00     0.135 A 
ATOM     58  F   UNL A   1      44.520  33.720  29.139  1.00  0.00    -0.206 F 
ATOM     59  C   UNL A   1      44.353  35.271  30.889  1.00  0.00     0.059 A 
ATOM     60  C   UNL A   1      43.641  34.539  33.092  1.00  0.00     0.059 A 
ATOM     61  F   UNL A   1      43.161  32.273  33.466  1.00  0.00    -0.206 F 
ATOM     62  C   UNL A   1      44.068  35.546  32.227  1.00  0.00     0.060 A 
BRANCH  62  63
ATOM     63  S   UNL A   1      44.265  37.239  32.822  1.00  0.00     0.124 S 
ATOM     64  O   UNL A   1      44.176  37.996  31.577  1.00  0.00    -0.237 OA
ATOM     65  O   UNL A   1      43.133  37.384  33.733  1.00  0.00    -0.237 OA
ATOM     66  O   UNL A   1      45.579  37.225  33.457  1.00  0.00    -0.744 OA
ENDBRANCH  62  63
ENDBRANCH  41  55
BRANCH  42  67
ATOM     67  C   UNL A   1      42.631  23.669  27.664  1.00  0.00     0.058 A 
ATOM     68  C   UNL A   1      42.811  23.411  26.297  1.00  0.00     0.135 A 
ATOM     69  C   UNL A   1      42.302  22.588  28.496  1.00  0.00     0.135 A 
ATOM     70  F   UNL A   1      43.122  24.413  25.461  1.00  0.00    -0.206 F 
ATOM     71  C   UNL A   1      42.655  22.133  25.769  1.00  0.00     0.059 A 
ATOM     72  C   UNL A   1      42.163  21.296  27.995  1.00  0.00     0.059 A 
ATOM     73  F   UNL A   1      42.137  22.780  29.814  1.00  0.00    -0.206 F 
ATOM     74  C   UNL A   1      42.332  21.081  26.627  1.00  0.00     0.060 A 
BRANCH  74  75
ATOM     75  S   UNL A   1      42.181  19.418  25.941  1.00  0.00     0.124 S 
ATOM     76  O   UNL A   1      42.979  19.528  24.726  1.00  0.00    -0.237 OA
ATOM     77  O   UNL A   1      42.748  18.594  27.005  1.00  0.00    -0.237 OA
ATOM     78  O   UNL A   1      40.743  19.268  25.743  1.00  0.00    -0.744 OA
ENDBRANCH  74  75
ENDBRANCH  42  67
BRANCH  54  79
ATOM     79  C   UNL A   1      47.973  27.046  30.605  1.00  0.00     0.058 A 
ATOM     80  C   UNL A   1      49.055  27.311  29.754  1.00  0.00     0.135 A 
ATOM     81  C   UNL A   1      48.237  26.407  31.827  1.00  0.00     0.135 A 
ATOM     82  F   UNL A   1      48.854  27.913  28.571  1.00  0.00    -0.206 F 
ATOM     83  C   UNL A   1      50.352  26.936  30.091  1.00  0.00     0.059 A 
ATOM     84  C   UNL A   1      49.528  26.045  32.195  1.00  0.00     0.059 A 
ATOM     85  F   UNL A   1      47.236  26.139  32.681  1.00  0.00    -0.206 F 
ATOM     86  C   UNL A   1      50.578  26.302  31.315  1.00  0.00     0.060 A 
BRANCH  86  87
ATOM     87  S   UNL A   1      52.268  25.844  31.756  1.00  0.00     0.124 S 
ATOM     88  O   UNL A   1      52.085  24.484  32.248  1.00  0.00    -0.237 OA
ATOM     89  O   UNL A   1      52.970  25.969  30.482  1.00  0.00    -0.237 OA
ATOM     90  O   UNL A   1      52.633  26.835  32.764  1.00  0.00    -0.744 OA
ENDBRANCH  86  87
ENDBRANCH  54  79
ENDBRANCH  28  29
ENDBRANCH  20  23
ENDBRANCH  18  19
ENDBRANCH   1  18
TORSDOF 15
ENDMDL
MODEL 2
REMARK VINA RESULT:     -10.5      1.809      2.317
REMARK SMILES COc1c(C(=O)NCCCCNC(=O)c2ccc(-c3c4nc(c(-c5c(F)cc(S(=O)(=O)[O-])cc5F)c5ccc([nH]5)c(-c5c(F)cc(S(=O)(=O)[O-])cc5F)c5nc(c(-c6c(F)cc(S(=O)(=O)[O-])cc6F)c6ccc3[nH]6)C=C5)C=C4)cc2)ccc(F)c1F
REMARK SMILES IDX 10 1 9 2 8 3 7 4 5 5 6 6 4 8 3 9 85 10 81 11 83 12 86 13
REMARK SMILES IDX 82 14 84 15 2 16 1 17 11 18 12 19 13 20 14 22 15 23 16 24
REMARK SMILES IDX 80 25 17 26 79 27 18 28 19 29 20 30 73 31 21 32 78 33 72 34
REMARK SMILES IDX 74 35 22 36 77 37 71 38 70 39 23 41 57 42 36 43 56 44 37 45
REMARK SMILES IDX 40 46 55 47 75 48 38 49 39 50 54 52 76 53 41 54 24 55 25 56
REMARK SMILES IDX 34 57 26 58 27 59 33 60 35 61 28 62 29 63 30 64 31 65 32 66
REMARK SMILES IDX 58 67 59 68 68 69 60 70 61 71 67 72 69 73 62 74 63 75 64 76
REMARK SMILES IDX 65 77 66 78 42 79 43 80 52 81 44 82 45 83 51 84 53 85 46 86
REMARK SMILES IDX 47 87 48 88 49 89 50 90
REMARK H PARENT 7 7 12 21 74 40 40 51
REMARK Flexibility Score: inf
ROOT
ATOM      1  C   UNL A   1      33.492  27.990  25.796  1.00  0.00     0.023 C 
ENDROOT
BRANCH   1   2
ATOM      2  C   UNL A   1      32.882  26.621  25.466  1.00  0.00     0.023 C 
BRANCH   2   3
ATOM      3  C   UNL A   1      33.901  25.553  25.058  1.00  0.00     0.116 C 
BRANCH   3   4
ATOM      4  N   UNL A   1      33.726  25.172  23.673  1.00  0.00    -0.352 N 
ATOM      5  C   UNL A   1      33.584  23.989  22.995  1.00  0.00     0.255 C 
ATOM      6  O   UNL A   1      33.441  24.124  21.780  1.00  0.00    -0.269 OA
ATOM      7  H   UNL A   1      33.704  25.951  23.072  1.00  0.00     0.163 HD
BRANCH   5   8
ATOM      8  C   UNL A   1      33.568  22.618  23.622  1.00  0.00     0.085 A 
ATOM      9  C   UNL A   1      34.727  22.125  24.264  1.00  0.00     0.170 A 
ATOM     10  C   UNL A   1      34.787  20.802  24.727  1.00  0.00     0.201 A 
ATOM     11  C   UNL A   1      32.447  21.772  23.607  1.00  0.00     0.021 A 
ATOM     12  C   UNL A   1      33.685  19.971  24.623  1.00  0.00     0.162 A 
ATOM     13  F   UNL A   1      35.909  20.338  25.300  1.00  0.00    -0.200 F 
ATOM     14  C   UNL A   1      32.505  20.454  24.084  1.00  0.00     0.043 A 
ATOM     15  F   UNL A   1      33.740  18.708  25.065  1.00  0.00    -0.204 F 
BRANCH   9  16
ATOM     16  O   UNL A   1      35.865  22.873  24.446  1.00  0.00    -0.493 OA
ATOM     17  C   UNL A   1      36.739  22.727  23.322  1.00  0.00     0.278 C 
ENDBRANCH   9  16
ENDBRANCH   5   8
ENDBRANCH   3   4
ENDBRANCH   2   3
ENDBRANCH   1   2
BRANCH   1  18
ATOM     18  C   UNL A   1      33.654  28.294  27.284  1.00  0.00     0.116 C 
BRANCH  18  19
ATOM     19  N   UNL A   1      33.511  29.706  27.600  1.00  0.00    -0.352 N 
ATOM     20  C   UNL A   1      34.449  30.566  28.115  1.00  0.00     0.251 C 
ATOM     21  H   UNL A   1      32.625  30.097  27.421  1.00  0.00     0.163 HD
ATOM     22  O   UNL A   1      34.128  31.714  28.414  1.00  0.00    -0.269 OA
BRANCH  20  23
ATOM     23  C   UNL A   1      35.828  30.090  28.347  1.00  0.00     0.039 A 
ATOM     24  C   UNL A   1      36.733  30.114  27.283  1.00  0.00     0.014 A 
ATOM     25  C   UNL A   1      36.230  29.639  29.606  1.00  0.00     0.014 A 
ATOM     26  C   UNL A   1      38.060  29.739  27.497  1.00  0.00     0.010 A 
ATOM     27  C   UNL A   1      37.567  29.325  29.833  1.00  0.00     0.010 A 
ATOM     28  C   UNL A   1      38.494  29.370  28.780  1.00  0.00    -0.014 A 
BRANCH  28  29
ATOM     29  C   UNL A   1      39.912  29.018  29.037  1.00  0.00     0.031 A 
ATOM     30  C   UNL A   1      40.846  30.039  29.629  1.00  0.00     0.074 A 
ATOM     31  C   UNL A   1      40.371  27.801  28.687  1.00  0.00     0.049 A 
ATOM     32  N   UNL A   1      42.126  29.941  29.878  1.00  0.00    -0.248 NA
ATOM     33  C   UNL A   1      40.268  31.351  29.959  1.00  0.00     0.031 C 
ATOM     34  C   UNL A   1      39.573  26.744  28.060  1.00  0.00     0.029 A 
ATOM     35  N   UNL A   1      41.621  27.247  28.800  1.00  0.00    -0.354 N 
ATOM     36  C   UNL A   1      42.510  31.179  30.379  1.00  0.00     0.074 A 
ATOM     37  C   UNL A   1      41.338  32.028  30.349  1.00  0.00     0.031 C 
ATOM     38  C   UNL A   1      40.347  25.663  27.869  1.00  0.00     0.029 A 
ATOM     39  C   UNL A   1      41.700  25.959  28.329  1.00  0.00     0.049 A 
ATOM     40  H   UNL A   1      42.389  27.729  29.183  1.00  0.00     0.167 HD
ATOM     41  C   UNL A   1      43.722  31.566  30.844  1.00  0.00     0.037 A 
ATOM     42  C   UNL A   1      42.746  25.110  28.278  1.00  0.00     0.037 A 
ATOM     43  C   UNL A   1      44.875  30.708  30.897  1.00  0.00     0.049 A 
ATOM     44  C   UNL A   1      44.077  25.557  28.816  1.00  0.00     0.074 A 
ATOM     45  C   UNL A   1      46.136  30.988  31.395  1.00  0.00     0.029 A 
ATOM     46  N   UNL A   1      44.908  29.399  30.438  1.00  0.00    -0.354 N 
ATOM     47  N   UNL A   1      44.410  26.715  29.337  1.00  0.00    -0.248 NA
ATOM     48  C   UNL A   1      45.174  24.582  28.767  1.00  0.00     0.031 C 
ATOM     49  C   UNL A   1      46.940  29.857  31.210  1.00  0.00     0.029 A 
ATOM     50  C   UNL A   1      46.168  28.860  30.632  1.00  0.00     0.049 A 
ATOM     51  H   UNL A   1      44.147  28.923  30.033  1.00  0.00     0.167 HD
ATOM     52  C   UNL A   1      45.744  26.596  29.707  1.00  0.00     0.074 A 
ATOM     53  C   UNL A   1      46.156  25.252  29.355  1.00  0.00     0.031 C 
ATOM     54  C   UNL A   1      46.555  27.514  30.287  1.00  0.00     0.037 A 
BRANCH  41  55
ATOM     55  C   UNL A   1      43.851  32.980  31.341  1.00  0.00     0.058 A 
ATOM     56  C   UNL A   1      44.112  34.046  30.465  1.00  0.00     0.135 A 
ATOM     57  C   UNL A   1      43.703  33.276  32.706  1.00  0.00     0.135 A 
ATOM     58  F   UNL A   1      44.278  33.817  29.152  1.00  0.00    -0.206 F 
ATOM     59  C   UNL A   1      44.262  35.348  30.928  1.00  0.00     0.059 A 
ATOM     60  C   UNL A   1      43.821  34.577  33.188  1.00  0.00     0.059 A 
ATOM     61  F   UNL A   1      43.452  32.295  33.588  1.00  0.00    -0.206 F 
ATOM     62  C   UNL A   1      44.120  35.604  32.292  1.00  0.00     0.060 A 
BRANCH  62  63
ATOM     63  S   UNL A   1      44.332  37.297  32.881  1.00  0.00     0.124 S 
ATOM     64  O   UNL A   1      43.058  37.532  33.554  1.00  0.00    -0.237 OA
ATOM     65  O   UNL A   1      45.498  37.182  33.753  1.00  0.00    -0.237 OA
ATOM     66  O   UNL A   1      44.545  38.059  31.654  1.00  0.00    -0.744 OA
ENDBRANCH  62  63
ENDBRANCH  41  55
BRANCH  42  67
ATOM     67  C   UNL A   1      42.563  23.739  27.736  1.00  0.00     0.058 A 
ATOM     68  C   UNL A   1      42.560  23.509  26.352  1.00  0.00     0.135 A 
ATOM     69  C   UNL A   1      42.403  22.632  28.584  1.00  0.00     0.135 A 
ATOM     70  F   UNL A   1      42.705  24.537  25.503  1.00  0.00    -0.206 F 
ATOM     71  C   UNL A   1      42.388  22.234  25.825  1.00  0.00     0.059 A 
ATOM     72  C   UNL A   1      42.252  21.342  28.080  1.00  0.00     0.059 A 
ATOM     73  F   UNL A   1      42.417  22.797  29.915  1.00  0.00    -0.206 F 
ATOM     74  C   UNL A   1      42.236  21.155  26.698  1.00  0.00     0.060 A 
BRANCH  74  75
ATOM     75  S   UNL A   1      42.064  19.497  26.005  1.00  0.00     0.124 S 
ATOM     76  O   UNL A   1      40.629  19.427  25.761  1.00  0.00    -0.237 OA
ATOM     77  O   UNL A   1      42.911  19.570  24.818  1.00  0.00    -0.237 OA
ATOM     78  O   UNL A   1      42.569  18.636  27.071  1.00  0.00    -0.744 OA
ENDBRANCH  74  75
ENDBRANCH  42  67
BRANCH  54  79
ATOM     79  C   UNL A   1      47.957  27.085  30.617  1.00  0.00     0.058 A 
ATOM     80  C   UNL A   1      49.023  27.305  29.733  1.00  0.00     0.135 A 
ATOM     81  C   UNL A   1      48.241  26.484  31.854  1.00  0.00     0.135 A 
ATOM     82  F   UNL A   1      48.803  27.870  28.536  1.00  0.00    -0.206 F 
ATOM     83  C   UNL A   1      50.322  26.923  30.054  1.00  0.00     0.059 A 
ATOM     84  C   UNL A   1      49.535  26.116  32.206  1.00  0.00     0.059 A 
ATOM     85  F   UNL A   1      47.256  26.259  32.739  1.00  0.00    -0.206 F 
ATOM     86  C   UNL A   1      50.568  26.328  31.294  1.00  0.00     0.060 A 
BRANCH  86  87
ATOM     87  S   UNL A   1      52.261  25.862  31.712  1.00  0.00     0.124 S 
ATOM     88  O   UNL A   1      52.575  26.816  32.770  1.00  0.00    -0.237 OA
ATOM     89  O   UNL A   1      52.109  24.473  32.136  1.00  0.00    -0.237 OA
ATOM     90  O   UNL A   1      52.984  26.053  30.459  1.00  0.00    -0.744 OA
ENDBRANCH  86  87
ENDBRANCH  54  79
ENDBRANCH  28  29
ENDBRANCH  20  23
ENDBRANCH  18  19
ENDBRANCH   1  18
TORSDOF 15
ENDMDL
MODEL 3
REMARK VINA RESULT:     -10.4      6.134     12.083
REMARK SMILES COc1c(C(=O)NCCCCNC(=O)c2ccc(-c3c4nc(c(-c5c(F)cc(S(=O)(=O)[O-])cc5F)c5ccc([nH]5)c(-c5c(F)cc(S(=O)(=O)[O-])cc5F)c5nc(c(-c6c(F)cc(S(=O)(=O)[O-])cc6F)c6ccc3[nH]6)C=C5)C=C4)cc2)ccc(F)c1F
REMARK SMILES IDX 10 1 9 2 8 3 7 4 5 5 6 6 4 8 3 9 85 10 81 11 83 12 86 13
REMARK SMILES IDX 82 14 84 15 2 16 1 17 11 18 12 19 13 20 14 22 15 23 16 24
REMARK SMILES IDX 80 25 17 26 79 27 18 28 19 29 20 30 73 31 21 32 78 33 72 34
REMARK SMILES IDX 74 35 22 36 77 37 71 38 70 39 23 41 57 42 36 43 56 44 37 45
REMARK SMILES IDX 40 46 55 47 75 48 38 49 39 50 54 52 76 53 41 54 24 55 25 56
REMARK SMILES IDX 34 57 26 58 27 59 33 60 35 61 28 62 29 63 30 64 31 65 32 66
REMARK SMILES IDX 58 67 59 68 68 69 60 70 61 71 67 72 69 73 62 74 63 75 64 76
REMARK SMILES IDX 65 77 66 78 42 79 43 80 52 81 44 82 45 83 51 84 53 85 46 86
REMARK SMILES IDX 47 87 48 88 49 89 50 90
REMARK H PARENT 7 7 12 21 74 40 40 51
REMARK Flexibility Score: inf
ROOT
ATOM      1  C   UNL A   1      39.951  22.490  27.266  1.00  0.00     0.023 C 
ENDROOT
BRANCH   1   2
ATOM      2  C   UNL A   1      41.049  22.415  28.336  1.00  0.00     0.023 C 
BRANCH   2   3
ATOM      3  C   UNL A   1      42.129  21.364  28.064  1.00  0.00     0.116 C 
BRANCH   3   4
ATOM      4  N   UNL A   1      41.666  20.379  27.111  1.00  0.00    -0.352 N 
ATOM      5  C   UNL A   1      42.232  19.673  26.082  1.00  0.00     0.255 C 
ATOM      6  O   UNL A   1      41.455  18.900  25.520  1.00  0.00    -0.269 OA
ATOM      7  H   UNL A   1      40.713  20.164  27.231  1.00  0.00     0.163 HD
BRANCH   5   8
ATOM      8  C   UNL A   1      43.671  19.765  25.645  1.00  0.00     0.085 A 
ATOM      9  C   UNL A   1      44.150  20.954  25.045  1.00  0.00     0.170 A 
ATOM     10  C   UNL A   1      45.440  21.017  24.500  1.00  0.00     0.201 A 
ATOM     11  C   UNL A   1      44.597  18.719  25.795  1.00  0.00     0.021 A 
ATOM     12  C   UNL A   1      46.298  19.935  24.597  1.00  0.00     0.162 A 
ATOM     13  F   UNL A   1      45.864  22.140  23.900  1.00  0.00    -0.200 F 
ATOM     14  C   UNL A   1      45.892  18.791  25.262  1.00  0.00     0.043 A 
ATOM     15  F   UNL A   1      47.531  19.994  24.077  1.00  0.00    -0.204 F 
BRANCH   9  16
ATOM     16  O   UNL A   1      43.393  22.094  24.923  1.00  0.00    -0.493 OA
ATOM     17  C   UNL A   1      43.925  23.132  25.752  1.00  0.00     0.278 C 
ENDBRANCH   9  16
ENDBRANCH   5   8
ENDBRANCH   3   4
ENDBRANCH   2   3
ENDBRANCH   1   2
BRANCH   1  18
ATOM     18  C   UNL A   1      39.582  23.898  26.803  1.00  0.00     0.116 C 
BRANCH  18  19
ATOM     19  N   UNL A   1      40.526  24.453  25.845  1.00  0.00    -0.352 N 
ATOM     20  C   UNL A   1      41.245  25.619  25.932  1.00  0.00     0.251 C 
ATOM     21  H   UNL A   1      40.667  23.923  25.028  1.00  0.00     0.163 HD
ATOM     22  O   UNL A   1      41.929  25.988  24.981  1.00  0.00    -0.269 OA
BRANCH  20  23
ATOM     23  C   UNL A   1      41.155  26.445  27.154  1.00  0.00     0.039 A 
ATOM     24  C   UNL A   1      41.976  27.571  27.264  1.00  0.00     0.014 A 
ATOM     25  C   UNL A   1      40.260  26.121  28.176  1.00  0.00     0.014 A 
ATOM     26  C   UNL A   1      41.855  28.406  28.375  1.00  0.00     0.010 A 
ATOM     27  C   UNL A   1      40.097  26.988  29.253  1.00  0.00     0.010 A 
ATOM     28  C   UNL A   1      40.895  28.138  29.364  1.00  0.00    -0.014 A 
BRANCH  28  29
ATOM     29  C   UNL A   1      40.717  29.043  30.526  1.00  0.00     0.031 A 
ATOM     30  C   UNL A   1      41.593  28.891  31.739  1.00  0.00     0.074 A 
ATOM     31  C   UNL A   1      39.732  29.961  30.509  1.00  0.00     0.049 A 
ATOM     32  N   UNL A   1      41.557  29.546  32.870  1.00  0.00    -0.248 NA
ATOM     33  C   UNL A   1      42.627  27.846  31.682  1.00  0.00     0.031 C 
ATOM     34  C   UNL A   1      38.787  30.170  29.409  1.00  0.00     0.029 A 
ATOM     35  N   UNL A   1      39.355  30.888  31.448  1.00  0.00    -0.354 N 
ATOM     36  C   UNL A   1      42.552  28.986  33.664  1.00  0.00     0.074 A 
ATOM     37  C   UNL A   1      43.137  27.902  32.904  1.00  0.00     0.031 C 
ATOM     38  C   UNL A   1      37.957  31.178  29.727  1.00  0.00     0.029 A 
ATOM     39  C   UNL A   1      38.290  31.666  31.061  1.00  0.00     0.049 A 
ATOM     40  H   UNL A   1      39.806  30.986  32.318  1.00  0.00     0.167 HD
ATOM     41  C   UNL A   1      42.956  29.356  34.903  1.00  0.00     0.037 A 
ATOM     42  C   UNL A   1      37.656  32.662  31.710  1.00  0.00     0.037 A 
ATOM     43  C   UNL A   1      42.388  30.452  35.641  1.00  0.00     0.049 A 
ATOM     44  C   UNL A   1      38.134  33.066  33.078  1.00  0.00     0.074 A 
ATOM     45  C   UNL A   1      42.759  30.941  36.882  1.00  0.00     0.029 A 
ATOM     46  N   UNL A   1      41.330  31.237  35.203  1.00  0.00    -0.354 N 
ATOM     47  N   UNL A   1      39.112  32.561  33.792  1.00  0.00    -0.248 NA
ATOM     48  C   UNL A   1      37.429  34.180  33.725  1.00  0.00     0.031 C 
ATOM     49  C   UNL A   1      41.904  32.001  37.208  1.00  0.00     0.029 A 
ATOM     50  C   UNL A   1      41.028  32.198  36.152  1.00  0.00     0.049 A 
ATOM     51  H   UNL A   1      40.862  31.125  34.344  1.00  0.00     0.167 HD
ATOM     52  C   UNL A   1      39.160  33.316  34.958  1.00  0.00     0.074 A 
ATOM     53  C   UNL A   1      38.117  34.316  34.850  1.00  0.00     0.031 C 
ATOM     54  C   UNL A   1      39.993  33.194  36.021  1.00  0.00     0.037 A 
BRANCH  41  55
ATOM     55  C   UNL A   1      44.074  28.569  35.527  1.00  0.00     0.058 A 
ATOM     56  C   UNL A   1      43.821  27.467  36.361  1.00  0.00     0.135 A 
ATOM     57  C   UNL A   1      45.415  28.910  35.284  1.00  0.00     0.135 A 
ATOM     58  F   UNL A   1      42.558  27.106  36.640  1.00  0.00    -0.206 F 
ATOM     59  C   UNL A   1      44.854  26.757  36.963  1.00  0.00     0.059 A 
ATOM     60  C   UNL A   1      46.465  28.196  35.854  1.00  0.00     0.059 A 
ATOM     61  F   UNL A   1      45.714  29.954  34.495  1.00  0.00    -0.206 F 
ATOM     62  C   UNL A   1      46.173  27.133  36.709  1.00  0.00     0.060 A 
BRANCH  62  63
ATOM     63  S   UNL A   1      47.504  26.212  37.509  1.00  0.00     0.124 S 
ATOM     64  O   UNL A   1      47.699  26.988  38.730  1.00  0.00    -0.237 OA
ATOM     65  O   UNL A   1      46.908  24.891  37.687  1.00  0.00    -0.237 OA
ATOM     66  O   UNL A   1      48.593  26.279  36.540  1.00  0.00    -0.744 OA
ENDBRANCH  62  63
ENDBRANCH  41  55
BRANCH  42  67
ATOM     67  C   UNL A   1      36.529  33.375  31.054  1.00  0.00     0.058 A 
ATOM     68  C   UNL A   1      35.211  33.193  31.498  1.00  0.00     0.135 A 
ATOM     69  C   UNL A   1      36.744  34.260  29.987  1.00  0.00     0.135 A 
ATOM     70  F   UNL A   1      34.955  32.354  32.513  1.00  0.00    -0.206 F 
ATOM     71  C   UNL A   1      34.141  33.849  30.897  1.00  0.00     0.059 A 
ATOM     72  C   UNL A   1      35.693  34.945  29.382  1.00  0.00     0.059 A 
ATOM     73  F   UNL A   1      37.989  34.481  29.537  1.00  0.00    -0.206 F 
ATOM     74  C   UNL A   1      34.393  34.725  29.839  1.00  0.00     0.060 A 
BRANCH  74  75
ATOM     75  S   UNL A   1      33.005  35.610  29.098  1.00  0.00     0.124 S 
ATOM     76  O   UNL A   1      32.395  34.569  28.280  1.00  0.00    -0.237 OA
ATOM     77  O   UNL A   1      32.245  36.028  30.272  1.00  0.00    -0.237 OA
ATOM     78  O   UNL A   1      33.654  36.693  28.364  1.00  0.00    -0.744 OA
ENDBRANCH  74  75
ENDBRANCH  42  67
BRANCH  54  79
ATOM     79  C   UNL A   1      39.840  34.192  37.134  1.00  0.00     0.058 A 
ATOM     80  C   UNL A   1      40.561  35.395  37.149  1.00  0.00     0.135 A 
ATOM     81  C   UNL A   1      38.927  33.958  38.174  1.00  0.00     0.135 A 
ATOM     82  F   UNL A   1      41.451  35.663  36.181  1.00  0.00    -0.206 F 
ATOM     83  C   UNL A   1      40.399  36.324  38.173  1.00  0.00     0.059 A 
ATOM     84  C   UNL A   1      38.732  34.883  39.194  1.00  0.00     0.059 A 
ATOM     85  F   UNL A   1      38.206  32.826  38.200  1.00  0.00    -0.206 F 
ATOM     86  C   UNL A   1      39.482  36.059  39.192  1.00  0.00     0.060 A 
BRANCH  86  87
ATOM     87  S   UNL A   1      39.259  37.283  40.500  1.00  0.00     0.124 S 
ATOM     88  O   UNL A   1      40.573  37.914  40.538  1.00  0.00    -0.237 OA
ATOM     89  O   UNL A   1      38.174  38.108  39.976  1.00  0.00    -0.237 OA
ATOM     90  O   UNL A   1      38.915  36.473  41.665  1.00  0.00    -0.744 OA
ENDBRANCH  86  87
ENDBRANCH  54  79
ENDBRANCH  28  29
ENDBRANCH  20  23
ENDBRANCH  18  19
ENDBRANCH   1  18
TORSDOF 15
ENDMDL
