MODEL 1
REMARK VINA RESULT:     -11.4      0.000      0.000
REMARK SMILES Cc1cccc2c1[C@H]1c3c(C)cccc3[C@H](CC(=O)NCCCCNC(=O)c3ccc(-c4c5nc(c(-c6c(F)cc(S(=O)(=O)[O-])cc6F)c6ccc([nH]6)c(-c6c(F)cc(S(=O)(=O)[O-])cc6F)c6nc(c(-c7c(F)cc(S(=O)(=O)[O-])cc7F)c7ccc4[nH]7)C=C6)C=C5)cc3)C[C@H]1CC2
REMARK SMILES IDX 23 1 22 2 21 3 20 4 18 5 19 6 17 8 16 9 1 10 2 11 3 12 7 13
REMARK SMILES IDX 4 14 6 15 8 16 5 17 97 18 9 19 95 20 96 21 10 22 15 23 94 24
REMARK SMILES IDX 12 25 11 26 14 27 13 28 24 29 25 30 26 31 27 33 28 34 29 35
REMARK SMILES IDX 93 36 30 37 92 38 31 39 32 40 33 41 86 42 34 43 91 44 85 45
REMARK SMILES IDX 87 46 35 47 90 48 84 49 83 50 36 52 70 53 49 54 69 55 50 56
REMARK SMILES IDX 53 57 68 58 88 59 51 60 52 61 67 63 89 64 54 65 37 66 38 67
REMARK SMILES IDX 47 68 39 69 40 70 46 71 48 72 41 73 42 74 43 75 44 76 45 77
REMARK SMILES IDX 71 78 72 79 81 80 73 81 74 82 80 83 82 84 75 85 76 86 77 87
REMARK SMILES IDX 78 88 79 89 55 90 56 91 65 92 57 93 58 94 64 95 66 96 59 97
REMARK SMILES IDX 60 98 61 99 62 100 63 101
REMARK H PARENT 20 7 25 32 87 51 53 62
REMARK Flexibility Score: inf
ROOT
ATOM      1  C   UNL A   1      33.862  33.823  27.838  1.00  0.00     0.023 C 
ENDROOT
BRANCH   1   2
ATOM      2  C   UNL A   1      34.240  35.047  28.660  1.00  0.00     0.023 C 
BRANCH   2   3
ATOM      3  C   UNL A   1      33.250  35.456  29.735  1.00  0.00     0.116 C 
BRANCH   3   4
ATOM      4  N   UNL A   1      33.918  35.754  30.986  1.00  0.00    -0.356 N 
ATOM      5  C   UNL A   1      34.507  34.913  31.881  1.00  0.00     0.220 C 
ATOM      6  O   UNL A   1      35.014  35.398  32.895  1.00  0.00    -0.275 OA
ATOM      7  H   UNL A   1      33.952  36.709  31.225  1.00  0.00     0.163 HD
BRANCH   5   8
ATOM      8  C   UNL A   1      34.609  33.423  31.602  1.00  0.00     0.108 C 
BRANCH   8   9
ATOM      9  C   UNL A   1      35.958  32.663  31.806  1.00  0.00     0.029 C 
ATOM     10  C   UNL A   1      39.279  34.849  35.927  1.00  0.00     0.044 C 
ATOM     11  C   UNL A   1      40.004  33.596  35.500  1.00  0.00    -0.047 A 
ATOM     12  C   UNL A   1      41.229  33.303  36.120  1.00  0.00     0.004 A 
ATOM     13  C   UNL A   1      39.476  32.692  34.542  1.00  0.00    -0.034 A 
ATOM     14  C   UNL A   1      41.908  32.124  35.833  1.00  0.00     0.001 A 
ATOM     15  C   UNL A   1      40.109  31.442  34.353  1.00  0.00    -0.044 A 
ATOM     16  C   UNL A   1      38.227  33.011  33.732  1.00  0.00     0.053 C 
ATOM     17  C   UNL A   1      41.338  31.187  34.977  1.00  0.00     0.004 A 
ATOM     18  C   UNL A   1      39.449  30.310  33.596  1.00  0.00     0.036 C 
ATOM     19  C   UNL A   1      38.378  33.528  32.276  1.00  0.00    -0.034 A 
ATOM     20  C   UNL A   1      37.354  31.739  33.762  1.00  0.00     0.002 C 
ATOM     21  C   UNL A   1      38.056  30.595  33.020  1.00  0.00     0.009 C 
ATOM     22  C   UNL A   1      39.492  34.267  31.783  1.00  0.00    -0.047 A 
ATOM     23  C   UNL A   1      37.257  33.349  31.393  1.00  0.00    -0.040 A 
ATOM     24  C   UNL A   1      35.969  32.083  33.231  1.00  0.00     0.013 C 
ATOM     25  C   UNL A   1      39.496  34.725  30.448  1.00  0.00     0.004 A 
ATOM     26  C   UNL A   1      40.704  34.661  32.584  1.00  0.00     0.044 C 
ATOM     27  C   UNL A   1      37.344  33.771  30.051  1.00  0.00     0.004 A 
ATOM     28  C   UNL A   1      38.445  34.467  29.586  1.00  0.00     0.001 A 
ENDBRANCH   8   9
ENDBRANCH   5   8
ENDBRANCH   3   4
ENDBRANCH   2   3
ENDBRANCH   1   2
BRANCH   1  29
ATOM     29  C   UNL A   1      34.741  32.624  28.135  1.00  0.00     0.116 C 
BRANCH  29  30
ATOM     30  N   UNL A   1      34.008  31.364  28.031  1.00  0.00    -0.352 N 
ATOM     31  C   UNL A   1      34.491  30.077  28.009  1.00  0.00     0.251 C 
ATOM     32  H   UNL A   1      33.028  31.450  27.968  1.00  0.00     0.163 HD
ATOM     33  O   UNL A   1      33.757  29.144  27.722  1.00  0.00    -0.269 OA
BRANCH  31  34
ATOM     34  C   UNL A   1      35.919  29.855  28.316  1.00  0.00     0.039 A 
ATOM     35  C   UNL A   1      36.293  29.468  29.603  1.00  0.00     0.014 A 
ATOM     36  C   UNL A   1      36.871  29.974  27.301  1.00  0.00     0.014 A 
ATOM     37  C   UNL A   1      37.624  29.125  29.853  1.00  0.00     0.010 A 
ATOM     38  C   UNL A   1      38.166  29.535  27.525  1.00  0.00     0.010 A 
ATOM     39  C   UNL A   1      38.559  29.122  28.806  1.00  0.00    -0.014 A 
BRANCH  39  40
ATOM     40  C   UNL A   1      39.979  28.762  29.024  1.00  0.00     0.031 A 
ATOM     41  C   UNL A   1      40.908  29.799  29.595  1.00  0.00     0.074 A 
ATOM     42  C   UNL A   1      40.442  27.556  28.642  1.00  0.00     0.049 A 
ATOM     43  N   UNL A   1      42.206  29.755  29.739  1.00  0.00    -0.248 NA
ATOM     44  C   UNL A   1      40.299  31.071  30.022  1.00  0.00     0.031 C 
ATOM     45  C   UNL A   1      39.642  26.489  28.034  1.00  0.00     0.029 A 
ATOM     46  N   UNL A   1      41.707  27.029  28.699  1.00  0.00    -0.354 N 
ATOM     47  C   UNL A   1      42.565  30.995  30.253  1.00  0.00     0.074 A 
ATOM     48  C   UNL A   1      41.364  31.793  30.331  1.00  0.00     0.031 C 
ATOM     49  C   UNL A   1      40.431  25.427  27.799  1.00  0.00     0.029 A 
ATOM     50  C   UNL A   1      41.795  25.747  28.207  1.00  0.00     0.049 A 
ATOM     51  H   UNL A   1      42.479  27.522  29.058  1.00  0.00     0.167 HD
ATOM     52  C   UNL A   1      43.784  31.418  30.658  1.00  0.00     0.037 A 
ATOM     53  C   UNL A   1      42.861  24.931  28.100  1.00  0.00     0.037 A 
ATOM     54  C   UNL A   1      44.963  30.598  30.632  1.00  0.00     0.049 A 
ATOM     55  C   UNL A   1      44.204  25.420  28.570  1.00  0.00     0.074 A 
ATOM     56  C   UNL A   1      46.237  30.908  31.070  1.00  0.00     0.029 A 
ATOM     57  N   UNL A   1      45.006  29.296  30.156  1.00  0.00    -0.354 N 
ATOM     58  N   UNL A   1      44.522  26.584  29.086  1.00  0.00    -0.248 NA
ATOM     59  C   UNL A   1      45.333  24.488  28.447  1.00  0.00     0.031 C 
ATOM     60  C   UNL A   1      47.056  29.798  30.841  1.00  0.00     0.029 A 
ATOM     61  C   UNL A   1      46.285  28.789  30.287  1.00  0.00     0.049 A 
ATOM     62  H   UNL A   1      44.239  28.805  29.780  1.00  0.00     0.167 HD
ATOM     63  C   UNL A   1      45.881  26.515  29.371  1.00  0.00     0.074 A 
ATOM     64  C   UNL A   1      46.323  25.192  28.980  1.00  0.00     0.031 C 
ATOM     65  C   UNL A   1      46.692  27.460  29.905  1.00  0.00     0.037 A 
BRANCH  52  66
ATOM     66  C   UNL A   1      43.891  32.812  31.202  1.00  0.00     0.058 A 
ATOM     67  C   UNL A   1      44.019  33.047  32.581  1.00  0.00     0.135 A 
ATOM     68  C   UNL A   1      43.902  33.922  30.342  1.00  0.00     0.135 A 
ATOM     69  F   UNL A   1      43.988  32.023  33.447  1.00  0.00    -0.206 F 
ATOM     70  C   UNL A   1      44.137  34.335  33.090  1.00  0.00     0.059 A 
ATOM     71  C   UNL A   1      44.044  35.218  30.829  1.00  0.00     0.059 A 
ATOM     72  F   UNL A   1      43.774  33.751  29.017  1.00  0.00    -0.206 F 
ATOM     73  C   UNL A   1      44.152  35.415  32.205  1.00  0.00     0.060 A 
BRANCH  73  74
ATOM     74  S   UNL A   1      44.335  37.076  32.884  1.00  0.00     0.124 S 
ATOM     75  O   UNL A   1      45.584  36.950  33.630  1.00  0.00    -0.237 OA
ATOM     76  O   UNL A   1      44.398  37.900  31.681  1.00  0.00    -0.237 OA
ATOM     77  O   UNL A   1      43.135  37.246  33.696  1.00  0.00    -0.744 OA
ENDBRANCH  73  74
ENDBRANCH  52  66
BRANCH  53  78
ATOM     78  C   UNL A   1      42.701  23.555  27.557  1.00  0.00     0.058 A 
ATOM     79  C   UNL A   1      42.460  22.473  28.417  1.00  0.00     0.135 A 
ATOM     80  C   UNL A   1      42.787  23.291  26.182  1.00  0.00     0.135 A 
ATOM     81  F   UNL A   1      42.375  22.675  29.741  1.00  0.00    -0.206 F 
ATOM     82  C   UNL A   1      42.330  21.174  27.937  1.00  0.00     0.059 A 
ATOM     83  C   UNL A   1      42.640  22.003  25.675  1.00  0.00     0.059 A 
ATOM     84  F   UNL A   1      42.999  24.295  25.317  1.00  0.00    -0.206 F 
ATOM     85  C   UNL A   1      42.423  20.949  26.562  1.00  0.00     0.060 A 
BRANCH  85  86
ATOM     86  S   UNL A   1      42.222  19.262  25.949  1.00  0.00     0.124 S 
ATOM     87  O   UNL A   1      42.726  18.480  27.071  1.00  0.00    -0.237 OA
ATOM     88  O   UNL A   1      40.783  19.190  25.715  1.00  0.00    -0.237 OA
ATOM     89  O   UNL A   1      43.046  19.243  24.744  1.00  0.00    -0.744 OA
ENDBRANCH  85  86
ENDBRANCH  53  78
BRANCH  65  90
ATOM     90  C   UNL A   1      48.131  27.097  30.125  1.00  0.00     0.058 A 
ATOM     91  C   UNL A   1      49.100  27.325  29.137  1.00  0.00     0.135 A 
ATOM     92  C   UNL A   1      48.556  26.601  31.367  1.00  0.00     0.135 A 
ATOM     93  F   UNL A   1      48.740  27.794  27.933  1.00  0.00    -0.206 F 
ATOM     94  C   UNL A   1      50.445  27.068  29.372  1.00  0.00     0.059 A 
ATOM     95  C   UNL A   1      49.900  26.357  31.631  1.00  0.00     0.059 A 
ATOM     96  F   UNL A   1      47.666  26.376  32.347  1.00  0.00    -0.206 F 
ATOM     97  C   UNL A   1      50.836  26.590  30.625  1.00  0.00     0.060 A 
BRANCH  97  98
ATOM     98  S   UNL A   1      52.593  26.319  30.935  1.00  0.00     0.124 S 
ATOM     99  O   UNL A   1      52.943  27.510  31.703  1.00  0.00    -0.237 OA
ATOM    100  O   UNL A   1      52.590  25.063  31.679  1.00  0.00    -0.237 OA
ATOM    101  O   UNL A   1      53.168  26.244  29.595  1.00  0.00    -0.744 OA
ENDBRANCH  97  98
ENDBRANCH  65  90
ENDBRANCH  39  40
ENDBRANCH  31  34
ENDBRANCH  29  30
ENDBRANCH   1  29
TORSDOF 15
ENDMDL
MODEL 2
REMARK VINA RESULT:     -11.2      3.889      7.457
REMARK SMILES Cc1cccc2c1[C@H]1c3c(C)cccc3[C@H](CC(=O)NCCCCNC(=O)c3ccc(-c4c5nc(c(-c6c(F)cc(S(=O)(=O)[O-])cc6F)c6ccc([nH]6)c(-c6c(F)cc(S(=O)(=O)[O-])cc6F)c6nc(c(-c7c(F)cc(S(=O)(=O)[O-])cc7F)c7ccc4[nH]7)C=C6)C=C5)cc3)C[C@H]1CC2
REMARK SMILES IDX 23 1 22 2 21 3 20 4 18 5 19 6 17 8 16 9 1 10 2 11 3 12 7 13
REMARK SMILES IDX 4 14 6 15 8 16 5 17 97 18 9 19 95 20 96 21 10 22 15 23 94 24
REMARK SMILES IDX 12 25 11 26 14 27 13 28 24 29 25 30 26 31 27 33 28 34 29 35
REMARK SMILES IDX 93 36 30 37 92 38 31 39 32 40 33 41 86 42 34 43 91 44 85 45
REMARK SMILES IDX 87 46 35 47 90 48 84 49 83 50 36 52 70 53 49 54 69 55 50 56
REMARK SMILES IDX 53 57 68 58 88 59 51 60 52 61 67 63 89 64 54 65 37 66 38 67
REMARK SMILES IDX 47 68 39 69 40 70 46 71 48 72 41 73 42 74 43 75 44 76 45 77
REMARK SMILES IDX 71 78 72 79 81 80 73 81 74 82 80 83 82 84 75 85 76 86 77 87
REMARK SMILES IDX 78 88 79 89 55 90 56 91 65 92 57 93 58 94 64 95 66 96 59 97
REMARK SMILES IDX 60 98 61 99 62 100 63 101
REMARK H PARENT 20 7 25 32 87 51 53 62
REMARK Flexibility Score: inf
ROOT
ATOM      1  C   UNL A   1      33.786  28.215  25.729  1.00  0.00     0.023 C 
ENDROOT
BRANCH   1   2
ATOM      2  C   UNL A   1      33.177  29.351  24.920  1.00  0.00     0.023 C 
BRANCH   2   3
ATOM      3  C   UNL A   1      33.111  29.136  23.419  1.00  0.00     0.116 C 
BRANCH   3   4
ATOM      4  N   UNL A   1      31.777  29.377  22.907  1.00  0.00    -0.356 N 
ATOM      5  C   UNL A   1      30.926  28.533  22.261  1.00  0.00     0.220 C 
ATOM      6  O   UNL A   1      29.827  28.966  21.906  1.00  0.00    -0.275 OA
ATOM      7  H   UNL A   1      31.434  30.290  23.047  1.00  0.00     0.163 HD
BRANCH   5   8
ATOM      8  C   UNL A   1      31.285  27.071  22.053  1.00  0.00     0.108 C 
BRANCH   8   9
ATOM      9  C   UNL A   1      32.188  26.317  23.079  1.00  0.00     0.029 C 
ATOM     10  C   UNL A   1      31.974  20.611  22.641  1.00  0.00     0.044 C 
ATOM     11  C   UNL A   1      33.047  20.858  23.673  1.00  0.00    -0.047 A 
ATOM     12  C   UNL A   1      33.658  19.740  24.264  1.00  0.00     0.004 A 
ATOM     13  C   UNL A   1      33.487  22.160  24.028  1.00  0.00    -0.034 A 
ATOM     14  C   UNL A   1      34.710  19.896  25.161  1.00  0.00     0.001 A 
ATOM     15  C   UNL A   1      34.635  22.301  24.840  1.00  0.00    -0.044 A 
ATOM     16  C   UNL A   1      32.779  23.414  23.533  1.00  0.00     0.053 C 
ATOM     17  C   UNL A   1      35.213  21.166  25.426  1.00  0.00     0.004 A 
ATOM     18  C   UNL A   1      35.346  23.626  25.007  1.00  0.00     0.036 C 
ATOM     19  C   UNL A   1      31.784  24.145  24.474  1.00  0.00    -0.034 A 
ATOM     20  C   UNL A   1      33.887  24.381  23.069  1.00  0.00     0.002 C 
ATOM     21  C   UNL A   1      34.743  24.823  24.263  1.00  0.00     0.009 C 
ATOM     22  C   UNL A   1      31.023  23.519  25.504  1.00  0.00    -0.047 A 
ATOM     23  C   UNL A   1      31.524  25.534  24.208  1.00  0.00    -0.040 A 
ATOM     24  C   UNL A   1      33.246  25.524  22.292  1.00  0.00     0.013 C 
ATOM     25  C   UNL A   1      30.113  24.281  26.268  1.00  0.00     0.004 A 
ATOM     26  C   UNL A   1      31.063  22.056  25.855  1.00  0.00     0.044 C 
ATOM     27  C   UNL A   1      30.652  26.259  25.045  1.00  0.00     0.004 A 
ATOM     28  C   UNL A   1      29.940  25.637  26.054  1.00  0.00     0.001 A 
ENDBRANCH   8   9
ENDBRANCH   5   8
ENDBRANCH   3   4
ENDBRANCH   2   3
ENDBRANCH   1   2
BRANCH   1  29
ATOM     29  C   UNL A   1      33.595  28.389  27.223  1.00  0.00     0.116 C 
BRANCH  29  30
ATOM     30  N   UNL A   1      33.503  29.796  27.606  1.00  0.00    -0.352 N 
ATOM     31  C   UNL A   1      34.440  30.592  28.221  1.00  0.00     0.251 C 
ATOM     32  H   UNL A   1      32.647  30.236  27.394  1.00  0.00     0.163 HD
ATOM     33  O   UNL A   1      34.133  31.695  28.648  1.00  0.00    -0.269 OA
BRANCH  31  34
ATOM     34  C   UNL A   1      35.815  30.073  28.374  1.00  0.00     0.039 A 
ATOM     35  C   UNL A   1      36.693  30.122  27.291  1.00  0.00     0.014 A 
ATOM     36  C   UNL A   1      36.240  29.597  29.616  1.00  0.00     0.014 A 
ATOM     37  C   UNL A   1      38.028  29.761  27.477  1.00  0.00     0.010 A 
ATOM     38  C   UNL A   1      37.585  29.337  29.824  1.00  0.00     0.010 A 
ATOM     39  C   UNL A   1      38.489  29.401  28.754  1.00  0.00    -0.014 A 
BRANCH  39  40
ATOM     40  C   UNL A   1      39.897  29.013  28.999  1.00  0.00     0.031 A 
ATOM     41  C   UNL A   1      40.837  30.036  29.579  1.00  0.00     0.074 A 
ATOM     42  C   UNL A   1      40.341  27.796  28.635  1.00  0.00     0.049 A 
ATOM     43  N   UNL A   1      42.131  29.967  29.746  1.00  0.00    -0.248 NA
ATOM     44  C   UNL A   1      40.247  31.324  29.984  1.00  0.00     0.031 C 
ATOM     45  C   UNL A   1      39.530  26.740  28.022  1.00  0.00     0.029 A 
ATOM     46  N   UNL A   1      41.594  27.243  28.719  1.00  0.00    -0.354 N 
ATOM     47  C   UNL A   1      42.508  31.203  30.256  1.00  0.00     0.074 A 
ATOM     48  C   UNL A   1      41.322  32.026  30.307  1.00  0.00     0.031 C 
ATOM     49  C   UNL A   1      40.301  25.660  27.809  1.00  0.00     0.029 A 
ATOM     50  C   UNL A   1      41.665  25.956  28.238  1.00  0.00     0.049 A 
ATOM     51  H   UNL A   1      42.370  27.722  29.087  1.00  0.00     0.167 HD
ATOM     52  C   UNL A   1      43.728  31.604  30.679  1.00  0.00     0.037 A 
ATOM     53  C   UNL A   1      42.715  25.117  28.156  1.00  0.00     0.037 A 
ATOM     54  C   UNL A   1      44.890  30.760  30.679  1.00  0.00     0.049 A 
ATOM     55  C   UNL A   1      44.060  25.582  28.646  1.00  0.00     0.074 A 
ATOM     56  C   UNL A   1      46.162  31.048  31.138  1.00  0.00     0.029 A 
ATOM     57  N   UNL A   1      44.913  29.453  30.214  1.00  0.00    -0.354 N 
ATOM     58  N   UNL A   1      44.392  26.744  29.158  1.00  0.00    -0.248 NA
ATOM     59  C   UNL A   1      45.171  24.626  28.550  1.00  0.00     0.031 C 
ATOM     60  C   UNL A   1      46.962  29.920  30.931  1.00  0.00     0.029 A 
ATOM     61  C   UNL A   1      46.180  28.922  30.372  1.00  0.00     0.049 A 
ATOM     62  H   UNL A   1      44.143  28.976  29.829  1.00  0.00     0.167 HD
ATOM     63  C   UNL A   1      45.745  26.649  29.467  1.00  0.00     0.074 A 
ATOM     64  C   UNL A   1      46.166  25.314  29.095  1.00  0.00     0.031 C 
ATOM     65  C   UNL A   1      46.566  27.582  30.008  1.00  0.00     0.037 A 
BRANCH  52  66
ATOM     66  C   UNL A   1      43.854  33.001  31.213  1.00  0.00     0.058 A 
ATOM     67  C   UNL A   1      44.163  34.078  30.367  1.00  0.00     0.135 A 
ATOM     68  C   UNL A   1      43.630  33.276  32.572  1.00  0.00     0.135 A 
ATOM     69  F   UNL A   1      44.412  33.865  29.065  1.00  0.00    -0.206 F 
ATOM     70  C   UNL A   1      44.263  35.377  30.851  1.00  0.00     0.059 A 
ATOM     71  C   UNL A   1      43.700  34.572  33.073  1.00  0.00     0.059 A 
ATOM     72  F   UNL A   1      43.340  32.280  33.424  1.00  0.00    -0.206 F 
ATOM     73  C   UNL A   1      44.026  35.615  32.206  1.00  0.00     0.060 A 
BRANCH  73  74
ATOM     74  S   UNL A   1      44.132  37.312  32.809  1.00  0.00     0.124 S 
ATOM     75  O   UNL A   1      43.023  37.353  33.758  1.00  0.00    -0.237 OA
ATOM     76  O   UNL A   1      45.468  37.351  33.396  1.00  0.00    -0.237 OA
ATOM     77  O   UNL A   1      43.955  38.113  31.603  1.00  0.00    -0.744 OA
ENDBRANCH  73  74
ENDBRANCH  52  66
BRANCH  53  78
ATOM     78  C   UNL A   1      42.536  23.740  27.622  1.00  0.00     0.058 A 
ATOM     79  C   UNL A   1      42.409  22.648  28.493  1.00  0.00     0.135 A 
ATOM     80  C   UNL A   1      42.491  23.485  26.243  1.00  0.00     0.135 A 
ATOM     81  F   UNL A   1      42.450  22.841  29.820  1.00  0.00    -0.206 F 
ATOM     82  C   UNL A   1      42.264  21.349  28.019  1.00  0.00     0.059 A 
ATOM     83  C   UNL A   1      42.327  22.196  25.744  1.00  0.00     0.059 A 
ATOM     84  F   UNL A   1      42.592  24.498  25.368  1.00  0.00    -0.206 F 
ATOM     85  C   UNL A   1      42.225  21.133  26.640  1.00  0.00     0.060 A 
BRANCH  85  86
ATOM     86  S   UNL A   1      42.005  19.444  26.037  1.00  0.00     0.124 S 
ATOM     87  O   UNL A   1      42.461  18.663  27.180  1.00  0.00    -0.237 OA
ATOM     88  O   UNL A   1      40.573  19.401  25.762  1.00  0.00    -0.237 OA
ATOM     89  O   UNL A   1      42.864  19.396  24.857  1.00  0.00    -0.744 OA
ENDBRANCH  85  86
ENDBRANCH  53  78
BRANCH  65  90
ATOM     90  C   UNL A   1      47.993  27.191  30.255  1.00  0.00     0.058 A 
ATOM     91  C   UNL A   1      48.990  27.426  29.298  1.00  0.00     0.135 A 
ATOM     92  C   UNL A   1      48.379  26.661  31.497  1.00  0.00     0.135 A 
ATOM     93  F   UNL A   1      48.668  27.928  28.096  1.00  0.00    -0.206 F 
ATOM     94  C   UNL A   1      50.325  27.142  29.560  1.00  0.00     0.059 A 
ATOM     95  C   UNL A   1      49.711  26.389  31.788  1.00  0.00     0.059 A 
ATOM     96  F   UNL A   1      47.460  26.428  32.448  1.00  0.00    -0.206 F 
ATOM     97  C   UNL A   1      50.677  26.630  30.812  1.00  0.00     0.060 A 
BRANCH  97  98
ATOM     98  S   UNL A   1      52.421  26.324  31.160  1.00  0.00     0.124 S 
ATOM     99  O   UNL A   1      52.766  27.487  31.972  1.00  0.00    -0.237 OA
ATOM    100  O   UNL A   1      52.380  25.047  31.866  1.00  0.00    -0.237 OA
ATOM    101  O   UNL A   1      53.030  26.281  29.834  1.00  0.00    -0.744 OA
ENDBRANCH  97  98
ENDBRANCH  65  90
ENDBRANCH  39  40
ENDBRANCH  31  34
ENDBRANCH  29  30
ENDBRANCH   1  29
TORSDOF 15
ENDMDL
MODEL 3
REMARK VINA RESULT:     -10.6      4.083      7.304
REMARK SMILES Cc1cccc2c1[C@H]1c3c(C)cccc3[C@H](CC(=O)NCCCCNC(=O)c3ccc(-c4c5nc(c(-c6c(F)cc(S(=O)(=O)[O-])cc6F)c6ccc([nH]6)c(-c6c(F)cc(S(=O)(=O)[O-])cc6F)c6nc(c(-c7c(F)cc(S(=O)(=O)[O-])cc7F)c7ccc4[nH]7)C=C6)C=C5)cc3)C[C@H]1CC2
REMARK SMILES IDX 23 1 22 2 21 3 20 4 18 5 19 6 17 8 16 9 1 10 2 11 3 12 7 13
REMARK SMILES IDX 4 14 6 15 8 16 5 17 97 18 9 19 95 20 96 21 10 22 15 23 94 24
REMARK SMILES IDX 12 25 11 26 14 27 13 28 24 29 25 30 26 31 27 33 28 34 29 35
REMARK SMILES IDX 93 36 30 37 92 38 31 39 32 40 33 41 86 42 34 43 91 44 85 45
REMARK SMILES IDX 87 46 35 47 90 48 84 49 83 50 36 52 70 53 49 54 69 55 50 56
REMARK SMILES IDX 53 57 68 58 88 59 51 60 52 61 67 63 89 64 54 65 37 66 38 67
REMARK SMILES IDX 47 68 39 69 40 70 46 71 48 72 41 73 42 74 43 75 44 76 45 77
REMARK SMILES IDX 71 78 72 79 81 80 73 81 74 82 80 83 82 84 75 85 76 86 77 87
REMARK SMILES IDX 78 88 79 89 55 90 56 91 65 92 57 93 58 94 64 95 66 96 59 97
REMARK SMILES IDX 60 98 61 99 62 100 63 101
REMARK H PARENT 20 7 25 32 87 51 53 62
REMARK Flexibility Score: inf
ROOT
ATOM      1  C   UNL A   1      34.550  31.937  27.678  1.00  0.00     0.023 C 
ENDROOT
BRANCH   1   2
ATOM      2  C   UNL A   1      33.287  31.090  27.638  1.00  0.00     0.023 C 
BRANCH   2   3
ATOM      3  C   UNL A   1      33.447  29.683  27.092  1.00  0.00     0.116 C 
BRANCH   3   4
ATOM      4  N   UNL A   1      33.716  29.693  25.668  1.00  0.00    -0.356 N 
ATOM      5  C   UNL A   1      32.955  29.242  24.634  1.00  0.00     0.220 C 
ATOM      6  O   UNL A   1      33.398  29.351  23.488  1.00  0.00    -0.275 OA
ATOM      7  H   UNL A   1      34.582  30.087  25.410  1.00  0.00     0.163 HD
BRANCH   5   8
ATOM      8  C   UNL A   1      31.559  28.691  24.874  1.00  0.00     0.108 C 
BRANCH   8   9
ATOM      9  C   UNL A   1      31.298  27.151  24.875  1.00  0.00     0.029 C 
ATOM     10  C   UNL A   1      35.986  23.980  25.743  1.00  0.00     0.044 C 
ATOM     11  C   UNL A   1      34.862  22.974  25.733  1.00  0.00    -0.047 A 
ATOM     12  C   UNL A   1      35.193  21.617  25.881  1.00  0.00     0.004 A 
ATOM     13  C   UNL A   1      33.496  23.348  25.628  1.00  0.00    -0.034 A 
ATOM     14  C   UNL A   1      34.200  20.647  25.963  1.00  0.00     0.001 A 
ATOM     15  C   UNL A   1      32.497  22.372  25.839  1.00  0.00    -0.044 A 
ATOM     16  C   UNL A   1      33.072  24.779  25.327  1.00  0.00     0.053 C 
ATOM     17  C   UNL A   1      32.861  21.024  25.970  1.00  0.00     0.004 A 
ATOM     18  C   UNL A   1      31.043  22.738  26.053  1.00  0.00     0.036 C 
ATOM     19  C   UNL A   1      32.668  25.162  23.878  1.00  0.00    -0.034 A 
ATOM     20  C   UNL A   1      31.927  25.107  26.308  1.00  0.00     0.002 C 
ATOM     21  C   UNL A   1      30.703  24.233  26.008  1.00  0.00     0.009 C 
ATOM     22  C   UNL A   1      33.160  24.532  22.699  1.00  0.00    -0.047 A 
ATOM     23  C   UNL A   1      31.825  26.316  23.712  1.00  0.00    -0.040 A 
ATOM     24  C   UNL A   1      31.661  26.606  26.267  1.00  0.00     0.013 C 
ATOM     25  C   UNL A   1      32.754  24.999  21.430  1.00  0.00     0.004 A 
ATOM     26  C   UNL A   1      34.142  23.392  22.661  1.00  0.00     0.044 C 
ATOM     27  C   UNL A   1      31.400  26.697  22.423  1.00  0.00     0.004 A 
ATOM     28  C   UNL A   1      31.872  26.057  21.291  1.00  0.00     0.001 A 
ENDBRANCH   8   9
ENDBRANCH   5   8
ENDBRANCH   3   4
ENDBRANCH   2   3
ENDBRANCH   1   2
BRANCH   1  29
ATOM     29  C   UNL A   1      35.729  31.203  28.287  1.00  0.00     0.116 C 
BRANCH  29  30
ATOM     30  N   UNL A   1      35.585  31.028  29.729  1.00  0.00    -0.352 N 
ATOM     31  C   UNL A   1      36.378  30.321  30.603  1.00  0.00     0.251 C 
ATOM     32  H   UNL A   1      34.809  31.480  30.134  1.00  0.00     0.163 HD
ATOM     33  O   UNL A   1      36.008  30.115  31.748  1.00  0.00    -0.269 OA
BRANCH  31  34
ATOM     34  C   UNL A   1      37.672  29.799  30.115  1.00  0.00     0.039 A 
ATOM     35  C   UNL A   1      38.030  29.988  28.780  1.00  0.00     0.014 A 
ATOM     36  C   UNL A   1      38.548  29.179  31.009  1.00  0.00     0.014 A 
ATOM     37  C   UNL A   1      39.308  29.618  28.358  1.00  0.00     0.010 A 
ATOM     38  C   UNL A   1      39.848  28.908  30.613  1.00  0.00     0.010 A 
ATOM     39  C   UNL A   1      40.236  29.110  29.281  1.00  0.00    -0.014 A 
BRANCH  39  40
ATOM     40  C   UNL A   1      41.604  28.708  28.879  1.00  0.00     0.031 A 
ATOM     41  C   UNL A   1      42.683  29.756  28.842  1.00  0.00     0.074 A 
ATOM     42  C   UNL A   1      41.852  27.446  28.478  1.00  0.00     0.049 A 
ATOM     43  N   UNL A   1      43.906  29.666  28.391  1.00  0.00    -0.248 NA
ATOM     44  C   UNL A   1      42.323  31.096  29.339  1.00  0.00     0.031 C 
ATOM     45  C   UNL A   1      40.871  26.359  28.430  1.00  0.00     0.029 A 
ATOM     46  N   UNL A   1      43.010  26.868  28.024  1.00  0.00    -0.354 N 
ATOM     47  C   UNL A   1      44.450  30.936  28.533  1.00  0.00     0.074 A 
ATOM     48  C   UNL A   1      43.408  31.795  29.047  1.00  0.00     0.031 C 
ATOM     49  C   UNL A   1      41.476  25.240  27.995  1.00  0.00     0.029 A 
ATOM     50  C   UNL A   1      42.876  25.537  27.703  1.00  0.00     0.049 A 
ATOM     51  H   UNL A   1      43.858  27.360  27.935  1.00  0.00     0.167 HD
ATOM     52  C   UNL A   1      45.717  31.342  28.293  1.00  0.00     0.037 A 
ATOM     53  C   UNL A   1      43.783  24.663  27.228  1.00  0.00     0.037 A 
ATOM     54  C   UNL A   1      46.763  30.468  27.838  1.00  0.00     0.049 A 
ATOM     55  C   UNL A   1      45.191  25.136  26.981  1.00  0.00     0.074 A 
ATOM     56  C   UNL A   1      48.095  30.763  27.616  1.00  0.00     0.029 A 
ATOM     57  N   UNL A   1      46.594  29.120  27.555  1.00  0.00    -0.354 N 
ATOM     58  N   UNL A   1      45.699  26.333  27.154  1.00  0.00    -0.248 NA
ATOM     59  C   UNL A   1      46.149  24.142  26.477  1.00  0.00     0.031 C 
ATOM     60  C   UNL A   1      48.730  29.597  27.179  1.00  0.00     0.029 A 
ATOM     61  C   UNL A   1      47.799  28.571  27.158  1.00  0.00     0.049 A 
ATOM     62  H   UNL A   1      45.744  28.629  27.627  1.00  0.00     0.167 HD
ATOM     63  C   UNL A   1      47.041  26.231  26.803  1.00  0.00     0.074 A 
ATOM     64  C   UNL A   1      47.268  24.853  26.419  1.00  0.00     0.031 C 
ATOM     65  C   UNL A   1      47.999  27.189  26.797  1.00  0.00     0.037 A 
BRANCH  52  66
ATOM     66  C   UNL A   1      46.048  32.781  28.558  1.00  0.00     0.058 A 
ATOM     67  C   UNL A   1      46.498  33.204  29.819  1.00  0.00     0.135 A 
ATOM     68  C   UNL A   1      45.953  33.742  27.538  1.00  0.00     0.135 A 
ATOM     69  F   UNL A   1      46.581  32.331  30.835  1.00  0.00    -0.206 F 
ATOM     70  C   UNL A   1      46.823  34.533  30.067  1.00  0.00     0.059 A 
ATOM     71  C   UNL A   1      46.298  35.072  27.757  1.00  0.00     0.059 A 
ATOM     72  F   UNL A   1      45.521  33.391  26.317  1.00  0.00    -0.206 F 
ATOM     73  C   UNL A   1      46.724  35.459  29.027  1.00  0.00     0.060 A 
BRANCH  73  74
ATOM     74  S   UNL A   1      47.180  37.173  29.361  1.00  0.00     0.124 S 
ATOM     75  O   UNL A   1      48.562  37.024  29.809  1.00  0.00    -0.237 OA
ATOM     76  O   UNL A   1      47.002  37.803  28.057  1.00  0.00    -0.237 OA
ATOM     77  O   UNL A   1      46.229  37.583  30.389  1.00  0.00    -0.744 OA
ENDBRANCH  73  74
ENDBRANCH  52  66
BRANCH  53  78
ATOM     78  C   UNL A   1      43.405  23.245  26.986  1.00  0.00     0.058 A 
ATOM     79  C   UNL A   1      43.268  22.756  25.679  1.00  0.00     0.135 A 
ATOM     80  C   UNL A   1      43.170  22.356  28.045  1.00  0.00     0.135 A 
ATOM     81  F   UNL A   1      43.477  23.571  24.633  1.00  0.00    -0.206 F 
ATOM     82  C   UNL A   1      42.893  21.441  25.426  1.00  0.00     0.059 A 
ATOM     83  C   UNL A   1      42.813  21.029  27.819  1.00  0.00     0.059 A 
ATOM     84  F   UNL A   1      43.304  22.770  29.315  1.00  0.00    -0.206 F 
ATOM     85  C   UNL A   1      42.666  20.584  26.506  1.00  0.00     0.060 A 
BRANCH  85  86
ATOM     86  S   UNL A   1      42.209  18.870  26.165  1.00  0.00     0.124 S 
ATOM     87  O   UNL A   1      42.469  18.236  27.451  1.00  0.00    -0.237 OA
ATOM     88  O   UNL A   1      40.806  18.996  25.786  1.00  0.00    -0.237 OA
ATOM     89  O   UNL A   1      43.111  18.492  25.081  1.00  0.00    -0.744 OA
ENDBRANCH  85  86
ENDBRANCH  53  78
BRANCH  65  90
ATOM     90  C   UNL A   1      49.384  26.784  26.388  1.00  0.00     0.058 A 
ATOM     91  C   UNL A   1      50.294  26.258  27.317  1.00  0.00     0.135 A 
ATOM     92  C   UNL A   1      49.771  26.838  25.040  1.00  0.00     0.135 A 
ATOM     93  F   UNL A   1      49.970  26.191  28.617  1.00  0.00    -0.206 F 
ATOM     94  C   UNL A   1      51.547  25.804  26.923  1.00  0.00     0.059 A 
ATOM     95  C   UNL A   1      51.011  26.369  24.620  1.00  0.00     0.059 A 
ATOM     96  F   UNL A   1      48.929  27.324  24.113  1.00  0.00    -0.206 F 
ATOM     97  C   UNL A   1      51.894  25.858  25.570  1.00  0.00     0.060 A 
BRANCH  97  98
ATOM     98  S   UNL A   1      53.500  25.208  25.065  1.00  0.00     0.124 S 
ATOM     99  O   UNL A   1      54.398  25.893  25.990  1.00  0.00    -0.237 OA
ATOM    100  O   UNL A   1      53.340  23.773  25.283  1.00  0.00    -0.237 OA
ATOM    101  O   UNL A   1      53.607  25.615  23.667  1.00  0.00    -0.744 OA
ENDBRANCH  97  98
ENDBRANCH  65  90
ENDBRANCH  39  40
ENDBRANCH  31  34
ENDBRANCH  29  30
ENDBRANCH   1  29
TORSDOF 15
ENDMDL
