MODEL 1
REMARK VINA RESULT:     -11.1      0.000      0.000
REMARK SMILES CC(C)N(CCCC(=O)NCCCCNC(=O)c1ccc(-c2c3nc(c(-c4c(F)cc(S(=O)(=O)[O-])cc4F)c4ccc([nH]4)c(-c4c(F)cc(S(=O)(=O)[O-])cc4F)c4nc(c(-c5c(F)cc(S(=O)(=O)[O-])cc5F)c5ccc2[nH]5)C=C4)C=C3)cc1)C(=O)N[C@@H]1CCCC1(C)C
REMARK SMILES IDX 11 1 10 2 8 3 9 4 7 6 6 7 5 8 4 9 2 10 1 11 3 12 84 13 85 14
REMARK SMILES IDX 86 15 87 17 88 18 91 19 89 20 90 21 92 22 93 23 12 24 13 25
REMARK SMILES IDX 14 26 15 27 16 28 17 30 18 31 19 32 83 33 20 34 82 35 21 36
REMARK SMILES IDX 22 37 23 38 76 39 24 40 81 41 75 42 77 43 25 44 80 45 74 46
REMARK SMILES IDX 73 47 26 49 60 50 39 51 59 52 40 53 43 54 58 55 78 56 41 57
REMARK SMILES IDX 42 58 57 60 79 61 44 62 27 63 28 64 37 65 29 66 30 67 36 68
REMARK SMILES IDX 38 69 31 70 32 71 33 72 34 73 35 74 61 75 62 76 71 77 63 78
REMARK SMILES IDX 64 79 70 80 72 81 65 82 66 83 67 84 68 85 69 86 45 87 46 88
REMARK SMILES IDX 55 89 47 90 48 91 54 92 56 93 49 94 50 95 51 96 52 97 53 98
REMARK H PARENT 10 5 86 16 15 29 77 48 43 59
REMARK Flexibility Score: inf
ROOT
ATOM      1  C   UNL A   1      38.466  21.371  25.737  1.00  0.00     0.116 C 
ENDROOT
BRANCH   1   2
ATOM      2  N   UNL A   1      37.777  21.973  24.612  1.00  0.00    -0.356 N 
ATOM      3  C   UNL A   1      36.868  22.957  24.442  1.00  0.00     0.220 C 
ATOM      4  O   UNL A   1      36.477  23.125  23.279  1.00  0.00    -0.275 OA
ATOM      5  H   UNL A   1      38.037  21.560  23.756  1.00  0.00     0.163 HD
BRANCH   3   6
ATOM      6  C   UNL A   1      36.429  23.950  25.502  1.00  0.00     0.102 C 
BRANCH   6   7
ATOM      7  C   UNL A   1      35.010  24.490  25.676  1.00  0.00     0.031 C 
BRANCH   7   8
ATOM      8  C   UNL A   1      33.827  23.956  24.885  1.00  0.00     0.122 C 
BRANCH   8   9
ATOM      9  N   UNL A   1      32.471  23.665  25.429  1.00  0.00    -0.322 N 
BRANCH   9  10
ATOM     10  C   UNL A   1      31.814  22.557  24.653  1.00  0.00     0.080 C 
ATOM     11  C   UNL A   1      31.695  22.849  23.152  1.00  0.00     0.031 C 
ATOM     12  C   UNL A   1      32.410  21.174  24.941  1.00  0.00     0.031 C 
ENDBRANCH   9  10
BRANCH   9  13
ATOM     13  C   UNL A   1      31.697  24.166  26.440  1.00  0.00     0.317 C 
ATOM     14  O   UNL A   1      31.553  23.542  27.501  1.00  0.00    -0.249 OA
ATOM     15  N   UNL A   1      31.052  25.327  26.503  1.00  0.00    -0.335 N 
ATOM     16  H   UNL A   1      30.499  25.351  27.317  1.00  0.00     0.165 HD
BRANCH  15  17
ATOM     17  C   UNL A   1      30.892  26.560  25.783  1.00  0.00     0.089 C 
ATOM     18  C   UNL A   1      31.250  26.509  24.293  1.00  0.00     0.025 C 
ATOM     19  C   UNL A   1      31.803  27.720  26.280  1.00  0.00    -0.015 C 
ATOM     20  C   UNL A   1      31.330  27.990  23.894  1.00  0.00     0.003 C 
ATOM     21  C   UNL A   1      31.514  28.783  25.200  1.00  0.00     0.008 C 
ATOM     22  C   UNL A   1      31.474  28.200  27.696  1.00  0.00     0.013 C 
ATOM     23  C   UNL A   1      33.315  27.383  26.250  1.00  0.00     0.013 C 
ENDBRANCH  15  17
ENDBRANCH   9  13
ENDBRANCH   8   9
ENDBRANCH   7   8
ENDBRANCH   6   7
ENDBRANCH   3   6
ENDBRANCH   1   2
BRANCH   1  24
ATOM     24  C   UNL A   1      39.365  22.405  26.426  1.00  0.00     0.023 C 
BRANCH  24  25
ATOM     25  C   UNL A   1      40.451  21.738  27.269  1.00  0.00     0.023 C 
BRANCH  25  26
ATOM     26  C   UNL A   1      41.578  22.698  27.638  1.00  0.00     0.116 C 
BRANCH  26  27
ATOM     27  N   UNL A   1      42.078  23.409  26.471  1.00  0.00    -0.352 N 
ATOM     28  C   UNL A   1      42.168  24.767  26.261  1.00  0.00     0.251 C 
ATOM     29  H   UNL A   1      42.396  22.842  25.731  1.00  0.00     0.163 HD
ATOM     30  O   UNL A   1      42.401  25.208  25.147  1.00  0.00    -0.269 OA
BRANCH  28  31
ATOM     31  C   UNL A   1      41.962  25.682  27.404  1.00  0.00     0.039 A 
ATOM     32  C   UNL A   1      42.918  26.662  27.677  1.00  0.00     0.014 A 
ATOM     33  C   UNL A   1      40.813  25.573  28.194  1.00  0.00     0.014 A 
ATOM     34  C   UNL A   1      42.695  27.570  28.714  1.00  0.00     0.010 A 
ATOM     35  C   UNL A   1      40.559  26.521  29.179  1.00  0.00     0.010 A 
ATOM     36  C   UNL A   1      41.505  27.520  29.459  1.00  0.00    -0.014 A 
BRANCH  36  37
ATOM     37  C   UNL A   1      41.250  28.467  30.572  1.00  0.00     0.031 A 
ATOM     38  C   UNL A   1      42.072  28.370  31.829  1.00  0.00     0.074 A 
ATOM     39  C   UNL A   1      40.251  29.367  30.479  1.00  0.00     0.049 A 
ATOM     40  N   UNL A   1      41.950  29.030  32.951  1.00  0.00    -0.248 NA
ATOM     41  C   UNL A   1      43.151  27.368  31.836  1.00  0.00     0.031 C 
ATOM     42  C   UNL A   1      39.347  29.518  29.335  1.00  0.00     0.029 A 
ATOM     43  N   UNL A   1      39.820  30.319  31.368  1.00  0.00    -0.354 N 
ATOM     44  C   UNL A   1      42.921  28.511  33.802  1.00  0.00     0.074 A 
ATOM     45  C   UNL A   1      43.584  27.443  33.086  1.00  0.00     0.031 C 
ATOM     46  C   UNL A   1      38.479  30.512  29.590  1.00  0.00     0.029 A 
ATOM     47  C   UNL A   1      38.750  31.055  30.916  1.00  0.00     0.049 A 
ATOM     48  H   UNL A   1      40.239  30.460  32.248  1.00  0.00     0.167 HD
ATOM     49  C   UNL A   1      43.251  28.908  35.054  1.00  0.00     0.037 A 
ATOM     50  C   UNL A   1      38.071  32.057  31.508  1.00  0.00     0.037 A 
ATOM     51  C   UNL A   1      42.616  29.997  35.743  1.00  0.00     0.049 A 
ATOM     52  C   UNL A   1      38.506  32.530  32.869  1.00  0.00     0.074 A 
ATOM     53  C   UNL A   1      42.881  30.494  37.008  1.00  0.00     0.029 A 
ATOM     54  N   UNL A   1      41.601  30.780  35.212  1.00  0.00    -0.354 N 
ATOM     55  N   UNL A   1      39.443  32.044  33.649  1.00  0.00    -0.248 NA
ATOM     56  C   UNL A   1      37.811  33.701  33.422  1.00  0.00     0.031 C 
ATOM     57  C   UNL A   1      42.023  31.575  37.242  1.00  0.00     0.029 A 
ATOM     58  C   UNL A   1      41.243  31.768  36.113  1.00  0.00     0.049 A 
ATOM     59  H   UNL A   1      41.194  30.650  34.324  1.00  0.00     0.167 HD
ATOM     60  C   UNL A   1      39.471  32.868  34.768  1.00  0.00     0.074 A 
ATOM     61  C   UNL A   1      38.463  33.888  34.560  1.00  0.00     0.031 C 
ATOM     62  C   UNL A   1      40.258  32.789  35.869  1.00  0.00     0.037 A 
BRANCH  49  63
ATOM     63  C   UNL A   1      44.365  28.169  35.739  1.00  0.00     0.058 A 
ATOM     64  C   UNL A   1      45.706  28.559  35.578  1.00  0.00     0.135 A 
ATOM     65  C   UNL A   1      44.099  27.069  36.570  1.00  0.00     0.135 A 
ATOM     66  F   UNL A   1      46.017  29.590  34.777  1.00  0.00    -0.206 F 
ATOM     67  C   UNL A   1      46.744  27.866  36.189  1.00  0.00     0.059 A 
ATOM     68  C   UNL A   1      45.122  26.378  37.214  1.00  0.00     0.059 A 
ATOM     69  F   UNL A   1      42.838  26.653  36.757  1.00  0.00    -0.206 F 
ATOM     70  C   UNL A   1      46.442  26.773  37.002  1.00  0.00     0.060 A 
BRANCH  70  71
ATOM     71  S   UNL A   1      47.801  25.880  37.789  1.00  0.00     0.124 S 
ATOM     72  O   UNL A   1      47.170  25.421  39.022  1.00  0.00    -0.237 OA
ATOM     73  O   UNL A   1      48.104  24.842  36.808  1.00  0.00    -0.237 OA
ATOM     74  O   UNL A   1      48.829  26.903  37.950  1.00  0.00    -0.744 OA
ENDBRANCH  70  71
ENDBRANCH  49  63
BRANCH  50  75
ATOM     75  C   UNL A   1      36.938  32.709  30.802  1.00  0.00     0.058 A 
ATOM     76  C   UNL A   1      35.610  32.371  31.100  1.00  0.00     0.135 A 
ATOM     77  C   UNL A   1      37.159  33.683  29.816  1.00  0.00     0.135 A 
ATOM     78  F   UNL A   1      35.349  31.444  32.034  1.00  0.00    -0.206 F 
ATOM     79  C   UNL A   1      34.540  32.952  30.429  1.00  0.00     0.059 A 
ATOM     80  C   UNL A   1      36.104  34.297  29.146  1.00  0.00     0.059 A 
ATOM     81  F   UNL A   1      38.410  34.058  29.511  1.00  0.00    -0.206 F 
ATOM     82  C   UNL A   1      34.797  33.913  29.450  1.00  0.00     0.060 A 
BRANCH  82  83
ATOM     83  S   UNL A   1      33.403  34.691  28.605  1.00  0.00     0.124 S 
ATOM     84  O   UNL A   1      34.048  35.830  27.964  1.00  0.00    -0.237 OA
ATOM     85  O   UNL A   1      32.948  33.628  27.715  1.00  0.00    -0.237 OA
ATOM     86  O   UNL A   1      32.490  35.013  29.699  1.00  0.00    -0.744 OA
ENDBRANCH  82  83
ENDBRANCH  50  75
BRANCH  62  87
ATOM     87  C   UNL A   1      40.101  33.864  36.905  1.00  0.00     0.058 A 
ATOM     88  C   UNL A   1      40.885  35.027  36.887  1.00  0.00     0.135 A 
ATOM     89  C   UNL A   1      39.123  33.742  37.904  1.00  0.00     0.135 A 
ATOM     90  F   UNL A   1      41.835  35.186  35.953  1.00  0.00    -0.206 F 
ATOM     91  C   UNL A   1      40.723  36.023  37.844  1.00  0.00     0.059 A 
ATOM     92  C   UNL A   1      38.929  34.735  38.858  1.00  0.00     0.059 A 
ATOM     93  F   UNL A   1      38.341  32.652  37.956  1.00  0.00    -0.206 F 
ATOM     94  C   UNL A   1      39.744  35.866  38.828  1.00  0.00     0.060 A 
BRANCH  94  95
ATOM     95  S   UNL A   1      39.525  37.173  40.053  1.00  0.00     0.124 S 
ATOM     96  O   UNL A   1      40.903  37.603  40.272  1.00  0.00    -0.237 OA
ATOM     97  O   UNL A   1      38.669  38.125  39.351  1.00  0.00    -0.237 OA
ATOM     98  O   UNL A   1      38.895  36.483  41.174  1.00  0.00    -0.744 OA
ENDBRANCH  94  95
ENDBRANCH  62  87
ENDBRANCH  36  37
ENDBRANCH  28  31
ENDBRANCH  26  27
ENDBRANCH  25  26
ENDBRANCH  24  25
ENDBRANCH   1  24
TORSDOF 20
ENDMDL
MODEL 2
REMARK VINA RESULT:     -11.1      6.230     11.886
REMARK SMILES CC(C)N(CCCC(=O)NCCCCNC(=O)c1ccc(-c2c3nc(c(-c4c(F)cc(S(=O)(=O)[O-])cc4F)c4ccc([nH]4)c(-c4c(F)cc(S(=O)(=O)[O-])cc4F)c4nc(c(-c5c(F)cc(S(=O)(=O)[O-])cc5F)c5ccc2[nH]5)C=C4)C=C3)cc1)C(=O)N[C@@H]1CCCC1(C)C
REMARK SMILES IDX 11 1 10 2 8 3 9 4 7 6 6 7 5 8 4 9 2 10 1 11 3 12 84 13 85 14
REMARK SMILES IDX 86 15 87 17 88 18 91 19 89 20 90 21 92 22 93 23 12 24 13 25
REMARK SMILES IDX 14 26 15 27 16 28 17 30 18 31 19 32 83 33 20 34 82 35 21 36
REMARK SMILES IDX 22 37 23 38 76 39 24 40 81 41 75 42 77 43 25 44 80 45 74 46
REMARK SMILES IDX 73 47 26 49 60 50 39 51 59 52 40 53 43 54 58 55 78 56 41 57
REMARK SMILES IDX 42 58 57 60 79 61 44 62 27 63 28 64 37 65 29 66 30 67 36 68
REMARK SMILES IDX 38 69 31 70 32 71 33 72 34 73 35 74 61 75 62 76 71 77 63 78
REMARK SMILES IDX 64 79 70 80 72 81 65 82 66 83 67 84 68 85 69 86 45 87 46 88
REMARK SMILES IDX 55 89 47 90 48 91 54 92 56 93 49 94 50 95 51 96 52 97 53 98
REMARK H PARENT 10 5 86 16 15 29 77 48 43 59
REMARK Flexibility Score: inf
ROOT
ATOM      1  C   UNL A   1      34.736  32.591  27.792  1.00  0.00     0.116 C 
ENDROOT
BRANCH   1   2
ATOM      2  N   UNL A   1      34.945  31.187  27.498  1.00  0.00    -0.356 N 
ATOM      3  C   UNL A   1      34.159  30.100  27.337  1.00  0.00     0.220 C 
ATOM      4  O   UNL A   1      34.760  29.033  27.149  1.00  0.00    -0.275 OA
ATOM      5  H   UNL A   1      35.900  30.970  27.388  1.00  0.00     0.163 HD
BRANCH   3   6
ATOM      6  C   UNL A   1      32.648  30.110  27.205  1.00  0.00     0.102 C 
BRANCH   6   7
ATOM      7  C   UNL A   1      31.778  28.894  26.895  1.00  0.00     0.031 C 
BRANCH   7   8
ATOM      8  C   UNL A   1      31.588  28.360  25.484  1.00  0.00     0.122 C 
BRANCH   8   9
ATOM      9  N   UNL A   1      30.819  27.141  25.108  1.00  0.00    -0.322 N 
BRANCH   9  10
ATOM     10  C   UNL A   1      29.987  27.395  23.881  1.00  0.00     0.080 C 
ATOM     11  C   UNL A   1      30.763  27.225  22.569  1.00  0.00     0.031 C 
ATOM     12  C   UNL A   1      28.653  26.639  23.881  1.00  0.00     0.031 C 
ENDBRANCH   9  10
BRANCH   9  13
ATOM     13  C   UNL A   1      30.687  25.876  25.612  1.00  0.00     0.317 C 
ATOM     14  O   UNL A   1      29.891  25.636  26.532  1.00  0.00    -0.249 OA
ATOM     15  N   UNL A   1      31.283  24.753  25.221  1.00  0.00    -0.335 N 
ATOM     16  H   UNL A   1      31.059  24.028  25.848  1.00  0.00     0.165 HD
BRANCH  15  17
ATOM     17  C   UNL A   1      32.144  24.242  24.191  1.00  0.00     0.089 C 
ATOM     18  C   UNL A   1      32.143  22.718  24.022  1.00  0.00     0.025 C 
ATOM     19  C   UNL A   1      33.658  24.527  24.416  1.00  0.00    -0.015 C 
ATOM     20  C   UNL A   1      33.375  22.456  23.143  1.00  0.00     0.003 C 
ATOM     21  C   UNL A   1      34.270  23.702  23.265  1.00  0.00     0.008 C 
ATOM     22  C   UNL A   1      34.023  26.012  24.347  1.00  0.00     0.013 C 
ATOM     23  C   UNL A   1      34.203  23.981  25.760  1.00  0.00     0.013 C 
ENDBRANCH  15  17
ENDBRANCH   9  13
ENDBRANCH   8   9
ENDBRANCH   7   8
ENDBRANCH   6   7
ENDBRANCH   3   6
ENDBRANCH   1   2
BRANCH   1  24
ATOM     24  C   UNL A   1      36.083  33.301  27.981  1.00  0.00     0.023 C 
BRANCH  24  25
ATOM     25  C   UNL A   1      36.215  33.898  29.382  1.00  0.00     0.023 C 
BRANCH  25  26
ATOM     26  C   UNL A   1      37.156  33.092  30.274  1.00  0.00     0.116 C 
BRANCH  26  27
ATOM     27  N   UNL A   1      36.448  32.040  30.987  1.00  0.00    -0.352 N 
ATOM     28  C   UNL A   1      36.727  30.693  31.037  1.00  0.00     0.251 C 
ATOM     29  H   UNL A   1      35.661  32.330  31.503  1.00  0.00     0.163 HD
ATOM     30  O   UNL A   1      35.914  29.907  31.494  1.00  0.00    -0.269 OA
BRANCH  28  31
ATOM     31  C   UNL A   1      38.024  30.212  30.512  1.00  0.00     0.039 A 
ATOM     32  C   UNL A   1      38.239  30.193  29.132  1.00  0.00     0.014 A 
ATOM     33  C   UNL A   1      39.027  29.794  31.391  1.00  0.00     0.014 A 
ATOM     34  C   UNL A   1      39.484  29.803  28.635  1.00  0.00     0.010 A 
ATOM     35  C   UNL A   1      40.287  29.474  30.899  1.00  0.00     0.010 A 
ATOM     36  C   UNL A   1      40.524  29.461  29.515  1.00  0.00    -0.014 A 
BRANCH  36  37
ATOM     37  C   UNL A   1      41.853  29.034  29.012  1.00  0.00     0.031 A 
ATOM     38  C   UNL A   1      42.963  30.044  28.907  1.00  0.00     0.074 A 
ATOM     39  C   UNL A   1      42.043  27.765  28.597  1.00  0.00     0.049 A 
ATOM     40  N   UNL A   1      44.163  29.907  28.405  1.00  0.00    -0.248 NA
ATOM     41  C   UNL A   1      42.670  31.402  29.397  1.00  0.00     0.031 C 
ATOM     42  C   UNL A   1      41.027  26.711  28.594  1.00  0.00     0.029 A 
ATOM     43  N   UNL A   1      43.158  27.151  28.086  1.00  0.00    -0.354 N 
ATOM     44  C   UNL A   1      44.759  31.160  28.502  1.00  0.00     0.074 A 
ATOM     45  C   UNL A   1      43.769  32.058  29.055  1.00  0.00     0.031 C 
ATOM     46  C   UNL A   1      41.570  25.578  28.117  1.00  0.00     0.029 A 
ATOM     47  C   UNL A   1      42.963  25.829  27.764  1.00  0.00     0.049 A 
ATOM     48  H   UNL A   1      44.018  27.615  27.962  1.00  0.00     0.167 HD
ATOM     49  C   UNL A   1      46.025  31.524  28.187  1.00  0.00     0.037 A 
ATOM     50  C   UNL A   1      43.816  24.924  27.245  1.00  0.00     0.037 A 
ATOM     51  C   UNL A   1      47.016  30.617  27.677  1.00  0.00     0.049 A 
ATOM     52  C   UNL A   1      45.239  25.334  26.975  1.00  0.00     0.074 A 
ATOM     53  C   UNL A   1      48.333  30.875  27.338  1.00  0.00     0.029 A 
ATOM     54  N   UNL A   1      46.805  29.263  27.455  1.00  0.00    -0.354 N 
ATOM     55  N   UNL A   1      45.792  26.517  27.095  1.00  0.00    -0.248 NA
ATOM     56  C   UNL A   1      46.161  24.283  26.521  1.00  0.00     0.031 C 
ATOM     57  C   UNL A   1      48.917  29.678  26.908  1.00  0.00     0.029 A 
ATOM     58  C   UNL A   1      47.972  28.670  27.006  1.00  0.00     0.049 A 
ATOM     59  H   UNL A   1      45.950  28.795  27.597  1.00  0.00     0.167 HD
ATOM     60  C   UNL A   1      47.132  26.346  26.764  1.00  0.00     0.074 A 
ATOM     61  C   UNL A   1      47.307  24.944  26.446  1.00  0.00     0.031 C 
ATOM     62  C   UNL A   1      48.127  27.266  26.725  1.00  0.00     0.037 A 
BRANCH  49  63
ATOM     63  C   UNL A   1      46.405  32.960  28.413  1.00  0.00     0.058 A 
ATOM     64  C   UNL A   1      46.254  33.922  27.400  1.00  0.00     0.135 A 
ATOM     65  C   UNL A   1      46.916  33.386  29.650  1.00  0.00     0.135 A 
ATOM     66  F   UNL A   1      45.790  33.564  26.193  1.00  0.00    -0.206 F 
ATOM     67  C   UNL A   1      46.626  35.247  27.594  1.00  0.00     0.059 A 
ATOM     68  C   UNL A   1      47.269  34.713  29.874  1.00  0.00     0.059 A 
ATOM     69  F   UNL A   1      47.083  32.508  30.650  1.00  0.00    -0.206 F 
ATOM     70  C   UNL A   1      47.138  35.633  28.834  1.00  0.00     0.060 A 
BRANCH  70  71
ATOM     71  S   UNL A   1      47.619  37.356  29.071  1.00  0.00     0.124 S 
ATOM     72  O   UNL A   1      48.978  37.354  28.539  1.00  0.00    -0.237 OA
ATOM     73  O   UNL A   1      46.629  38.073  28.274  1.00  0.00    -0.237 OA
ATOM     74  O   UNL A   1      47.509  37.542  30.515  1.00  0.00    -0.744 OA
ENDBRANCH  70  71
ENDBRANCH  49  63
BRANCH  50  75
ATOM     75  C   UNL A   1      43.363  23.532  26.989  1.00  0.00     0.058 A 
ATOM     76  C   UNL A   1      43.146  23.073  25.681  1.00  0.00     0.135 A 
ATOM     77  C   UNL A   1      43.138  22.635  28.043  1.00  0.00     0.135 A 
ATOM     78  F   UNL A   1      43.347  23.896  24.640  1.00  0.00    -0.206 F 
ATOM     79  C   UNL A   1      42.696  21.782  25.426  1.00  0.00     0.059 A 
ATOM     80  C   UNL A   1      42.709  21.330  27.812  1.00  0.00     0.059 A 
ATOM     81  F   UNL A   1      43.353  23.018  29.310  1.00  0.00    -0.206 F 
ATOM     82  C   UNL A   1      42.476  20.918  26.500  1.00  0.00     0.060 A 
BRANCH  82  83
ATOM     83  S   UNL A   1      41.925  19.232  26.161  1.00  0.00     0.124 S 
ATOM     84  O   UNL A   1      40.505  19.435  25.901  1.00  0.00    -0.237 OA
ATOM     85  O   UNL A   1      42.740  18.864  25.008  1.00  0.00    -0.237 OA
ATOM     86  O   UNL A   1      42.247  18.523  27.397  1.00  0.00    -0.744 OA
ENDBRANCH  82  83
ENDBRANCH  50  75
BRANCH  62  87
ATOM     87  C   UNL A   1      49.504  26.774  26.381  1.00  0.00     0.058 A 
ATOM     88  C   UNL A   1      50.358  26.233  27.353  1.00  0.00     0.135 A 
ATOM     89  C   UNL A   1      49.954  26.812  25.053  1.00  0.00     0.135 A 
ATOM     90  F   UNL A   1      49.972  26.179  28.637  1.00  0.00    -0.206 F 
ATOM     91  C   UNL A   1      51.626  25.769  27.022  1.00  0.00     0.059 A 
ATOM     92  C   UNL A   1      51.210  26.334  24.697  1.00  0.00     0.059 A 
ATOM     93  F   UNL A   1      49.168  27.312  24.086  1.00  0.00    -0.206 F 
ATOM     94  C   UNL A   1      52.045  25.826  25.691  1.00  0.00     0.060 A 
BRANCH  94  95
ATOM     95  S   UNL A   1      53.684  25.202  25.267  1.00  0.00     0.124 S 
ATOM     96  O   UNL A   1      54.503  25.789  26.322  1.00  0.00    -0.237 OA
ATOM     97  O   UNL A   1      53.500  23.755  25.338  1.00  0.00    -0.237 OA
ATOM     98  O   UNL A   1      53.910  25.732  23.926  1.00  0.00    -0.744 OA
ENDBRANCH  94  95
ENDBRANCH  62  87
ENDBRANCH  36  37
ENDBRANCH  28  31
ENDBRANCH  26  27
ENDBRANCH  25  26
ENDBRANCH  24  25
ENDBRANCH   1  24
TORSDOF 20
ENDMDL
MODEL 3
REMARK VINA RESULT:     -11.0      1.146      1.760
REMARK SMILES CC(C)N(CCCC(=O)NCCCCNC(=O)c1ccc(-c2c3nc(c(-c4c(F)cc(S(=O)(=O)[O-])cc4F)c4ccc([nH]4)c(-c4c(F)cc(S(=O)(=O)[O-])cc4F)c4nc(c(-c5c(F)cc(S(=O)(=O)[O-])cc5F)c5ccc2[nH]5)C=C4)C=C3)cc1)C(=O)N[C@@H]1CCCC1(C)C
REMARK SMILES IDX 11 1 10 2 8 3 9 4 7 6 6 7 5 8 4 9 2 10 1 11 3 12 84 13 85 14
REMARK SMILES IDX 86 15 87 17 88 18 91 19 89 20 90 21 92 22 93 23 12 24 13 25
REMARK SMILES IDX 14 26 15 27 16 28 17 30 18 31 19 32 83 33 20 34 82 35 21 36
REMARK SMILES IDX 22 37 23 38 76 39 24 40 81 41 75 42 77 43 25 44 80 45 74 46
REMARK SMILES IDX 73 47 26 49 60 50 39 51 59 52 40 53 43 54 58 55 78 56 41 57
REMARK SMILES IDX 42 58 57 60 79 61 44 62 27 63 28 64 37 65 29 66 30 67 36 68
REMARK SMILES IDX 38 69 31 70 32 71 33 72 34 73 35 74 61 75 62 76 71 77 63 78
REMARK SMILES IDX 64 79 70 80 72 81 65 82 66 83 67 84 68 85 69 86 45 87 46 88
REMARK SMILES IDX 55 89 47 90 48 91 54 92 56 93 49 94 50 95 51 96 52 97 53 98
REMARK H PARENT 10 5 86 16 15 29 77 48 43 59
REMARK Flexibility Score: inf
ROOT
ATOM      1  C   UNL A   1      40.195  21.012  26.194  1.00  0.00     0.116 C 
ENDROOT
BRANCH   1   2
ATOM      2  N   UNL A   1      39.262  22.117  26.295  1.00  0.00    -0.356 N 
ATOM      3  C   UNL A   1      38.120  22.485  25.675  1.00  0.00     0.220 C 
ATOM      4  O   UNL A   1      37.650  23.574  26.031  1.00  0.00    -0.275 OA
ATOM      5  H   UNL A   1      39.528  22.762  26.991  1.00  0.00     0.163 HD
BRANCH   3   6
ATOM      6  C   UNL A   1      37.306  21.621  24.731  1.00  0.00     0.102 C 
BRANCH   6   7
ATOM      7  C   UNL A   1      35.943  21.008  25.045  1.00  0.00     0.031 C 
BRANCH   7   8
ATOM      8  C   UNL A   1      34.709  21.852  25.322  1.00  0.00     0.122 C 
BRANCH   8   9
ATOM      9  N   UNL A   1      33.811  22.450  24.294  1.00  0.00    -0.322 N 
BRANCH   9  10
ATOM     10  C   UNL A   1      32.477  21.754  24.286  1.00  0.00     0.080 C 
ATOM     11  C   UNL A   1      32.537  20.322  23.741  1.00  0.00     0.031 C 
ATOM     12  C   UNL A   1      31.733  21.847  25.624  1.00  0.00     0.031 C 
ENDBRANCH   9  10
BRANCH   9  13
ATOM     13  C   UNL A   1      33.916  23.452  23.369  1.00  0.00     0.317 C 
ATOM     14  O   UNL A   1      34.647  23.328  22.376  1.00  0.00    -0.249 OA
ATOM     15  N   UNL A   1      33.280  24.620  23.325  1.00  0.00    -0.335 N 
ATOM     16  H   UNL A   1      33.649  25.166  22.593  1.00  0.00     0.165 HD
BRANCH  15  17
ATOM     17  C   UNL A   1      32.236  25.353  23.985  1.00  0.00     0.089 C 
ATOM     18  C   UNL A   1      31.100  25.845  23.082  1.00  0.00     0.025 C 
ATOM     19  C   UNL A   1      32.701  26.681  24.650  1.00  0.00    -0.015 C 
ATOM     20  C   UNL A   1      30.359  26.863  23.963  1.00  0.00     0.003 C 
ATOM     21  C   UNL A   1      31.341  27.269  25.077  1.00  0.00     0.008 C 
ATOM     22  C   UNL A   1      33.661  26.480  25.825  1.00  0.00     0.013 C 
ATOM     23  C   UNL A   1      33.380  27.667  23.666  1.00  0.00     0.013 C 
ENDBRANCH  15  17
ENDBRANCH   9  13
ENDBRANCH   8   9
ENDBRANCH   7   8
ENDBRANCH   6   7
ENDBRANCH   3   6
ENDBRANCH   1   2
BRANCH   1  24
ATOM     24  C   UNL A   1      41.180  21.037  27.370  1.00  0.00     0.023 C 
BRANCH  24  25
ATOM     25  C   UNL A   1      41.298  22.433  27.980  1.00  0.00     0.023 C 
BRANCH  25  26
ATOM     26  C   UNL A   1      42.599  23.132  27.593  1.00  0.00     0.116 C 
BRANCH  26  27
ATOM     27  N   UNL A   1      42.462  23.862  26.341  1.00  0.00    -0.352 N 
ATOM     28  C   UNL A   1      41.987  25.137  26.133  1.00  0.00     0.251 C 
ATOM     29  H   UNL A   1      42.748  23.377  25.533  1.00  0.00     0.163 HD
ATOM     30  O   UNL A   1      41.726  25.526  25.006  1.00  0.00    -0.269 OA
BRANCH  28  31
ATOM     31  C   UNL A   1      41.784  26.023  27.300  1.00  0.00     0.039 A 
ATOM     32  C   UNL A   1      42.721  27.022  27.572  1.00  0.00     0.014 A 
ATOM     33  C   UNL A   1      40.657  25.868  28.113  1.00  0.00     0.014 A 
ATOM     34  C   UNL A   1      42.500  27.902  28.633  1.00  0.00     0.010 A 
ATOM     35  C   UNL A   1      40.402  26.788  29.123  1.00  0.00     0.010 A 
ATOM     36  C   UNL A   1      41.329  27.806  29.403  1.00  0.00    -0.014 A 
BRANCH  36  37
ATOM     37  C   UNL A   1      41.075  28.723  30.541  1.00  0.00     0.031 A 
ATOM     38  C   UNL A   1      41.890  28.584  31.799  1.00  0.00     0.074 A 
ATOM     39  C   UNL A   1      40.083  29.632  30.469  1.00  0.00     0.049 A 
ATOM     40  N   UNL A   1      41.768  29.212  32.939  1.00  0.00    -0.248 NA
ATOM     41  C   UNL A   1      42.962  27.574  31.783  1.00  0.00     0.031 C 
ATOM     42  C   UNL A   1      39.185  29.822  29.327  1.00  0.00     0.029 A 
ATOM     43  N   UNL A   1      39.655  30.561  31.384  1.00  0.00    -0.354 N 
ATOM     44  C   UNL A   1      42.731  28.663  33.778  1.00  0.00     0.074 A 
ATOM     45  C   UNL A   1      43.390  27.611  33.036  1.00  0.00     0.031 C 
ATOM     46  C   UNL A   1      38.323  30.814  29.606  1.00  0.00     0.029 A 
ATOM     47  C   UNL A   1      38.592  31.318  30.948  1.00  0.00     0.049 A 
ATOM     48  H   UNL A   1      40.070  30.675  32.269  1.00  0.00     0.167 HD
ATOM     49  C   UNL A   1      43.059  29.022  35.043  1.00  0.00     0.037 A 
ATOM     50  C   UNL A   1      37.917  32.307  31.565  1.00  0.00     0.037 A 
ATOM     51  C   UNL A   1      42.428  30.096  35.760  1.00  0.00     0.049 A 
ATOM     52  C   UNL A   1      38.350  32.738  32.941  1.00  0.00     0.074 A 
ATOM     53  C   UNL A   1      42.691  30.555  37.039  1.00  0.00     0.029 A 
ATOM     54  N   UNL A   1      41.421  30.901  35.247  1.00  0.00    -0.354 N 
ATOM     55  N   UNL A   1      39.279  32.224  33.710  1.00  0.00    -0.248 NA
ATOM     56  C   UNL A   1      37.660  33.898  33.524  1.00  0.00     0.031 C 
ATOM     57  C   UNL A   1      41.840  31.635  37.300  1.00  0.00     0.029 A 
ATOM     58  C   UNL A   1      41.067  31.865  36.174  1.00  0.00     0.049 A 
ATOM     59  H   UNL A   1      41.018  30.799  34.354  1.00  0.00     0.167 HD
ATOM     60  C   UNL A   1      39.308  33.016  34.853  1.00  0.00     0.074 A 
ATOM     61  C   UNL A   1      38.308  34.049  34.670  1.00  0.00     0.031 C 
ATOM     62  C   UNL A   1      40.089  32.900  35.955  1.00  0.00     0.037 A 
BRANCH  49  63
ATOM     63  C   UNL A   1      44.165  28.256  35.711  1.00  0.00     0.058 A 
ATOM     64  C   UNL A   1      43.894  27.130  36.507  1.00  0.00     0.135 A 
ATOM     65  C   UNL A   1      45.506  28.638  35.553  1.00  0.00     0.135 A 
ATOM     66  F   UNL A   1      42.628  26.735  36.709  1.00  0.00    -0.206 F 
ATOM     67  C   UNL A   1      44.910  26.431  37.149  1.00  0.00     0.059 A 
ATOM     68  C   UNL A   1      46.541  27.936  36.164  1.00  0.00     0.059 A 
ATOM     69  F   UNL A   1      45.821  29.707  34.806  1.00  0.00    -0.206 F 
ATOM     70  C   UNL A   1      46.232  26.845  36.975  1.00  0.00     0.060 A 
BRANCH  70  71
ATOM     71  S   UNL A   1      47.541  25.929  37.815  1.00  0.00     0.124 S 
ATOM     72  O   UNL A   1      47.061  25.937  39.193  1.00  0.00    -0.237 OA
ATOM     73  O   UNL A   1      47.505  24.636  37.139  1.00  0.00    -0.237 OA
ATOM     74  O   UNL A   1      48.733  26.733  37.560  1.00  0.00    -0.744 OA
ENDBRANCH  70  71
ENDBRANCH  49  63
BRANCH  50  75
ATOM     75  C   UNL A   1      36.792  32.988  30.873  1.00  0.00     0.058 A 
ATOM     76  C   UNL A   1      35.460  32.700  31.205  1.00  0.00     0.135 A 
ATOM     77  C   UNL A   1      37.025  33.938  29.867  1.00  0.00     0.135 A 
ATOM     78  F   UNL A   1      35.188  31.797  32.159  1.00  0.00    -0.206 F 
ATOM     79  C   UNL A   1      34.396  33.308  30.547  1.00  0.00     0.059 A 
ATOM     80  C   UNL A   1      35.977  34.577  29.210  1.00  0.00     0.059 A 
ATOM     81  F   UNL A   1      38.281  34.265  29.529  1.00  0.00    -0.206 F 
ATOM     82  C   UNL A   1      34.665  34.244  29.547  1.00  0.00     0.060 A 
BRANCH  82  83
ATOM     83  S   UNL A   1      33.280  35.056  28.721  1.00  0.00     0.124 S 
ATOM     84  O   UNL A   1      32.683  33.945  27.990  1.00  0.00    -0.237 OA
ATOM     85  O   UNL A   1      32.506  35.572  29.845  1.00  0.00    -0.237 OA
ATOM     86  O   UNL A   1      33.933  36.074  27.901  1.00  0.00    -0.744 OA
ENDBRANCH  82  83
ENDBRANCH  50  75
BRANCH  62  87
ATOM     87  C   UNL A   1      39.935  33.946  37.020  1.00  0.00     0.058 A 
ATOM     88  C   UNL A   1      40.582  35.188  36.935  1.00  0.00     0.135 A 
ATOM     89  C   UNL A   1      39.095  33.713  38.120  1.00  0.00     0.135 A 
ATOM     90  F   UNL A   1      41.399  35.454  35.903  1.00  0.00    -0.206 F 
ATOM     91  C   UNL A   1      40.423  36.155  37.920  1.00  0.00     0.059 A 
ATOM     92  C   UNL A   1      38.904  34.675  39.106  1.00  0.00     0.059 A 
ATOM     93  F   UNL A   1      38.446  32.545  38.240  1.00  0.00    -0.206 F 
ATOM     94  C   UNL A   1      39.584  35.888  39.005  1.00  0.00     0.060 A 
BRANCH  94  95
ATOM     95  S   UNL A   1      39.365  37.158  40.269  1.00  0.00     0.124 S 
ATOM     96  O   UNL A   1      38.544  36.455  41.250  1.00  0.00    -0.237 OA
ATOM     97  O   UNL A   1      40.738  37.439  40.677  1.00  0.00    -0.237 OA
ATOM     98  O   UNL A   1      38.699  38.239  39.550  1.00  0.00    -0.744 OA
ENDBRANCH  94  95
ENDBRANCH  62  87
ENDBRANCH  36  37
ENDBRANCH  28  31
ENDBRANCH  26  27
ENDBRANCH  25  26
ENDBRANCH  24  25
ENDBRANCH   1  24
TORSDOF 20
ENDMDL
