MODEL 1
REMARK VINA RESULT:     -11.1      0.000      0.000
REMARK SMILES COCc1cc(SCC(=O)NCCCCNC(=O)c2ccc(-c3c4nc(c(-c5c(F)cc(S(=O)(=O)[O-])cc5F)c5ccc([nH]5)c(-c5c(F)cc(S(=O)(=O)[O-])cc5F)c5nc(c(-c6c(F)cc(S(=O)(=O)[O-])cc6F)c6ccc3[nH]6)C=C5)C=C4)cc2)nc(-c2ccncc2)n1
REMARK SMILES IDX 13 1 12 2 11 3 9 4 10 5 8 7 7 8 6 9 4 10 5 11 93 12 86 13
REMARK SMILES IDX 85 14 3 15 2 16 1 17 87 18 88 19 92 20 89 21 91 22 90 23
REMARK SMILES IDX 14 24 15 25 16 26 17 27 18 29 19 30 20 31 84 32 21 33 83 34
REMARK SMILES IDX 22 35 23 36 24 37 77 38 25 39 82 40 76 41 78 42 26 43 81 44
REMARK SMILES IDX 75 45 74 46 27 48 61 49 40 50 60 51 41 52 44 53 59 54 79 55
REMARK SMILES IDX 42 56 43 57 58 59 80 60 45 61 28 62 29 63 38 64 30 65 31 66
REMARK SMILES IDX 37 67 39 68 32 69 33 70 34 71 35 72 36 73 62 74 63 75 72 76
REMARK SMILES IDX 64 77 65 78 71 79 73 80 66 81 67 82 68 83 69 84 70 85 46 86
REMARK SMILES IDX 47 87 56 88 48 89 49 90 55 91 57 92 50 93 51 94 52 95 53 96
REMARK SMILES IDX 54 97
REMARK H PARENT 11 6 16 28 78 47 44 58
REMARK Flexibility Score: inf
ROOT
ATOM      1  C   UNL A   1      31.943  27.163  25.800  1.00  0.00     0.023 C 
ENDROOT
BRANCH   1   2
ATOM      2  C   UNL A   1      30.947  26.012  25.943  1.00  0.00     0.116 C 
BRANCH   2   3
ATOM      3  N   UNL A   1      31.423  25.001  26.865  1.00  0.00    -0.355 N 
ATOM      4  C   UNL A   1      31.361  23.646  26.772  1.00  0.00     0.230 C 
ATOM      5  O   UNL A   1      31.829  22.985  27.703  1.00  0.00    -0.274 OA
ATOM      6  H   UNL A   1      31.855  25.346  27.679  1.00  0.00     0.163 HD
BRANCH   4   7
ATOM      7  C   UNL A   1      30.820  22.955  25.535  1.00  0.00     0.176 C 
BRANCH   7   8
ATOM      8  S   UNL A   1      31.841  23.131  24.041  1.00  0.00    -0.096 SA
BRANCH   8   9
ATOM      9  C   UNL A   1      33.316  22.185  24.350  1.00  0.00     0.101 A 
ATOM     10  C   UNL A   1      35.625  21.801  24.599  1.00  0.00     0.071 A 
ATOM     11  C   UNL A   1      34.589  22.697  24.408  1.00  0.00     0.062 A 
ATOM     12  N   UNL A   1      35.408  20.483  24.776  1.00  0.00    -0.231 NA
ATOM     13  C   UNL A   1      34.132  20.069  24.709  1.00  0.00     0.160 A 
ATOM     14  N   UNL A   1      33.076  20.866  24.479  1.00  0.00    -0.222 NA
BRANCH  10  15
ATOM     15  C   UNL A   1      37.064  22.274  24.615  1.00  0.00     0.215 C 
BRANCH  15  16
ATOM     16  O   UNL A   1      37.907  21.535  25.508  1.00  0.00    -0.378 OA
ATOM     17  C   UNL A   1      38.847  22.346  26.198  1.00  0.00     0.195 C 
ENDBRANCH  15  16
ENDBRANCH  10  15
BRANCH  13  18
ATOM     18  C   UNL A   1      33.882  18.632  24.837  1.00  0.00     0.022 A 
ATOM     19  C   UNL A   1      32.708  18.157  25.435  1.00  0.00     0.032 A 
ATOM     20  C   UNL A   1      34.798  17.688  24.358  1.00  0.00     0.032 A 
ATOM     21  C   UNL A   1      32.499  16.790  25.512  1.00  0.00     0.111 A 
ATOM     22  C   UNL A   1      34.508  16.340  24.495  1.00  0.00     0.111 A 
ATOM     23  N   UNL A   1      33.373  15.870  25.055  1.00  0.00    -0.265 NA
ENDBRANCH  13  18
ENDBRANCH   8   9
ENDBRANCH   7   8
ENDBRANCH   4   7
ENDBRANCH   2   3
ENDBRANCH   1   2
BRANCH   1  24
ATOM     24  C   UNL A   1      33.413  26.739  25.734  1.00  0.00     0.023 C 
BRANCH  24  25
ATOM     25  C   UNL A   1      34.391  27.650  26.467  1.00  0.00     0.116 C 
BRANCH  25  26
ATOM     26  N   UNL A   1      33.810  28.932  26.839  1.00  0.00    -0.352 N 
ATOM     27  C   UNL A   1      34.379  29.950  27.567  1.00  0.00     0.251 C 
ATOM     28  H   UNL A   1      32.889  29.091  26.527  1.00  0.00     0.163 HD
ATOM     29  O   UNL A   1      33.715  30.930  27.888  1.00  0.00    -0.269 OA
BRANCH  27  30
ATOM     30  C   UNL A   1      35.789  29.829  27.992  1.00  0.00     0.039 A 
ATOM     31  C   UNL A   1      36.070  29.446  29.307  1.00  0.00     0.014 A 
ATOM     32  C   UNL A   1      36.823  30.039  27.077  1.00  0.00     0.014 A 
ATOM     33  C   UNL A   1      37.392  29.193  29.683  1.00  0.00     0.010 A 
ATOM     34  C   UNL A   1      38.131  29.730  27.438  1.00  0.00     0.010 A 
ATOM     35  C   UNL A   1      38.425  29.291  28.739  1.00  0.00    -0.014 A 
BRANCH  35  36
ATOM     36  C   UNL A   1      39.825  28.924  29.068  1.00  0.00     0.031 A 
ATOM     37  C   UNL A   1      40.760  29.964  29.619  1.00  0.00     0.074 A 
ATOM     38  C   UNL A   1      40.283  27.693  28.765  1.00  0.00     0.049 A 
ATOM     39  N   UNL A   1      42.053  29.902  29.796  1.00  0.00    -0.248 NA
ATOM     40  C   UNL A   1      40.160  31.255  29.990  1.00  0.00     0.031 C 
ATOM     41  C   UNL A   1      39.483  26.606  28.196  1.00  0.00     0.029 A 
ATOM     42  N   UNL A   1      41.542  27.156  28.867  1.00  0.00    -0.354 N 
ATOM     43  C   UNL A   1      42.429  31.153  30.270  1.00  0.00     0.074 A 
ATOM     44  C   UNL A   1      41.230  31.963  30.322  1.00  0.00     0.031 C 
ATOM     45  C   UNL A   1      40.268  25.534  28.003  1.00  0.00     0.029 A 
ATOM     46  C   UNL A   1      41.635  25.870  28.390  1.00  0.00     0.049 A 
ATOM     47  H   UNL A   1      42.308  27.646  29.247  1.00  0.00     0.167 HD
ATOM     48  C   UNL A   1      43.660  31.583  30.635  1.00  0.00     0.037 A 
ATOM     49  C   UNL A   1      42.704  25.059  28.258  1.00  0.00     0.037 A 
ATOM     50  C   UNL A   1      44.840  30.761  30.612  1.00  0.00     0.049 A 
ATOM     51  C   UNL A   1      44.060  25.553  28.683  1.00  0.00     0.074 A 
ATOM     52  C   UNL A   1      46.124  31.088  31.013  1.00  0.00     0.029 A 
ATOM     53  N   UNL A   1      44.881  29.446  30.171  1.00  0.00    -0.354 N 
ATOM     54  N   UNL A   1      44.392  26.728  29.162  1.00  0.00    -0.248 NA
ATOM     55  C   UNL A   1      45.185  24.616  28.551  1.00  0.00     0.031 C 
ATOM     56  C   UNL A   1      46.948  29.979  30.787  1.00  0.00     0.029 A 
ATOM     57  C   UNL A   1      46.169  28.950  30.282  1.00  0.00     0.049 A 
ATOM     58  H   UNL A   1      44.108  28.941  29.829  1.00  0.00     0.167 HD
ATOM     59  C   UNL A   1      45.757  26.661  29.418  1.00  0.00     0.074 A 
ATOM     60  C   UNL A   1      46.190  25.332  29.040  1.00  0.00     0.031 C 
ATOM     61  C   UNL A   1      46.576  27.615  29.924  1.00  0.00     0.037 A 
BRANCH  48  62
ATOM     62  C   UNL A   1      43.790  33.008  31.091  1.00  0.00     0.058 A 
ATOM     63  C   UNL A   1      43.634  33.366  32.439  1.00  0.00     0.135 A 
ATOM     64  C   UNL A   1      44.098  34.025  30.173  1.00  0.00     0.135 A 
ATOM     65  F   UNL A   1      43.324  32.434  33.354  1.00  0.00    -0.206 F 
ATOM     66  C   UNL A   1      43.747  34.687  32.857  1.00  0.00     0.059 A 
ATOM     67  C   UNL A   1      44.240  35.350  30.573  1.00  0.00     0.059 A 
ATOM     68  F   UNL A   1      44.257  33.736  28.872  1.00  0.00    -0.206 F 
ATOM     69  C   UNL A   1      44.046  35.674  31.915  1.00  0.00     0.060 A 
BRANCH  69  70
ATOM     70  S   UNL A   1      44.183  37.386  32.470  1.00  0.00     0.124 S 
ATOM     71  O   UNL A   1      45.582  37.444  32.882  1.00  0.00    -0.237 OA
ATOM     72  O   UNL A   1      43.847  38.137  31.264  1.00  0.00    -0.237 OA
ATOM     73  O   UNL A   1      43.206  37.470  33.551  1.00  0.00    -0.744 OA
ENDBRANCH  69  70
ENDBRANCH  48  62
BRANCH  49  74
ATOM     74  C   UNL A   1      42.530  23.689  27.709  1.00  0.00     0.058 A 
ATOM     75  C   UNL A   1      42.575  23.459  26.326  1.00  0.00     0.135 A 
ATOM     76  C   UNL A   1      42.339  22.583  28.552  1.00  0.00     0.135 A 
ATOM     77  F   UNL A   1      42.749  24.487  25.482  1.00  0.00    -0.206 F 
ATOM     78  C   UNL A   1      42.426  22.183  25.795  1.00  0.00     0.059 A 
ATOM     79  C   UNL A   1      42.209  21.293  28.045  1.00  0.00     0.059 A 
ATOM     80  F   UNL A   1      42.306  22.748  29.882  1.00  0.00    -0.206 F 
ATOM     81  C   UNL A   1      42.245  21.104  26.663  1.00  0.00     0.060 A 
BRANCH  81  82
ATOM     82  S   UNL A   1      42.111  19.443  25.968  1.00  0.00     0.124 S 
ATOM     83  O   UNL A   1      40.678  19.347  25.712  1.00  0.00    -0.237 OA
ATOM     84  O   UNL A   1      42.966  19.531  24.789  1.00  0.00    -0.237 OA
ATOM     85  O   UNL A   1      42.621  18.592  27.039  1.00  0.00    -0.744 OA
ENDBRANCH  81  82
ENDBRANCH  49  74
BRANCH  61  86
ATOM     86  C   UNL A   1      48.015  27.251  30.151  1.00  0.00     0.058 A 
ATOM     87  C   UNL A   1      48.982  27.412  29.148  1.00  0.00     0.135 A 
ATOM     88  C   UNL A   1      48.444  26.829  31.419  1.00  0.00     0.135 A 
ATOM     89  F   UNL A   1      48.619  27.806  27.916  1.00  0.00    -0.206 F 
ATOM     90  C   UNL A   1      50.329  27.167  29.395  1.00  0.00     0.059 A 
ATOM     91  C   UNL A   1      49.788  26.598  31.694  1.00  0.00     0.059 A 
ATOM     92  F   UNL A   1      47.556  26.667  32.413  1.00  0.00    -0.206 F 
ATOM     93  C   UNL A   1      50.723  26.768  30.674  1.00  0.00     0.060 A 
BRANCH  93  94
ATOM     94  S   UNL A   1      52.482  26.528  31.005  1.00  0.00     0.124 S 
ATOM     95  O   UNL A   1      52.486  25.206  31.625  1.00  0.00    -0.237 OA
ATOM     96  O   UNL A   1      53.066  26.604  29.669  1.00  0.00    -0.237 OA
ATOM     97  O   UNL A   1      52.814  27.639  31.891  1.00  0.00    -0.744 OA
ENDBRANCH  93  94
ENDBRANCH  61  86
ENDBRANCH  35  36
ENDBRANCH  27  30
ENDBRANCH  25  26
ENDBRANCH  24  25
ENDBRANCH   1  24
TORSDOF 19
ENDMDL
MODEL 2
REMARK VINA RESULT:     -11.0      1.363      2.700
REMARK SMILES COCc1cc(SCC(=O)NCCCCNC(=O)c2ccc(-c3c4nc(c(-c5c(F)cc(S(=O)(=O)[O-])cc5F)c5ccc([nH]5)c(-c5c(F)cc(S(=O)(=O)[O-])cc5F)c5nc(c(-c6c(F)cc(S(=O)(=O)[O-])cc6F)c6ccc3[nH]6)C=C5)C=C4)cc2)nc(-c2ccncc2)n1
REMARK SMILES IDX 13 1 12 2 11 3 9 4 10 5 8 7 7 8 6 9 4 10 5 11 93 12 86 13
REMARK SMILES IDX 85 14 3 15 2 16 1 17 87 18 88 19 92 20 89 21 91 22 90 23
REMARK SMILES IDX 14 24 15 25 16 26 17 27 18 29 19 30 20 31 84 32 21 33 83 34
REMARK SMILES IDX 22 35 23 36 24 37 77 38 25 39 82 40 76 41 78 42 26 43 81 44
REMARK SMILES IDX 75 45 74 46 27 48 61 49 40 50 60 51 41 52 44 53 59 54 79 55
REMARK SMILES IDX 42 56 43 57 58 59 80 60 45 61 28 62 29 63 38 64 30 65 31 66
REMARK SMILES IDX 37 67 39 68 32 69 33 70 34 71 35 72 36 73 62 74 63 75 72 76
REMARK SMILES IDX 64 77 65 78 71 79 73 80 66 81 67 82 68 83 69 84 70 85 46 86
REMARK SMILES IDX 47 87 56 88 48 89 49 90 55 91 57 92 50 93 51 94 52 95 53 96
REMARK SMILES IDX 54 97
REMARK H PARENT 11 6 16 28 78 47 44 58
REMARK Flexibility Score: inf
ROOT
ATOM      1  C   UNL A   1      31.969  28.695  25.316  1.00  0.00     0.023 C 
ENDROOT
BRANCH   1   2
ATOM      2  C   UNL A   1      31.240  27.733  24.378  1.00  0.00     0.116 C 
BRANCH   2   3
ATOM      3  N   UNL A   1      32.144  27.120  23.426  1.00  0.00    -0.355 N 
ATOM      4  C   UNL A   1      32.638  25.854  23.391  1.00  0.00     0.230 C 
ATOM      5  O   UNL A   1      33.414  25.566  22.476  1.00  0.00    -0.274 OA
ATOM      6  H   UNL A   1      32.445  27.709  22.697  1.00  0.00     0.163 HD
BRANCH   4   7
ATOM      7  C   UNL A   1      32.192  24.797  24.382  1.00  0.00     0.176 C 
BRANCH   7   8
ATOM      8  S   UNL A   1      31.538  23.270  23.643  1.00  0.00    -0.096 SA
BRANCH   8   9
ATOM      9  C   UNL A   1      32.696  21.990  24.077  1.00  0.00     0.101 A 
ATOM     10  C   UNL A   1      33.431  19.795  24.507  1.00  0.00     0.071 A 
ATOM     11  C   UNL A   1      32.424  20.643  24.084  1.00  0.00     0.062 A 
ATOM     12  N   UNL A   1      34.652  20.250  24.853  1.00  0.00    -0.231 NA
ATOM     13  C   UNL A   1      34.832  21.580  24.813  1.00  0.00     0.160 A 
ATOM     14  N   UNL A   1      33.894  22.473  24.461  1.00  0.00    -0.222 NA
BRANCH  10  15
ATOM     15  C   UNL A   1      33.196  18.302  24.603  1.00  0.00     0.215 C 
BRANCH  15  16
ATOM     16  O   UNL A   1      33.799  17.551  23.541  1.00  0.00    -0.378 OA
ATOM     17  C   UNL A   1      34.135  16.221  23.911  1.00  0.00     0.195 C 
ENDBRANCH  15  16
ENDBRANCH  10  15
BRANCH  13  18
ATOM     18  C   UNL A   1      36.132  22.098  25.243  1.00  0.00     0.022 A 
ATOM     19  C   UNL A   1      36.293  23.447  25.583  1.00  0.00     0.032 A 
ATOM     20  C   UNL A   1      37.252  21.263  25.340  1.00  0.00     0.032 A 
ATOM     21  C   UNL A   1      37.534  23.889  26.011  1.00  0.00     0.111 A 
ATOM     22  C   UNL A   1      38.457  21.802  25.762  1.00  0.00     0.111 A 
ATOM     23  N   UNL A   1      38.620  23.097  26.108  1.00  0.00    -0.265 NA
ENDBRANCH  13  18
ENDBRANCH   8   9
ENDBRANCH   7   8
ENDBRANCH   4   7
ENDBRANCH   2   3
ENDBRANCH   1   2
BRANCH   1  24
ATOM     24  C   UNL A   1      32.382  28.093  26.663  1.00  0.00     0.023 C 
BRANCH  24  25
ATOM     25  C   UNL A   1      33.713  28.585  27.220  1.00  0.00     0.116 C 
BRANCH  25  26
ATOM     26  N   UNL A   1      33.645  29.937  27.753  1.00  0.00    -0.352 N 
ATOM     27  C   UNL A   1      34.625  30.652  28.400  1.00  0.00     0.251 C 
ATOM     28  H   UNL A   1      32.784  30.402  27.634  1.00  0.00     0.163 HD
ATOM     29  O   UNL A   1      34.375  31.750  28.887  1.00  0.00    -0.269 OA
BRANCH  27  30
ATOM     30  C   UNL A   1      35.973  30.062  28.537  1.00  0.00     0.039 A 
ATOM     31  C   UNL A   1      36.839  30.087  27.440  1.00  0.00     0.014 A 
ATOM     32  C   UNL A   1      36.394  29.539  29.762  1.00  0.00     0.014 A 
ATOM     33  C   UNL A   1      38.160  29.660  27.594  1.00  0.00     0.010 A 
ATOM     34  C   UNL A   1      37.725  29.170  29.928  1.00  0.00     0.010 A 
ATOM     35  C   UNL A   1      38.623  29.240  28.851  1.00  0.00    -0.014 A 
BRANCH  35  36
ATOM     36  C   UNL A   1      40.046  28.885  29.084  1.00  0.00     0.031 A 
ATOM     37  C   UNL A   1      41.011  29.938  29.550  1.00  0.00     0.074 A 
ATOM     38  C   UNL A   1      40.488  27.652  28.769  1.00  0.00     0.049 A 
ATOM     39  N   UNL A   1      42.314  29.885  29.635  1.00  0.00    -0.248 NA
ATOM     40  C   UNL A   1      40.432  31.233  29.944  1.00  0.00     0.031 C 
ATOM     41  C   UNL A   1      39.655  26.552  28.276  1.00  0.00     0.029 A 
ATOM     42  N   UNL A   1      41.754  27.123  28.789  1.00  0.00    -0.354 N 
ATOM     43  C   UNL A   1      42.715  31.146  30.062  1.00  0.00     0.074 A 
ATOM     44  C   UNL A   1      41.519  31.951  30.188  1.00  0.00     0.031 C 
ATOM     45  C   UNL A   1      40.431  25.481  28.043  1.00  0.00     0.029 A 
ATOM     46  C   UNL A   1      41.821  25.830  28.326  1.00  0.00     0.049 A 
ATOM     47  H   UNL A   1      42.542  27.623  29.105  1.00  0.00     0.167 HD
ATOM     48  C   UNL A   1      43.966  31.587  30.331  1.00  0.00     0.037 A 
ATOM     49  C   UNL A   1      42.882  25.022  28.130  1.00  0.00     0.037 A 
ATOM     50  C   UNL A   1      45.147  30.771  30.237  1.00  0.00     0.049 A 
ATOM     51  C   UNL A   1      44.262  25.530  28.449  1.00  0.00     0.074 A 
ATOM     52  C   UNL A   1      46.454  31.110  30.539  1.00  0.00     0.029 A 
ATOM     53  N   UNL A   1      45.164  29.449  29.814  1.00  0.00    -0.354 N 
ATOM     54  N   UNL A   1      44.621  26.714  28.885  1.00  0.00    -0.248 NA
ATOM     55  C   UNL A   1      45.380  24.596  28.251  1.00  0.00     0.031 C 
ATOM     56  C   UNL A   1      47.266  30.002  30.272  1.00  0.00     0.029 A 
ATOM     57  C   UNL A   1      46.459  28.961  29.840  1.00  0.00     0.049 A 
ATOM     58  H   UNL A   1      44.372  28.935  29.537  1.00  0.00     0.167 HD
ATOM     59  C   UNL A   1      46.001  26.657  29.043  1.00  0.00     0.074 A 
ATOM     60  C   UNL A   1      46.413  25.324  28.656  1.00  0.00     0.031 C 
ATOM     61  C   UNL A   1      46.848  27.623  29.475  1.00  0.00     0.037 A 
BRANCH  48  62
ATOM     62  C   UNL A   1      44.120  33.020  30.754  1.00  0.00     0.058 A 
ATOM     63  C   UNL A   1      44.209  34.059  29.815  1.00  0.00     0.135 A 
ATOM     64  C   UNL A   1      44.153  33.362  32.115  1.00  0.00     0.135 A 
ATOM     65  F   UNL A   1      44.198  33.784  28.500  1.00  0.00    -0.206 F 
ATOM     66  C   UNL A   1      44.359  35.384  30.208  1.00  0.00     0.059 A 
ATOM     67  C   UNL A   1      44.277  34.683  32.533  1.00  0.00     0.059 A 
ATOM     68  F   UNL A   1      44.071  32.407  33.055  1.00  0.00    -0.206 F 
ATOM     69  C   UNL A   1      44.397  35.686  31.572  1.00  0.00     0.060 A 
BRANCH  69  70
ATOM     70  S   UNL A   1      44.599  37.410  32.069  1.00  0.00     0.124 S 
ATOM     71  O   UNL A   1      44.032  37.389  33.415  1.00  0.00    -0.237 OA
ATOM     72  O   UNL A   1      46.045  37.592  31.995  1.00  0.00    -0.237 OA
ATOM     73  O   UNL A   1      43.825  38.142  31.073  1.00  0.00    -0.744 OA
ENDBRANCH  69  70
ENDBRANCH  48  62
BRANCH  49  74
ATOM     74  C   UNL A   1      42.677  23.643  27.617  1.00  0.00     0.058 A 
ATOM     75  C   UNL A   1      42.686  23.381  26.239  1.00  0.00     0.135 A 
ATOM     76  C   UNL A   1      42.492  22.558  28.488  1.00  0.00     0.135 A 
ATOM     77  F   UNL A   1      42.853  24.388  25.368  1.00  0.00    -0.206 F 
ATOM     78  C   UNL A   1      42.509  22.096  25.740  1.00  0.00     0.059 A 
ATOM     79  C   UNL A   1      42.334  21.259  28.014  1.00  0.00     0.059 A 
ATOM     80  F   UNL A   1      42.493  22.753  29.815  1.00  0.00    -0.206 F 
ATOM     81  C   UNL A   1      42.334  21.039  26.636  1.00  0.00     0.060 A 
BRANCH  81  82
ATOM     82  S   UNL A   1      42.163  19.365  25.982  1.00  0.00     0.124 S 
ATOM     83  O   UNL A   1      40.735  19.311  25.686  1.00  0.00    -0.237 OA
ATOM     84  O   UNL A   1      43.054  19.392  24.826  1.00  0.00    -0.237 OA
ATOM     85  O   UNL A   1      42.612  18.527  27.090  1.00  0.00    -0.744 OA
ENDBRANCH  81  82
ENDBRANCH  49  74
BRANCH  61  86
ATOM     86  C   UNL A   1      48.302  27.270  29.604  1.00  0.00     0.058 A 
ATOM     87  C   UNL A   1      49.205  27.474  28.550  1.00  0.00     0.135 A 
ATOM     88  C   UNL A   1      48.810  26.814  30.830  1.00  0.00     0.135 A 
ATOM     89  F   UNL A   1      48.764  27.901  27.356  1.00  0.00    -0.206 F 
ATOM     90  C   UNL A   1      50.566  27.238  28.708  1.00  0.00     0.059 A 
ATOM     91  C   UNL A   1      50.170  26.591  31.016  1.00  0.00     0.059 A 
ATOM     92  F   UNL A   1      47.986  26.610  31.870  1.00  0.00    -0.206 F 
ATOM     93  C   UNL A   1      51.041  26.804  29.948  1.00  0.00     0.060 A 
BRANCH  93  94
ATOM     94  S   UNL A   1      52.819  26.575  30.166  1.00  0.00     0.124 S 
ATOM     95  O   UNL A   1      53.219  27.875  30.696  1.00  0.00    -0.237 OA
ATOM     96  O   UNL A   1      52.880  25.461  31.107  1.00  0.00    -0.237 OA
ATOM     97  O   UNL A   1      53.289  26.274  28.818  1.00  0.00    -0.744 OA
ENDBRANCH  93  94
ENDBRANCH  61  86
ENDBRANCH  35  36
ENDBRANCH  27  30
ENDBRANCH  25  26
ENDBRANCH  24  25
ENDBRANCH   1  24
TORSDOF 19
ENDMDL
MODEL 3
REMARK VINA RESULT:     -10.6      3.725     10.180
REMARK SMILES COCc1cc(SCC(=O)NCCCCNC(=O)c2ccc(-c3c4nc(c(-c5c(F)cc(S(=O)(=O)[O-])cc5F)c5ccc([nH]5)c(-c5c(F)cc(S(=O)(=O)[O-])cc5F)c5nc(c(-c6c(F)cc(S(=O)(=O)[O-])cc6F)c6ccc3[nH]6)C=C5)C=C4)cc2)nc(-c2ccncc2)n1
REMARK SMILES IDX 13 1 12 2 11 3 9 4 10 5 8 7 7 8 6 9 4 10 5 11 93 12 86 13
REMARK SMILES IDX 85 14 3 15 2 16 1 17 87 18 88 19 92 20 89 21 91 22 90 23
REMARK SMILES IDX 14 24 15 25 16 26 17 27 18 29 19 30 20 31 84 32 21 33 83 34
REMARK SMILES IDX 22 35 23 36 24 37 77 38 25 39 82 40 76 41 78 42 26 43 81 44
REMARK SMILES IDX 75 45 74 46 27 48 61 49 40 50 60 51 41 52 44 53 59 54 79 55
REMARK SMILES IDX 42 56 43 57 58 59 80 60 45 61 28 62 29 63 38 64 30 65 31 66
REMARK SMILES IDX 37 67 39 68 32 69 33 70 34 71 35 72 36 73 62 74 63 75 72 76
REMARK SMILES IDX 64 77 65 78 71 79 73 80 66 81 67 82 68 83 69 84 70 85 46 86
REMARK SMILES IDX 47 87 56 88 48 89 49 90 55 91 57 92 50 93 51 94 52 95 53 96
REMARK SMILES IDX 54 97
REMARK H PARENT 11 6 16 28 78 47 44 58
REMARK Flexibility Score: inf
ROOT
ATOM      1  C   UNL A   1      35.085  22.975  23.585  1.00  0.00     0.023 C 
ENDROOT
BRANCH   1   2
ATOM      2  C   UNL A   1      33.796  23.766  23.363  1.00  0.00     0.116 C 
BRANCH   2   3
ATOM      3  N   UNL A   1      34.062  25.103  22.873  1.00  0.00    -0.355 N 
ATOM      4  C   UNL A   1      33.255  25.948  22.179  1.00  0.00     0.230 C 
ATOM      5  O   UNL A   1      33.716  27.046  21.855  1.00  0.00    -0.274 OA
ATOM      6  H   UNL A   1      34.961  25.450  23.071  1.00  0.00     0.163 HD
BRANCH   4   7
ATOM      7  C   UNL A   1      31.808  25.605  21.883  1.00  0.00     0.176 C 
BRANCH   7   8
ATOM      8  S   UNL A   1      30.688  25.673  23.314  1.00  0.00    -0.096 SA
BRANCH   8   9
ATOM      9  C   UNL A   1      30.884  27.302  24.003  1.00  0.00     0.101 A 
ATOM     10  C   UNL A   1      31.616  28.923  25.547  1.00  0.00     0.071 A 
ATOM     11  C   UNL A   1      31.625  27.607  25.120  1.00  0.00     0.062 A 
ATOM     12  N   UNL A   1      30.954  29.888  24.877  1.00  0.00    -0.231 NA
ATOM     13  C   UNL A   1      30.260  29.502  23.795  1.00  0.00     0.160 A 
ATOM     14  N   UNL A   1      30.178  28.240  23.343  1.00  0.00    -0.222 NA
BRANCH  10  15
ATOM     15  C   UNL A   1      32.356  29.334  26.802  1.00  0.00     0.215 C 
BRANCH  15  16
ATOM     16  O   UNL A   1      33.615  29.972  26.550  1.00  0.00    -0.378 OA
ATOM     17  C   UNL A   1      33.932  30.987  27.492  1.00  0.00     0.195 C 
ENDBRANCH  15  16
ENDBRANCH  10  15
BRANCH  13  18
ATOM     18  C   UNL A   1      29.485  30.525  23.090  1.00  0.00     0.022 A 
ATOM     19  C   UNL A   1      29.122  30.356  21.749  1.00  0.00     0.032 A 
ATOM     20  C   UNL A   1      29.074  31.698  23.734  1.00  0.00     0.032 A 
ATOM     21  C   UNL A   1      28.366  31.337  21.128  1.00  0.00     0.111 A 
ATOM     22  C   UNL A   1      28.335  32.630  23.024  1.00  0.00     0.111 A 
ATOM     23  N   UNL A   1      27.964  32.471  21.736  1.00  0.00    -0.265 NA
ENDBRANCH  13  18
ENDBRANCH   8   9
ENDBRANCH   7   8
ENDBRANCH   4   7
ENDBRANCH   2   3
ENDBRANCH   1   2
BRANCH   1  24
ATOM     24  C   UNL A   1      35.681  23.094  24.991  1.00  0.00     0.023 C 
BRANCH  24  25
ATOM     25  C   UNL A   1      37.050  23.759  25.069  1.00  0.00     0.116 C 
BRANCH  25  26
ATOM     26  N   UNL A   1      38.135  22.812  25.276  1.00  0.00    -0.352 N 
ATOM     27  C   UNL A   1      39.296  22.985  25.992  1.00  0.00     0.251 C 
ATOM     28  H   UNL A   1      38.022  21.932  24.849  1.00  0.00     0.163 HD
ATOM     29  O   UNL A   1      40.167  22.120  25.982  1.00  0.00    -0.269 OA
BRANCH  27  30
ATOM     30  C   UNL A   1      39.500  24.244  26.739  1.00  0.00     0.039 A 
ATOM     31  C   UNL A   1      38.913  24.386  27.999  1.00  0.00     0.014 A 
ATOM     32  C   UNL A   1      40.314  25.251  26.217  1.00  0.00     0.014 A 
ATOM     33  C   UNL A   1      39.209  25.509  28.775  1.00  0.00     0.010 A 
ATOM     34  C   UNL A   1      40.653  26.340  27.014  1.00  0.00     0.010 A 
ATOM     35  C   UNL A   1      40.116  26.472  28.305  1.00  0.00    -0.014 A 
BRANCH  35  36
ATOM     36  C   UNL A   1      40.543  27.621  29.141  1.00  0.00     0.031 A 
ATOM     37  C   UNL A   1      41.822  27.538  29.926  1.00  0.00     0.074 A 
ATOM     38  C   UNL A   1      39.730  28.687  29.281  1.00  0.00     0.049 A 
ATOM     39  N   UNL A   1      42.278  28.343  30.850  1.00  0.00    -0.248 NA
ATOM     40  C   UNL A   1      42.684  26.377  29.656  1.00  0.00     0.031 C 
ATOM     41  C   UNL A   1      38.447  28.870  28.597  1.00  0.00     0.029 A 
ATOM     42  N   UNL A   1      39.846  29.805  30.068  1.00  0.00    -0.354 N 
ATOM     43  C   UNL A   1      43.465  27.772  31.294  1.00  0.00     0.074 A 
ATOM     44  C   UNL A   1      43.641  26.537  30.560  1.00  0.00     0.031 C 
ATOM     45  C   UNL A   1      37.899  30.030  28.992  1.00  0.00     0.029 A 
ATOM     46  C   UNL A   1      38.766  30.651  29.990  1.00  0.00     0.049 A 
ATOM     47  H   UNL A   1      40.631  29.984  30.637  1.00  0.00     0.167 HD
ATOM     48  C   UNL A   1      44.331  28.240  32.223  1.00  0.00     0.037 A 
ATOM     49  C   UNL A   1      38.492  31.788  30.661  1.00  0.00     0.037 A 
ATOM     50  C   UNL A   1      44.167  29.486  32.923  1.00  0.00     0.049 A 
ATOM     51  C   UNL A   1      39.476  32.296  31.678  1.00  0.00     0.074 A 
ATOM     52  C   UNL A   1      45.016  30.074  33.844  1.00  0.00     0.029 A 
ATOM     53  N   UNL A   1      43.082  30.340  32.775  1.00  0.00    -0.354 N 
ATOM     54  N   UNL A   1      40.611  31.762  32.062  1.00  0.00    -0.248 NA
ATOM     55  C   UNL A   1      39.145  33.559  32.355  1.00  0.00     0.031 C 
ATOM     56  C   UNL A   1      44.431  31.270  34.275  1.00  0.00     0.029 A 
ATOM     57  C   UNL A   1      43.238  31.446  33.594  1.00  0.00     0.049 A 
ATOM     58  H   UNL A   1      42.317  30.182  32.177  1.00  0.00     0.167 HD
ATOM     59  C   UNL A   1      41.145  32.639  33.000  1.00  0.00     0.074 A 
ATOM     60  C   UNL A   1      40.209  33.737  33.129  1.00  0.00     0.031 C 
ATOM     61  C   UNL A   1      42.307  32.542  33.690  1.00  0.00     0.037 A 
BRANCH  48  62
ATOM     62  C   UNL A   1      45.536  27.399  32.534  1.00  0.00     0.058 A 
ATOM     63  C   UNL A   1      46.737  27.544  31.823  1.00  0.00     0.135 A 
ATOM     64  C   UNL A   1      45.498  26.454  33.571  1.00  0.00     0.135 A 
ATOM     65  F   UNL A   1      46.822  28.422  30.811  1.00  0.00    -0.206 F 
ATOM     66  C   UNL A   1      47.849  26.759  32.107  1.00  0.00     0.059 A 
ATOM     67  C   UNL A   1      46.605  25.675  33.890  1.00  0.00     0.059 A 
ATOM     68  F   UNL A   1      44.374  26.276  34.283  1.00  0.00    -0.206 F 
ATOM     69  C   UNL A   1      47.772  25.823  33.141  1.00  0.00     0.060 A 
BRANCH  69  70
ATOM     70  S   UNL A   1      49.220  24.805  33.495  1.00  0.00     0.124 S 
ATOM     71  O   UNL A   1      49.830  24.701  32.173  1.00  0.00    -0.237 OA
ATOM     72  O   UNL A   1      49.947  25.617  34.465  1.00  0.00    -0.237 OA
ATOM     73  O   UNL A   1      48.645  23.570  34.019  1.00  0.00    -0.744 OA
ENDBRANCH  69  70
ENDBRANCH  48  62
BRANCH  49  74
ATOM     74  C   UNL A   1      37.235  32.529  30.379  1.00  0.00     0.058 A 
ATOM     75  C   UNL A   1      36.106  32.362  31.194  1.00  0.00     0.135 A 
ATOM     76  C   UNL A   1      37.143  33.432  29.309  1.00  0.00     0.135 A 
ATOM     77  F   UNL A   1      36.146  31.504  32.225  1.00  0.00    -0.206 F 
ATOM     78  C   UNL A   1      34.925  33.055  30.955  1.00  0.00     0.059 A 
ATOM     79  C   UNL A   1      35.979  34.154  29.061  1.00  0.00     0.059 A 
ATOM     80  F   UNL A   1      38.200  33.639  28.510  1.00  0.00    -0.206 F 
ATOM     81  C   UNL A   1      34.871  33.951  29.885  1.00  0.00     0.060 A 
BRANCH  81  82
ATOM     82  S   UNL A   1      33.352  34.891  29.615  1.00  0.00     0.124 S 
ATOM     83  O   UNL A   1      33.873  36.136  29.062  1.00  0.00    -0.237 OA
ATOM     84  O   UNL A   1      32.621  34.036  28.686  1.00  0.00    -0.237 OA
ATOM     85  O   UNL A   1      32.777  34.985  30.953  1.00  0.00    -0.744 OA
ENDBRANCH  81  82
ENDBRANCH  49  74
BRANCH  61  86
ATOM     86  C   UNL A   1      42.669  33.672  34.611  1.00  0.00     0.058 A 
ATOM     87  C   UNL A   1      43.145  34.897  34.121  1.00  0.00     0.135 A 
ATOM     88  C   UNL A   1      42.444  33.556  35.991  1.00  0.00     0.135 A 
ATOM     89  F   UNL A   1      43.383  35.053  32.809  1.00  0.00    -0.206 F 
ATOM     90  C   UNL A   1      43.384  35.972  34.970  1.00  0.00     0.059 A 
ATOM     91  C   UNL A   1      42.656  34.624  36.856  1.00  0.00     0.059 A 
ATOM     92  F   UNL A   1      41.983  32.405  36.506  1.00  0.00    -0.206 F 
ATOM     93  C   UNL A   1      43.129  35.827  36.336  1.00  0.00     0.060 A 
BRANCH  93  94
ATOM     94  S   UNL A   1      43.369  37.253  37.419  1.00  0.00     0.124 S 
ATOM     95  O   UNL A   1      42.001  37.533  37.844  1.00  0.00    -0.237 OA
ATOM     96  O   UNL A   1      44.256  36.720  38.449  1.00  0.00    -0.237 OA
ATOM     97  O   UNL A   1      43.971  38.249  36.539  1.00  0.00    -0.744 OA
ENDBRANCH  93  94
ENDBRANCH  61  86
ENDBRANCH  35  36
ENDBRANCH  27  30
ENDBRANCH  25  26
ENDBRANCH  24  25
ENDBRANCH   1  24
TORSDOF 19
ENDMDL
