MODEL 1
REMARK VINA RESULT:     -11.8      0.000      0.000
REMARK SMILES CC[NH2+][C@@]1(C(=O)NCCCCNC(=O)c2ccc(-c3c4nc(c(-c5c(F)cc(S(=O)(=O)[O-])cc5F)c5ccc([nH]5)c(-c5c(F)cc(S(=O)(=O)[O-])cc5F)c5nc(c(-c6c(F)cc(S(=O)(=O)[O-])cc6F)c6ccc3[nH]6)C=C5)C=C4)cc2)CCC[C@@H]([N@@H+](C)C2CCCC2)C1
REMARK SMILES IDX 10 1 9 2 8 3 7 4 5 5 6 6 4 8 81 9 92 10 82 11 84 12 83 13
REMARK SMILES IDX 3 14 2 17 1 18 85 19 86 20 87 22 88 23 91 24 89 25 90 26
REMARK SMILES IDX 11 27 12 28 13 29 14 31 15 32 16 33 80 34 17 35 79 36 18 37
REMARK SMILES IDX 19 38 20 39 73 40 21 41 78 42 72 43 74 44 22 45 77 46 71 47
REMARK SMILES IDX 70 48 23 50 57 51 36 52 56 53 37 54 40 55 55 56 75 57 38 58
REMARK SMILES IDX 39 59 54 61 76 62 41 63 24 64 25 65 34 66 26 67 27 68 33 69
REMARK SMILES IDX 35 70 28 71 29 72 30 73 31 74 32 75 58 76 59 77 68 78 60 79
REMARK SMILES IDX 61 80 67 81 69 82 62 83 63 84 64 85 65 86 66 87 42 88 43 89
REMARK SMILES IDX 52 90 44 91 45 92 51 93 53 94 46 95 47 96 48 97 49 98 50 99
REMARK H PARENT 7 7 3 15 3 16 85 21 12 30 74 49 40 60
REMARK Flexibility Score: inf
ROOT
ATOM      1  C   UNL A   1      35.228  31.651  27.649  1.00  0.00     0.023 C 
ENDROOT
BRANCH   1   2
ATOM      2  C   UNL A   1      33.734  31.363  27.727  1.00  0.00     0.023 C 
BRANCH   2   3
ATOM      3  C   UNL A   1      33.241  30.251  26.793  1.00  0.00     0.116 C 
BRANCH   3   4
ATOM      4  N   UNL A   1      32.327  29.365  27.480  1.00  0.00    -0.351 N 
ATOM      5  C   UNL A   1      31.815  28.136  27.267  1.00  0.00     0.281 C 
ATOM      6  O   UNL A   1      30.937  27.818  28.093  1.00  0.00    -0.268 OA
ATOM      7  H   UNL A   1      31.992  29.760  28.317  1.00  0.00     0.163 HD
BRANCH   5   8
ATOM      8  C   UNL A   1      32.175  27.088  26.119  1.00  0.00     0.181 C 
ATOM      9  C   UNL A   1      33.570  27.234  25.500  1.00  0.00     0.079 C 
ATOM     10  C   UNL A   1      31.081  27.058  25.039  1.00  0.00     0.144 C 
ATOM     11  C   UNL A   1      33.713  28.009  24.188  1.00  0.00     0.013 C 
ATOM     12  C   UNL A   1      31.094  28.259  24.103  1.00  0.00     0.190 C 
ATOM     13  C   UNL A   1      32.469  28.521  23.460  1.00  0.00     0.065 C 
BRANCH   8  14
ATOM     14  N   UNL A   1      32.234  25.787  26.905  1.00  0.00    -0.334 N 
ATOM     15  H   UNL A   1      33.217  25.588  27.090  1.00  0.00     0.347 HD
ATOM     16  H   UNL A   1      31.655  25.960  27.728  1.00  0.00     0.347 HD
BRANCH  14  17
ATOM     17  C   UNL A   1      31.657  24.592  26.298  1.00  0.00     0.257 C 
ATOM     18  C   UNL A   1      32.102  23.360  27.075  1.00  0.00     0.071 C 
ENDBRANCH  14  17
ENDBRANCH   8  14
BRANCH  12  19
ATOM     19  N   UNL A   1      29.940  28.305  23.172  1.00  0.00    -0.332 N 
ATOM     20  C   UNL A   1      28.960  27.253  23.461  1.00  0.00     0.333 C 
ATOM     21  H   UNL A   1      30.423  28.130  22.290  1.00  0.00     0.348 HD
BRANCH  19  22
ATOM     22  C   UNL A   1      29.285  29.583  22.864  1.00  0.00     0.184 C 
ATOM     23  C   UNL A   1      27.757  29.697  22.908  1.00  0.00     0.065 C 
ATOM     24  C   UNL A   1      29.794  30.787  23.689  1.00  0.00     0.065 C 
ATOM     25  C   UNL A   1      27.530  31.199  22.925  1.00  0.00     0.006 C 
ATOM     26  C   UNL A   1      28.573  31.681  23.922  1.00  0.00     0.006 C 
ENDBRANCH  19  22
ENDBRANCH  12  19
ENDBRANCH   5   8
ENDBRANCH   3   4
ENDBRANCH   2   3
ENDBRANCH   1   2
BRANCH   1  27
ATOM     27  C   UNL A   1      35.880  31.989  28.980  1.00  0.00     0.116 C 
BRANCH  27  28
ATOM     28  N   UNL A   1      35.665  30.994  30.026  1.00  0.00    -0.352 N 
ATOM     29  C   UNL A   1      36.598  30.129  30.558  1.00  0.00     0.251 C 
ATOM     30  H   UNL A   1      34.753  30.933  30.391  1.00  0.00     0.163 HD
ATOM     31  O   UNL A   1      36.288  29.303  31.410  1.00  0.00    -0.269 OA
BRANCH  29  32
ATOM     32  C   UNL A   1      37.973  30.188  30.021  1.00  0.00     0.039 A 
ATOM     33  C   UNL A   1      39.026  30.452  30.897  1.00  0.00     0.014 A 
ATOM     34  C   UNL A   1      38.216  29.783  28.706  1.00  0.00     0.014 A 
ATOM     35  C   UNL A   1      40.335  30.194  30.484  1.00  0.00     0.010 A 
ATOM     36  C   UNL A   1      39.511  29.452  28.328  1.00  0.00     0.010 A 
ATOM     37  C   UNL A   1      40.580  29.627  29.222  1.00  0.00    -0.014 A 
BRANCH  37  38
ATOM     38  C   UNL A   1      41.934  29.160  28.827  1.00  0.00     0.031 A 
ATOM     39  C   UNL A   1      43.065  30.144  28.730  1.00  0.00     0.074 A 
ATOM     40  C   UNL A   1      42.117  27.879  28.446  1.00  0.00     0.049 A 
ATOM     41  N   UNL A   1      44.275  29.968  28.266  1.00  0.00    -0.248 NA
ATOM     42  C   UNL A   1      42.786  31.518  29.178  1.00  0.00     0.031 C 
ATOM     43  C   UNL A   1      41.082  26.839  28.427  1.00  0.00     0.029 A 
ATOM     44  N   UNL A   1      43.237  27.234  27.981  1.00  0.00    -0.354 N 
ATOM     45  C   UNL A   1      44.888  31.212  28.333  1.00  0.00     0.074 A 
ATOM     46  C   UNL A   1      43.904  32.143  28.843  1.00  0.00     0.031 C 
ATOM     47  C   UNL A   1      41.622  25.687  27.997  1.00  0.00     0.029 A 
ATOM     48  C   UNL A   1      43.027  25.910  27.672  1.00  0.00     0.049 A 
ATOM     49  H   UNL A   1      44.110  27.677  27.878  1.00  0.00     0.167 HD
ATOM     50  C   UNL A   1      46.162  31.545  28.019  1.00  0.00     0.037 A 
ATOM     51  C   UNL A   1      43.868  24.982  27.174  1.00  0.00     0.037 A 
ATOM     52  C   UNL A   1      47.153  30.607  27.566  1.00  0.00     0.049 A 
ATOM     53  C   UNL A   1      45.291  25.365  26.875  1.00  0.00     0.074 A 
ATOM     54  C   UNL A   1      48.494  30.830  27.308  1.00  0.00     0.029 A 
ATOM     55  N   UNL A   1      46.914  29.264  27.315  1.00  0.00    -0.354 N 
ATOM     56  N   UNL A   1      45.872  26.534  27.005  1.00  0.00    -0.248 NA
ATOM     57  C   UNL A   1      46.173  24.308  26.361  1.00  0.00     0.031 C 
ATOM     58  C   UNL A   1      49.061  29.625  26.878  1.00  0.00     0.029 A 
ATOM     59  C   UNL A   1      48.079  28.647  26.894  1.00  0.00     0.049 A 
ATOM     60  H   UNL A   1      46.044  28.816  27.421  1.00  0.00     0.167 HD
ATOM     61  C   UNL A   1      47.190  26.350  26.604  1.00  0.00     0.074 A 
ATOM     62  C   UNL A   1      47.325  24.954  26.238  1.00  0.00     0.031 C 
ATOM     63  C   UNL A   1      48.196  27.254  26.543  1.00  0.00     0.037 A 
BRANCH  50  64
ATOM     64  C   UNL A   1      46.555  32.985  28.172  1.00  0.00     0.058 A 
ATOM     65  C   UNL A   1      46.412  33.901  27.118  1.00  0.00     0.135 A 
ATOM     66  C   UNL A   1      47.072  33.460  29.388  1.00  0.00     0.135 A 
ATOM     67  F   UNL A   1      45.939  33.493  25.929  1.00  0.00    -0.206 F 
ATOM     68  C   UNL A   1      46.799  35.229  27.251  1.00  0.00     0.059 A 
ATOM     69  C   UNL A   1      47.444  34.790  29.551  1.00  0.00     0.059 A 
ATOM     70  F   UNL A   1      47.232  32.625  30.427  1.00  0.00    -0.206 F 
ATOM     71  C   UNL A   1      47.321  35.663  28.471  1.00  0.00     0.060 A 
BRANCH  71  72
ATOM     72  S   UNL A   1      47.831  37.387  28.628  1.00  0.00     0.124 S 
ATOM     73  O   UNL A   1      49.269  37.284  28.399  1.00  0.00    -0.237 OA
ATOM     74  O   UNL A   1      47.068  38.040  27.569  1.00  0.00    -0.237 OA
ATOM     75  O   UNL A   1      47.432  37.734  29.988  1.00  0.00    -0.744 OA
ENDBRANCH  71  72
ENDBRANCH  50  64
BRANCH  51  76
ATOM     76  C   UNL A   1      43.394  23.592  26.948  1.00  0.00     0.058 A 
ATOM     77  C   UNL A   1      43.147  23.121  25.650  1.00  0.00     0.135 A 
ATOM     78  C   UNL A   1      43.189  22.706  28.016  1.00  0.00     0.135 A 
ATOM     79  F   UNL A   1      43.324  23.937  24.598  1.00  0.00    -0.206 F 
ATOM     80  C   UNL A   1      42.702  21.824  25.416  1.00  0.00     0.059 A 
ATOM     81  C   UNL A   1      42.762  21.398  27.807  1.00  0.00     0.059 A 
ATOM     82  F   UNL A   1      43.426  23.104  29.275  1.00  0.00    -0.206 F 
ATOM     83  C   UNL A   1      42.513  20.969  26.503  1.00  0.00     0.060 A 
BRANCH  83  84
ATOM     84  S   UNL A   1      41.987  19.270  26.189  1.00  0.00     0.124 S 
ATOM     85  O   UNL A   1      40.551  19.438  26.000  1.00  0.00    -0.237 OA
ATOM     86  O   UNL A   1      42.751  18.924  24.994  1.00  0.00    -0.237 OA
ATOM     87  O   UNL A   1      42.389  18.567  27.403  1.00  0.00    -0.744 OA
ENDBRANCH  83  84
ENDBRANCH  51  76
BRANCH  63  88
ATOM     88  C   UNL A   1      49.538  26.767  26.083  1.00  0.00     0.058 A 
ATOM     89  C   UNL A   1      49.961  26.941  24.757  1.00  0.00     0.135 A 
ATOM     90  C   UNL A   1      50.438  26.194  26.994  1.00  0.00     0.135 A 
ATOM     91  F   UNL A   1      49.132  27.477  23.848  1.00  0.00    -0.206 F 
ATOM     92  C   UNL A   1      51.233  26.557  24.348  1.00  0.00     0.059 A 
ATOM     93  C   UNL A   1      51.722  25.819  26.611  1.00  0.00     0.059 A 
ATOM     94  F   UNL A   1      50.080  26.014  28.276  1.00  0.00    -0.206 F 
ATOM     95  C   UNL A   1      52.108  26.001  25.283  1.00  0.00     0.060 A 
BRANCH  95  96
ATOM     96  S   UNL A   1      53.779  25.562  24.757  1.00  0.00     0.124 S 
ATOM     97  O   UNL A   1      54.588  26.182  25.801  1.00  0.00    -0.237 OA
ATOM     98  O   UNL A   1      53.740  24.103  24.767  1.00  0.00    -0.237 OA
ATOM     99  O   UNL A   1      53.887  26.169  23.433  1.00  0.00    -0.744 OA
ENDBRANCH  95  96
ENDBRANCH  63  88
ENDBRANCH  37  38
ENDBRANCH  29  32
ENDBRANCH  27  28
ENDBRANCH   1  27
TORSDOF 18
ENDMDL
MODEL 2
REMARK VINA RESULT:     -11.8      3.363      5.219
REMARK SMILES CC[NH2+][C@@]1(C(=O)NCCCCNC(=O)c2ccc(-c3c4nc(c(-c5c(F)cc(S(=O)(=O)[O-])cc5F)c5ccc([nH]5)c(-c5c(F)cc(S(=O)(=O)[O-])cc5F)c5nc(c(-c6c(F)cc(S(=O)(=O)[O-])cc6F)c6ccc3[nH]6)C=C5)C=C4)cc2)CCC[C@@H]([N@@H+](C)C2CCCC2)C1
REMARK SMILES IDX 10 1 9 2 8 3 7 4 5 5 6 6 4 8 81 9 92 10 82 11 84 12 83 13
REMARK SMILES IDX 3 14 2 17 1 18 85 19 86 20 87 22 88 23 91 24 89 25 90 26
REMARK SMILES IDX 11 27 12 28 13 29 14 31 15 32 16 33 80 34 17 35 79 36 18 37
REMARK SMILES IDX 19 38 20 39 73 40 21 41 78 42 72 43 74 44 22 45 77 46 71 47
REMARK SMILES IDX 70 48 23 50 57 51 36 52 56 53 37 54 40 55 55 56 75 57 38 58
REMARK SMILES IDX 39 59 54 61 76 62 41 63 24 64 25 65 34 66 26 67 27 68 33 69
REMARK SMILES IDX 35 70 28 71 29 72 30 73 31 74 32 75 58 76 59 77 68 78 60 79
REMARK SMILES IDX 61 80 67 81 69 82 62 83 63 84 64 85 65 86 66 87 42 88 43 89
REMARK SMILES IDX 52 90 44 91 45 92 51 93 53 94 46 95 47 96 48 97 49 98 50 99
REMARK H PARENT 7 7 3 15 3 16 85 21 12 30 74 49 40 60
REMARK Flexibility Score: inf
ROOT
ATOM      1  C   UNL A   1      32.097  28.634  26.488  1.00  0.00     0.023 C 
ENDROOT
BRANCH   1   2
ATOM      2  C   UNL A   1      31.596  27.202  26.622  1.00  0.00     0.023 C 
BRANCH   2   3
ATOM      3  C   UNL A   1      32.610  26.123  26.226  1.00  0.00     0.116 C 
BRANCH   3   4
ATOM      4  N   UNL A   1      32.126  24.804  26.572  1.00  0.00    -0.351 N 
ATOM      5  C   UNL A   1      32.444  23.533  26.252  1.00  0.00     0.281 C 
ATOM      6  O   UNL A   1      31.642  22.695  26.709  1.00  0.00    -0.268 OA
ATOM      7  H   UNL A   1      31.371  24.844  27.201  1.00  0.00     0.163 HD
BRANCH   5   8
ATOM      8  C   UNL A   1      33.668  22.998  25.379  1.00  0.00     0.181 C 
ATOM      9  C   UNL A   1      33.942  23.763  24.079  1.00  0.00     0.079 C 
ATOM     10  C   UNL A   1      33.544  21.487  25.127  1.00  0.00     0.144 C 
ATOM     11  C   UNL A   1      33.376  23.209  22.769  1.00  0.00     0.013 C 
ATOM     12  C   UNL A   1      32.495  21.109  24.090  1.00  0.00     0.190 C 
ATOM     13  C   UNL A   1      32.655  21.861  22.755  1.00  0.00     0.065 C 
BRANCH   8  14
ATOM     14  N   UNL A   1      34.848  23.330  26.280  1.00  0.00    -0.334 N 
ATOM     15  H   UNL A   1      34.494  23.906  27.044  1.00  0.00     0.347 HD
ATOM     16  H   UNL A   1      35.227  22.422  26.549  1.00  0.00     0.347 HD
BRANCH  14  17
ATOM     17  C   UNL A   1      35.981  24.039  25.693  1.00  0.00     0.257 C 
ATOM     18  C   UNL A   1      37.230  23.173  25.790  1.00  0.00     0.071 C 
ENDBRANCH  14  17
ENDBRANCH   8  14
BRANCH  12  19
ATOM     19  N   UNL A   1      32.267  19.648  23.973  1.00  0.00    -0.332 N 
ATOM     20  C   UNL A   1      32.213  19.212  22.574  1.00  0.00     0.333 C 
ATOM     21  H   UNL A   1      31.352  19.580  24.418  1.00  0.00     0.348 HD
BRANCH  19  22
ATOM     22  C   UNL A   1      33.033  18.709  24.801  1.00  0.00     0.184 C 
ATOM     23  C   UNL A   1      32.373  17.430  25.330  1.00  0.00     0.065 C 
ATOM     24  C   UNL A   1      34.368  18.236  24.181  1.00  0.00     0.065 C 
ATOM     25  C   UNL A   1      33.562  16.593  25.771  1.00  0.00     0.006 C 
ATOM     26  C   UNL A   1      34.544  16.782  24.625  1.00  0.00     0.006 C 
ENDBRANCH  19  22
ENDBRANCH  12  19
ENDBRANCH   5   8
ENDBRANCH   3   4
ENDBRANCH   2   3
ENDBRANCH   1   2
BRANCH   1  27
ATOM     27  C   UNL A   1      33.409  28.917  27.202  1.00  0.00     0.116 C 
BRANCH  27  28
ATOM     28  N   UNL A   1      33.515  30.265  27.753  1.00  0.00    -0.352 N 
ATOM     29  C   UNL A   1      34.629  30.848  28.320  1.00  0.00     0.251 C 
ATOM     30  H   UNL A   1      32.701  30.817  27.718  1.00  0.00     0.163 HD
ATOM     31  O   UNL A   1      34.586  31.980  28.789  1.00  0.00    -0.269 OA
BRANCH  29  32
ATOM     32  C   UNL A   1      35.863  30.039  28.399  1.00  0.00     0.039 A 
ATOM     33  C   UNL A   1      36.741  30.045  27.315  1.00  0.00     0.014 A 
ATOM     34  C   UNL A   1      36.225  29.454  29.614  1.00  0.00     0.014 A 
ATOM     35  C   UNL A   1      38.040  29.563  27.489  1.00  0.00     0.010 A 
ATOM     36  C   UNL A   1      37.540  29.051  29.806  1.00  0.00     0.010 A 
ATOM     37  C   UNL A   1      38.468  29.127  28.754  1.00  0.00    -0.014 A 
BRANCH  37  38
ATOM     38  C   UNL A   1      39.891  28.793  29.023  1.00  0.00     0.031 A 
ATOM     39  C   UNL A   1      40.815  29.847  29.564  1.00  0.00     0.074 A 
ATOM     40  C   UNL A   1      40.375  27.583  28.673  1.00  0.00     0.049 A 
ATOM     41  N   UNL A   1      42.112  29.802  29.727  1.00  0.00    -0.248 NA
ATOM     42  C   UNL A   1      40.206  31.134  29.934  1.00  0.00     0.031 C 
ATOM     43  C   UNL A   1      39.595  26.495  28.074  1.00  0.00     0.029 A 
ATOM     44  N   UNL A   1      41.645  27.069  28.754  1.00  0.00    -0.354 N 
ATOM     45  C   UNL A   1      42.478  31.061  30.184  1.00  0.00     0.074 A 
ATOM     46  C   UNL A   1      41.272  31.862  30.231  1.00  0.00     0.031 C 
ATOM     47  C   UNL A   1      40.399  25.440  27.863  1.00  0.00     0.029 A 
ATOM     48  C   UNL A   1      41.756  25.784  28.275  1.00  0.00     0.049 A 
ATOM     49  H   UNL A   1      42.407  27.572  29.122  1.00  0.00     0.167 HD
ATOM     50  C   UNL A   1      43.702  31.506  30.551  1.00  0.00     0.037 A 
ATOM     51  C   UNL A   1      42.830  24.978  28.169  1.00  0.00     0.037 A 
ATOM     52  C   UNL A   1      44.887  30.692  30.556  1.00  0.00     0.049 A 
ATOM     53  C   UNL A   1      44.172  25.478  28.626  1.00  0.00     0.074 A 
ATOM     54  C   UNL A   1      46.157  31.024  30.995  1.00  0.00     0.029 A 
ATOM     55  N   UNL A   1      44.947  29.380  30.112  1.00  0.00    -0.354 N 
ATOM     56  N   UNL A   1      44.488  26.654  29.115  1.00  0.00    -0.248 NA
ATOM     57  C   UNL A   1      45.305  24.548  28.516  1.00  0.00     0.031 C 
ATOM     58  C   UNL A   1      46.991  29.919  30.794  1.00  0.00     0.029 A 
ATOM     59  C   UNL A   1      46.234  28.890  30.255  1.00  0.00     0.049 A 
ATOM     60  H   UNL A   1      44.187  28.871  29.748  1.00  0.00     0.167 HD
ATOM     61  C   UNL A   1      45.850  26.599  29.385  1.00  0.00     0.074 A 
ATOM     62  C   UNL A   1      46.298  25.271  29.016  1.00  0.00     0.031 C 
ATOM     63  C   UNL A   1      46.658  27.562  29.891  1.00  0.00     0.037 A 
BRANCH  50  64
ATOM     64  C   UNL A   1      43.812  32.936  30.992  1.00  0.00     0.058 A 
ATOM     65  C   UNL A   1      43.947  33.981  30.065  1.00  0.00     0.135 A 
ATOM     66  C   UNL A   1      43.773  33.268  32.356  1.00  0.00     0.135 A 
ATOM     67  F   UNL A   1      44.008  33.714  28.750  1.00  0.00    -0.206 F 
ATOM     68  C   UNL A   1      44.075  35.303  30.474  1.00  0.00     0.059 A 
ATOM     69  C   UNL A   1      43.874  34.587  32.786  1.00  0.00     0.059 A 
ATOM     70  F   UNL A   1      43.647  32.306  33.283  1.00  0.00    -0.206 F 
ATOM     71  C   UNL A   1      44.044  35.596  31.839  1.00  0.00     0.060 A 
BRANCH  71  72
ATOM     72  S   UNL A   1      44.221  37.315  32.358  1.00  0.00     0.124 S 
ATOM     73  O   UNL A   1      44.052  38.018  31.090  1.00  0.00    -0.237 OA
ATOM     74  O   UNL A   1      43.132  37.470  33.317  1.00  0.00    -0.237 OA
ATOM     75  O   UNL A   1      45.564  37.359  32.928  1.00  0.00    -0.744 OA
ENDBRANCH  71  72
ENDBRANCH  50  64
BRANCH  51  76
ATOM     76  C   UNL A   1      42.678  23.602  27.630  1.00  0.00     0.058 A 
ATOM     77  C   UNL A   1      42.794  23.355  26.255  1.00  0.00     0.135 A 
ATOM     78  C   UNL A   1      42.426  22.509  28.473  1.00  0.00     0.135 A 
ATOM     79  F   UNL A   1      43.028  24.372  25.409  1.00  0.00    -0.206 F 
ATOM     80  C   UNL A   1      42.654  22.075  25.728  1.00  0.00     0.059 A 
ATOM     81  C   UNL A   1      42.301  21.215  27.972  1.00  0.00     0.059 A 
ATOM     82  F   UNL A   1      42.323  22.691  29.797  1.00  0.00    -0.206 F 
ATOM     83  C   UNL A   1      42.408  21.010  26.597  1.00  0.00     0.060 A 
BRANCH  83  84
ATOM     84  S   UNL A   1      42.281  19.343  25.913  1.00  0.00     0.124 S 
ATOM     85  O   UNL A   1      43.108  19.453  24.717  1.00  0.00    -0.237 OA
ATOM     86  O   UNL A   1      42.824  18.523  26.992  1.00  0.00    -0.237 OA
ATOM     87  O   UNL A   1      40.848  19.187  25.681  1.00  0.00    -0.744 OA
ENDBRANCH  83  84
ENDBRANCH  51  76
BRANCH  63  88
ATOM     88  C   UNL A   1      48.103  27.217  30.097  1.00  0.00     0.058 A 
ATOM     89  C   UNL A   1      49.072  27.533  29.133  1.00  0.00     0.135 A 
ATOM     90  C   UNL A   1      48.533  26.636  31.299  1.00  0.00     0.135 A 
ATOM     91  F   UNL A   1      48.708  28.082  27.964  1.00  0.00    -0.206 F 
ATOM     92  C   UNL A   1      50.421  27.280  29.354  1.00  0.00     0.059 A 
ATOM     93  C   UNL A   1      49.879  26.391  31.550  1.00  0.00     0.059 A 
ATOM     94  F   UNL A   1      47.642  26.322  32.254  1.00  0.00    -0.206 F 
ATOM     95  C   UNL A   1      50.816  26.713  30.567  1.00  0.00     0.060 A 
BRANCH  95  96
ATOM     96  S   UNL A   1      52.576  26.446  30.871  1.00  0.00     0.124 S 
ATOM     97  O   UNL A   1      52.941  27.671  31.574  1.00  0.00    -0.237 OA
ATOM     98  O   UNL A   1      52.575  25.229  31.677  1.00  0.00    -0.237 OA
ATOM     99  O   UNL A   1      53.131  26.300  29.529  1.00  0.00    -0.744 OA
ENDBRANCH  95  96
ENDBRANCH  63  88
ENDBRANCH  37  38
ENDBRANCH  29  32
ENDBRANCH  27  28
ENDBRANCH   1  27
TORSDOF 18
ENDMDL
MODEL 3
REMARK VINA RESULT:     -11.6      1.189      3.077
REMARK SMILES CC[NH2+][C@@]1(C(=O)NCCCCNC(=O)c2ccc(-c3c4nc(c(-c5c(F)cc(S(=O)(=O)[O-])cc5F)c5ccc([nH]5)c(-c5c(F)cc(S(=O)(=O)[O-])cc5F)c5nc(c(-c6c(F)cc(S(=O)(=O)[O-])cc6F)c6ccc3[nH]6)C=C5)C=C4)cc2)CCC[C@@H]([N@@H+](C)C2CCCC2)C1
REMARK SMILES IDX 10 1 9 2 8 3 7 4 5 5 6 6 4 8 81 9 92 10 82 11 84 12 83 13
REMARK SMILES IDX 3 14 2 17 1 18 85 19 86 20 87 22 88 23 91 24 89 25 90 26
REMARK SMILES IDX 11 27 12 28 13 29 14 31 15 32 16 33 80 34 17 35 79 36 18 37
REMARK SMILES IDX 19 38 20 39 73 40 21 41 78 42 72 43 74 44 22 45 77 46 71 47
REMARK SMILES IDX 70 48 23 50 57 51 36 52 56 53 37 54 40 55 55 56 75 57 38 58
REMARK SMILES IDX 39 59 54 61 76 62 41 63 24 64 25 65 34 66 26 67 27 68 33 69
REMARK SMILES IDX 35 70 28 71 29 72 30 73 31 74 32 75 58 76 59 77 68 78 60 79
REMARK SMILES IDX 61 80 67 81 69 82 62 83 63 84 64 85 65 86 66 87 42 88 43 89
REMARK SMILES IDX 52 90 44 91 45 92 51 93 53 94 46 95 47 96 48 97 49 98 50 99
REMARK H PARENT 7 7 3 15 3 16 85 21 12 30 74 49 40 60
REMARK Flexibility Score: inf
ROOT
ATOM      1  C   UNL A   1      35.018  32.070  28.210  1.00  0.00     0.023 C 
ENDROOT
BRANCH   1   2
ATOM      2  C   UNL A   1      34.705  30.631  27.823  1.00  0.00     0.023 C 
BRANCH   2   3
ATOM      3  C   UNL A   1      33.441  30.452  26.972  1.00  0.00     0.116 C 
BRANCH   3   4
ATOM      4  N   UNL A   1      32.615  29.383  27.490  1.00  0.00    -0.351 N 
ATOM      5  C   UNL A   1      32.004  28.291  26.988  1.00  0.00     0.281 C 
ATOM      6  O   UNL A   1      31.270  27.713  27.814  1.00  0.00    -0.268 OA
ATOM      7  H   UNL A   1      32.458  29.477  28.457  1.00  0.00     0.163 HD
BRANCH   5   8
ATOM      8  C   UNL A   1      32.093  27.685  25.514  1.00  0.00     0.181 C 
ATOM      9  C   UNL A   1      30.756  27.302  24.871  1.00  0.00     0.079 C 
ATOM     10  C   UNL A   1      33.097  26.522  25.458  1.00  0.00     0.144 C 
ATOM     11  C   UNL A   1      30.301  25.842  24.937  1.00  0.00     0.013 C 
ATOM     12  C   UNL A   1      32.592  25.228  26.081  1.00  0.00     0.190 C 
ATOM     13  C   UNL A   1      31.225  24.778  25.532  1.00  0.00     0.065 C 
BRANCH   8  14
ATOM     14  N   UNL A   1      32.573  28.891  24.721  1.00  0.00    -0.334 N 
ATOM     15  H   UNL A   1      32.062  29.704  25.065  1.00  0.00     0.347 HD
ATOM     16  H   UNL A   1      33.583  28.907  24.868  1.00  0.00     0.347 HD
BRANCH  14  17
ATOM     17  C   UNL A   1      32.418  28.864  23.271  1.00  0.00     0.257 C 
ATOM     18  C   UNL A   1      33.707  28.369  22.628  1.00  0.00     0.071 C 
ENDBRANCH  14  17
ENDBRANCH   8  14
BRANCH  12  19
ATOM     19  N   UNL A   1      33.621  24.164  26.171  1.00  0.00    -0.332 N 
ATOM     20  C   UNL A   1      33.024  22.827  26.236  1.00  0.00     0.333 C 
ATOM     21  H   UNL A   1      34.056  24.419  27.058  1.00  0.00     0.348 HD
BRANCH  19  22
ATOM     22  C   UNL A   1      34.793  24.189  25.287  1.00  0.00     0.184 C 
ATOM     23  C   UNL A   1      36.148  23.674  25.786  1.00  0.00     0.065 C 
ATOM     24  C   UNL A   1      34.588  23.499  23.919  1.00  0.00     0.065 C 
ATOM     25  C   UNL A   1      36.942  23.509  24.500  1.00  0.00     0.006 C 
ATOM     26  C   UNL A   1      35.933  22.856  23.568  1.00  0.00     0.006 C 
ENDBRANCH  19  22
ENDBRANCH  12  19
ENDBRANCH   5   8
ENDBRANCH   3   4
ENDBRANCH   2   3
ENDBRANCH   1   2
BRANCH   1  27
ATOM     27  C   UNL A   1      35.924  32.219  29.421  1.00  0.00     0.116 C 
BRANCH  27  28
ATOM     28  N   UNL A   1      35.722  31.205  30.452  1.00  0.00    -0.352 N 
ATOM     29  C   UNL A   1      36.659  30.320  30.945  1.00  0.00     0.251 C 
ATOM     30  H   UNL A   1      34.818  31.145  30.837  1.00  0.00     0.163 HD
ATOM     31  O   UNL A   1      36.360  29.480  31.787  1.00  0.00    -0.269 OA
BRANCH  29  32
ATOM     32  C   UNL A   1      38.022  30.376  30.378  1.00  0.00     0.039 A 
ATOM     33  C   UNL A   1      39.099  30.593  31.238  1.00  0.00     0.014 A 
ATOM     34  C   UNL A   1      38.228  30.015  29.045  1.00  0.00     0.014 A 
ATOM     35  C   UNL A   1      40.394  30.330  30.786  1.00  0.00     0.010 A 
ATOM     36  C   UNL A   1      39.509  29.677  28.625  1.00  0.00     0.010 A 
ATOM     37  C   UNL A   1      40.601  29.805  29.500  1.00  0.00    -0.014 A 
BRANCH  37  38
ATOM     38  C   UNL A   1      41.938  29.330  29.057  1.00  0.00     0.031 A 
ATOM     39  C   UNL A   1      43.072  30.307  28.931  1.00  0.00     0.074 A 
ATOM     40  C   UNL A   1      42.098  28.052  28.659  1.00  0.00     0.049 A 
ATOM     41  N   UNL A   1      44.265  30.126  28.427  1.00  0.00    -0.248 NA
ATOM     42  C   UNL A   1      42.819  31.679  29.400  1.00  0.00     0.031 C 
ATOM     43  C   UNL A   1      41.056  27.020  28.666  1.00  0.00     0.029 A 
ATOM     44  N   UNL A   1      43.197  27.402  28.152  1.00  0.00    -0.354 N 
ATOM     45  C   UNL A   1      44.890  31.365  28.484  1.00  0.00     0.074 A 
ATOM     46  C   UNL A   1      43.930  32.299  29.034  1.00  0.00     0.031 C 
ATOM     47  C   UNL A   1      41.572  25.867  28.208  1.00  0.00     0.029 A 
ATOM     48  C   UNL A   1      42.967  26.083  27.840  1.00  0.00     0.049 A 
ATOM     49  H   UNL A   1      44.070  27.841  28.025  1.00  0.00     0.167 HD
ATOM     50  C   UNL A   1      46.155  31.692  28.132  1.00  0.00     0.037 A 
ATOM     51  C   UNL A   1      43.784  25.154  27.307  1.00  0.00     0.037 A 
ATOM     52  C   UNL A   1      47.123  30.750  27.639  1.00  0.00     0.049 A 
ATOM     53  C   UNL A   1      45.200  25.528  26.965  1.00  0.00     0.074 A 
ATOM     54  C   UNL A   1      48.457  30.965  27.339  1.00  0.00     0.029 A 
ATOM     55  N   UNL A   1      46.866  29.411  27.385  1.00  0.00    -0.354 N 
ATOM     56  N   UNL A   1      45.794  26.692  27.085  1.00  0.00    -0.248 NA
ATOM     57  C   UNL A   1      46.057  24.469  26.413  1.00  0.00     0.031 C 
ATOM     58  C   UNL A   1      49.001  29.760  26.881  1.00  0.00     0.029 A 
ATOM     59  C   UNL A   1      48.013  28.789  26.921  1.00  0.00     0.049 A 
ATOM     60  H   UNL A   1      45.996  28.969  27.515  1.00  0.00     0.167 HD
ATOM     61  C   UNL A   1      47.096  26.501  26.640  1.00  0.00     0.074 A 
ATOM     62  C   UNL A   1      47.209  25.108  26.258  1.00  0.00     0.031 C 
ATOM     63  C   UNL A   1      48.107  27.399  26.554  1.00  0.00     0.037 A 
BRANCH  50  64
ATOM     64  C   UNL A   1      46.564  33.127  28.285  1.00  0.00     0.058 A 
ATOM     65  C   UNL A   1      47.114  33.609  29.483  1.00  0.00     0.135 A 
ATOM     66  C   UNL A   1      46.414  34.031  27.221  1.00  0.00     0.135 A 
ATOM     67  F   UNL A   1      47.262  32.789  30.536  1.00  0.00    -0.206 F 
ATOM     68  C   UNL A   1      47.470  34.944  29.634  1.00  0.00     0.059 A 
ATOM     69  C   UNL A   1      46.786  35.366  27.342  1.00  0.00     0.059 A 
ATOM     70  F   UNL A   1      45.890  33.622  26.055  1.00  0.00    -0.206 F 
ATOM     71  C   UNL A   1      47.295  35.817  28.559  1.00  0.00     0.060 A 
BRANCH  71  72
ATOM     72  S   UNL A   1      47.750  37.551  28.771  1.00  0.00     0.124 S 
ATOM     73  O   UNL A   1      48.974  37.626  27.978  1.00  0.00    -0.237 OA
ATOM     74  O   UNL A   1      46.595  38.251  28.219  1.00  0.00    -0.237 OA
ATOM     75  O   UNL A   1      47.926  37.679  30.215  1.00  0.00    -0.744 OA
ENDBRANCH  71  72
ENDBRANCH  50  64
BRANCH  51  76
ATOM     76  C   UNL A   1      43.293  23.769  27.084  1.00  0.00     0.058 A 
ATOM     77  C   UNL A   1      42.948  23.329  25.798  1.00  0.00     0.135 A 
ATOM     78  C   UNL A   1      43.168  22.858  28.144  1.00  0.00     0.135 A 
ATOM     79  F   UNL A   1      43.045  24.169  24.755  1.00  0.00    -0.206 F 
ATOM     80  C   UNL A   1      42.485  22.038  25.568  1.00  0.00     0.059 A 
ATOM     81  C   UNL A   1      42.725  21.554  27.936  1.00  0.00     0.059 A 
ATOM     82  F   UNL A   1      43.500  23.226  29.390  1.00  0.00    -0.206 F 
ATOM     83  C   UNL A   1      42.377  21.157  26.646  1.00  0.00     0.060 A 
BRANCH  83  84
ATOM     84  S   UNL A   1      41.826  19.465  26.332  1.00  0.00     0.124 S 
ATOM     85  O   UNL A   1      40.383  19.642  26.228  1.00  0.00    -0.237 OA
ATOM     86  O   UNL A   1      42.520  19.138  25.090  1.00  0.00    -0.237 OA
ATOM     87  O   UNL A   1      42.293  18.739  27.510  1.00  0.00    -0.744 OA
ENDBRANCH  83  84
ENDBRANCH  51  76
BRANCH  63  88
ATOM     88  C   UNL A   1      49.430  26.906  26.047  1.00  0.00     0.058 A 
ATOM     89  C   UNL A   1      49.822  27.110  24.716  1.00  0.00     0.135 A 
ATOM     90  C   UNL A   1      50.344  26.295  26.918  1.00  0.00     0.135 A 
ATOM     91  F   UNL A   1      48.978  27.683  23.843  1.00  0.00    -0.206 F 
ATOM     92  C   UNL A   1      51.077  26.720  24.263  1.00  0.00     0.059 A 
ATOM     93  C   UNL A   1      51.612  25.913  26.492  1.00  0.00     0.059 A 
ATOM     94  F   UNL A   1      50.017  26.085  28.204  1.00  0.00    -0.206 F 
ATOM     95  C   UNL A   1      51.967  26.126  25.160  1.00  0.00     0.060 A 
BRANCH  95  96
ATOM     96  S   UNL A   1      53.618  25.679  24.579  1.00  0.00     0.124 S 
ATOM     97  O   UNL A   1      53.658  24.251  24.879  1.00  0.00    -0.237 OA
ATOM     98  O   UNL A   1      53.559  26.027  23.163  1.00  0.00    -0.237 OA
ATOM     99  O   UNL A   1      54.499  26.517  25.387  1.00  0.00    -0.744 OA
ENDBRANCH  95  96
ENDBRANCH  63  88
ENDBRANCH  37  38
ENDBRANCH  29  32
ENDBRANCH  27  28
ENDBRANCH   1  27
TORSDOF 18
ENDMDL
