MODEL 1
REMARK VINA RESULT:     -11.1      0.000      0.000
REMARK SMILES C[C@@H](C(=O)NCCCCNC(=O)c1ccc(-c2c3nc(c(-c4c(F)cc(S(=O)(=O)[O-])cc4F)c4ccc([nH]4)c(-c4c(F)cc(S(=O)(=O)[O-])cc4F)c4nc(c(-c5c(F)cc(S(=O)(=O)[O-])cc5F)c5ccc2[nH]5)C=C4)C=C3)cc1)c1ccc(C[C@H]2CCC[C@@H]2O)cc1F
REMARK SMILES IDX 7 1 6 2 5 3 3 4 4 5 2 7 1 8 79 9 80 10 91 11 81 12 90 13
REMARK SMILES IDX 92 14 82 15 83 16 84 17 85 18 88 19 86 20 87 21 89 22 8 24
REMARK SMILES IDX 9 25 10 26 11 27 12 29 13 30 14 31 78 32 15 33 77 34 16 35
REMARK SMILES IDX 17 36 18 37 71 38 19 39 76 40 70 41 72 42 20 43 75 44 69 45
REMARK SMILES IDX 68 46 21 48 55 49 34 50 54 51 35 52 38 53 53 54 73 55 36 56
REMARK SMILES IDX 37 57 52 59 74 60 39 61 22 62 23 63 32 64 24 65 25 66 31 67
REMARK SMILES IDX 33 68 26 69 27 70 28 71 29 72 30 73 56 74 57 75 66 76 58 77
REMARK SMILES IDX 59 78 65 79 67 80 60 81 61 82 62 83 63 84 64 85 40 86 41 87
REMARK SMILES IDX 50 88 42 89 43 90 49 91 51 92 44 93 45 94 46 95 47 96 48 97
REMARK H PARENT 5 6 89 23 10 28 72 47 38 58
REMARK Flexibility Score: inf
ROOT
ATOM      1  C   UNL A   1      34.441  34.833  27.778  1.00  0.00     0.023 C 
ENDROOT
BRANCH   1   2
ATOM      2  C   UNL A   1      33.336  34.954  28.826  1.00  0.00     0.116 C 
BRANCH   2   3
ATOM      3  N   UNL A   1      33.433  36.212  29.536  1.00  0.00    -0.356 N 
ATOM      4  C   UNL A   1      33.058  36.528  30.810  1.00  0.00     0.227 C 
ATOM      5  O   UNL A   1      33.132  37.714  31.137  1.00  0.00    -0.274 OA
ATOM      6  H   UNL A   1      33.830  36.952  29.022  1.00  0.00     0.163 HD
BRANCH   4   7
ATOM      7  C   UNL A   1      32.644  35.415  31.785  1.00  0.00     0.108 C 
ATOM      8  C   UNL A   1      31.598  35.878  32.804  1.00  0.00     0.023 C 
BRANCH   7   9
ATOM      9  C   UNL A   1      33.865  34.776  32.435  1.00  0.00    -0.000 A 
ATOM     10  C   UNL A   1      34.365  33.574  31.912  1.00  0.00     0.008 A 
ATOM     11  C   UNL A   1      34.540  35.346  33.518  1.00  0.00     0.127 A 
ATOM     12  C   UNL A   1      35.449  32.929  32.510  1.00  0.00     0.004 A 
ATOM     13  C   UNL A   1      35.599  34.691  34.139  1.00  0.00     0.043 A 
ATOM     14  F   UNL A   1      34.160  36.529  34.021  1.00  0.00    -0.207 F 
ATOM     15  C   UNL A   1      36.036  33.448  33.668  1.00  0.00    -0.045 A 
BRANCH  15  16
ATOM     16  C   UNL A   1      37.086  32.680  34.431  1.00  0.00     0.041 C 
BRANCH  16  17
ATOM     17  C   UNL A   1      38.032  31.820  33.571  1.00  0.00     0.022 C 
ATOM     18  C   UNL A   1      39.538  32.103  33.731  1.00  0.00     0.007 C 
ATOM     19  C   UNL A   1      37.907  30.305  33.757  1.00  0.00     0.117 C 
ATOM     20  C   UNL A   1      40.240  30.747  33.618  1.00  0.00     0.003 C 
ATOM     21  C   UNL A   1      39.181  29.781  33.113  1.00  0.00     0.032 C 
BRANCH  19  22
ATOM     22  O   UNL A   1      36.765  29.782  33.105  1.00  0.00    -0.393 OA
ATOM     23  H   UNL A   1      36.894  29.827  32.144  1.00  0.00     0.210 HD
ENDBRANCH  19  22
ENDBRANCH  16  17
ENDBRANCH  15  16
ENDBRANCH   7   9
ENDBRANCH   4   7
ENDBRANCH   2   3
ENDBRANCH   1   2
BRANCH   1  24
ATOM     24  C   UNL A   1      35.413  33.674  28.014  1.00  0.00     0.023 C 
BRANCH  24  25
ATOM     25  C   UNL A   1      34.956  32.648  29.044  1.00  0.00     0.116 C 
BRANCH  25  26
ATOM     26  N   UNL A   1      34.100  31.619  28.473  1.00  0.00    -0.352 N 
ATOM     27  C   UNL A   1      34.443  30.359  28.048  1.00  0.00     0.251 C 
ATOM     28  H   UNL A   1      33.150  31.859  28.379  1.00  0.00     0.163 HD
ATOM     29  O   UNL A   1      33.618  29.662  27.463  1.00  0.00    -0.269 OA
BRANCH  27  30
ATOM     30  C   UNL A   1      35.819  29.868  28.267  1.00  0.00     0.039 A 
ATOM     31  C   UNL A   1      36.737  29.940  27.217  1.00  0.00     0.014 A 
ATOM     32  C   UNL A   1      36.209  29.369  29.514  1.00  0.00     0.014 A 
ATOM     33  C   UNL A   1      38.065  29.571  27.436  1.00  0.00     0.010 A 
ATOM     34  C   UNL A   1      37.545  29.066  29.749  1.00  0.00     0.010 A 
ATOM     35  C   UNL A   1      38.488  29.166  28.714  1.00  0.00    -0.014 A 
BRANCH  35  36
ATOM     36  C   UNL A   1      39.912  28.847  28.989  1.00  0.00     0.031 A 
ATOM     37  C   UNL A   1      40.818  29.892  29.581  1.00  0.00     0.074 A 
ATOM     38  C   UNL A   1      40.403  27.640  28.644  1.00  0.00     0.049 A 
ATOM     39  N   UNL A   1      42.102  29.829  29.822  1.00  0.00    -0.248 NA
ATOM     40  C   UNL A   1      40.204  31.184  29.923  1.00  0.00     0.031 C 
ATOM     41  C   UNL A   1      39.634  26.560  28.022  1.00  0.00     0.029 A 
ATOM     42  N   UNL A   1      41.668  27.120  28.759  1.00  0.00    -0.354 N 
ATOM     43  C   UNL A   1      42.452  31.073  30.334  1.00  0.00     0.074 A 
ATOM     44  C   UNL A   1      41.257  31.888  30.316  1.00  0.00     0.031 C 
ATOM     45  C   UNL A   1      40.436  25.500  27.832  1.00  0.00     0.029 A 
ATOM     46  C   UNL A   1      41.783  25.836  28.283  1.00  0.00     0.049 A 
ATOM     47  H   UNL A   1      42.422  27.621  29.146  1.00  0.00     0.167 HD
ATOM     48  C   UNL A   1      43.654  31.490  30.798  1.00  0.00     0.037 A 
ATOM     49  C   UNL A   1      42.854  25.022  28.213  1.00  0.00     0.037 A 
ATOM     50  C   UNL A   1      44.834  30.667  30.834  1.00  0.00     0.049 A 
ATOM     51  C   UNL A   1      44.181  25.510  28.729  1.00  0.00     0.074 A 
ATOM     52  C   UNL A   1      46.088  30.981  31.328  1.00  0.00     0.029 A 
ATOM     53  N   UNL A   1      44.907  29.365  30.358  1.00  0.00    -0.354 N 
ATOM     54  N   UNL A   1      44.482  26.673  29.257  1.00  0.00    -0.248 NA
ATOM     55  C   UNL A   1      45.312  24.576  28.645  1.00  0.00     0.031 C 
ATOM     56  C   UNL A   1      46.929  29.884  31.116  1.00  0.00     0.029 A 
ATOM     57  C   UNL A   1      46.188  28.868  30.532  1.00  0.00     0.049 A 
ATOM     58  H   UNL A   1      44.159  28.869  29.955  1.00  0.00     0.167 HD
ATOM     59  C   UNL A   1      45.830  26.600  29.593  1.00  0.00     0.074 A 
ATOM     60  C   UNL A   1      46.282  25.275  29.218  1.00  0.00     0.031 C 
ATOM     61  C   UNL A   1      46.620  27.543  30.162  1.00  0.00     0.037 A 
BRANCH  48  62
ATOM     62  C   UNL A   1      43.748  32.900  31.315  1.00  0.00     0.058 A 
ATOM     63  C   UNL A   1      44.047  33.976  30.464  1.00  0.00     0.135 A 
ATOM     64  C   UNL A   1      43.506  33.184  32.669  1.00  0.00     0.135 A 
ATOM     65  F   UNL A   1      44.303  33.759  29.164  1.00  0.00    -0.206 F 
ATOM     66  C   UNL A   1      44.135  35.279  30.942  1.00  0.00     0.059 A 
ATOM     67  C   UNL A   1      43.561  34.484  33.163  1.00  0.00     0.059 A 
ATOM     68  F   UNL A   1      43.217  32.193  33.526  1.00  0.00    -0.206 F 
ATOM     69  C   UNL A   1      43.892  35.524  32.294  1.00  0.00     0.060 A 
BRANCH  69  70
ATOM     70  S   UNL A   1      44.008  37.221  32.898  1.00  0.00     0.124 S 
ATOM     71  O   UNL A   1      43.864  37.980  31.660  1.00  0.00    -0.237 OA
ATOM     72  O   UNL A   1      42.883  37.300  33.824  1.00  0.00    -0.237 OA
ATOM     73  O   UNL A   1      45.329  37.272  33.516  1.00  0.00    -0.744 OA
ENDBRANCH  69  70
ENDBRANCH  48  62
BRANCH  49  74
ATOM     74  C   UNL A   1      42.710  23.649  27.658  1.00  0.00     0.058 A 
ATOM     75  C   UNL A   1      42.473  22.556  28.502  1.00  0.00     0.135 A 
ATOM     76  C   UNL A   1      42.791  23.406  26.279  1.00  0.00     0.135 A 
ATOM     77  F   UNL A   1      42.393  22.737  29.830  1.00  0.00    -0.206 F 
ATOM     78  C   UNL A   1      42.335  21.265  28.003  1.00  0.00     0.059 A 
ATOM     79  C   UNL A   1      42.633  22.128  25.752  1.00  0.00     0.059 A 
ATOM     80  F   UNL A   1      43.000  24.422  25.428  1.00  0.00    -0.206 F 
ATOM     81  C   UNL A   1      42.414  21.062  26.623  1.00  0.00     0.060 A 
BRANCH  81  82
ATOM     82  S   UNL A   1      42.186  19.389  25.981  1.00  0.00     0.124 S 
ATOM     83  O   UNL A   1      42.685  18.579  27.086  1.00  0.00    -0.237 OA
ATOM     84  O   UNL A   1      40.744  19.342  25.755  1.00  0.00    -0.237 OA
ATOM     85  O   UNL A   1      43.003  19.381  24.771  1.00  0.00    -0.744 OA
ENDBRANCH  81  82
ENDBRANCH  49  74
BRANCH  61  86
ATOM     86  C   UNL A   1      48.047  27.168  30.450  1.00  0.00     0.058 A 
ATOM     87  C   UNL A   1      49.083  27.468  29.553  1.00  0.00     0.135 A 
ATOM     88  C   UNL A   1      48.387  26.552  31.665  1.00  0.00     0.135 A 
ATOM     89  F   UNL A   1      48.810  28.051  28.375  1.00  0.00    -0.206 F 
ATOM     90  C   UNL A   1      50.406  27.150  29.841  1.00  0.00     0.059 A 
ATOM     91  C   UNL A   1      49.707  26.249  31.985  1.00  0.00     0.059 A 
ATOM     92  F   UNL A   1      47.434  26.253  32.562  1.00  0.00    -0.206 F 
ATOM     93  C   UNL A   1      50.709  26.542  31.061  1.00  0.00     0.060 A 
BRANCH  93  94
ATOM     94  S   UNL A   1      52.434  26.169  31.440  1.00  0.00     0.124 S 
ATOM     95  O   UNL A   1      53.055  26.287  30.125  1.00  0.00    -0.237 OA
ATOM     96  O   UNL A   1      52.777  27.214  32.399  1.00  0.00    -0.237 OA
ATOM     97  O   UNL A   1      52.377  24.817  31.988  1.00  0.00    -0.744 OA
ENDBRANCH  93  94
ENDBRANCH  61  86
ENDBRANCH  35  36
ENDBRANCH  27  30
ENDBRANCH  25  26
ENDBRANCH  24  25
ENDBRANCH   1  24
TORSDOF 18
ENDMDL
MODEL 2
REMARK VINA RESULT:     -10.9      3.189     12.239
REMARK SMILES C[C@@H](C(=O)NCCCCNC(=O)c1ccc(-c2c3nc(c(-c4c(F)cc(S(=O)(=O)[O-])cc4F)c4ccc([nH]4)c(-c4c(F)cc(S(=O)(=O)[O-])cc4F)c4nc(c(-c5c(F)cc(S(=O)(=O)[O-])cc5F)c5ccc2[nH]5)C=C4)C=C3)cc1)c1ccc(C[C@H]2CCC[C@@H]2O)cc1F
REMARK SMILES IDX 7 1 6 2 5 3 3 4 4 5 2 7 1 8 79 9 80 10 91 11 81 12 90 13
REMARK SMILES IDX 92 14 82 15 83 16 84 17 85 18 88 19 86 20 87 21 89 22 8 24
REMARK SMILES IDX 9 25 10 26 11 27 12 29 13 30 14 31 78 32 15 33 77 34 16 35
REMARK SMILES IDX 17 36 18 37 71 38 19 39 76 40 70 41 72 42 20 43 75 44 69 45
REMARK SMILES IDX 68 46 21 48 55 49 34 50 54 51 35 52 38 53 53 54 73 55 36 56
REMARK SMILES IDX 37 57 52 59 74 60 39 61 22 62 23 63 32 64 24 65 25 66 31 67
REMARK SMILES IDX 33 68 26 69 27 70 28 71 29 72 30 73 56 74 57 75 66 76 58 77
REMARK SMILES IDX 59 78 65 79 67 80 60 81 61 82 62 83 63 84 64 85 40 86 41 87
REMARK SMILES IDX 50 88 42 89 43 90 49 91 51 92 44 93 45 94 46 95 47 96 48 97
REMARK H PARENT 5 6 89 23 10 28 72 47 38 58
REMARK Flexibility Score: inf
ROOT
ATOM      1  C   UNL A   1      42.408  19.746  27.535  1.00  0.00     0.023 C 
ENDROOT
BRANCH   1   2
ATOM      2  C   UNL A   1      42.670  18.627  26.527  1.00  0.00     0.116 C 
BRANCH   2   3
ATOM      3  N   UNL A   1      44.089  18.374  26.394  1.00  0.00    -0.356 N 
ATOM      4  C   UNL A   1      44.941  18.692  25.377  1.00  0.00     0.227 C 
ATOM      5  O   UNL A   1      46.089  18.248  25.449  1.00  0.00    -0.274 OA
ATOM      6  H   UNL A   1      44.501  17.900  27.153  1.00  0.00     0.163 HD
BRANCH   4   7
ATOM      7  C   UNL A   1      44.475  19.627  24.251  1.00  0.00     0.108 C 
ATOM      8  C   UNL A   1      44.914  19.149  22.863  1.00  0.00     0.023 C 
BRANCH   7   9
ATOM      9  C   UNL A   1      44.876  21.068  24.537  1.00  0.00    -0.000 A 
ATOM     10  C   UNL A   1      43.889  21.986  24.927  1.00  0.00     0.008 A 
ATOM     11  C   UNL A   1      46.196  21.524  24.461  1.00  0.00     0.127 A 
ATOM     12  C   UNL A   1      44.206  23.328  25.147  1.00  0.00     0.004 A 
ATOM     13  C   UNL A   1      46.511  22.866  24.646  1.00  0.00     0.043 A 
ATOM     14  F   UNL A   1      47.198  20.684  24.166  1.00  0.00    -0.207 F 
ATOM     15  C   UNL A   1      45.509  23.794  24.946  1.00  0.00    -0.045 A 
BRANCH  15  16
ATOM     16  C   UNL A   1      45.835  25.265  25.004  1.00  0.00     0.041 C 
BRANCH  16  17
ATOM     17  C   UNL A   1      44.945  26.105  25.941  1.00  0.00     0.022 C 
ATOM     18  C   UNL A   1      45.666  26.821  27.098  1.00  0.00     0.007 C 
ATOM     19  C   UNL A   1      44.122  27.206  25.265  1.00  0.00     0.117 C 
ATOM     20  C   UNL A   1      44.955  28.166  27.275  1.00  0.00     0.003 C 
ATOM     21  C   UNL A   1      43.690  28.071  26.438  1.00  0.00     0.032 C 
BRANCH  19  22
ATOM     22  O   UNL A   1      42.995  26.685  24.586  1.00  0.00    -0.393 OA
ATOM     23  H   UNL A   1      43.292  26.139  23.841  1.00  0.00     0.210 HD
ENDBRANCH  19  22
ENDBRANCH  16  17
ENDBRANCH  15  16
ENDBRANCH   7   9
ENDBRANCH   4   7
ENDBRANCH   2   3
ENDBRANCH   1   2
BRANCH   1  24
ATOM     24  C   UNL A   1      40.981  20.300  27.510  1.00  0.00     0.023 C 
BRANCH  24  25
ATOM     25  C   UNL A   1      40.854  21.730  27.001  1.00  0.00     0.116 C 
BRANCH  25  26
ATOM     26  N   UNL A   1      39.738  21.906  26.085  1.00  0.00    -0.352 N 
ATOM     27  C   UNL A   1      38.928  23.003  25.921  1.00  0.00     0.251 C 
ATOM     28  H   UNL A   1      39.536  21.136  25.506  1.00  0.00     0.163 HD
ATOM     29  O   UNL A   1      37.941  22.936  25.194  1.00  0.00    -0.269 OA
BRANCH  27  30
ATOM     30  C   UNL A   1      39.236  24.248  26.655  1.00  0.00     0.039 A 
ATOM     31  C   UNL A   1      38.706  24.426  27.935  1.00  0.00     0.014 A 
ATOM     32  C   UNL A   1      40.069  25.221  26.093  1.00  0.00     0.014 A 
ATOM     33  C   UNL A   1      39.066  25.551  28.679  1.00  0.00     0.010 A 
ATOM     34  C   UNL A   1      40.479  26.305  26.861  1.00  0.00     0.010 A 
ATOM     35  C   UNL A   1      39.983  26.481  28.163  1.00  0.00    -0.014 A 
BRANCH  35  36
ATOM     36  C   UNL A   1      40.442  27.641  28.969  1.00  0.00     0.031 A 
ATOM     37  C   UNL A   1      41.780  27.601  29.655  1.00  0.00     0.074 A 
ATOM     38  C   UNL A   1      39.624  28.699  29.136  1.00  0.00     0.049 A 
ATOM     39  N   UNL A   1      42.320  28.479  30.459  1.00  0.00    -0.248 NA
ATOM     40  C   UNL A   1      42.607  26.407  29.425  1.00  0.00     0.031 C 
ATOM     41  C   UNL A   1      38.285  28.835  28.559  1.00  0.00     0.029 A 
ATOM     42  N   UNL A   1      39.796  29.860  29.848  1.00  0.00    -0.354 N 
ATOM     43  C   UNL A   1      43.544  27.941  30.839  1.00  0.00     0.074 A 
ATOM     44  C   UNL A   1      43.641  26.636  30.222  1.00  0.00     0.031 C 
ATOM     45  C   UNL A   1      37.768  30.020  28.920  1.00  0.00     0.029 A 
ATOM     46  C   UNL A   1      38.719  30.712  29.783  1.00  0.00     0.049 A 
ATOM     47  H   UNL A   1      40.613  30.063  30.358  1.00  0.00     0.167 HD
ATOM     48  C   UNL A   1      44.509  28.493  31.614  1.00  0.00     0.037 A 
ATOM     49  C   UNL A   1      38.518  31.913  30.359  1.00  0.00     0.037 A 
ATOM     50  C   UNL A   1      44.415  29.801  32.208  1.00  0.00     0.049 A 
ATOM     51  C   UNL A   1      39.601  32.504  31.221  1.00  0.00     0.074 A 
ATOM     52  C   UNL A   1      45.357  30.470  32.970  1.00  0.00     0.029 A 
ATOM     53  N   UNL A   1      43.315  30.641  32.105  1.00  0.00    -0.354 N 
ATOM     54  N   UNL A   1      40.774  32.002  31.528  1.00  0.00    -0.248 NA
ATOM     55  C   UNL A   1      39.338  33.824  31.809  1.00  0.00     0.031 C 
ATOM     56  C   UNL A   1      44.812  31.697  33.360  1.00  0.00     0.029 A 
ATOM     57  C   UNL A   1      43.548  31.815  32.803  1.00  0.00     0.049 A 
ATOM     58  H   UNL A   1      42.490  30.433  31.610  1.00  0.00     0.167 HD
ATOM     59  C   UNL A   1      41.399  32.957  32.323  1.00  0.00     0.074 A 
ATOM     60  C   UNL A   1      40.478  34.070  32.440  1.00  0.00     0.031 C 
ATOM     61  C   UNL A   1      42.625  32.917  32.901  1.00  0.00     0.037 A 
BRANCH  48  62
ATOM     62  C   UNL A   1      45.754  27.685  31.854  1.00  0.00     0.058 A 
ATOM     63  C   UNL A   1      46.897  27.840  31.052  1.00  0.00     0.135 A 
ATOM     64  C   UNL A   1      45.820  26.768  32.915  1.00  0.00     0.135 A 
ATOM     65  F   UNL A   1      46.883  28.691  30.013  1.00  0.00    -0.206 F 
ATOM     66  C   UNL A   1      48.048  27.092  31.272  1.00  0.00     0.059 A 
ATOM     67  C   UNL A   1      46.972  26.030  33.172  1.00  0.00     0.059 A 
ATOM     68  F   UNL A   1      44.758  26.579  33.713  1.00  0.00    -0.206 F 
ATOM     69  C   UNL A   1      48.076  26.188  32.335  1.00  0.00     0.060 A 
BRANCH  69  70
ATOM     70  S   UNL A   1      49.579  25.227  32.609  1.00  0.00     0.124 S 
ATOM     71  O   UNL A   1      49.918  24.823  31.248  1.00  0.00    -0.237 OA
ATOM     72  O   UNL A   1      50.471  26.208  33.217  1.00  0.00    -0.237 OA
ATOM     73  O   UNL A   1      49.139  24.152  33.492  1.00  0.00    -0.744 OA
ENDBRANCH  69  70
ENDBRANCH  48  62
BRANCH  49  74
ATOM     74  C   UNL A   1      37.250  32.652  30.116  1.00  0.00     0.058 A 
ATOM     75  C   UNL A   1      36.115  32.407  30.901  1.00  0.00     0.135 A 
ATOM     76  C   UNL A   1      37.152  33.625  29.110  1.00  0.00     0.135 A 
ATOM     77  F   UNL A   1      36.157  31.482  31.873  1.00  0.00    -0.206 F 
ATOM     78  C   UNL A   1      34.920  33.088  30.690  1.00  0.00     0.059 A 
ATOM     79  C   UNL A   1      35.976  34.337  28.894  1.00  0.00     0.059 A 
ATOM     80  F   UNL A   1      38.215  33.909  28.343  1.00  0.00    -0.206 F 
ATOM     81  C   UNL A   1      34.862  34.054  29.684  1.00  0.00     0.060 A 
BRANCH  81  82
ATOM     82  S   UNL A   1      33.321  34.967  29.450  1.00  0.00     0.124 S 
ATOM     83  O   UNL A   1      32.638  34.143  28.460  1.00  0.00    -0.237 OA
ATOM     84  O   UNL A   1      32.751  34.956  30.793  1.00  0.00    -0.237 OA
ATOM     85  O   UNL A   1      33.775  36.274  28.981  1.00  0.00    -0.744 OA
ENDBRANCH  81  82
ENDBRANCH  49  74
BRANCH  61  86
ATOM     86  C   UNL A   1      43.060  34.125  33.685  1.00  0.00     0.058 A 
ATOM     87  C   UNL A   1      43.635  35.241  33.059  1.00  0.00     0.135 A 
ATOM     88  C   UNL A   1      42.847  34.184  35.071  1.00  0.00     0.135 A 
ATOM     89  F   UNL A   1      43.866  35.232  31.737  1.00  0.00    -0.206 F 
ATOM     90  C   UNL A   1      44.003  36.369  33.785  1.00  0.00     0.059 A 
ATOM     91  C   UNL A   1      43.183  35.313  35.813  1.00  0.00     0.059 A 
ATOM     92  F   UNL A   1      42.291  33.146  35.716  1.00  0.00    -0.206 F 
ATOM     93  C   UNL A   1      43.772  36.396  35.162  1.00  0.00     0.060 A 
BRANCH  93  94
ATOM     94  S   UNL A   1      44.218  37.880  36.087  1.00  0.00     0.124 S 
ATOM     95  O   UNL A   1      43.840  38.934  35.152  1.00  0.00    -0.237 OA
ATOM     96  O   UNL A   1      43.390  37.766  37.283  1.00  0.00    -0.237 OA
ATOM     97  O   UNL A   1      45.653  37.724  36.309  1.00  0.00    -0.744 OA
ENDBRANCH  93  94
ENDBRANCH  61  86
ENDBRANCH  35  36
ENDBRANCH  27  30
ENDBRANCH  25  26
ENDBRANCH  24  25
ENDBRANCH   1  24
TORSDOF 18
ENDMDL
MODEL 3
REMARK VINA RESULT:     -10.8      1.459      2.789
REMARK SMILES C[C@@H](C(=O)NCCCCNC(=O)c1ccc(-c2c3nc(c(-c4c(F)cc(S(=O)(=O)[O-])cc4F)c4ccc([nH]4)c(-c4c(F)cc(S(=O)(=O)[O-])cc4F)c4nc(c(-c5c(F)cc(S(=O)(=O)[O-])cc5F)c5ccc2[nH]5)C=C4)C=C3)cc1)c1ccc(C[C@H]2CCC[C@@H]2O)cc1F
REMARK SMILES IDX 7 1 6 2 5 3 3 4 4 5 2 7 1 8 79 9 80 10 91 11 81 12 90 13
REMARK SMILES IDX 92 14 82 15 83 16 84 17 85 18 88 19 86 20 87 21 89 22 8 24
REMARK SMILES IDX 9 25 10 26 11 27 12 29 13 30 14 31 78 32 15 33 77 34 16 35
REMARK SMILES IDX 17 36 18 37 71 38 19 39 76 40 70 41 72 42 20 43 75 44 69 45
REMARK SMILES IDX 68 46 21 48 55 49 34 50 54 51 35 52 38 53 53 54 73 55 36 56
REMARK SMILES IDX 37 57 52 59 74 60 39 61 22 62 23 63 32 64 24 65 25 66 31 67
REMARK SMILES IDX 33 68 26 69 27 70 28 71 29 72 30 73 56 74 57 75 66 76 58 77
REMARK SMILES IDX 59 78 65 79 67 80 60 81 61 82 62 83 63 84 64 85 40 86 41 87
REMARK SMILES IDX 50 88 42 89 43 90 49 91 51 92 44 93 45 94 46 95 47 96 48 97
REMARK H PARENT 5 6 89 23 10 28 72 47 38 58
REMARK Flexibility Score: inf
ROOT
ATOM      1  C   UNL A   1      34.180  34.477  30.092  1.00  0.00     0.023 C 
ENDROOT
BRANCH   1   2
ATOM      2  C   UNL A   1      35.137  33.685  30.982  1.00  0.00     0.116 C 
BRANCH   2   3
ATOM      3  N   UNL A   1      36.491  34.184  30.856  1.00  0.00    -0.356 N 
ATOM      4  C   UNL A   1      37.498  34.220  31.777  1.00  0.00     0.227 C 
ATOM      5  O   UNL A   1      38.527  34.817  31.457  1.00  0.00    -0.274 OA
ATOM      6  H   UNL A   1      36.719  34.553  29.972  1.00  0.00     0.163 HD
BRANCH   4   7
ATOM      7  C   UNL A   1      37.345  33.471  33.109  1.00  0.00     0.108 C 
ATOM      8  C   UNL A   1      37.534  34.381  34.327  1.00  0.00     0.023 C 
BRANCH   7   9
ATOM      9  C   UNL A   1      38.235  32.236  33.147  1.00  0.00    -0.000 A 
ATOM     10  C   UNL A   1      37.677  30.984  32.845  1.00  0.00     0.008 A 
ATOM     11  C   UNL A   1      39.601  32.287  33.440  1.00  0.00     0.127 A 
ATOM     12  C   UNL A   1      38.446  29.821  32.919  1.00  0.00     0.004 A 
ATOM     13  C   UNL A   1      40.363  31.128  33.548  1.00  0.00     0.043 A 
ATOM     14  F   UNL A   1      40.213  33.458  33.666  1.00  0.00    -0.207 F 
ATOM     15  C   UNL A   1      39.781  29.874  33.334  1.00  0.00    -0.045 A 
BRANCH  15  16
ATOM     16  C   UNL A   1      40.576  28.620  33.593  1.00  0.00     0.041 C 
BRANCH  16  17
ATOM     17  C   UNL A   1      42.107  28.781  33.533  1.00  0.00     0.022 C 
ATOM     18  C   UNL A   1      42.818  28.998  34.882  1.00  0.00     0.007 C 
ATOM     19  C   UNL A   1      42.872  27.627  32.879  1.00  0.00     0.117 C 
ATOM     20  C   UNL A   1      44.152  28.251  34.784  1.00  0.00     0.003 C 
ATOM     21  C   UNL A   1      44.306  27.882  33.318  1.00  0.00     0.032 C 
BRANCH  19  22
ATOM     22  O   UNL A   1      42.768  27.652  31.468  1.00  0.00    -0.393 OA
ATOM     23  H   UNL A   1      42.029  27.088  31.189  1.00  0.00     0.210 HD
ENDBRANCH  19  22
ENDBRANCH  16  17
ENDBRANCH  15  16
ENDBRANCH   7   9
ENDBRANCH   4   7
ENDBRANCH   2   3
ENDBRANCH   1   2
BRANCH   1  24
ATOM     24  C   UNL A   1      34.383  34.257  28.591  1.00  0.00     0.023 C 
BRANCH  24  25
ATOM     25  C   UNL A   1      35.056  32.943  28.217  1.00  0.00     0.116 C 
BRANCH  25  26
ATOM     26  N   UNL A   1      34.106  31.858  28.022  1.00  0.00    -0.352 N 
ATOM     27  C   UNL A   1      34.352  30.510  27.936  1.00  0.00     0.251 C 
ATOM     28  H   UNL A   1      33.163  32.127  27.941  1.00  0.00     0.163 HD
ATOM     29  O   UNL A   1      33.446  29.738  27.633  1.00  0.00    -0.269 OA
BRANCH  27  30
ATOM     30  C   UNL A   1      35.720  30.004  28.174  1.00  0.00     0.039 A 
ATOM     31  C   UNL A   1      36.639  30.022  27.123  1.00  0.00     0.014 A 
ATOM     32  C   UNL A   1      36.101  29.543  29.438  1.00  0.00     0.014 A 
ATOM     33  C   UNL A   1      37.960  29.640  27.356  1.00  0.00     0.010 A 
ATOM     34  C   UNL A   1      37.432  29.228  29.685  1.00  0.00     0.010 A 
ATOM     35  C   UNL A   1      38.376  29.274  28.647  1.00  0.00    -0.014 A 
BRANCH  35  36
ATOM     36  C   UNL A   1      39.795  28.942  28.935  1.00  0.00     0.031 A 
ATOM     37  C   UNL A   1      40.710  29.983  29.519  1.00  0.00     0.074 A 
ATOM     38  C   UNL A   1      40.273  27.725  28.608  1.00  0.00     0.049 A 
ATOM     39  N   UNL A   1      41.992  29.908  29.769  1.00  0.00    -0.248 NA
ATOM     40  C   UNL A   1      40.110  31.288  29.840  1.00  0.00     0.031 C 
ATOM     41  C   UNL A   1      39.495  26.646  27.995  1.00  0.00     0.029 A 
ATOM     42  N   UNL A   1      41.531  27.192  28.738  1.00  0.00    -0.354 N 
ATOM     43  C   UNL A   1      42.353  31.155  30.266  1.00  0.00     0.074 A 
ATOM     44  C   UNL A   1      41.169  31.984  30.230  1.00  0.00     0.031 C 
ATOM     45  C   UNL A   1      40.286  25.575  27.824  1.00  0.00     0.029 A 
ATOM     46  C   UNL A   1      41.633  25.900  28.279  1.00  0.00     0.049 A 
ATOM     47  H   UNL A   1      42.289  27.688  29.122  1.00  0.00     0.167 HD
ATOM     48  C   UNL A   1      43.558  31.564  30.732  1.00  0.00     0.037 A 
ATOM     49  C   UNL A   1      42.695  25.073  28.225  1.00  0.00     0.037 A 
ATOM     50  C   UNL A   1      44.728  30.727  30.785  1.00  0.00     0.049 A 
ATOM     51  C   UNL A   1      44.025  25.551  28.742  1.00  0.00     0.074 A 
ATOM     52  C   UNL A   1      45.983  31.032  31.282  1.00  0.00     0.029 A 
ATOM     53  N   UNL A   1      44.788  29.418  30.326  1.00  0.00    -0.354 N 
ATOM     54  N   UNL A   1      44.337  26.717  29.257  1.00  0.00    -0.248 NA
ATOM     55  C   UNL A   1      45.145  24.603  28.678  1.00  0.00     0.031 C 
ATOM     56  C   UNL A   1      46.812  29.922  31.090  1.00  0.00     0.029 A 
ATOM     57  C   UNL A   1      46.062  28.908  30.515  1.00  0.00     0.049 A 
ATOM     58  H   UNL A   1      44.036  28.926  29.925  1.00  0.00     0.167 HD
ATOM     59  C   UNL A   1      45.682  26.633  29.603  1.00  0.00     0.074 A 
ATOM     60  C   UNL A   1      46.120  25.298  29.247  1.00  0.00     0.031 C 
ATOM     61  C   UNL A   1      46.480  27.574  30.164  1.00  0.00     0.037 A 
BRANCH  48  62
ATOM     62  C   UNL A   1      43.666  32.978  31.231  1.00  0.00     0.058 A 
ATOM     63  C   UNL A   1      43.552  33.287  32.597  1.00  0.00     0.135 A 
ATOM     64  C   UNL A   1      43.917  34.035  30.341  1.00  0.00     0.135 A 
ATOM     65  F   UNL A   1      43.296  32.317  33.489  1.00  0.00    -0.206 F 
ATOM     66  C   UNL A   1      43.651  34.595  33.058  1.00  0.00     0.059 A 
ATOM     67  C   UNL A   1      44.048  35.348  30.785  1.00  0.00     0.059 A 
ATOM     68  F   UNL A   1      44.035  33.798  29.026  1.00  0.00    -0.206 F 
ATOM     69  C   UNL A   1      43.898  35.620  32.144  1.00  0.00     0.060 A 
BRANCH  69  70
ATOM     70  S   UNL A   1      44.025  37.312  32.760  1.00  0.00     0.124 S 
ATOM     71  O   UNL A   1      43.841  38.081  31.534  1.00  0.00    -0.237 OA
ATOM     72  O   UNL A   1      42.927  37.378  33.719  1.00  0.00    -0.237 OA
ATOM     73  O   UNL A   1      45.363  37.363  33.339  1.00  0.00    -0.744 OA
ENDBRANCH  69  70
ENDBRANCH  48  62
BRANCH  49  74
ATOM     74  C   UNL A   1      42.538  23.695  27.687  1.00  0.00     0.058 A 
ATOM     75  C   UNL A   1      42.540  23.460  26.305  1.00  0.00     0.135 A 
ATOM     76  C   UNL A   1      42.401  22.588  28.538  1.00  0.00     0.135 A 
ATOM     77  F   UNL A   1      42.664  24.487  25.449  1.00  0.00    -0.206 F 
ATOM     78  C   UNL A   1      42.395  22.179  25.782  1.00  0.00     0.059 A 
ATOM     79  C   UNL A   1      42.278  21.294  28.041  1.00  0.00     0.059 A 
ATOM     80  F   UNL A   1      42.410  22.759  29.869  1.00  0.00    -0.206 F 
ATOM     81  C   UNL A   1      42.267  21.101  26.661  1.00  0.00     0.060 A 
BRANCH  81  82
ATOM     82  S   UNL A   1      42.129  19.437  25.973  1.00  0.00     0.124 S 
ATOM     83  O   UNL A   1      42.601  18.619  27.084  1.00  0.00    -0.237 OA
ATOM     84  O   UNL A   1      40.703  19.346  25.674  1.00  0.00    -0.237 OA
ATOM     85  O   UNL A   1      43.004  19.484  24.805  1.00  0.00    -0.744 OA
ENDBRANCH  81  82
ENDBRANCH  49  74
BRANCH  61  86
ATOM     86  C   UNL A   1      47.901  27.186  30.465  1.00  0.00     0.058 A 
ATOM     87  C   UNL A   1      48.941  27.432  29.555  1.00  0.00     0.135 A 
ATOM     88  C   UNL A   1      48.232  26.611  31.702  1.00  0.00     0.135 A 
ATOM     89  F   UNL A   1      48.676  27.973  28.356  1.00  0.00    -0.206 F 
ATOM     90  C   UNL A   1      50.259  27.102  29.854  1.00  0.00     0.059 A 
ATOM     91  C   UNL A   1      49.547  26.298  32.033  1.00  0.00     0.059 A 
ATOM     92  F   UNL A   1      47.276  26.365  32.612  1.00  0.00    -0.206 F 
ATOM     93  C   UNL A   1      50.552  26.537  31.097  1.00  0.00     0.060 A 
BRANCH  93  94
ATOM     94  S   UNL A   1      52.271  26.149  31.489  1.00  0.00     0.124 S 
ATOM     95  O   UNL A   1      52.899  26.239  30.175  1.00  0.00    -0.237 OA
ATOM     96  O   UNL A   1      52.624  27.205  32.433  1.00  0.00    -0.237 OA
ATOM     97  O   UNL A   1      52.196  24.807  32.058  1.00  0.00    -0.744 OA
ENDBRANCH  93  94
ENDBRANCH  61  86
ENDBRANCH  35  36
ENDBRANCH  27  30
ENDBRANCH  25  26
ENDBRANCH  24  25
ENDBRANCH   1  24
TORSDOF 18
ENDMDL
