MODEL 1
REMARK VINA RESULT:     -12.6      0.000      0.000
REMARK SMILES O=C(COc1ccccc1/C=C1/SC(=O)N(c2ccc(F)cc2)C1=O)NCCCCNC(=O)c1ccc(-c2c3nc(c(-c4c(F)cc(S(=O)(=O)[O-])cc4F)c4ccc([nH]4)c(-c4c(F)cc(S(=O)(=O)[O-])cc4F)c4nc(c(-c5c(F)cc(S(=O)(=O)[O-])cc5F)c5ccc2[nH]5)C=C4)C=C3)cc1
REMARK SMILES IDX 28 1 27 2 26 3 1 4 2 5 3 7 4 8 5 9 6 10 10 11 7 12 9 13 8 14
REMARK SMILES IDX 11 15 12 16 13 17 24 18 14 19 16 20 25 21 15 22 17 23 18 24
REMARK SMILES IDX 23 25 19 26 22 27 20 28 21 29 29 30 30 31 31 32 32 33 33 35
REMARK SMILES IDX 34 36 35 37 99 38 36 39 98 40 37 41 38 42 39 43 92 44 40 45
REMARK SMILES IDX 97 46 91 47 93 48 41 49 96 50 90 51 89 52 42 54 76 55 55 56
REMARK SMILES IDX 75 57 56 58 59 59 74 60 94 61 57 62 58 63 73 65 95 66 60 67
REMARK SMILES IDX 43 68 44 69 53 70 45 71 46 72 52 73 54 74 47 75 48 76 49 77
REMARK SMILES IDX 50 78 51 79 77 80 78 81 87 82 79 83 80 84 86 85 88 86 81 87
REMARK SMILES IDX 82 88 83 89 84 90 85 91 61 92 62 93 71 94 63 95 64 96 70 97
REMARK SMILES IDX 72 98 65 99 66 100 67 101 68 102 69 103
REMARK H PARENT 26 6 31 34 93 53 59 64
REMARK Flexibility Score: inf
ROOT
ATOM      1  C   UNL A   1      33.306  29.080  24.563  1.00  0.00     0.023 C 
ENDROOT
BRANCH   1   2
ATOM      2  C   UNL A   1      33.492  28.936  23.032  1.00  0.00     0.116 C 
BRANCH   2   3
ATOM      3  N   UNL A   1      32.538  28.122  22.260  1.00  0.00    -0.353 N 
ATOM      4  O   UNL A   1      34.017  26.415  21.830  1.00  0.00    -0.271 OA
ATOM      5  C   UNL A   1      32.851  26.812  21.870  1.00  0.00     0.257 C 
ATOM      6  H   UNL A   1      31.665  28.505  22.014  1.00  0.00     0.163 HD
BRANCH   5   7
ATOM      7  C   UNL A   1      31.655  25.826  21.570  1.00  0.00     0.329 C 
BRANCH   7   8
ATOM      8  O   UNL A   1      31.342  24.654  22.338  1.00  0.00    -0.483 OA
BRANCH   8   9
ATOM      9  C   UNL A   1      31.461  24.734  23.708  1.00  0.00     0.127 A 
ATOM     10  C   UNL A   1      30.655  25.637  24.400  1.00  0.00     0.047 A 
ATOM     11  C   UNL A   1      32.537  24.135  24.398  1.00  0.00     0.018 A 
ATOM     12  C   UNL A   1      30.813  25.801  25.784  1.00  0.00     0.004 A 
ATOM     13  C   UNL A   1      32.627  24.213  25.789  1.00  0.00     0.012 A 
ATOM     14  C   UNL A   1      31.756  25.046  26.484  1.00  0.00     0.001 A 
BRANCH  11  15
ATOM     15  C   UNL A   1      33.608  23.480  23.634  1.00  0.00     0.033 C 
ATOM     16  C   UNL A   1      34.054  22.310  24.119  1.00  0.00     0.084 C 
ATOM     17  S   UNL A   1      35.598  22.094  24.827  1.00  0.00    -0.022 SA
ATOM     18  C   UNL A   1      33.275  21.054  24.261  1.00  0.00     0.272 C 
ATOM     19  C   UNL A   1      35.428  20.385  24.934  1.00  0.00     0.298 C 
ATOM     20  N   UNL A   1      34.131  20.026  24.666  1.00  0.00    -0.236 N 
ATOM     21  O   UNL A   1      32.090  20.994  23.971  1.00  0.00    -0.268 OA
ATOM     22  O   UNL A   1      36.432  19.701  25.105  1.00  0.00    -0.260 OA
BRANCH  20  23
ATOM     23  C   UNL A   1      33.747  18.658  24.702  1.00  0.00     0.053 A 
ATOM     24  C   UNL A   1      34.300  17.722  23.818  1.00  0.00     0.030 A 
ATOM     25  C   UNL A   1      32.830  18.205  25.669  1.00  0.00     0.030 A 
ATOM     26  C   UNL A   1      33.946  16.375  23.902  1.00  0.00     0.041 A 
ATOM     27  C   UNL A   1      32.478  16.860  25.754  1.00  0.00     0.041 A 
ATOM     28  C   UNL A   1      33.037  15.959  24.865  1.00  0.00     0.123 A 
ATOM     29  F   UNL A   1      32.706  14.667  24.942  1.00  0.00    -0.207 F 
ENDBRANCH  20  23
ENDBRANCH  11  15
ENDBRANCH   8   9
ENDBRANCH   7   8
ENDBRANCH   5   7
ENDBRANCH   2   3
ENDBRANCH   1   2
BRANCH   1  30
ATOM     30  C   UNL A   1      33.729  27.976  25.566  1.00  0.00     0.023 C 
BRANCH  30  31
ATOM     31  C   UNL A   1      33.589  28.201  27.090  1.00  0.00     0.116 C 
BRANCH  31  32
ATOM     32  N   UNL A   1      33.483  29.592  27.497  1.00  0.00    -0.352 N 
ATOM     33  C   UNL A   1      34.379  30.455  28.097  1.00  0.00     0.251 C 
ATOM     34  H   UNL A   1      32.605  29.996  27.310  1.00  0.00     0.163 HD
ATOM     35  O   UNL A   1      33.966  31.578  28.396  1.00  0.00    -0.269 OA
BRANCH  33  36
ATOM     36  C   UNL A   1      35.801  30.121  28.421  1.00  0.00     0.039 A 
ATOM     37  C   UNL A   1      36.724  30.093  27.362  1.00  0.00     0.014 A 
ATOM     38  C   UNL A   1      36.234  29.692  29.677  1.00  0.00     0.014 A 
ATOM     39  C   UNL A   1      38.063  29.704  27.565  1.00  0.00     0.010 A 
ATOM     40  C   UNL A   1      37.585  29.330  29.883  1.00  0.00     0.010 A 
ATOM     41  C   UNL A   1      38.527  29.341  28.840  1.00  0.00    -0.014 A 
BRANCH  41  42
ATOM     42  C   UNL A   1      39.981  29.037  29.080  1.00  0.00     0.031 A 
ATOM     43  C   UNL A   1      40.940  30.065  29.638  1.00  0.00     0.074 A 
ATOM     44  C   UNL A   1      40.470  27.817  28.765  1.00  0.00     0.049 A 
ATOM     45  N   UNL A   1      42.223  29.952  29.894  1.00  0.00    -0.248 NA
ATOM     46  C   UNL A   1      40.392  31.393  29.944  1.00  0.00     0.031 C 
ATOM     47  C   UNL A   1      39.690  26.720  28.190  1.00  0.00     0.029 A 
ATOM     48  N   UNL A   1      41.740  27.291  28.876  1.00  0.00    -0.354 N 
ATOM     49  C   UNL A   1      42.637  31.188  30.382  1.00  0.00     0.074 A 
ATOM     50  C   UNL A   1      41.471  32.049  30.351  1.00  0.00     0.031 C 
ATOM     51  C   UNL A   1      40.487  25.654  28.014  1.00  0.00     0.029 A 
ATOM     52  C   UNL A   1      41.848  25.993  28.425  1.00  0.00     0.049 A 
ATOM     53  H   UNL A   1      42.500  27.796  29.244  1.00  0.00     0.167 HD
ATOM     54  C   UNL A   1      43.862  31.573  30.829  1.00  0.00     0.037 A 
ATOM     55  C   UNL A   1      42.910  25.165  28.332  1.00  0.00     0.037 A 
ATOM     56  C   UNL A   1      45.032  30.725  30.867  1.00  0.00     0.049 A 
ATOM     57  C   UNL A   1      44.267  25.624  28.802  1.00  0.00     0.074 A 
ATOM     58  C   UNL A   1      46.295  31.024  31.354  1.00  0.00     0.029 A 
ATOM     59  N   UNL A   1      45.095  29.424  30.391  1.00  0.00    -0.354 N 
ATOM     60  N   UNL A   1      44.613  26.774  29.325  1.00  0.00    -0.248 NA
ATOM     61  C   UNL A   1      45.377  24.667  28.674  1.00  0.00     0.031 C 
ATOM     62  C   UNL A   1      47.133  29.930  31.120  1.00  0.00     0.029 A 
ATOM     63  C   UNL A   1      46.379  28.921  30.546  1.00  0.00     0.049 A 
ATOM     64  H   UNL A   1      44.338  28.930  29.999  1.00  0.00     0.167 HD
ATOM     65  C   UNL A   1      45.971  26.668  29.616  1.00  0.00     0.074 A 
ATOM     66  C   UNL A   1      46.381  25.338  29.223  1.00  0.00     0.031 C 
ATOM     67  C   UNL A   1      46.797  27.594  30.163  1.00  0.00     0.037 A 
BRANCH  54  68
ATOM     68  C   UNL A   1      44.021  32.990  31.324  1.00  0.00     0.058 A 
ATOM     69  C   UNL A   1      44.364  34.040  30.457  1.00  0.00     0.135 A 
ATOM     70  C   UNL A   1      43.753  33.317  32.665  1.00  0.00     0.135 A 
ATOM     71  F   UNL A   1      44.631  33.791  29.166  1.00  0.00    -0.206 F 
ATOM     72  C   UNL A   1      44.467  35.354  30.906  1.00  0.00     0.059 A 
ATOM     73  C   UNL A   1      43.821  34.629  33.129  1.00  0.00     0.059 A 
ATOM     74  F   UNL A   1      43.403  32.360  33.538  1.00  0.00    -0.206 F 
ATOM     75  C   UNL A   1      44.195  35.639  32.245  1.00  0.00     0.060 A 
BRANCH  75  76
ATOM     76  S   UNL A   1      44.335  37.350  32.808  1.00  0.00     0.124 S 
ATOM     77  O   UNL A   1      45.687  37.365  33.358  1.00  0.00    -0.237 OA
ATOM     78  O   UNL A   1      44.147  38.102  31.572  1.00  0.00    -0.237 OA
ATOM     79  O   UNL A   1      43.260  37.478  33.787  1.00  0.00    -0.744 OA
ENDBRANCH  75  76
ENDBRANCH  54  68
BRANCH  55  80
ATOM     80  C   UNL A   1      42.738  23.797  27.766  1.00  0.00     0.058 A 
ATOM     81  C   UNL A   1      42.749  23.576  26.381  1.00  0.00     0.135 A 
ATOM     82  C   UNL A   1      42.552  22.684  28.601  1.00  0.00     0.135 A 
ATOM     83  F   UNL A   1      42.908  24.609  25.538  1.00  0.00    -0.206 F 
ATOM     84  C   UNL A   1      42.566  22.307  25.841  1.00  0.00     0.059 A 
ATOM     85  C   UNL A   1      42.398  21.400  28.088  1.00  0.00     0.059 A 
ATOM     86  F   UNL A   1      42.543  22.837  29.935  1.00  0.00    -0.206 F 
ATOM     87  C   UNL A   1      42.394  21.223  26.704  1.00  0.00     0.060 A 
BRANCH  87  88
ATOM     88  S   UNL A   1      42.205  19.572  25.997  1.00  0.00     0.124 S 
ATOM     89  O   UNL A   1      40.789  19.562  25.650  1.00  0.00    -0.237 OA
ATOM     90  O   UNL A   1      43.138  19.610  24.875  1.00  0.00    -0.237 OA
ATOM     91  O   UNL A   1      42.592  18.690  27.094  1.00  0.00    -0.744 OA
ENDBRANCH  87  88
ENDBRANCH  55  80
BRANCH  67  92
ATOM     92  C   UNL A   1      48.231  27.198  30.414  1.00  0.00     0.058 A 
ATOM     93  C   UNL A   1      49.258  27.503  29.505  1.00  0.00     0.135 A 
ATOM     94  C   UNL A   1      48.592  26.542  31.603  1.00  0.00     0.135 A 
ATOM     95  F   UNL A   1      48.975  28.121  28.348  1.00  0.00    -0.206 F 
ATOM     96  C   UNL A   1      50.583  27.153  29.755  1.00  0.00     0.059 A 
ATOM     97  C   UNL A   1      49.914  26.209  31.888  1.00  0.00     0.059 A 
ATOM     98  F   UNL A   1      47.655  26.231  32.513  1.00  0.00    -0.206 F 
ATOM     99  C   UNL A   1      50.902  26.508  30.952  1.00  0.00     0.060 A 
BRANCH  99 100
ATOM    100  S   UNL A   1      52.629  26.088  31.277  1.00  0.00     0.124 S 
ATOM    101  O   UNL A   1      52.494  24.831  32.007  1.00  0.00    -0.237 OA
ATOM    102  O   UNL A   1      53.184  25.984  29.931  1.00  0.00    -0.237 OA
ATOM    103  O   UNL A   1      53.113  27.220  32.063  1.00  0.00    -0.744 OA
ENDBRANCH  99 100
ENDBRANCH  67  92
ENDBRANCH  41  42
ENDBRANCH  33  36
ENDBRANCH  31  32
ENDBRANCH  30  31
ENDBRANCH   1  30
TORSDOF 18
ENDMDL
MODEL 2
REMARK VINA RESULT:     -12.2      0.436      7.968
REMARK SMILES O=C(COc1ccccc1/C=C1/SC(=O)N(c2ccc(F)cc2)C1=O)NCCCCNC(=O)c1ccc(-c2c3nc(c(-c4c(F)cc(S(=O)(=O)[O-])cc4F)c4ccc([nH]4)c(-c4c(F)cc(S(=O)(=O)[O-])cc4F)c4nc(c(-c5c(F)cc(S(=O)(=O)[O-])cc5F)c5ccc2[nH]5)C=C4)C=C3)cc1
REMARK SMILES IDX 28 1 27 2 26 3 1 4 2 5 3 7 4 8 5 9 6 10 10 11 7 12 9 13 8 14
REMARK SMILES IDX 11 15 12 16 13 17 24 18 14 19 16 20 25 21 15 22 17 23 18 24
REMARK SMILES IDX 23 25 19 26 22 27 20 28 21 29 29 30 30 31 31 32 32 33 33 35
REMARK SMILES IDX 34 36 35 37 99 38 36 39 98 40 37 41 38 42 39 43 92 44 40 45
REMARK SMILES IDX 97 46 91 47 93 48 41 49 96 50 90 51 89 52 42 54 76 55 55 56
REMARK SMILES IDX 75 57 56 58 59 59 74 60 94 61 57 62 58 63 73 65 95 66 60 67
REMARK SMILES IDX 43 68 44 69 53 70 45 71 46 72 52 73 54 74 47 75 48 76 49 77
REMARK SMILES IDX 50 78 51 79 77 80 78 81 87 82 79 83 80 84 86 85 88 86 81 87
REMARK SMILES IDX 82 88 83 89 84 90 85 91 61 92 62 93 71 94 63 95 64 96 70 97
REMARK SMILES IDX 72 98 65 99 66 100 67 101 68 102 69 103
REMARK H PARENT 26 6 31 34 93 53 59 64
REMARK Flexibility Score: inf
ROOT
ATOM      1  C   UNL A   1      32.584  28.799  24.480  1.00  0.00     0.023 C 
ENDROOT
BRANCH   1   2
ATOM      2  C   UNL A   1      32.638  28.884  22.936  1.00  0.00     0.116 C 
BRANCH   2   3
ATOM      3  N   UNL A   1      32.113  27.769  22.130  1.00  0.00    -0.353 N 
ATOM      4  O   UNL A   1      34.103  26.622  22.033  1.00  0.00    -0.271 OA
ATOM      5  C   UNL A   1      32.878  26.617  21.898  1.00  0.00     0.257 C 
ATOM      6  H   UNL A   1      31.207  27.833  21.747  1.00  0.00     0.163 HD
BRANCH   5   7
ATOM      7  C   UNL A   1      32.115  25.281  21.546  1.00  0.00     0.329 C 
BRANCH   7   8
ATOM      8  O   UNL A   1      31.213  24.591  22.424  1.00  0.00    -0.483 OA
BRANCH   8   9
ATOM      9  C   UNL A   1      31.414  24.722  23.781  1.00  0.00     0.127 A 
ATOM     10  C   UNL A   1      30.631  25.633  24.490  1.00  0.00     0.047 A 
ATOM     11  C   UNL A   1      32.543  24.171  24.423  1.00  0.00     0.018 A 
ATOM     12  C   UNL A   1      30.870  25.850  25.855  1.00  0.00     0.004 A 
ATOM     13  C   UNL A   1      32.716  24.300  25.802  1.00  0.00     0.012 A 
ATOM     14  C   UNL A   1      31.871  25.140  26.521  1.00  0.00     0.001 A 
BRANCH  11  15
ATOM     15  C   UNL A   1      33.580  23.511  23.617  1.00  0.00     0.033 C 
ATOM     16  C   UNL A   1      34.060  22.353  24.099  1.00  0.00     0.084 C 
ATOM     17  S   UNL A   1      35.639  22.161  24.732  1.00  0.00    -0.022 SA
ATOM     18  C   UNL A   1      33.300  21.093  24.302  1.00  0.00     0.272 C 
ATOM     19  C   UNL A   1      35.489  20.453  24.876  1.00  0.00     0.298 C 
ATOM     20  N   UNL A   1      34.183  20.080  24.680  1.00  0.00    -0.236 N 
ATOM     21  O   UNL A   1      32.102  21.020  24.073  1.00  0.00    -0.268 OA
ATOM     22  O   UNL A   1      36.506  19.779  25.008  1.00  0.00    -0.260 OA
BRANCH  20  23
ATOM     23  C   UNL A   1      33.813  18.709  24.759  1.00  0.00     0.053 A 
ATOM     24  C   UNL A   1      32.919  18.251  25.736  1.00  0.00     0.030 A 
ATOM     25  C   UNL A   1      34.306  17.787  23.817  1.00  0.00     0.030 A 
ATOM     26  C   UNL A   1      32.530  16.911  25.766  1.00  0.00     0.041 A 
ATOM     27  C   UNL A   1      33.916  16.450  23.845  1.00  0.00     0.041 A 
ATOM     28  C   UNL A   1      33.035  16.025  24.824  1.00  0.00     0.123 A 
ATOM     29  F   UNL A   1      32.656  14.744  24.856  1.00  0.00    -0.207 F 
ENDBRANCH  20  23
ENDBRANCH  11  15
ENDBRANCH   8   9
ENDBRANCH   7   8
ENDBRANCH   5   7
ENDBRANCH   2   3
ENDBRANCH   1   2
BRANCH   1  30
ATOM     30  C   UNL A   1      33.690  28.109  25.321  1.00  0.00     0.023 C 
BRANCH  30  31
ATOM     31  C   UNL A   1      33.689  28.217  26.864  1.00  0.00     0.116 C 
BRANCH  31  32
ATOM     32  N   UNL A   1      33.570  29.568  27.384  1.00  0.00    -0.352 N 
ATOM     33  C   UNL A   1      34.461  30.393  28.044  1.00  0.00     0.251 C 
ATOM     34  H   UNL A   1      32.685  29.974  27.237  1.00  0.00     0.163 HD
ATOM     35  O   UNL A   1      34.035  31.481  28.437  1.00  0.00    -0.269 OA
BRANCH  33  36
ATOM     36  C   UNL A   1      35.889  30.052  28.328  1.00  0.00     0.039 A 
ATOM     37  C   UNL A   1      36.798  30.094  27.256  1.00  0.00     0.014 A 
ATOM     38  C   UNL A   1      36.344  29.555  29.551  1.00  0.00     0.014 A 
ATOM     39  C   UNL A   1      38.142  29.705  27.417  1.00  0.00     0.010 A 
ATOM     40  C   UNL A   1      37.701  29.193  29.716  1.00  0.00     0.010 A 
ATOM     41  C   UNL A   1      38.627  29.273  28.662  1.00  0.00    -0.014 A 
BRANCH  41  42
ATOM     42  C   UNL A   1      40.087  28.968  28.863  1.00  0.00     0.031 A 
ATOM     43  C   UNL A   1      40.683  27.617  28.533  1.00  0.00     0.074 A 
ATOM     44  C   UNL A   1      40.903  29.912  29.382  1.00  0.00     0.049 A 
ATOM     45  N   UNL A   1      41.923  27.203  28.658  1.00  0.00    -0.248 NA
ATOM     46  C   UNL A   1      39.770  26.597  27.999  1.00  0.00     0.031 C 
ATOM     47  C   UNL A   1      40.486  31.256  29.784  1.00  0.00     0.029 A 
ATOM     48  N   UNL A   1      42.252  29.890  29.669  1.00  0.00    -0.354 N 
ATOM     49  C   UNL A   1      41.940  25.879  28.227  1.00  0.00     0.074 A 
ATOM     50  C   UNL A   1      40.574  25.549  27.871  1.00  0.00     0.031 C 
ATOM     51  C   UNL A   1      41.551  31.931  30.246  1.00  0.00     0.029 A 
ATOM     52  C   UNL A   1      42.725  31.063  30.216  1.00  0.00     0.049 A 
ATOM     53  H   UNL A   1      42.824  29.107  29.498  1.00  0.00     0.167 HD
ATOM     54  C   UNL A   1      42.988  25.020  28.121  1.00  0.00     0.037 A 
ATOM     55  C   UNL A   1      43.952  31.410  30.658  1.00  0.00     0.037 A 
ATOM     56  C   UNL A   1      44.355  25.337  28.470  1.00  0.00     0.049 A 
ATOM     57  C   UNL A   1      45.094  30.430  30.563  1.00  0.00     0.074 A 
ATOM     58  C   UNL A   1      45.482  24.539  28.342  1.00  0.00     0.029 A 
ATOM     59  N   UNL A   1      44.784  26.531  29.028  1.00  0.00    -0.354 N 
ATOM     60  N   UNL A   1      45.095  29.210  30.085  1.00  0.00    -0.248 NA
ATOM     61  C   UNL A   1      46.403  30.879  31.062  1.00  0.00     0.031 C 
ATOM     62  C   UNL A   1      46.577  25.226  28.874  1.00  0.00     0.029 A 
ATOM     63  C   UNL A   1      46.149  26.480  29.276  1.00  0.00     0.049 A 
ATOM     64  H   UNL A   1      44.203  27.303  29.222  1.00  0.00     0.167 HD
ATOM     65  C   UNL A   1      46.408  28.758  30.197  1.00  0.00     0.074 A 
ATOM     66  C   UNL A   1      47.175  29.838  30.776  1.00  0.00     0.031 C 
ATOM     67  C   UNL A   1      46.925  27.554  29.847  1.00  0.00     0.037 A 
BRANCH  54  68
ATOM     68  C   UNL A   1      42.714  23.630  27.599  1.00  0.00     0.058 A 
ATOM     69  C   UNL A   1      42.693  23.349  26.224  1.00  0.00     0.135 A 
ATOM     70  C   UNL A   1      42.548  22.550  28.485  1.00  0.00     0.135 A 
ATOM     71  F   UNL A   1      42.846  24.338  25.330  1.00  0.00    -0.206 F 
ATOM     72  C   UNL A   1      42.484  22.059  25.744  1.00  0.00     0.059 A 
ATOM     73  C   UNL A   1      42.368  21.246  28.028  1.00  0.00     0.059 A 
ATOM     74  F   UNL A   1      42.577  22.752  29.811  1.00  0.00    -0.206 F 
ATOM     75  C   UNL A   1      42.321  21.013  26.655  1.00  0.00     0.060 A 
BRANCH  75  76
ATOM     76  S   UNL A   1      42.050  19.346  26.013  1.00  0.00     0.124 S 
ATOM     77  O   UNL A   1      42.492  18.527  27.137  1.00  0.00    -0.237 OA
ATOM     78  O   UNL A   1      40.615  19.341  25.752  1.00  0.00    -0.237 OA
ATOM     79  O   UNL A   1      42.900  19.293  24.828  1.00  0.00    -0.744 OA
ENDBRANCH  75  76
ENDBRANCH  54  68
BRANCH  55  80
ATOM     80  C   UNL A   1      44.176  32.763  31.241  1.00  0.00     0.058 A 
ATOM     81  C   UNL A   1      43.991  33.007  32.610  1.00  0.00     0.135 A 
ATOM     82  C   UNL A   1      44.573  33.844  30.436  1.00  0.00     0.135 A 
ATOM     83  F   UNL A   1      43.597  32.011  33.421  1.00  0.00    -0.206 F 
ATOM     84  C   UNL A   1      44.174  34.271  33.160  1.00  0.00     0.059 A 
ATOM     85  C   UNL A   1      44.793  35.111  30.967  1.00  0.00     0.059 A 
ATOM     86  F   UNL A   1      44.773  33.665  29.121  1.00  0.00    -0.206 F 
ATOM     87  C   UNL A   1      44.579  35.318  32.330  1.00  0.00     0.060 A 
BRANCH  87  88
ATOM     88  S   UNL A   1      44.861  36.946  33.059  1.00  0.00     0.124 S 
ATOM     89  O   UNL A   1      44.492  36.712  34.451  1.00  0.00    -0.237 OA
ATOM     90  O   UNL A   1      46.282  37.155  32.802  1.00  0.00    -0.237 OA
ATOM     91  O   UNL A   1      43.960  37.812  32.305  1.00  0.00    -0.744 OA
ENDBRANCH  87  88
ENDBRANCH  55  80
BRANCH  67  92
ATOM     92  C   UNL A   1      48.405  27.340  30.038  1.00  0.00     0.058 A 
ATOM     93  C   UNL A   1      48.934  26.806  31.225  1.00  0.00     0.135 A 
ATOM     94  C   UNL A   1      49.307  27.632  29.001  1.00  0.00     0.135 A 
ATOM     95  F   UNL A   1      48.124  26.514  32.254  1.00  0.00    -0.206 F 
ATOM     96  C   UNL A   1      50.301  26.591  31.384  1.00  0.00     0.059 A 
ATOM     97  C   UNL A   1      50.675  27.398  29.127  1.00  0.00     0.059 A 
ATOM     98  F   UNL A   1      48.861  28.138  27.840  1.00  0.00    -0.206 F 
ATOM     99  C   UNL A   1      51.164  26.888  30.328  1.00  0.00     0.060 A 
BRANCH  99 100
ATOM    100  S   UNL A   1      52.931  26.574  30.537  1.00  0.00     0.124 S 
ATOM    101  O   UNL A   1      53.378  27.814  31.166  1.00  0.00    -0.237 OA
ATOM    102  O   UNL A   1      52.939  25.391  31.392  1.00  0.00    -0.237 OA
ATOM    103  O   UNL A   1      53.403  26.359  29.173  1.00  0.00    -0.744 OA
ENDBRANCH  99 100
ENDBRANCH  67  92
ENDBRANCH  41  42
ENDBRANCH  33  36
ENDBRANCH  31  32
ENDBRANCH  30  31
ENDBRANCH   1  30
TORSDOF 18
ENDMDL
MODEL 3
REMARK VINA RESULT:     -12.0      4.863     10.713
REMARK SMILES O=C(COc1ccccc1/C=C1/SC(=O)N(c2ccc(F)cc2)C1=O)NCCCCNC(=O)c1ccc(-c2c3nc(c(-c4c(F)cc(S(=O)(=O)[O-])cc4F)c4ccc([nH]4)c(-c4c(F)cc(S(=O)(=O)[O-])cc4F)c4nc(c(-c5c(F)cc(S(=O)(=O)[O-])cc5F)c5ccc2[nH]5)C=C4)C=C3)cc1
REMARK SMILES IDX 28 1 27 2 26 3 1 4 2 5 3 7 4 8 5 9 6 10 10 11 7 12 9 13 8 14
REMARK SMILES IDX 11 15 12 16 13 17 24 18 14 19 16 20 25 21 15 22 17 23 18 24
REMARK SMILES IDX 23 25 19 26 22 27 20 28 21 29 29 30 30 31 31 32 32 33 33 35
REMARK SMILES IDX 34 36 35 37 99 38 36 39 98 40 37 41 38 42 39 43 92 44 40 45
REMARK SMILES IDX 97 46 91 47 93 48 41 49 96 50 90 51 89 52 42 54 76 55 55 56
REMARK SMILES IDX 75 57 56 58 59 59 74 60 94 61 57 62 58 63 73 65 95 66 60 67
REMARK SMILES IDX 43 68 44 69 53 70 45 71 46 72 52 73 54 74 47 75 48 76 49 77
REMARK SMILES IDX 50 78 51 79 77 80 78 81 87 82 79 83 80 84 86 85 88 86 81 87
REMARK SMILES IDX 82 88 83 89 84 90 85 91 61 92 62 93 71 94 63 95 64 96 70 97
REMARK SMILES IDX 72 98 65 99 66 100 67 101 68 102 69 103
REMARK H PARENT 26 6 31 34 93 53 59 64
REMARK Flexibility Score: inf
ROOT
ATOM      1  C   UNL A   1      41.773  21.313  26.263  1.00  0.00     0.023 C 
ENDROOT
BRANCH   1   2
ATOM      2  C   UNL A   1      40.460  21.639  27.016  1.00  0.00     0.116 C 
BRANCH   2   3
ATOM      3  N   UNL A   1      39.396  22.387  26.327  1.00  0.00    -0.353 N 
ATOM      4  O   UNL A   1      38.471  20.546  25.306  1.00  0.00    -0.271 OA
ATOM      5  C   UNL A   1      38.359  21.722  25.656  1.00  0.00     0.257 C 
ATOM      6  H   UNL A   1      39.412  23.371  26.338  1.00  0.00     0.163 HD
BRANCH   5   7
ATOM      7  C   UNL A   1      37.001  22.498  25.441  1.00  0.00     0.329 C 
BRANCH   7   8
ATOM      8  O   UNL A   1      36.187  22.423  24.261  1.00  0.00    -0.483 OA
BRANCH   8   9
ATOM      9  C   UNL A   1      34.975  21.776  24.358  1.00  0.00     0.127 A 
ATOM     10  C   UNL A   1      34.942  20.488  24.893  1.00  0.00     0.047 A 
ATOM     11  C   UNL A   1      33.821  22.256  23.703  1.00  0.00     0.018 A 
ATOM     12  C   UNL A   1      33.737  19.773  24.927  1.00  0.00     0.004 A 
ATOM     13  C   UNL A   1      32.598  21.593  23.831  1.00  0.00     0.012 A 
ATOM     14  C   UNL A   1      32.558  20.349  24.451  1.00  0.00     0.001 A 
BRANCH  11  15
ATOM     15  C   UNL A   1      33.926  23.428  22.824  1.00  0.00     0.033 C 
ATOM     16  C   UNL A   1      33.249  24.522  23.209  1.00  0.00     0.084 C 
ATOM     17  S   UNL A   1      31.856  25.117  22.409  1.00  0.00    -0.022 SA
ATOM     18  C   UNL A   1      33.480  25.322  24.439  1.00  0.00     0.272 C 
ATOM     19  C   UNL A   1      31.800  26.556  23.350  1.00  0.00     0.298 C 
ATOM     20  N   UNL A   1      32.671  26.460  24.405  1.00  0.00    -0.236 N 
ATOM     21  O   UNL A   1      34.323  25.005  25.264  1.00  0.00    -0.268 OA
ATOM     22  O   UNL A   1      31.129  27.501  22.945  1.00  0.00    -0.260 OA
BRANCH  20  23
ATOM     23  C   UNL A   1      32.793  27.533  25.330  1.00  0.00     0.053 A 
ATOM     24  C   UNL A   1      33.734  28.554  25.142  1.00  0.00     0.030 A 
ATOM     25  C   UNL A   1      31.929  27.615  26.438  1.00  0.00     0.030 A 
ATOM     26  C   UNL A   1      33.804  29.624  26.036  1.00  0.00     0.041 A 
ATOM     27  C   UNL A   1      31.998  28.683  27.328  1.00  0.00     0.041 A 
ATOM     28  C   UNL A   1      32.940  29.675  27.121  1.00  0.00     0.123 A 
ATOM     29  F   UNL A   1      33.010  30.704  27.969  1.00  0.00    -0.207 F 
ENDBRANCH  20  23
ENDBRANCH  11  15
ENDBRANCH   8   9
ENDBRANCH   7   8
ENDBRANCH   5   7
ENDBRANCH   2   3
ENDBRANCH   1   2
BRANCH   1  30
ATOM     30  C   UNL A   1      43.159  21.826  26.734  1.00  0.00     0.023 C 
BRANCH  30  31
ATOM     31  C   UNL A   1      43.404  23.335  26.967  1.00  0.00     0.116 C 
BRANCH  31  32
ATOM     32  N   UNL A   1      42.990  24.198  25.874  1.00  0.00    -0.352 N 
ATOM     33  C   UNL A   1      42.386  25.440  25.848  1.00  0.00     0.251 C 
ATOM     34  H   UNL A   1      43.176  23.828  24.981  1.00  0.00     0.163 HD
ATOM     35  O   UNL A   1      42.081  25.896  24.743  1.00  0.00    -0.269 OA
BRANCH  33  36
ATOM     36  C   UNL A   1      42.062  26.258  27.058  1.00  0.00     0.039 A 
ATOM     37  C   UNL A   1      42.887  27.359  27.344  1.00  0.00     0.014 A 
ATOM     38  C   UNL A   1      41.089  25.910  27.996  1.00  0.00     0.014 A 
ATOM     39  C   UNL A   1      42.707  28.130  28.509  1.00  0.00     0.010 A 
ATOM     40  C   UNL A   1      40.892  26.702  29.151  1.00  0.00     0.010 A 
ATOM     41  C   UNL A   1      41.683  27.832  29.423  1.00  0.00    -0.014 A 
BRANCH  41  42
ATOM     42  C   UNL A   1      41.417  28.721  30.607  1.00  0.00     0.031 A 
ATOM     43  C   UNL A   1      42.217  28.623  31.888  1.00  0.00     0.074 A 
ATOM     44  C   UNL A   1      40.413  29.625  30.553  1.00  0.00     0.049 A 
ATOM     45  N   UNL A   1      42.100  29.318  32.996  1.00  0.00    -0.248 NA
ATOM     46  C   UNL A   1      43.282  27.613  31.934  1.00  0.00     0.031 C 
ATOM     47  C   UNL A   1      39.525  29.829  29.408  1.00  0.00     0.029 A 
ATOM     48  N   UNL A   1      39.962  30.539  31.482  1.00  0.00    -0.354 N 
ATOM     49  C   UNL A   1      43.065  28.828  33.871  1.00  0.00     0.074 A 
ATOM     50  C   UNL A   1      43.737  27.750  33.173  1.00  0.00     0.031 C 
ATOM     51  C   UNL A   1      38.653  30.809  29.692  1.00  0.00     0.029 A 
ATOM     52  C   UNL A   1      38.885  31.284  31.054  1.00  0.00     0.049 A 
ATOM     53  H   UNL A   1      40.372  30.649  32.370  1.00  0.00     0.167 HD
ATOM     54  C   UNL A   1      43.379  29.241  35.128  1.00  0.00     0.037 A 
ATOM     55  C   UNL A   1      38.151  32.231  31.675  1.00  0.00     0.037 A 
ATOM     56  C   UNL A   1      42.719  30.316  35.834  1.00  0.00     0.049 A 
ATOM     57  C   UNL A   1      38.495  32.650  33.082  1.00  0.00     0.074 A 
ATOM     58  C   UNL A   1      43.014  30.828  37.088  1.00  0.00     0.029 A 
ATOM     59  N   UNL A   1      41.630  31.033  35.365  1.00  0.00    -0.354 N 
ATOM     60  N   UNL A   1      39.459  32.219  33.858  1.00  0.00    -0.248 NA
ATOM     61  C   UNL A   1      37.653  33.690  33.695  1.00  0.00     0.031 C 
ATOM     62  C   UNL A   1      42.069  31.811  37.400  1.00  0.00     0.029 A 
ATOM     63  C   UNL A   1      41.224  31.961  36.315  1.00  0.00     0.049 A 
ATOM     64  H   UNL A   1      41.205  30.903  34.485  1.00  0.00     0.167 HD
ATOM     65  C   UNL A   1      39.358  32.956  35.036  1.00  0.00     0.074 A 
ATOM     66  C   UNL A   1      38.249  33.868  34.867  1.00  0.00     0.031 C 
ATOM     67  C   UNL A   1      40.123  32.879  36.153  1.00  0.00     0.037 A 
BRANCH  54  68
ATOM     68  C   UNL A   1      44.500  28.529  35.847  1.00  0.00     0.058 A 
ATOM     69  C   UNL A   1      45.836  28.939  35.718  1.00  0.00     0.135 A 
ATOM     70  C   UNL A   1      44.227  27.474  36.736  1.00  0.00     0.135 A 
ATOM     71  F   UNL A   1      46.159  29.940  34.886  1.00  0.00    -0.206 F 
ATOM     72  C   UNL A   1      46.864  28.310  36.416  1.00  0.00     0.059 A 
ATOM     73  C   UNL A   1      45.236  26.850  37.467  1.00  0.00     0.059 A 
ATOM     74  F   UNL A   1      42.966  27.049  36.915  1.00  0.00    -0.206 F 
ATOM     75  C   UNL A   1      46.554  27.264  37.288  1.00  0.00     0.060 A 
BRANCH  75  76
ATOM     76  S   UNL A   1      47.901  26.461  38.184  1.00  0.00     0.124 S 
ATOM     77  O   UNL A   1      48.591  27.609  38.762  1.00  0.00    -0.237 OA
ATOM     78  O   UNL A   1      47.184  25.611  39.130  1.00  0.00    -0.237 OA
ATOM     79  O   UNL A   1      48.633  25.751  37.138  1.00  0.00    -0.744 OA
ENDBRANCH  75  76
ENDBRANCH  54  68
BRANCH  55  80
ATOM     80  C   UNL A   1      37.001  32.863  30.968  1.00  0.00     0.058 A 
ATOM     81  C   UNL A   1      37.195  33.904  30.048  1.00  0.00     0.135 A 
ATOM     82  C   UNL A   1      35.682  32.443  31.206  1.00  0.00     0.135 A 
ATOM     83  F   UNL A   1      38.434  34.354  29.795  1.00  0.00    -0.206 F 
ATOM     84  C   UNL A   1      36.127  34.517  29.400  1.00  0.00     0.059 A 
ATOM     85  C   UNL A   1      34.599  33.018  30.549  1.00  0.00     0.059 A 
ATOM     86  F   UNL A   1      35.440  31.445  32.071  1.00  0.00    -0.206 F 
ATOM     87  C   UNL A   1      34.831  34.063  29.655  1.00  0.00     0.060 A 
BRANCH  87  88
ATOM     88  S   UNL A   1      33.454  34.832  28.775  1.00  0.00     0.124 S 
ATOM     89  O   UNL A   1      34.089  36.019  28.215  1.00  0.00    -0.237 OA
ATOM     90  O   UNL A   1      33.084  33.794  27.818  1.00  0.00    -0.237 OA
ATOM     91  O   UNL A   1      32.476  35.078  29.830  1.00  0.00    -0.744 OA
ENDBRANCH  87  88
ENDBRANCH  55  80
BRANCH  67  92
ATOM     92  C   UNL A   1      39.821  33.835  37.280  1.00  0.00     0.058 A 
ATOM     93  C   UNL A   1      38.969  33.489  38.343  1.00  0.00     0.135 A 
ATOM     94  C   UNL A   1      40.428  35.101  37.323  1.00  0.00     0.135 A 
ATOM     95  F   UNL A   1      38.354  32.297  38.355  1.00  0.00    -0.206 F 
ATOM     96  C   UNL A   1      38.714  34.371  39.391  1.00  0.00     0.059 A 
ATOM     97  C   UNL A   1      40.210  35.987  38.375  1.00  0.00     0.059 A 
ATOM     98  F   UNL A   1      41.257  35.486  36.340  1.00  0.00    -0.206 F 
ATOM     99  C   UNL A   1      39.342  35.617  39.400  1.00  0.00     0.060 A 
BRANCH  99 100
ATOM    100  S   UNL A   1      39.026  36.737  40.782  1.00  0.00     0.124 S 
ATOM    101  O   UNL A   1      38.316  37.828  40.121  1.00  0.00    -0.237 OA
ATOM    102  O   UNL A   1      38.224  35.910  41.678  1.00  0.00    -0.237 OA
ATOM    103  O   UNL A   1      40.362  37.065  41.269  1.00  0.00    -0.744 OA
ENDBRANCH  99 100
ENDBRANCH  67  92
ENDBRANCH  41  42
ENDBRANCH  33  36
ENDBRANCH  31  32
ENDBRANCH  30  31
ENDBRANCH   1  30
TORSDOF 18
ENDMDL
