MODEL 1
REMARK VINA RESULT:     -11.4      0.000      0.000
REMARK SMILES C[NH2+][C@]1(C(=O)NCCCCNC(=O)c2ccc(-c3c4nc(c(-c5c(F)cc(S(=O)(=O)[O-])cc5F)c5ccc([nH]5)c(-c5c(F)cc(S(=O)(=O)[O-])cc5F)c5nc(c(-c6c(F)cc(S(=O)(=O)[O-])cc6F)c6ccc3[nH]6)C=C5)C=C4)cc2)CCC[C@@H]1CC[N@H+]1CCC[C@H]([NH+](C)C)C1
REMARK SMILES IDX 8 1 7 2 6 3 4 4 5 5 3 7 80 8 83 9 81 10 82 11 2 12 1 13
REMARK SMILES IDX 84 16 85 17 86 18 87 19 94 20 88 22 90 23 89 24 91 25 92 26
REMARK SMILES IDX 93 27 9 29 10 30 11 31 12 32 13 34 14 35 15 36 79 37 16 38
REMARK SMILES IDX 78 39 17 40 18 41 19 42 72 43 20 44 77 45 71 46 73 47 21 48
REMARK SMILES IDX 76 49 70 50 69 51 22 53 56 54 35 55 55 56 36 57 39 58 54 59
REMARK SMILES IDX 74 60 37 61 38 62 53 64 75 65 40 66 23 67 24 68 33 69 25 70
REMARK SMILES IDX 26 71 32 72 34 73 27 74 28 75 29 76 30 77 31 78 57 79 58 80
REMARK SMILES IDX 67 81 59 82 60 83 66 84 68 85 61 86 62 87 63 88 64 89 65 90
REMARK SMILES IDX 41 91 42 92 51 93 43 94 44 95 50 96 52 97 45 98 46 99 47 100
REMARK SMILES IDX 48 101 49 102
REMARK H PARENT 6 6 2 14 2 15 86 21 91 28 11 33 73 52 39 63
REMARK Flexibility Score: inf
ROOT
ATOM      1  C   UNL A   1      38.264  22.114  25.543  1.00  0.00     0.023 C 
ENDROOT
BRANCH   1   2
ATOM      2  C   UNL A   1      37.307  21.332  24.642  1.00  0.00     0.116 C 
BRANCH   2   3
ATOM      3  N   UNL A   1      36.600  22.235  23.759  1.00  0.00    -0.351 N 
ATOM      4  C   UNL A   1      35.311  22.663  23.730  1.00  0.00     0.281 C 
ATOM      5  O   UNL A   1      35.015  23.389  22.767  1.00  0.00    -0.268 OA
ATOM      6  H   UNL A   1      37.160  22.610  23.040  1.00  0.00     0.163 HD
BRANCH   4   7
ATOM      7  C   UNL A   1      34.258  22.407  24.868  1.00  0.00     0.178 C 
ATOM      8  C   UNL A   1      34.441  21.165  25.753  1.00  0.00     0.079 C 
ATOM      9  C   UNL A   1      34.341  23.560  25.921  1.00  0.00     0.066 C 
ATOM     10  C   UNL A   1      33.618  21.463  27.000  1.00  0.00     0.008 C 
ATOM     11  C   UNL A   1      33.715  22.975  27.204  1.00  0.00     0.011 C 
BRANCH   7  12
ATOM     12  N   UNL A   1      32.885  22.431  24.251  1.00  0.00    -0.336 N 
ATOM     13  C   UNL A   1      32.512  21.205  23.555  1.00  0.00     0.331 C 
ATOM     14  H   UNL A   1      32.205  22.596  24.993  1.00  0.00     0.346 HD
ATOM     15  H   UNL A   1      32.896  23.171  23.548  1.00  0.00     0.346 HD
ENDBRANCH   7  12
BRANCH   9  16
ATOM     16  C   UNL A   1      33.678  24.881  25.474  1.00  0.00     0.072 C 
BRANCH  16  17
ATOM     17  C   UNL A   1      32.477  25.341  26.313  1.00  0.00     0.262 C 
BRANCH  17  18
ATOM     18  N   UNL A   1      31.997  26.718  26.097  1.00  0.00    -0.330 N 
ATOM     19  C   UNL A   1      32.472  27.693  27.087  1.00  0.00     0.262 C 
ATOM     20  C   UNL A   1      32.403  27.174  24.749  1.00  0.00     0.327 C 
ATOM     21  H   UNL A   1      30.983  26.676  26.197  1.00  0.00     0.348 HD
ATOM     22  C   UNL A   1      31.799  29.046  26.873  1.00  0.00     0.068 C 
ATOM     23  C   UNL A   1      31.819  28.555  24.339  1.00  0.00     0.239 C 
ATOM     24  C   UNL A   1      32.024  29.590  25.466  1.00  0.00     0.077 C 
BRANCH  23  25
ATOM     25  N   UNL A   1      30.446  28.560  23.773  1.00  0.00    -0.333 N 
ATOM     26  C   UNL A   1      29.919  29.918  23.634  1.00  0.00     0.332 C 
ATOM     27  C   UNL A   1      30.298  27.841  22.512  1.00  0.00     0.332 C 
ATOM     28  H   UNL A   1      29.895  28.045  24.461  1.00  0.00     0.348 HD
ENDBRANCH  23  25
ENDBRANCH  17  18
ENDBRANCH  16  17
ENDBRANCH   9  16
ENDBRANCH   4   7
ENDBRANCH   2   3
ENDBRANCH   1   2
BRANCH   1  29
ATOM     29  C   UNL A   1      37.773  23.523  25.891  1.00  0.00     0.023 C 
BRANCH  29  30
ATOM     30  C   UNL A   1      38.791  24.388  26.627  1.00  0.00     0.116 C 
BRANCH  30  31
ATOM     31  N   UNL A   1      40.108  24.365  26.008  1.00  0.00    -0.352 N 
ATOM     32  C   UNL A   1      41.223  25.093  26.341  1.00  0.00     0.251 C 
ATOM     33  H   UNL A   1      40.213  23.745  25.250  1.00  0.00     0.163 HD
ATOM     34  O   UNL A   1      42.229  25.036  25.638  1.00  0.00    -0.269 OA
BRANCH  32  35
ATOM     35  C   UNL A   1      41.188  25.975  27.526  1.00  0.00     0.039 A 
ATOM     36  C   UNL A   1      42.087  27.042  27.597  1.00  0.00     0.014 A 
ATOM     37  C   UNL A   1      40.253  25.767  28.544  1.00  0.00     0.014 A 
ATOM     38  C   UNL A   1      42.007  27.940  28.660  1.00  0.00     0.010 A 
ATOM     39  C   UNL A   1      40.133  26.702  29.569  1.00  0.00     0.010 A 
ATOM     40  C   UNL A   1      41.007  27.798  29.636  1.00  0.00    -0.014 A 
BRANCH  40  41
ATOM     41  C   UNL A   1      40.854  28.791  30.729  1.00  0.00     0.031 A 
ATOM     42  C   UNL A   1      41.710  28.696  31.961  1.00  0.00     0.074 A 
ATOM     43  C   UNL A   1      39.894  29.731  30.639  1.00  0.00     0.049 A 
ATOM     44  N   UNL A   1      41.676  29.424  33.046  1.00  0.00    -0.248 NA
ATOM     45  C   UNL A   1      42.717  27.624  31.989  1.00  0.00     0.031 C 
ATOM     46  C   UNL A   1      38.963  29.887  29.519  1.00  0.00     0.029 A 
ATOM     47  N   UNL A   1      39.531  30.728  31.510  1.00  0.00    -0.354 N 
ATOM     48  C   UNL A   1      42.642  28.892  33.891  1.00  0.00     0.074 A 
ATOM     49  C   UNL A   1      43.212  27.748  33.213  1.00  0.00     0.031 C 
ATOM     50  C   UNL A   1      38.149  30.927  29.764  1.00  0.00     0.029 A 
ATOM     51  C   UNL A   1      38.474  31.490  31.070  1.00  0.00     0.049 A 
ATOM     52  H   UNL A   1      39.984  30.882  32.371  1.00  0.00     0.167 HD
ATOM     53  C   UNL A   1      43.031  29.327  35.113  1.00  0.00     0.037 A 
ATOM     54  C   UNL A   1      37.836  32.522  31.654  1.00  0.00     0.037 A 
ATOM     55  C   UNL A   1      42.480  30.485  35.768  1.00  0.00     0.049 A 
ATOM     56  C   UNL A   1      38.302  33.004  33.002  1.00  0.00     0.074 A 
ATOM     57  C   UNL A   1      42.855  31.051  36.974  1.00  0.00     0.029 A 
ATOM     58  N   UNL A   1      41.436  31.254  35.273  1.00  0.00    -0.354 N 
ATOM     59  N   UNL A   1      39.265  32.530  33.756  1.00  0.00    -0.248 NA
ATOM     60  C   UNL A   1      37.603  34.162  33.573  1.00  0.00     0.031 C 
ATOM     61  C   UNL A   1      42.013  32.138  37.228  1.00  0.00     0.029 A 
ATOM     62  C   UNL A   1      41.142  32.277  36.159  1.00  0.00     0.049 A 
ATOM     63  H   UNL A   1      40.973  31.095  34.419  1.00  0.00     0.167 HD
ATOM     64  C   UNL A   1      39.303  33.347  34.880  1.00  0.00     0.074 A 
ATOM     65  C   UNL A   1      38.274  34.351  34.700  1.00  0.00     0.031 C 
ATOM     66  C   UNL A   1      40.116  33.273  35.963  1.00  0.00     0.037 A 
BRANCH  53  67
ATOM     67  C   UNL A   1      44.111  28.554  35.819  1.00  0.00     0.058 A 
ATOM     68  C   UNL A   1      45.470  28.856  35.641  1.00  0.00     0.135 A 
ATOM     69  C   UNL A   1      43.781  27.522  36.713  1.00  0.00     0.135 A 
ATOM     70  F   UNL A   1      45.841  29.822  34.785  1.00  0.00    -0.206 F 
ATOM     71  C   UNL A   1      46.466  28.144  36.301  1.00  0.00     0.059 A 
ATOM     72  C   UNL A   1      44.760  26.815  37.405  1.00  0.00     0.059 A 
ATOM     73  F   UNL A   1      42.496  27.192  36.920  1.00  0.00    -0.206 F 
ATOM     74  C   UNL A   1      46.101  27.124  37.181  1.00  0.00     0.060 A 
BRANCH  74  75
ATOM     75  S   UNL A   1      47.406  26.217  38.037  1.00  0.00     0.124 S 
ATOM     76  O   UNL A   1      46.664  25.614  39.140  1.00  0.00    -0.237 OA
ATOM     77  O   UNL A   1      47.874  25.294  37.008  1.00  0.00    -0.237 OA
ATOM     78  O   UNL A   1      48.353  27.261  38.415  1.00  0.00    -0.744 OA
ENDBRANCH  74  75
ENDBRANCH  53  67
BRANCH  54  79
ATOM     79  C   UNL A   1      36.704  33.185  30.954  1.00  0.00     0.058 A 
ATOM     80  C   UNL A   1      35.383  33.010  31.393  1.00  0.00     0.135 A 
ATOM     81  C   UNL A   1      36.921  34.025  29.852  1.00  0.00     0.135 A 
ATOM     82  F   UNL A   1      35.125  32.212  32.439  1.00  0.00    -0.206 F 
ATOM     83  C   UNL A   1      34.315  33.633  30.756  1.00  0.00     0.059 A 
ATOM     84  C   UNL A   1      35.872  34.679  29.213  1.00  0.00     0.059 A 
ATOM     85  F   UNL A   1      38.168  34.240  29.405  1.00  0.00    -0.206 F 
ATOM     86  C   UNL A   1      34.571  34.470  29.668  1.00  0.00     0.060 A 
BRANCH  86  87
ATOM     87  S   UNL A   1      33.183  35.320  28.884  1.00  0.00     0.124 S 
ATOM     88  O   UNL A   1      32.451  35.815  30.043  1.00  0.00    -0.237 OA
ATOM     89  O   UNL A   1      33.859  36.330  28.076  1.00  0.00    -0.237 OA
ATOM     90  O   UNL A   1      32.527  34.259  28.126  1.00  0.00    -0.744 OA
ENDBRANCH  86  87
ENDBRANCH  54  79
BRANCH  66  91
ATOM     91  C   UNL A   1      39.950  34.322  37.026  1.00  0.00     0.058 A 
ATOM     92  C   UNL A   1      40.575  35.574  36.929  1.00  0.00     0.135 A 
ATOM     93  C   UNL A   1      39.110  34.090  38.127  1.00  0.00     0.135 A 
ATOM     94  F   UNL A   1      41.393  35.843  35.899  1.00  0.00    -0.206 F 
ATOM     95  C   UNL A   1      40.389  36.555  37.898  1.00  0.00     0.059 A 
ATOM     96  C   UNL A   1      38.888  35.065  39.094  1.00  0.00     0.059 A 
ATOM     97  F   UNL A   1      38.480  32.911  38.261  1.00  0.00    -0.206 F 
ATOM     98  C   UNL A   1      39.542  36.291  38.976  1.00  0.00     0.060 A 
BRANCH  98  99
ATOM     99  S   UNL A   1      39.279  37.585  40.208  1.00  0.00     0.124 S 
ATOM    100  O   UNL A   1      38.213  38.366  39.591  1.00  0.00    -0.237 OA
ATOM    101  O   UNL A   1      38.901  36.819  41.392  1.00  0.00    -0.237 OA
ATOM    102  O   UNL A   1      40.578  38.246  40.288  1.00  0.00    -0.744 OA
ENDBRANCH  98  99
ENDBRANCH  66  91
ENDBRANCH  40  41
ENDBRANCH  32  35
ENDBRANCH  30  31
ENDBRANCH  29  30
ENDBRANCH   1  29
TORSDOF 19
ENDMDL
MODEL 2
REMARK VINA RESULT:     -11.2      6.545     12.154
REMARK SMILES C[NH2+][C@]1(C(=O)NCCCCNC(=O)c2ccc(-c3c4nc(c(-c5c(F)cc(S(=O)(=O)[O-])cc5F)c5ccc([nH]5)c(-c5c(F)cc(S(=O)(=O)[O-])cc5F)c5nc(c(-c6c(F)cc(S(=O)(=O)[O-])cc6F)c6ccc3[nH]6)C=C5)C=C4)cc2)CCC[C@@H]1CC[N@H+]1CCC[C@H]([NH+](C)C)C1
REMARK SMILES IDX 8 1 7 2 6 3 4 4 5 5 3 7 80 8 83 9 81 10 82 11 2 12 1 13
REMARK SMILES IDX 84 16 85 17 86 18 87 19 94 20 88 22 90 23 89 24 91 25 92 26
REMARK SMILES IDX 93 27 9 29 10 30 11 31 12 32 13 34 14 35 15 36 79 37 16 38
REMARK SMILES IDX 78 39 17 40 18 41 19 42 72 43 20 44 77 45 71 46 73 47 21 48
REMARK SMILES IDX 76 49 70 50 69 51 22 53 56 54 35 55 55 56 36 57 39 58 54 59
REMARK SMILES IDX 74 60 37 61 38 62 53 64 75 65 40 66 23 67 24 68 33 69 25 70
REMARK SMILES IDX 26 71 32 72 34 73 27 74 28 75 29 76 30 77 31 78 57 79 58 80
REMARK SMILES IDX 67 81 59 82 60 83 66 84 68 85 61 86 62 87 63 88 64 89 65 90
REMARK SMILES IDX 41 91 42 92 51 93 43 94 44 95 50 96 52 97 45 98 46 99 47 100
REMARK SMILES IDX 48 101 49 102
REMARK H PARENT 6 6 2 14 2 15 86 21 91 28 11 33 73 52 39 63
REMARK Flexibility Score: inf
ROOT
ATOM      1  C   UNL A   1      33.389  30.069  26.716  1.00  0.00     0.023 C 
ENDROOT
BRANCH   1   2
ATOM      2  C   UNL A   1      31.890  29.860  26.931  1.00  0.00     0.116 C 
BRANCH   2   3
ATOM      3  N   UNL A   1      31.606  28.457  27.155  1.00  0.00    -0.351 N 
ATOM      4  C   UNL A   1      31.286  27.443  26.309  1.00  0.00     0.281 C 
ATOM      5  O   UNL A   1      31.024  26.360  26.857  1.00  0.00    -0.268 OA
ATOM      6  H   UNL A   1      31.654  28.187  28.101  1.00  0.00     0.163 HD
BRANCH   4   7
ATOM      7  C   UNL A   1      31.354  27.530  24.741  1.00  0.00     0.178 C 
ATOM      8  C   UNL A   1      31.069  28.888  24.082  1.00  0.00     0.079 C 
ATOM      9  C   UNL A   1      32.817  27.252  24.270  1.00  0.00     0.066 C 
ATOM     10  C   UNL A   1      31.682  28.772  22.694  1.00  0.00     0.008 C 
ATOM     11  C   UNL A   1      32.909  27.874  22.860  1.00  0.00     0.011 C 
BRANCH   7  12
ATOM     12  N   UNL A   1      30.463  26.458  24.173  1.00  0.00    -0.336 N 
ATOM     13  C   UNL A   1      29.094  26.884  23.910  1.00  0.00     0.331 C 
ATOM     14  H   UNL A   1      30.871  26.137  23.296  1.00  0.00     0.346 HD
ATOM     15  H   UNL A   1      30.407  25.724  24.879  1.00  0.00     0.346 HD
ENDBRANCH   7  12
BRANCH   9  16
ATOM     16  C   UNL A   1      33.225  25.762  24.299  1.00  0.00     0.072 C 
BRANCH  16  17
ATOM     17  C   UNL A   1      34.237  25.369  25.385  1.00  0.00     0.262 C 
BRANCH  17  18
ATOM     18  N   UNL A   1      34.355  23.934  25.704  1.00  0.00    -0.330 N 
ATOM     19  C   UNL A   1      33.186  23.361  26.381  1.00  0.00     0.262 C 
ATOM     20  C   UNL A   1      34.602  23.174  24.459  1.00  0.00     0.327 C 
ATOM     21  H   UNL A   1      35.133  23.860  26.358  1.00  0.00     0.348 HD
ATOM     22  C   UNL A   1      33.465  21.922  26.808  1.00  0.00     0.068 C 
ATOM     23  C   UNL A   1      34.904  21.665  24.681  1.00  0.00     0.239 C 
ATOM     24  C   UNL A   1      33.864  21.036  25.633  1.00  0.00     0.077 C 
BRANCH  23  25
ATOM     25  N   UNL A   1      36.306  21.305  25.012  1.00  0.00    -0.333 N 
ATOM     26  C   UNL A   1      36.526  19.860  24.950  1.00  0.00     0.332 C 
ATOM     27  C   UNL A   1      37.321  21.995  24.223  1.00  0.00     0.332 C 
ATOM     28  H   UNL A   1      36.422  21.630  25.972  1.00  0.00     0.348 HD
ENDBRANCH  23  25
ENDBRANCH  17  18
ENDBRANCH  16  17
ENDBRANCH   9  16
ENDBRANCH   4   7
ENDBRANCH   2   3
ENDBRANCH   1   2
BRANCH   1  29
ATOM     29  C   UNL A   1      34.257  28.930  27.262  1.00  0.00     0.023 C 
BRANCH  29  30
ATOM     30  C   UNL A   1      35.598  29.373  27.839  1.00  0.00     0.116 C 
BRANCH  30  31
ATOM     31  N   UNL A   1      35.472  30.017  29.137  1.00  0.00    -0.352 N 
ATOM     32  C   UNL A   1      36.462  30.327  30.038  1.00  0.00     0.251 C 
ATOM     33  H   UNL A   1      34.558  30.264  29.406  1.00  0.00     0.163 HD
ATOM     34  O   UNL A   1      36.169  30.770  31.146  1.00  0.00    -0.269 OA
BRANCH  32  35
ATOM     35  C   UNL A   1      37.874  30.085  29.679  1.00  0.00     0.039 A 
ATOM     36  C   UNL A   1      38.790  29.816  30.698  1.00  0.00     0.014 A 
ATOM     37  C   UNL A   1      38.283  30.093  28.342  1.00  0.00     0.014 A 
ATOM     38  C   UNL A   1      40.107  29.491  30.372  1.00  0.00     0.010 A 
ATOM     39  C   UNL A   1      39.580  29.706  28.017  1.00  0.00     0.010 A 
ATOM     40  C   UNL A   1      40.503  29.399  29.028  1.00  0.00    -0.014 A 
BRANCH  40  41
ATOM     41  C   UNL A   1      41.878  28.974  28.660  1.00  0.00     0.031 A 
ATOM     42  C   UNL A   1      42.988  29.986  28.590  1.00  0.00     0.074 A 
ATOM     43  C   UNL A   1      42.106  27.691  28.320  1.00  0.00     0.049 A 
ATOM     44  N   UNL A   1      44.232  29.821  28.223  1.00  0.00    -0.248 NA
ATOM     45  C   UNL A   1      42.648  31.371  28.954  1.00  0.00     0.031 C 
ATOM     46  C   UNL A   1      41.096  26.630  28.294  1.00  0.00     0.029 A 
ATOM     47  N   UNL A   1      43.256  27.061  27.918  1.00  0.00    -0.354 N 
ATOM     48  C   UNL A   1      44.818  31.078  28.294  1.00  0.00     0.074 A 
ATOM     49  C   UNL A   1      43.783  32.005  28.694  1.00  0.00     0.031 C 
ATOM     50  C   UNL A   1      41.675  25.480  27.914  1.00  0.00     0.029 A 
ATOM     51  C   UNL A   1      43.087  25.725  27.637  1.00  0.00     0.049 A 
ATOM     52  H   UNL A   1      44.123  27.521  27.839  1.00  0.00     0.167 HD
ATOM     53  C   UNL A   1      46.108  31.424  28.067  1.00  0.00     0.037 A 
ATOM     54  C   UNL A   1      43.967  24.804  27.199  1.00  0.00     0.037 A 
ATOM     55  C   UNL A   1      47.140  30.490  27.700  1.00  0.00     0.049 A 
ATOM     56  C   UNL A   1      45.399  25.208  26.975  1.00  0.00     0.074 A 
ATOM     57  C   UNL A   1      48.491  30.728  27.516  1.00  0.00     0.029 A 
ATOM     58  N   UNL A   1      46.936  29.138  27.460  1.00  0.00    -0.354 N 
ATOM     59  N   UNL A   1      45.952  26.389  27.115  1.00  0.00    -0.248 NA
ATOM     60  C   UNL A   1      46.327  24.154  26.544  1.00  0.00     0.031 C 
ATOM     61  C   UNL A   1      49.097  29.530  27.127  1.00  0.00     0.029 A 
ATOM     62  C   UNL A   1      48.133  28.534  27.111  1.00  0.00     0.049 A 
ATOM     63  H   UNL A   1      46.069  28.677  27.526  1.00  0.00     0.167 HD
ATOM     64  C   UNL A   1      47.298  26.216  26.812  1.00  0.00     0.074 A 
ATOM     65  C   UNL A   1      47.476  24.815  26.493  1.00  0.00     0.031 C 
ATOM     66  C   UNL A   1      48.295  27.135  26.800  1.00  0.00     0.037 A 
BRANCH  53  67
ATOM     67  C   UNL A   1      46.478  32.874  28.215  1.00  0.00     0.058 A 
ATOM     68  C   UNL A   1      46.960  33.391  29.428  1.00  0.00     0.135 A 
ATOM     69  C   UNL A   1      46.383  33.750  27.121  1.00  0.00     0.135 A 
ATOM     70  F   UNL A   1      47.055  32.601  30.509  1.00  0.00    -0.206 F 
ATOM     71  C   UNL A   1      47.310  34.731  29.561  1.00  0.00     0.059 A 
ATOM     72  C   UNL A   1      46.753  35.088  27.224  1.00  0.00     0.059 A 
ATOM     73  F   UNL A   1      45.928  33.309  25.939  1.00  0.00    -0.206 F 
ATOM     74  C   UNL A   1      47.201  35.572  28.452  1.00  0.00     0.060 A 
BRANCH  74  75
ATOM     75  S   UNL A   1      47.668  37.306  28.638  1.00  0.00     0.124 S 
ATOM     76  O   UNL A   1      49.121  37.230  28.524  1.00  0.00    -0.237 OA
ATOM     77  O   UNL A   1      46.976  37.939  27.520  1.00  0.00    -0.237 OA
ATOM     78  O   UNL A   1      47.161  37.654  29.962  1.00  0.00    -0.744 OA
ENDBRANCH  74  75
ENDBRANCH  53  67
BRANCH  54  79
ATOM     79  C   UNL A   1      43.521  23.405  26.968  1.00  0.00     0.058 A 
ATOM     80  C   UNL A   1      43.211  22.560  28.043  1.00  0.00     0.135 A 
ATOM     81  C   UNL A   1      43.369  22.894  25.670  1.00  0.00     0.135 A 
ATOM     82  F   UNL A   1      43.346  23.001  29.303  1.00  0.00    -0.206 F 
ATOM     83  C   UNL A   1      42.781  21.252  27.842  1.00  0.00     0.059 A 
ATOM     84  C   UNL A   1      42.917  21.598  25.442  1.00  0.00     0.059 A 
ATOM     85  F   UNL A   1      43.635  23.669  24.607  1.00  0.00    -0.206 F 
ATOM     86  C   UNL A   1      42.633  20.782  26.536  1.00  0.00     0.060 A 
BRANCH  86  87
ATOM     87  S   UNL A   1      42.017  19.102  26.285  1.00  0.00     0.124 S 
ATOM     88  O   UNL A   1      42.255  18.504  27.594  1.00  0.00    -0.237 OA
ATOM     89  O   UNL A   1      40.621  19.337  25.933  1.00  0.00    -0.237 OA
ATOM     90  O   UNL A   1      42.853  18.599  25.199  1.00  0.00    -0.744 OA
ENDBRANCH  86  87
ENDBRANCH  54  79
BRANCH  66  91
ATOM     91  C   UNL A   1      49.677  26.652  26.459  1.00  0.00     0.058 A 
ATOM     92  C   UNL A   1      50.505  26.053  27.420  1.00  0.00     0.135 A 
ATOM     93  C   UNL A   1      50.154  26.739  25.141  1.00  0.00     0.135 A 
ATOM     94  F   UNL A   1      50.098  25.951  28.695  1.00  0.00    -0.206 F 
ATOM     95  C   UNL A   1      51.769  25.574  27.091  1.00  0.00     0.059 A 
ATOM     96  C   UNL A   1      51.404  26.244  24.784  1.00  0.00     0.059 A 
ATOM     97  F   UNL A   1      49.395  27.294  24.182  1.00  0.00    -0.206 F 
ATOM     98  C   UNL A   1      52.209  25.673  25.769  1.00  0.00     0.060 A 
BRANCH  98  99
ATOM     99  S   UNL A   1      53.837  25.015  25.346  1.00  0.00     0.124 S 
ATOM    100  O   UNL A   1      53.531  23.609  25.103  1.00  0.00    -0.237 OA
ATOM    101  O   UNL A   1      54.196  25.799  24.168  1.00  0.00    -0.237 OA
ATOM    102  O   UNL A   1      54.633  25.288  26.539  1.00  0.00    -0.744 OA
ENDBRANCH  98  99
ENDBRANCH  66  91
ENDBRANCH  40  41
ENDBRANCH  32  35
ENDBRANCH  30  31
ENDBRANCH  29  30
ENDBRANCH   1  29
TORSDOF 19
ENDMDL
MODEL 3
REMARK VINA RESULT:     -10.6      3.872      7.016
REMARK SMILES C[NH2+][C@]1(C(=O)NCCCCNC(=O)c2ccc(-c3c4nc(c(-c5c(F)cc(S(=O)(=O)[O-])cc5F)c5ccc([nH]5)c(-c5c(F)cc(S(=O)(=O)[O-])cc5F)c5nc(c(-c6c(F)cc(S(=O)(=O)[O-])cc6F)c6ccc3[nH]6)C=C5)C=C4)cc2)CCC[C@@H]1CC[N@H+]1CCC[C@H]([NH+](C)C)C1
REMARK SMILES IDX 8 1 7 2 6 3 4 4 5 5 3 7 80 8 83 9 81 10 82 11 2 12 1 13
REMARK SMILES IDX 84 16 85 17 86 18 87 19 94 20 88 22 90 23 89 24 91 25 92 26
REMARK SMILES IDX 93 27 9 29 10 30 11 31 12 32 13 34 14 35 15 36 79 37 16 38
REMARK SMILES IDX 78 39 17 40 18 41 19 42 72 43 20 44 77 45 71 46 73 47 21 48
REMARK SMILES IDX 76 49 70 50 69 51 22 53 56 54 35 55 55 56 36 57 39 58 54 59
REMARK SMILES IDX 74 60 37 61 38 62 53 64 75 65 40 66 23 67 24 68 33 69 25 70
REMARK SMILES IDX 26 71 32 72 34 73 27 74 28 75 29 76 30 77 31 78 57 79 58 80
REMARK SMILES IDX 67 81 59 82 60 83 66 84 68 85 61 86 62 87 63 88 64 89 65 90
REMARK SMILES IDX 41 91 42 92 51 93 43 94 44 95 50 96 52 97 45 98 46 99 47 100
REMARK SMILES IDX 48 101 49 102
REMARK H PARENT 6 6 2 14 2 15 86 21 91 28 11 33 73 52 39 63
REMARK Flexibility Score: inf
ROOT
ATOM      1  C   UNL A   1      43.262  27.479  25.237  1.00  0.00     0.023 C 
ENDROOT
BRANCH   1   2
ATOM      2  C   UNL A   1      44.719  27.590  25.688  1.00  0.00     0.116 C 
BRANCH   2   3
ATOM      3  N   UNL A   1      45.597  27.645  24.538  1.00  0.00    -0.351 N 
ATOM      4  C   UNL A   1      46.896  27.286  24.361  1.00  0.00     0.281 C 
ATOM      5  O   UNL A   1      47.370  27.551  23.245  1.00  0.00    -0.268 OA
ATOM      6  H   UNL A   1      45.173  28.016  23.730  1.00  0.00     0.163 HD
BRANCH   4   7
ATOM      7  C   UNL A   1      47.749  26.473  25.401  1.00  0.00     0.178 C 
ATOM      8  C   UNL A   1      48.190  27.188  26.687  1.00  0.00     0.079 C 
ATOM      9  C   UNL A   1      46.889  25.300  25.972  1.00  0.00     0.066 C 
ATOM     10  C   UNL A   1      48.528  26.060  27.652  1.00  0.00     0.008 C 
ATOM     11  C   UNL A   1      47.562  24.924  27.309  1.00  0.00     0.011 C 
BRANCH   7  12
ATOM     12  N   UNL A   1      48.931  25.883  24.679  1.00  0.00    -0.336 N 
ATOM     13  C   UNL A   1      50.137  26.701  24.723  1.00  0.00     0.331 C 
ATOM     14  H   UNL A   1      49.143  24.980  25.101  1.00  0.00     0.346 HD
ATOM     15  H   UNL A   1      48.664  25.813  23.697  1.00  0.00     0.346 HD
ENDBRANCH   7  12
BRANCH   9  16
ATOM     16  C   UNL A   1      46.735  24.097  25.015  1.00  0.00     0.072 C 
BRANCH  16  17
ATOM     17  C   UNL A   1      45.294  23.645  24.738  1.00  0.00     0.262 C 
BRANCH  17  18
ATOM     18  N   UNL A   1      44.681  22.723  25.711  1.00  0.00    -0.330 N 
ATOM     19  C   UNL A   1      44.113  23.375  26.897  1.00  0.00     0.262 C 
ATOM     20  C   UNL A   1      43.616  21.943  25.043  1.00  0.00     0.327 C 
ATOM     21  H   UNL A   1      45.439  22.129  26.044  1.00  0.00     0.348 HD
ATOM     22  C   UNL A   1      43.648  22.334  27.911  1.00  0.00     0.068 C 
ATOM     23  C   UNL A   1      42.999  20.819  25.924  1.00  0.00     0.239 C 
ATOM     24  C   UNL A   1      42.629  21.364  27.321  1.00  0.00     0.077 C 
BRANCH  23  25
ATOM     25  N   UNL A   1      43.726  19.526  25.965  1.00  0.00    -0.333 N 
ATOM     26  C   UNL A   1      42.874  18.437  26.443  1.00  0.00     0.332 C 
ATOM     27  C   UNL A   1      44.366  19.140  24.712  1.00  0.00     0.332 C 
ATOM     28  H   UNL A   1      44.481  19.690  26.631  1.00  0.00     0.348 HD
ENDBRANCH  23  25
ENDBRANCH  17  18
ENDBRANCH  16  17
ENDBRANCH   9  16
ENDBRANCH   4   7
ENDBRANCH   2   3
ENDBRANCH   1   2
BRANCH   1  29
ATOM     29  C   UNL A   1      42.743  26.039  25.170  1.00  0.00     0.023 C 
BRANCH  29  30
ATOM     30  C   UNL A   1      41.232  25.899  25.331  1.00  0.00     0.116 C 
BRANCH  30  31
ATOM     31  N   UNL A   1      40.845  24.661  25.990  1.00  0.00    -0.352 N 
ATOM     32  C   UNL A   1      40.511  24.461  27.307  1.00  0.00     0.251 C 
ATOM     33  H   UNL A   1      40.818  23.862  25.417  1.00  0.00     0.163 HD
ATOM     34  O   UNL A   1      40.317  23.323  27.727  1.00  0.00    -0.269 OA
BRANCH  32  35
ATOM     35  C   UNL A   1      40.427  25.619  28.220  1.00  0.00     0.039 A 
ATOM     36  C   UNL A   1      39.210  25.893  28.849  1.00  0.00     0.014 A 
ATOM     37  C   UNL A   1      41.550  26.412  28.476  1.00  0.00     0.014 A 
ATOM     38  C   UNL A   1      39.135  26.924  29.786  1.00  0.00     0.010 A 
ATOM     39  C   UNL A   1      41.489  27.396  29.458  1.00  0.00     0.010 A 
ATOM     40  C   UNL A   1      40.283  27.660  30.123  1.00  0.00    -0.014 A 
BRANCH  40  41
ATOM     41  C   UNL A   1      40.241  28.705  31.178  1.00  0.00     0.031 A 
ATOM     42  C   UNL A   1      41.125  28.592  32.388  1.00  0.00     0.074 A 
ATOM     43  C   UNL A   1      39.355  29.714  31.075  1.00  0.00     0.049 A 
ATOM     44  N   UNL A   1      41.182  29.363  33.442  1.00  0.00    -0.248 NA
ATOM     45  C   UNL A   1      42.046  27.445  32.433  1.00  0.00     0.031 C 
ATOM     46  C   UNL A   1      38.405  29.899  29.975  1.00  0.00     0.029 A 
ATOM     47  N   UNL A   1      39.098  30.770  31.913  1.00  0.00    -0.354 N 
ATOM     48  C   UNL A   1      42.128  28.789  34.282  1.00  0.00     0.074 A 
ATOM     49  C   UNL A   1      42.587  27.579  33.636  1.00  0.00     0.031 C 
ATOM     50  C   UNL A   1      37.682  31.008  30.198  1.00  0.00     0.029 A 
ATOM     51  C   UNL A   1      38.091  31.596  31.470  1.00  0.00     0.049 A 
ATOM     52  H   UNL A   1      39.588  30.922  32.753  1.00  0.00     0.167 HD
ATOM     53  C   UNL A   1      42.588  29.241  35.473  1.00  0.00     0.037 A 
ATOM     54  C   UNL A   1      37.554  32.698  32.028  1.00  0.00     0.037 A 
ATOM     55  C   UNL A   1      42.150  30.464  36.094  1.00  0.00     0.049 A 
ATOM     56  C   UNL A   1      38.097  33.193  33.341  1.00  0.00     0.074 A 
ATOM     57  C   UNL A   1      42.604  31.046  37.264  1.00  0.00     0.029 A 
ATOM     58  N   UNL A   1      41.154  31.293  35.596  1.00  0.00    -0.354 N 
ATOM     59  N   UNL A   1      39.043  32.676  34.088  1.00  0.00    -0.248 NA
ATOM     60  C   UNL A   1      37.508  34.426  33.881  1.00  0.00     0.031 C 
ATOM     61  C   UNL A   1      41.858  32.205  37.495  1.00  0.00     0.029 A 
ATOM     62  C   UNL A   1      40.967  32.370  36.446  1.00  0.00     0.049 A 
ATOM     63  H   UNL A   1      40.653  31.137  34.763  1.00  0.00     0.167 HD
ATOM     64  C   UNL A   1      39.179  33.531  35.175  1.00  0.00     0.074 A 
ATOM     65  C   UNL A   1      38.227  34.605  34.981  1.00  0.00     0.031 C 
ATOM     66  C   UNL A   1      40.018  33.435  36.236  1.00  0.00     0.037 A 
BRANCH  53  67
ATOM     67  C   UNL A   1      43.625  28.413  36.181  1.00  0.00     0.058 A 
ATOM     68  C   UNL A   1      44.990  28.737  36.125  1.00  0.00     0.135 A 
ATOM     69  C   UNL A   1      43.246  27.303  36.954  1.00  0.00     0.135 A 
ATOM     70  F   UNL A   1      45.408  29.779  35.388  1.00  0.00    -0.206 F 
ATOM     71  C   UNL A   1      45.947  27.975  36.787  1.00  0.00     0.059 A 
ATOM     72  C   UNL A   1      44.184  26.542  37.646  1.00  0.00     0.059 A 
ATOM     73  F   UNL A   1      41.955  26.949  37.040  1.00  0.00    -0.206 F 
ATOM     74  C   UNL A   1      45.533  26.878  37.545  1.00  0.00     0.060 A 
BRANCH  74  75
ATOM     75  S   UNL A   1      46.786  25.904  38.406  1.00  0.00     0.124 S 
ATOM     76  O   UNL A   1      46.470  26.193  39.802  1.00  0.00    -0.237 OA
ATOM     77  O   UNL A   1      46.492  24.547  37.957  1.00  0.00    -0.237 OA
ATOM     78  O   UNL A   1      48.044  26.463  37.919  1.00  0.00    -0.744 OA
ENDBRANCH  74  75
ENDBRANCH  53  67
BRANCH  54  79
ATOM     79  C   UNL A   1      36.455  33.419  31.333  1.00  0.00     0.058 A 
ATOM     80  C   UNL A   1      36.706  34.171  30.175  1.00  0.00     0.135 A 
ATOM     81  C   UNL A   1      35.132  33.351  31.794  1.00  0.00     0.135 A 
ATOM     82  F   UNL A   1      37.956  34.271  29.698  1.00  0.00    -0.206 F 
ATOM     83  C   UNL A   1      35.686  34.841  29.507  1.00  0.00     0.059 A 
ATOM     84  C   UNL A   1      34.092  33.992  31.130  1.00  0.00     0.059 A 
ATOM     85  F   UNL A   1      34.838  32.629  32.887  1.00  0.00    -0.206 F 
ATOM     86  C   UNL A   1      34.381  34.742  29.991  1.00  0.00     0.060 A 
BRANCH  86  87
ATOM     87  S   UNL A   1      33.055  35.568  29.082  1.00  0.00     0.124 S 
ATOM     88  O   UNL A   1      32.229  36.079  30.169  1.00  0.00    -0.237 OA
ATOM     89  O   UNL A   1      33.789  36.567  28.311  1.00  0.00    -0.237 OA
ATOM     90  O   UNL A   1      32.468  34.488  28.295  1.00  0.00    -0.744 OA
ENDBRANCH  86  87
ENDBRANCH  54  79
BRANCH  66  91
ATOM     91  C   UNL A   1      39.967  34.536  37.259  1.00  0.00     0.058 A 
ATOM     92  C   UNL A   1      40.689  35.727  37.095  1.00  0.00     0.135 A 
ATOM     93  C   UNL A   1      39.140  34.418  38.388  1.00  0.00     0.135 A 
ATOM     94  F   UNL A   1      41.498  35.887  36.036  1.00  0.00    -0.206 F 
ATOM     95  C   UNL A   1      40.610  36.758  38.026  1.00  0.00     0.059 A 
ATOM     96  C   UNL A   1      39.025  35.445  39.319  1.00  0.00     0.059 A 
ATOM     97  F   UNL A   1      38.419  33.302  38.586  1.00  0.00    -0.206 F 
ATOM     98  C   UNL A   1      39.773  36.608  39.135  1.00  0.00     0.060 A 
BRANCH  98  99
ATOM     99  S   UNL A   1      39.651  37.966  40.318  1.00  0.00     0.124 S 
ATOM    100  O   UNL A   1      38.661  38.825  39.677  1.00  0.00    -0.237 OA
ATOM    101  O   UNL A   1      39.211  37.286  41.532  1.00  0.00    -0.237 OA
ATOM    102  O   UNL A   1      41.009  38.499  40.365  1.00  0.00    -0.744 OA
ENDBRANCH  98  99
ENDBRANCH  66  91
ENDBRANCH  40  41
ENDBRANCH  32  35
ENDBRANCH  30  31
ENDBRANCH  29  30
ENDBRANCH   1  29
TORSDOF 19
ENDMDL
