MODEL 1
REMARK VINA RESULT:     -12.1      0.000      0.000
REMARK SMILES O=C(NCCCCNC(=O)[C@@H]1CCCN(C(=O)/C=C/c2cccc(F)c2)C1)c1ccc(-c2c3nc(c(-c4c(F)cc(S(=O)(=O)[O-])cc4F)c4ccc([nH]4)c(-c4c(F)cc(S(=O)(=O)[O-])cc4F)c4nc(c(-c5c(F)cc(S(=O)(=O)[O-])cc5F)c5ccc2[nH]5)C=C4)C=C3)cc1
REMARK SMILES IDX 5 1 4 2 3 3 1 4 2 5 28 7 29 8 93 9 30 10 92 11 31 12 32 13
REMARK SMILES IDX 33 14 86 15 34 16 91 17 85 18 87 19 35 20 90 21 84 22 83 23
REMARK SMILES IDX 36 25 70 26 49 27 69 28 50 29 53 30 68 31 88 32 51 33 52 34
REMARK SMILES IDX 67 36 89 37 54 38 37 39 38 40 47 41 39 42 40 43 46 44 48 45
REMARK SMILES IDX 41 46 42 47 43 48 44 49 45 50 71 51 72 52 81 53 73 54 74 55
REMARK SMILES IDX 80 56 82 57 75 58 76 59 77 60 78 61 79 62 55 63 56 64 65 65
REMARK SMILES IDX 57 66 58 67 64 68 66 69 59 70 60 71 61 72 62 73 63 74 6 75
REMARK SMILES IDX 7 76 8 77 9 78 10 80 11 81 12 82 27 83 13 84 15 85 14 86
REMARK SMILES IDX 16 87 17 88 18 89 19 90 20 91 21 92 26 93 22 94 24 95 23 96
REMARK SMILES IDX 25 97
REMARK H PARENT 3 6 87 24 53 35 8 79
REMARK Flexibility Score: inf
ROOT
ATOM      1  C   UNL A   1      37.887  20.175  25.022  1.00  0.00     0.023 C 
ENDROOT
BRANCH   1   2
ATOM      2  C   UNL A   1      39.141  20.600  25.781  1.00  0.00     0.116 C 
BRANCH   2   3
ATOM      3  N   UNL A   1      40.107  19.521  25.917  1.00  0.00    -0.352 N 
ATOM      4  O   UNL A   1      42.135  18.547  26.036  1.00  0.00    -0.269 OA
ATOM      5  C   UNL A   1      41.465  19.569  26.130  1.00  0.00     0.251 C 
ATOM      6  H   UNL A   1      39.730  18.614  25.845  1.00  0.00     0.163 HD
BRANCH   5   7
ATOM      7  C   UNL A   1      42.119  20.858  26.443  1.00  0.00     0.039 A 
ATOM      8  C   UNL A   1      42.328  21.255  27.767  1.00  0.00     0.014 A 
ATOM      9  C   UNL A   1      42.548  21.672  25.393  1.00  0.00     0.014 A 
ATOM     10  C   UNL A   1      42.823  22.526  28.041  1.00  0.00     0.010 A 
ATOM     11  C   UNL A   1      43.122  22.914  25.670  1.00  0.00     0.010 A 
ATOM     12  C   UNL A   1      43.234  23.366  26.995  1.00  0.00    -0.014 A 
BRANCH  12  13
ATOM     13  C   UNL A   1      43.825  24.696  27.286  1.00  0.00     0.031 A 
ATOM     14  C   UNL A   1      42.970  25.821  27.797  1.00  0.00     0.074 A 
ATOM     15  C   UNL A   1      45.138  24.893  27.060  1.00  0.00     0.049 A 
ATOM     16  N   UNL A   1      43.291  27.071  28.007  1.00  0.00    -0.248 NA
ATOM     17  C   UNL A   1      41.567  25.501  28.105  1.00  0.00     0.031 C 
ATOM     18  C   UNL A   1      46.070  23.871  26.581  1.00  0.00     0.029 A 
ATOM     19  N   UNL A   1      45.915  26.017  27.190  1.00  0.00    -0.354 N 
ATOM     20  C   UNL A   1      42.129  27.695  28.444  1.00  0.00     0.074 A 
ATOM     21  C   UNL A   1      41.088  26.689  28.450  1.00  0.00     0.031 C 
ATOM     22  C   UNL A   1      47.294  24.407  26.474  1.00  0.00     0.029 A 
ATOM     23  C   UNL A   1      47.220  25.828  26.807  1.00  0.00     0.049 A 
ATOM     24  H   UNL A   1      45.569  26.875  27.527  1.00  0.00     0.167 HD
ATOM     25  C   UNL A   1      41.952  28.988  28.806  1.00  0.00     0.037 A 
ATOM     26  C   UNL A   1      48.240  26.700  26.696  1.00  0.00     0.037 A 
ATOM     27  C   UNL A   1      43.003  29.974  28.803  1.00  0.00     0.049 A 
ATOM     28  C   UNL A   1      48.012  28.140  27.048  1.00  0.00     0.074 A 
ATOM     29  C   UNL A   1      42.935  31.301  29.191  1.00  0.00     0.029 A 
ATOM     30  N   UNL A   1      44.307  29.747  28.383  1.00  0.00    -0.354 N 
ATOM     31  N   UNL A   1      46.914  28.714  27.479  1.00  0.00    -0.248 NA
ATOM     32  C   UNL A   1      49.150  29.057  26.896  1.00  0.00     0.031 C 
ATOM     33  C   UNL A   1      44.180  31.890  28.948  1.00  0.00     0.029 A 
ATOM     34  C   UNL A   1      45.043  30.916  28.470  1.00  0.00     0.049 A 
ATOM     35  H   UNL A   1      44.656  28.881  28.068  1.00  0.00     0.167 HD
ATOM     36  C   UNL A   1      47.231  30.052  27.669  1.00  0.00     0.074 A 
ATOM     37  C   UNL A   1      48.625  30.206  27.307  1.00  0.00     0.031 C 
ATOM     38  C   UNL A   1      46.436  31.056  28.112  1.00  0.00     0.037 A 
BRANCH  25  39
ATOM     39  C   UNL A   1      40.567  29.425  29.204  1.00  0.00     0.058 A 
ATOM     40  C   UNL A   1      40.256  29.649  30.556  1.00  0.00     0.135 A 
ATOM     41  C   UNL A   1      39.538  29.590  28.263  1.00  0.00     0.135 A 
ATOM     42  F   UNL A   1      41.198  29.505  31.500  1.00  0.00    -0.206 F 
ATOM     43  C   UNL A   1      38.978  30.022  30.959  1.00  0.00     0.059 A 
ATOM     44  C   UNL A   1      38.258  29.991  28.641  1.00  0.00     0.059 A 
ATOM     45  F   UNL A   1      39.782  29.403  26.956  1.00  0.00    -0.206 F 
ATOM     46  C   UNL A   1      37.986  30.197  29.993  1.00  0.00     0.060 A 
BRANCH  46  47
ATOM     47  S   UNL A   1      36.355  30.764  30.524  1.00  0.00     0.124 S 
ATOM     48  O   UNL A   1      36.649  32.101  31.026  1.00  0.00    -0.237 OA
ATOM     49  O   UNL A   1      35.590  30.703  29.283  1.00  0.00    -0.237 OA
ATOM     50  O   UNL A   1      35.970  29.782  31.535  1.00  0.00    -0.744 OA
ENDBRANCH  46  47
ENDBRANCH  25  39
BRANCH  26  51
ATOM     51  C   UNL A   1      49.559  26.199  26.230  1.00  0.00     0.058 A 
ATOM     52  C   UNL A   1      50.444  25.558  27.112  1.00  0.00     0.135 A 
ATOM     53  C   UNL A   1      50.009  26.466  24.929  1.00  0.00     0.135 A 
ATOM     54  F   UNL A   1      50.063  25.292  28.372  1.00  0.00    -0.206 F 
ATOM     55  C   UNL A   1      51.746  25.249  26.740  1.00  0.00     0.059 A 
ATOM     56  C   UNL A   1      51.302  26.143  24.525  1.00  0.00     0.059 A 
ATOM     57  F   UNL A   1      49.194  27.068  24.050  1.00  0.00    -0.206 F 
ATOM     58  C   UNL A   1      52.171  25.561  25.447  1.00  0.00     0.060 A 
BRANCH  58  59
ATOM     59  S   UNL A   1      53.891  25.227  25.008  1.00  0.00     0.124 S 
ATOM     60  O   UNL A   1      54.004  25.922  23.730  1.00  0.00    -0.237 OA
ATOM     61  O   UNL A   1      54.612  25.826  26.125  1.00  0.00    -0.237 OA
ATOM     62  O   UNL A   1      53.944  23.770  24.936  1.00  0.00    -0.744 OA
ENDBRANCH  58  59
ENDBRANCH  26  51
BRANCH  38  63
ATOM     63  C   UNL A   1      47.038  32.425  28.266  1.00  0.00     0.058 A 
ATOM     64  C   UNL A   1      47.661  32.789  29.472  1.00  0.00     0.135 A 
ATOM     65  C   UNL A   1      46.871  33.416  27.288  1.00  0.00     0.135 A 
ATOM     66  F   UNL A   1      47.846  31.876  30.440  1.00  0.00    -0.206 F 
ATOM     67  C   UNL A   1      48.050  34.099  29.722  1.00  0.00     0.059 A 
ATOM     68  C   UNL A   1      47.275  34.729  27.508  1.00  0.00     0.059 A 
ATOM     69  F   UNL A   1      46.297  33.113  26.113  1.00  0.00    -0.206 F 
ATOM     70  C   UNL A   1      47.838  35.066  28.739  1.00  0.00     0.060 A 
BRANCH  70  71
ATOM     71  S   UNL A   1      48.289  36.775  29.109  1.00  0.00     0.124 S 
ATOM     72  O   UNL A   1      49.746  36.721  29.043  1.00  0.00    -0.237 OA
ATOM     73  O   UNL A   1      47.633  37.506  28.029  1.00  0.00    -0.237 OA
ATOM     74  O   UNL A   1      47.728  36.995  30.438  1.00  0.00    -0.744 OA
ENDBRANCH  70  71
ENDBRANCH  38  63
ENDBRANCH  12  13
ENDBRANCH   5   7
ENDBRANCH   2   3
ENDBRANCH   1   2
BRANCH   1  75
ATOM     75  C   UNL A   1      36.884  21.293  24.737  1.00  0.00     0.023 C 
BRANCH  75  76
ATOM     76  C   UNL A   1      36.943  22.481  25.690  1.00  0.00     0.116 C 
BRANCH  76  77
ATOM     77  N   UNL A   1      35.729  22.680  26.460  1.00  0.00    -0.356 N 
ATOM     78  C   UNL A   1      34.681  23.519  26.198  1.00  0.00     0.224 C 
ATOM     79  H   UNL A   1      35.648  22.139  27.278  1.00  0.00     0.163 HD
ATOM     80  O   UNL A   1      33.683  23.451  26.916  1.00  0.00    -0.275 OA
BRANCH  78  81
ATOM     81  C   UNL A   1      34.812  24.557  25.082  1.00  0.00     0.098 C 
ATOM     82  C   UNL A   1      34.357  25.966  25.534  1.00  0.00     0.017 C 
ATOM     83  C   UNL A   1      34.065  24.145  23.810  1.00  0.00     0.133 C 
ATOM     84  C   UNL A   1      32.834  26.182  25.487  1.00  0.00     0.022 C 
ATOM     85  N   UNL A   1      32.628  24.319  23.959  1.00  0.00    -0.338 N 
ATOM     86  C   UNL A   1      32.245  25.710  24.158  1.00  0.00     0.120 C 
BRANCH  85  87
ATOM     87  C   UNL A   1      31.843  23.186  24.094  1.00  0.00     0.246 C 
ATOM     88  O   UNL A   1      30.714  23.219  24.587  1.00  0.00    -0.270 OA
BRANCH  87  89
ATOM     89  C   UNL A   1      32.400  21.848  23.780  1.00  0.00     0.072 C 
ATOM     90  C   UNL A   1      32.382  20.763  24.565  1.00  0.00     0.014 C 
BRANCH  90  91
ATOM     91  C   UNL A   1      32.950  19.500  24.093  1.00  0.00    -0.023 A 
ATOM     92  C   UNL A   1      32.346  18.801  23.042  1.00  0.00     0.008 A 
ATOM     93  C   UNL A   1      34.093  18.974  24.705  1.00  0.00     0.047 A 
ATOM     94  C   UNL A   1      32.884  17.589  22.601  1.00  0.00     0.004 A 
ATOM     95  C   UNL A   1      34.621  17.768  24.255  1.00  0.00     0.123 A 
ATOM     96  C   UNL A   1      34.028  17.072  23.208  1.00  0.00     0.039 A 
ATOM     97  F   UNL A   1      35.719  17.270  24.840  1.00  0.00    -0.207 F 
ENDBRANCH  90  91
ENDBRANCH  87  89
ENDBRANCH  85  87
ENDBRANCH  78  81
ENDBRANCH  76  77
ENDBRANCH  75  76
ENDBRANCH   1  75
TORSDOF 17
ENDMDL
MODEL 2
REMARK VINA RESULT:     -12.0      6.686     12.394
REMARK SMILES O=C(NCCCCNC(=O)[C@@H]1CCCN(C(=O)/C=C/c2cccc(F)c2)C1)c1ccc(-c2c3nc(c(-c4c(F)cc(S(=O)(=O)[O-])cc4F)c4ccc([nH]4)c(-c4c(F)cc(S(=O)(=O)[O-])cc4F)c4nc(c(-c5c(F)cc(S(=O)(=O)[O-])cc5F)c5ccc2[nH]5)C=C4)C=C3)cc1
REMARK SMILES IDX 5 1 4 2 3 3 1 4 2 5 28 7 29 8 93 9 30 10 92 11 31 12 32 13
REMARK SMILES IDX 33 14 86 15 34 16 91 17 85 18 87 19 35 20 90 21 84 22 83 23
REMARK SMILES IDX 36 25 70 26 49 27 69 28 50 29 53 30 68 31 88 32 51 33 52 34
REMARK SMILES IDX 67 36 89 37 54 38 37 39 38 40 47 41 39 42 40 43 46 44 48 45
REMARK SMILES IDX 41 46 42 47 43 48 44 49 45 50 71 51 72 52 81 53 73 54 74 55
REMARK SMILES IDX 80 56 82 57 75 58 76 59 77 60 78 61 79 62 55 63 56 64 65 65
REMARK SMILES IDX 57 66 58 67 64 68 66 69 59 70 60 71 61 72 62 73 63 74 6 75
REMARK SMILES IDX 7 76 8 77 9 78 10 80 11 81 12 82 27 83 13 84 15 85 14 86
REMARK SMILES IDX 16 87 17 88 18 89 19 90 20 91 21 92 26 93 22 94 24 95 23 96
REMARK SMILES IDX 25 97
REMARK H PARENT 3 6 87 24 53 35 8 79
REMARK Flexibility Score: inf
ROOT
ATOM      1  C   UNL A   1      31.542  32.216  26.716  1.00  0.00     0.023 C 
ENDROOT
BRANCH   1   2
ATOM      2  C   UNL A   1      32.830  32.844  27.242  1.00  0.00     0.116 C 
BRANCH   2   3
ATOM      3  N   UNL A   1      32.629  34.192  27.752  1.00  0.00    -0.352 N 
ATOM      4  O   UNL A   1      32.787  35.916  29.192  1.00  0.00    -0.269 OA
ATOM      5  C   UNL A   1      33.224  34.836  28.811  1.00  0.00     0.251 C 
ATOM      6  H   UNL A   1      31.964  34.727  27.261  1.00  0.00     0.163 HD
BRANCH   5   7
ATOM      7  C   UNL A   1      34.370  34.213  29.507  1.00  0.00     0.039 A 
ATOM      8  C   UNL A   1      34.174  33.371  30.606  1.00  0.00     0.014 A 
ATOM      9  C   UNL A   1      35.662  34.460  29.037  1.00  0.00     0.014 A 
ATOM     10  C   UNL A   1      35.269  32.902  31.325  1.00  0.00     0.010 A 
ATOM     11  C   UNL A   1      36.759  33.920  29.711  1.00  0.00     0.010 A 
ATOM     12  C   UNL A   1      36.573  33.165  30.881  1.00  0.00    -0.014 A 
BRANCH  12  13
ATOM     13  C   UNL A   1      37.742  32.610  31.608  1.00  0.00     0.031 A 
ATOM     14  C   UNL A   1      38.518  31.453  31.044  1.00  0.00     0.074 A 
ATOM     15  C   UNL A   1      38.084  33.139  32.799  1.00  0.00     0.049 A 
ATOM     16  N   UNL A   1      39.497  30.775  31.585  1.00  0.00    -0.248 NA
ATOM     17  C   UNL A   1      38.139  30.992  29.699  1.00  0.00     0.031 C 
ATOM     18  C   UNL A   1      37.415  34.274  33.437  1.00  0.00     0.029 A 
ATOM     19  N   UNL A   1      39.068  32.789  33.689  1.00  0.00    -0.354 N 
ATOM     20  C   UNL A   1      39.834  29.792  30.664  1.00  0.00     0.074 A 
ATOM     21  C   UNL A   1      38.941  29.948  29.535  1.00  0.00     0.031 C 
ATOM     22  C   UNL A   1      38.016  34.538  34.605  1.00  0.00     0.029 A 
ATOM     23  C   UNL A   1      39.066  33.549  34.833  1.00  0.00     0.049 A 
ATOM     24  H   UNL A   1      39.715  32.065  33.522  1.00  0.00     0.167 HD
ATOM     25  C   UNL A   1      40.802  28.848  30.755  1.00  0.00     0.037 A 
ATOM     26  C   UNL A   1      39.796  33.444  35.960  1.00  0.00     0.037 A 
ATOM     27  C   UNL A   1      41.690  28.714  31.883  1.00  0.00     0.049 A 
ATOM     28  C   UNL A   1      40.826  32.359  36.067  1.00  0.00     0.074 A 
ATOM     29  C   UNL A   1      42.729  27.816  32.054  1.00  0.00     0.029 A 
ATOM     30  N   UNL A   1      41.637  29.488  33.034  1.00  0.00    -0.354 N 
ATOM     31  N   UNL A   1      41.149  31.447  35.180  1.00  0.00    -0.248 NA
ATOM     32  C   UNL A   1      41.586  32.276  37.320  1.00  0.00     0.031 C 
ATOM     33  C   UNL A   1      43.264  28.008  33.332  1.00  0.00     0.029 A 
ATOM     34  C   UNL A   1      42.602  29.067  33.933  1.00  0.00     0.049 A 
ATOM     35  H   UNL A   1      41.004  30.228  33.188  1.00  0.00     0.167 HD
ATOM     36  C   UNL A   1      42.163  30.695  35.758  1.00  0.00     0.074 A 
ATOM     37  C   UNL A   1      42.402  31.257  37.072  1.00  0.00     0.031 C 
ATOM     38  C   UNL A   1      42.836  29.640  35.239  1.00  0.00     0.037 A 
BRANCH  25  39
ATOM     39  C   UNL A   1      40.935  27.863  29.624  1.00  0.00     0.058 A 
ATOM     40  C   UNL A   1      40.001  26.824  29.476  1.00  0.00     0.135 A 
ATOM     41  C   UNL A   1      41.997  27.919  28.708  1.00  0.00     0.135 A 
ATOM     42  F   UNL A   1      38.966  26.718  30.323  1.00  0.00    -0.206 F 
ATOM     43  C   UNL A   1      40.115  25.879  28.461  1.00  0.00     0.059 A 
ATOM     44  C   UNL A   1      42.115  27.001  27.666  1.00  0.00     0.059 A 
ATOM     45  F   UNL A   1      42.912  28.899  28.793  1.00  0.00    -0.206 F 
ATOM     46  C   UNL A   1      41.171  25.980  27.556  1.00  0.00     0.060 A 
BRANCH  46  47
ATOM     47  S   UNL A   1      41.256  24.797  26.194  1.00  0.00     0.124 S 
ATOM     48  O   UNL A   1      40.098  23.952  26.456  1.00  0.00    -0.237 OA
ATOM     49  O   UNL A   1      41.160  25.666  25.025  1.00  0.00    -0.237 OA
ATOM     50  O   UNL A   1      42.558  24.159  26.382  1.00  0.00    -0.744 OA
ENDBRANCH  46  47
ENDBRANCH  25  39
BRANCH  26  51
ATOM     51  C   UNL A   1      39.556  34.417  37.058  1.00  0.00     0.058 A 
ATOM     52  C   UNL A   1      40.225  35.651  37.093  1.00  0.00     0.135 A 
ATOM     53  C   UNL A   1      38.751  34.076  38.154  1.00  0.00     0.135 A 
ATOM     54  F   UNL A   1      41.017  36.016  36.072  1.00  0.00    -0.206 F 
ATOM     55  C   UNL A   1      40.151  36.488  38.199  1.00  0.00     0.059 A 
ATOM     56  C   UNL A   1      38.640  34.910  39.264  1.00  0.00     0.059 A 
ATOM     57  F   UNL A   1      38.085  32.912  38.158  1.00  0.00    -0.206 F 
ATOM     58  C   UNL A   1      39.367  36.100  39.288  1.00  0.00     0.060 A 
BRANCH  58  59
ATOM     59  S   UNL A   1      39.348  37.161  40.749  1.00  0.00     0.124 S 
ATOM     60  O   UNL A   1      40.769  37.442  40.923  1.00  0.00    -0.237 OA
ATOM     61  O   UNL A   1      38.528  38.281  40.300  1.00  0.00    -0.237 OA
ATOM     62  O   UNL A   1      38.746  36.314  41.774  1.00  0.00    -0.744 OA
ENDBRANCH  58  59
ENDBRANCH  26  51
BRANCH  38  63
ATOM     63  C   UNL A   1      43.927  29.016  36.064  1.00  0.00     0.058 A 
ATOM     64  C   UNL A   1      45.245  29.490  35.962  1.00  0.00     0.135 A 
ATOM     65  C   UNL A   1      43.698  27.867  36.835  1.00  0.00     0.135 A 
ATOM     66  F   UNL A   1      45.516  30.587  35.237  1.00  0.00    -0.206 F 
ATOM     67  C   UNL A   1      46.307  28.815  36.553  1.00  0.00     0.059 A 
ATOM     68  C   UNL A   1      44.744  27.189  37.456  1.00  0.00     0.059 A 
ATOM     69  F   UNL A   1      42.454  27.385  36.976  1.00  0.00    -0.206 F 
ATOM     70  C   UNL A   1      46.048  27.656  37.285  1.00  0.00     0.060 A 
BRANCH  70  71
ATOM     71  S   UNL A   1      47.447  26.758  37.990  1.00  0.00     0.124 S 
ATOM     72  O   UNL A   1      48.548  27.211  37.146  1.00  0.00    -0.237 OA
ATOM     73  O   UNL A   1      47.461  27.244  39.366  1.00  0.00    -0.237 OA
ATOM     74  O   UNL A   1      47.068  25.357  37.830  1.00  0.00    -0.744 OA
ENDBRANCH  70  71
ENDBRANCH  38  63
ENDBRANCH  12  13
ENDBRANCH   5   7
ENDBRANCH   2   3
ENDBRANCH   1   2
BRANCH   1  75
ATOM     75  C   UNL A   1      31.638  30.734  26.352  1.00  0.00     0.023 C 
BRANCH  75  76
ATOM     76  C   UNL A   1      33.016  30.107  26.526  1.00  0.00     0.116 C 
BRANCH  76  77
ATOM     77  N   UNL A   1      33.607  29.628  25.290  1.00  0.00    -0.356 N 
ATOM     78  C   UNL A   1      33.565  28.368  24.758  1.00  0.00     0.224 C 
ATOM     79  H   UNL A   1      34.101  30.297  24.765  1.00  0.00     0.163 HD
ATOM     80  O   UNL A   1      34.030  28.194  23.631  1.00  0.00    -0.275 OA
BRANCH  78  81
ATOM     81  C   UNL A   1      33.019  27.215  25.601  1.00  0.00     0.098 C 
ATOM     82  C   UNL A   1      33.999  26.018  25.665  1.00  0.00     0.017 C 
ATOM     83  C   UNL A   1      31.642  26.744  25.125  1.00  0.00     0.133 C 
ATOM     84  C   UNL A   1      33.936  25.087  24.441  1.00  0.00     0.022 C 
ATOM     85  N   UNL A   1      31.744  25.955  23.905  1.00  0.00    -0.338 N 
ATOM     86  C   UNL A   1      32.494  24.721  24.092  1.00  0.00     0.120 C 
BRANCH  85  87
ATOM     87  C   UNL A   1      31.319  26.528  22.719  1.00  0.00     0.246 C 
ATOM     88  O   UNL A   1      31.763  26.185  21.622  1.00  0.00    -0.270 OA
BRANCH  87  89
ATOM     89  C   UNL A   1      30.405  27.698  22.737  1.00  0.00     0.072 C 
ATOM     90  C   UNL A   1      30.703  28.958  22.397  1.00  0.00     0.014 C 
BRANCH  90  91
ATOM     91  C   UNL A   1      29.674  29.997  22.440  1.00  0.00    -0.023 A 
ATOM     92  C   UNL A   1      29.234  30.507  23.666  1.00  0.00     0.008 A 
ATOM     93  C   UNL A   1      29.109  30.473  21.252  1.00  0.00     0.047 A 
ATOM     94  C   UNL A   1      28.242  31.491  23.706  1.00  0.00     0.004 A 
ATOM     95  C   UNL A   1      28.125  31.455  21.304  1.00  0.00     0.123 A 
ATOM     96  C   UNL A   1      27.688  31.970  22.519  1.00  0.00     0.039 A 
ATOM     97  F   UNL A   1      27.590  31.913  20.164  1.00  0.00    -0.207 F 
ENDBRANCH  90  91
ENDBRANCH  87  89
ENDBRANCH  85  87
ENDBRANCH  78  81
ENDBRANCH  76  77
ENDBRANCH  75  76
ENDBRANCH   1  75
TORSDOF 17
ENDMDL
MODEL 3
REMARK VINA RESULT:     -12.0      0.552      8.191
REMARK SMILES O=C(NCCCCNC(=O)[C@@H]1CCCN(C(=O)/C=C/c2cccc(F)c2)C1)c1ccc(-c2c3nc(c(-c4c(F)cc(S(=O)(=O)[O-])cc4F)c4ccc([nH]4)c(-c4c(F)cc(S(=O)(=O)[O-])cc4F)c4nc(c(-c5c(F)cc(S(=O)(=O)[O-])cc5F)c5ccc2[nH]5)C=C4)C=C3)cc1
REMARK SMILES IDX 5 1 4 2 3 3 1 4 2 5 28 7 29 8 93 9 30 10 92 11 31 12 32 13
REMARK SMILES IDX 33 14 86 15 34 16 91 17 85 18 87 19 35 20 90 21 84 22 83 23
REMARK SMILES IDX 36 25 70 26 49 27 69 28 50 29 53 30 68 31 88 32 51 33 52 34
REMARK SMILES IDX 67 36 89 37 54 38 37 39 38 40 47 41 39 42 40 43 46 44 48 45
REMARK SMILES IDX 41 46 42 47 43 48 44 49 45 50 71 51 72 52 81 53 73 54 74 55
REMARK SMILES IDX 80 56 82 57 75 58 76 59 77 60 78 61 79 62 55 63 56 64 65 65
REMARK SMILES IDX 57 66 58 67 64 68 66 69 59 70 60 71 61 72 62 73 63 74 6 75
REMARK SMILES IDX 7 76 8 77 9 78 10 80 11 81 12 82 27 83 13 84 15 85 14 86
REMARK SMILES IDX 16 87 17 88 18 89 19 90 20 91 21 92 26 93 22 94 24 95 23 96
REMARK SMILES IDX 25 97
REMARK H PARENT 3 6 87 24 53 35 8 79
REMARK Flexibility Score: inf
ROOT
ATOM      1  C   UNL A   1      38.225  19.680  24.997  1.00  0.00     0.023 C 
ENDROOT
BRANCH   1   2
ATOM      2  C   UNL A   1      39.354  20.222  25.869  1.00  0.00     0.116 C 
BRANCH   2   3
ATOM      3  N   UNL A   1      40.403  19.241  26.102  1.00  0.00    -0.352 N 
ATOM      4  O   UNL A   1      42.501  18.452  26.319  1.00  0.00    -0.269 OA
ATOM      5  C   UNL A   1      41.749  19.419  26.322  1.00  0.00     0.251 C 
ATOM      6  H   UNL A   1      40.103  18.304  26.103  1.00  0.00     0.163 HD
BRANCH   5   7
ATOM      7  C   UNL A   1      42.291  20.779  26.533  1.00  0.00     0.039 A 
ATOM      8  C   UNL A   1      42.519  21.271  27.821  1.00  0.00     0.014 A 
ATOM      9  C   UNL A   1      42.593  21.566  25.419  1.00  0.00     0.014 A 
ATOM     10  C   UNL A   1      42.903  22.596  28.000  1.00  0.00     0.010 A 
ATOM     11  C   UNL A   1      43.058  22.871  25.600  1.00  0.00     0.010 A 
ATOM     12  C   UNL A   1      43.185  23.408  26.892  1.00  0.00    -0.014 A 
BRANCH  12  13
ATOM     13  C   UNL A   1      43.659  24.802  27.081  1.00  0.00     0.031 A 
ATOM     14  C   UNL A   1      45.096  25.163  26.836  1.00  0.00     0.074 A 
ATOM     15  C   UNL A   1      42.788  25.738  27.503  1.00  0.00     0.049 A 
ATOM     16  N   UNL A   1      45.709  26.299  27.047  1.00  0.00    -0.248 NA
ATOM     17  C   UNL A   1      45.963  24.107  26.289  1.00  0.00     0.031 C 
ATOM     18  C   UNL A   1      41.364  25.508  27.757  1.00  0.00     0.029 A 
ATOM     19  N   UNL A   1      42.969  27.065  27.804  1.00  0.00    -0.354 N 
ATOM     20  C   UNL A   1      47.034  26.091  26.688  1.00  0.00     0.074 A 
ATOM     21  C   UNL A   1      47.143  24.711  26.263  1.00  0.00     0.031 C 
ATOM     22  C   UNL A   1      40.798  26.654  28.159  1.00  0.00     0.029 A 
ATOM     23  C   UNL A   1      41.830  27.683  28.259  1.00  0.00     0.049 A 
ATOM     24  H   UNL A   1      43.832  27.528  27.702  1.00  0.00     0.167 HD
ATOM     25  C   UNL A   1      48.062  26.973  26.711  1.00  0.00     0.037 A 
ATOM     26  C   UNL A   1      41.636  28.925  28.742  1.00  0.00     0.037 A 
ATOM     27  C   UNL A   1      47.933  28.347  27.128  1.00  0.00     0.049 A 
ATOM     28  C   UNL A   1      42.798  29.872  28.812  1.00  0.00     0.074 A 
ATOM     29  C   UNL A   1      48.905  29.331  27.149  1.00  0.00     0.029 A 
ATOM     30  N   UNL A   1      46.766  28.926  27.606  1.00  0.00    -0.354 N 
ATOM     31  N   UNL A   1      44.042  29.669  28.451  1.00  0.00    -0.248 NA
ATOM     32  C   UNL A   1      42.540  31.211  29.360  1.00  0.00     0.031 C 
ATOM     33  C   UNL A   1      48.341  30.488  27.697  1.00  0.00     0.029 A 
ATOM     34  C   UNL A   1      47.001  30.245  27.958  1.00  0.00     0.049 A 
ATOM     35  H   UNL A   1      45.898  28.467  27.685  1.00  0.00     0.167 HD
ATOM     36  C   UNL A   1      44.713  30.858  28.707  1.00  0.00     0.074 A 
ATOM     37  C   UNL A   1      43.737  31.778  29.254  1.00  0.00     0.031 C 
ATOM     38  C   UNL A   1      46.018  31.156  28.497  1.00  0.00     0.037 A 
BRANCH  25  39
ATOM     39  C   UNL A   1      49.425  26.477  26.307  1.00  0.00     0.058 A 
ATOM     40  C   UNL A   1      50.227  25.781  27.226  1.00  0.00     0.135 A 
ATOM     41  C   UNL A   1      49.956  26.716  25.029  1.00  0.00     0.135 A 
ATOM     42  F   UNL A   1      49.774  25.525  28.463  1.00  0.00    -0.206 F 
ATOM     43  C   UNL A   1      51.504  25.339  26.893  1.00  0.00     0.059 A 
ATOM     44  C   UNL A   1      51.221  26.257  24.664  1.00  0.00     0.059 A 
ATOM     45  F   UNL A   1      49.229  27.365  24.105  1.00  0.00    -0.206 F 
ATOM     46  C   UNL A   1      51.990  25.575  25.607  1.00  0.00     0.060 A 
BRANCH  46  47
ATOM     47  S   UNL A   1      53.614  24.921  25.164  1.00  0.00     0.124 S 
ATOM     48  O   UNL A   1      53.882  25.607  23.907  1.00  0.00    -0.237 OA
ATOM     49  O   UNL A   1      54.431  25.331  26.302  1.00  0.00    -0.237 OA
ATOM     50  O   UNL A   1      53.381  23.482  25.060  1.00  0.00    -0.744 OA
ENDBRANCH  46  47
ENDBRANCH  25  39
BRANCH  26  51
ATOM     51  C   UNL A   1      40.272  29.314  29.183  1.00  0.00     0.058 A 
ATOM     52  C   UNL A   1      39.291  29.698  28.254  1.00  0.00     0.135 A 
ATOM     53  C   UNL A   1      39.965  29.429  30.546  1.00  0.00     0.135 A 
ATOM     54  F   UNL A   1      39.543  29.618  26.938  1.00  0.00    -0.206 F 
ATOM     55  C   UNL A   1      38.076  30.236  28.660  1.00  0.00     0.059 A 
ATOM     56  C   UNL A   1      38.744  29.942  30.977  1.00  0.00     0.059 A 
ATOM     57  F   UNL A   1      40.867  29.063  31.469  1.00  0.00    -0.206 F 
ATOM     58  C   UNL A   1      37.818  30.369  30.025  1.00  0.00     0.060 A 
BRANCH  58  59
ATOM     59  S   UNL A   1      36.268  31.145  30.532  1.00  0.00     0.124 S 
ATOM     60  O   UNL A   1      36.686  32.530  30.725  1.00  0.00    -0.237 OA
ATOM     61  O   UNL A   1      35.411  30.893  29.379  1.00  0.00    -0.237 OA
ATOM     62  O   UNL A   1      35.910  30.422  31.749  1.00  0.00    -0.744 OA
ENDBRANCH  58  59
ENDBRANCH  26  51
BRANCH  38  63
ATOM     63  C   UNL A   1      46.493  32.543  28.829  1.00  0.00     0.058 A 
ATOM     64  C   UNL A   1      46.883  32.858  30.141  1.00  0.00     0.135 A 
ATOM     65  C   UNL A   1      46.421  33.587  27.895  1.00  0.00     0.135 A 
ATOM     66  F   UNL A   1      46.969  31.894  31.072  1.00  0.00    -0.206 F 
ATOM     67  C   UNL A   1      47.136  34.169  30.528  1.00  0.00     0.059 A 
ATOM     68  C   UNL A   1      46.694  34.904  28.256  1.00  0.00     0.059 A 
ATOM     69  F   UNL A   1      46.069  33.334  26.625  1.00  0.00    -0.206 F 
ATOM     70  C   UNL A   1      47.022  35.188  29.581  1.00  0.00     0.060 A 
BRANCH  70  71
ATOM     71  S   UNL A   1      47.290  36.890  30.120  1.00  0.00     0.124 S 
ATOM     72  O   UNL A   1      47.239  37.616  28.855  1.00  0.00    -0.237 OA
ATOM     73  O   UNL A   1      46.163  37.107  31.022  1.00  0.00    -0.237 OA
ATOM     74  O   UNL A   1      48.599  36.841  30.764  1.00  0.00    -0.744 OA
ENDBRANCH  70  71
ENDBRANCH  38  63
ENDBRANCH  12  13
ENDBRANCH   5   7
ENDBRANCH   2   3
ENDBRANCH   1   2
BRANCH   1  75
ATOM     75  C   UNL A   1      37.015  20.602  24.844  1.00  0.00     0.023 C 
BRANCH  75  76
ATOM     76  C   UNL A   1      37.094  21.914  25.616  1.00  0.00     0.116 C 
BRANCH  76  77
ATOM     77  N   UNL A   1      35.920  22.195  26.422  1.00  0.00    -0.356 N 
ATOM     78  C   UNL A   1      34.937  23.121  26.204  1.00  0.00     0.224 C 
ATOM     79  H   UNL A   1      35.817  21.645  27.233  1.00  0.00     0.163 HD
ATOM     80  O   UNL A   1      33.956  23.119  26.948  1.00  0.00    -0.275 OA
BRANCH  78  81
ATOM     81  C   UNL A   1      35.123  24.167  25.104  1.00  0.00     0.098 C 
ATOM     82  C   UNL A   1      34.748  25.592  25.579  1.00  0.00     0.017 C 
ATOM     83  C   UNL A   1      34.353  23.817  23.828  1.00  0.00     0.133 C 
ATOM     84  C   UNL A   1      33.239  25.892  25.539  1.00  0.00     0.022 C 
ATOM     85  N   UNL A   1      32.927  24.067  23.983  1.00  0.00    -0.338 N 
ATOM     86  C   UNL A   1      32.622  25.474  24.205  1.00  0.00     0.120 C 
BRANCH  85  87
ATOM     87  C   UNL A   1      32.081  22.978  24.103  1.00  0.00     0.246 C 
ATOM     88  O   UNL A   1      30.947  23.070  24.576  1.00  0.00    -0.270 OA
BRANCH  87  89
ATOM     89  C   UNL A   1      32.573  21.611  23.798  1.00  0.00     0.072 C 
ATOM     90  C   UNL A   1      32.584  20.556  24.623  1.00  0.00     0.014 C 
BRANCH  90  91
ATOM     91  C   UNL A   1      33.076  19.260  24.156  1.00  0.00    -0.023 A 
ATOM     92  C   UNL A   1      32.467  18.621  23.071  1.00  0.00     0.008 A 
ATOM     93  C   UNL A   1      34.149  18.642  24.808  1.00  0.00     0.047 A 
ATOM     94  C   UNL A   1      32.931  17.377  22.634  1.00  0.00     0.004 A 
ATOM     95  C   UNL A   1      34.604  17.405  24.362  1.00  0.00     0.123 A 
ATOM     96  C   UNL A   1      34.007  16.768  23.281  1.00  0.00     0.039 A 
ATOM     97  F   UNL A   1      35.635  16.819  24.986  1.00  0.00    -0.207 F 
ENDBRANCH  90  91
ENDBRANCH  87  89
ENDBRANCH  85  87
ENDBRANCH  78  81
ENDBRANCH  76  77
ENDBRANCH  75  76
ENDBRANCH   1  75
TORSDOF 17
ENDMDL
