MODEL 1
REMARK VINA RESULT:     -12.9      0.000      0.000
REMARK SMILES Cc1ccccc1N[C@H](C(=O)NCCCCNC(=O)c1ccc(-c2c3nc(c(-c4c(F)cc(S(=O)(=O)[O-])cc4F)c4ccc([nH]4)c(-c4c(F)cc(S(=O)(=O)[O-])cc4F)c4nc(c(-c5c(F)cc(S(=O)(=O)[O-])cc5F)c5ccc2[nH]5)C=C4)C=C3)cc1)c1ccccc1
REMARK SMILES IDX 15 1 14 2 13 3 12 4 10 5 11 6 9 8 8 9 7 11 1 12 2 13 3 14
REMARK SMILES IDX 4 15 6 16 5 17 86 18 87 19 91 20 88 21 90 22 89 23 16 24
REMARK SMILES IDX 17 25 18 26 19 28 20 29 21 30 85 31 22 32 84 33 23 34 24 35
REMARK SMILES IDX 25 36 78 37 26 38 83 39 77 40 79 41 27 42 82 43 76 44 75 45
REMARK SMILES IDX 28 47 62 48 41 49 61 50 42 51 45 52 60 53 80 54 43 55 44 56
REMARK SMILES IDX 59 58 81 59 46 60 29 61 30 62 39 63 31 64 32 65 38 66 40 67
REMARK SMILES IDX 33 68 34 69 35 70 36 71 37 72 63 73 64 74 73 75 65 76 66 77
REMARK SMILES IDX 72 78 74 79 67 80 68 81 69 82 70 83 71 84 47 85 48 86 57 87
REMARK SMILES IDX 49 88 50 89 56 90 58 91 51 92 52 93 53 94 54 95 55 96
REMARK H PARENT 12 7 8 10 17 27 79 46 45 57
REMARK Flexibility Score: inf
ROOT
ATOM      1  C   UNL A   1      33.082  28.044  26.870  1.00  0.00     0.023 C 
ENDROOT
BRANCH   1   2
ATOM      2  C   UNL A   1      33.553  27.727  25.451  1.00  0.00     0.023 C 
BRANCH   2   3
ATOM      3  C   UNL A   1      32.458  27.255  24.495  1.00  0.00     0.116 C 
BRANCH   3   4
ATOM      4  N   UNL A   1      32.956  26.870  23.183  1.00  0.00    -0.354 N 
ATOM      5  C   UNL A   1      33.344  25.622  22.761  1.00  0.00     0.247 C 
ATOM      6  O   UNL A   1      33.653  25.497  21.568  1.00  0.00    -0.272 OA
ATOM      7  H   UNL A   1      33.020  27.592  22.517  1.00  0.00     0.163 HD
BRANCH   5   8
ATOM      8  C   UNL A   1      33.448  24.412  23.744  1.00  0.00     0.200 C 
BRANCH   8   9
ATOM      9  N   UNL A   1      32.475  23.377  23.310  1.00  0.00    -0.370 N 
ATOM     10  H   UNL A   1      31.719  23.775  22.821  1.00  0.00     0.161 HD
BRANCH   9  11
ATOM     11  C   UNL A   1      32.347  22.009  23.410  1.00  0.00     0.038 A 
ATOM     12  C   UNL A   1      32.331  22.134  25.978  1.00  0.00     0.046 C 
ATOM     13  C   UNL A   1      32.426  21.380  24.675  1.00  0.00    -0.028 A 
ATOM     14  C   UNL A   1      32.498  19.973  24.780  1.00  0.00     0.005 A 
ATOM     15  C   UNL A   1      32.408  19.164  23.655  1.00  0.00     0.000 A 
ATOM     16  C   UNL A   1      32.100  21.152  22.333  1.00  0.00     0.026 A 
ATOM     17  C   UNL A   1      32.162  19.757  22.433  1.00  0.00     0.002 A 
ENDBRANCH   9  11
ENDBRANCH   8   9
BRANCH   8  18
ATOM     18  C   UNL A   1      34.856  23.990  24.123  1.00  0.00    -0.016 A 
ATOM     19  C   UNL A   1      35.410  24.392  25.351  1.00  0.00     0.006 A 
ATOM     20  C   UNL A   1      35.642  23.188  23.281  1.00  0.00     0.006 A 
ATOM     21  C   UNL A   1      36.563  23.778  25.837  1.00  0.00     0.000 A 
ATOM     22  C   UNL A   1      36.799  22.583  23.758  1.00  0.00     0.000 A 
ATOM     23  C   UNL A   1      37.219  22.837  25.056  1.00  0.00     0.000 A 
ENDBRANCH   8  18
ENDBRANCH   5   8
ENDBRANCH   3   4
ENDBRANCH   2   3
ENDBRANCH   1   2
BRANCH   1  24
ATOM     24  C   UNL A   1      32.694  29.493  27.108  1.00  0.00     0.116 C 
BRANCH  24  25
ATOM     25  N   UNL A   1      33.627  30.506  26.644  1.00  0.00    -0.352 N 
ATOM     26  C   UNL A   1      34.425  31.153  27.592  1.00  0.00     0.251 C 
ATOM     27  H   UNL A   1      33.696  30.731  25.688  1.00  0.00     0.163 HD
ATOM     28  O   UNL A   1      34.179  32.236  28.087  1.00  0.00    -0.269 OA
BRANCH  26  29
ATOM     29  C   UNL A   1      35.528  30.308  28.110  1.00  0.00     0.039 A 
ATOM     30  C   UNL A   1      35.570  29.873  29.437  1.00  0.00     0.014 A 
ATOM     31  C   UNL A   1      36.604  30.086  27.251  1.00  0.00     0.014 A 
ATOM     32  C   UNL A   1      36.759  29.329  29.935  1.00  0.00     0.010 A 
ATOM     33  C   UNL A   1      37.798  29.644  27.763  1.00  0.00     0.010 A 
ATOM     34  C   UNL A   1      37.885  29.282  29.109  1.00  0.00    -0.014 A 
BRANCH  34  35
ATOM     35  C   UNL A   1      39.241  28.977  29.536  1.00  0.00     0.031 A 
ATOM     36  C   UNL A   1      39.916  27.728  29.118  1.00  0.00     0.074 A 
ATOM     37  C   UNL A   1      39.972  29.972  30.082  1.00  0.00     0.049 A 
ATOM     38  N   UNL A   1      40.967  27.257  29.700  1.00  0.00    -0.248 NA
ATOM     39  C   UNL A   1      39.460  26.903  28.001  1.00  0.00     0.031 C 
ATOM     40  C   UNL A   1      41.425  30.047  30.173  1.00  0.00     0.029 A 
ATOM     41  N   UNL A   1      39.532  31.058  30.834  1.00  0.00    -0.354 N 
ATOM     42  C   UNL A   1      41.497  26.296  28.871  1.00  0.00     0.074 A 
ATOM     43  C   UNL A   1      40.484  26.052  27.870  1.00  0.00     0.031 C 
ATOM     44  C   UNL A   1      41.744  30.882  31.172  1.00  0.00     0.029 A 
ATOM     45  C   UNL A   1      40.501  31.271  31.820  1.00  0.00     0.049 A 
ATOM     46  H   UNL A   1      38.703  31.572  30.701  1.00  0.00     0.167 HD
ATOM     47  C   UNL A   1      42.799  25.918  29.015  1.00  0.00     0.037 A 
ATOM     48  C   UNL A   1      40.272  31.265  33.164  1.00  0.00     0.037 A 
ATOM     49  C   UNL A   1      43.455  26.654  30.091  1.00  0.00     0.049 A 
ATOM     50  C   UNL A   1      41.157  30.256  33.854  1.00  0.00     0.074 A 
ATOM     51  C   UNL A   1      44.271  27.774  30.088  1.00  0.00     0.029 A 
ATOM     52  N   UNL A   1      43.048  26.471  31.410  1.00  0.00    -0.354 N 
ATOM     53  N   UNL A   1      41.724  29.265  33.221  1.00  0.00    -0.248 NA
ATOM     54  C   UNL A   1      41.503  30.277  35.270  1.00  0.00     0.031 C 
ATOM     55  C   UNL A   1      44.316  28.294  31.403  1.00  0.00     0.029 A 
ATOM     56  C   UNL A   1      43.537  27.484  32.213  1.00  0.00     0.049 A 
ATOM     57  H   UNL A   1      42.489  25.724  31.726  1.00  0.00     0.167 HD
ATOM     58  C   UNL A   1      42.524  28.562  34.078  1.00  0.00     0.074 A 
ATOM     59  C   UNL A   1      42.337  29.223  35.356  1.00  0.00     0.031 C 
ATOM     60  C   UNL A   1      43.286  27.514  33.647  1.00  0.00     0.037 A 
BRANCH  47  61
ATOM     61  C   UNL A   1      43.523  25.097  27.975  1.00  0.00     0.058 A 
ATOM     62  C   UNL A   1      44.270  25.705  26.945  1.00  0.00     0.135 A 
ATOM     63  C   UNL A   1      43.493  23.688  27.941  1.00  0.00     0.135 A 
ATOM     64  F   UNL A   1      44.416  27.035  26.871  1.00  0.00    -0.206 F 
ATOM     65  C   UNL A   1      44.886  24.980  25.924  1.00  0.00     0.059 A 
ATOM     66  C   UNL A   1      44.065  22.941  26.904  1.00  0.00     0.059 A 
ATOM     67  F   UNL A   1      42.913  22.991  28.930  1.00  0.00    -0.206 F 
ATOM     68  C   UNL A   1      44.762  23.598  25.897  1.00  0.00     0.060 A 
BRANCH  68  69
ATOM     69  S   UNL A   1      45.516  22.695  24.532  1.00  0.00     0.124 S 
ATOM     70  O   UNL A   1      46.260  21.647  25.226  1.00  0.00    -0.237 OA
ATOM     71  O   UNL A   1      44.348  22.251  23.780  1.00  0.00    -0.237 OA
ATOM     72  O   UNL A   1      46.342  23.704  23.873  1.00  0.00    -0.744 OA
ENDBRANCH  68  69
ENDBRANCH  47  61
BRANCH  48  73
ATOM     73  C   UNL A   1      38.892  31.675  33.539  1.00  0.00     0.058 A 
ATOM     74  C   UNL A   1      38.648  33.061  33.617  1.00  0.00     0.135 A 
ATOM     75  C   UNL A   1      37.799  30.838  33.268  1.00  0.00     0.135 A 
ATOM     76  F   UNL A   1      39.654  33.902  33.909  1.00  0.00    -0.206 F 
ATOM     77  C   UNL A   1      37.430  33.611  33.226  1.00  0.00     0.059 A 
ATOM     78  C   UNL A   1      36.567  31.369  32.881  1.00  0.00     0.059 A 
ATOM     79  F   UNL A   1      37.973  29.513  33.169  1.00  0.00    -0.206 F 
ATOM     80  C   UNL A   1      36.427  32.755  32.775  1.00  0.00     0.060 A 
BRANCH  80  81
ATOM     81  S   UNL A   1      35.023  33.478  31.882  1.00  0.00     0.124 S 
ATOM     82  O   UNL A   1      34.081  32.367  31.842  1.00  0.00    -0.237 OA
ATOM     83  O   UNL A   1      34.657  34.599  32.750  1.00  0.00    -0.237 OA
ATOM     84  O   UNL A   1      35.611  33.855  30.601  1.00  0.00    -0.744 OA
ENDBRANCH  80  81
ENDBRANCH  48  73
BRANCH  60  85
ATOM     85  C   UNL A   1      43.978  26.495  34.520  1.00  0.00     0.058 A 
ATOM     86  C   UNL A   1      45.358  26.502  34.779  1.00  0.00     0.135 A 
ATOM     87  C   UNL A   1      43.222  25.557  35.269  1.00  0.00     0.135 A 
ATOM     88  F   UNL A   1      46.171  27.408  34.217  1.00  0.00    -0.206 F 
ATOM     89  C   UNL A   1      45.956  25.610  35.670  1.00  0.00     0.059 A 
ATOM     90  C   UNL A   1      43.790  24.700  36.205  1.00  0.00     0.059 A 
ATOM     91  F   UNL A   1      41.892  25.456  35.135  1.00  0.00    -0.206 F 
ATOM     92  C   UNL A   1      45.164  24.716  36.382  1.00  0.00     0.060 A 
BRANCH  92  93
ATOM     93  S   UNL A   1      45.919  23.618  37.592  1.00  0.00     0.124 S 
ATOM     94  O   UNL A   1      45.171  23.959  38.797  1.00  0.00    -0.237 OA
ATOM     95  O   UNL A   1      45.653  22.294  37.039  1.00  0.00    -0.237 OA
ATOM     96  O   UNL A   1      47.321  24.023  37.579  1.00  0.00    -0.744 OA
ENDBRANCH  92  93
ENDBRANCH  60  85
ENDBRANCH  34  35
ENDBRANCH  26  29
ENDBRANCH  24  25
ENDBRANCH   1  24
TORSDOF 17
ENDMDL
MODEL 2
REMARK VINA RESULT:     -12.8      2.034      2.816
REMARK SMILES Cc1ccccc1N[C@H](C(=O)NCCCCNC(=O)c1ccc(-c2c3nc(c(-c4c(F)cc(S(=O)(=O)[O-])cc4F)c4ccc([nH]4)c(-c4c(F)cc(S(=O)(=O)[O-])cc4F)c4nc(c(-c5c(F)cc(S(=O)(=O)[O-])cc5F)c5ccc2[nH]5)C=C4)C=C3)cc1)c1ccccc1
REMARK SMILES IDX 15 1 14 2 13 3 12 4 10 5 11 6 9 8 8 9 7 11 1 12 2 13 3 14
REMARK SMILES IDX 4 15 6 16 5 17 86 18 87 19 91 20 88 21 90 22 89 23 16 24
REMARK SMILES IDX 17 25 18 26 19 28 20 29 21 30 85 31 22 32 84 33 23 34 24 35
REMARK SMILES IDX 25 36 78 37 26 38 83 39 77 40 79 41 27 42 82 43 76 44 75 45
REMARK SMILES IDX 28 47 62 48 41 49 61 50 42 51 45 52 60 53 80 54 43 55 44 56
REMARK SMILES IDX 59 58 81 59 46 60 29 61 30 62 39 63 31 64 32 65 38 66 40 67
REMARK SMILES IDX 33 68 34 69 35 70 36 71 37 72 63 73 64 74 73 75 65 76 66 77
REMARK SMILES IDX 72 78 74 79 67 80 68 81 69 82 70 83 71 84 47 85 48 86 57 87
REMARK SMILES IDX 49 88 50 89 56 90 58 91 51 92 52 93 53 94 54 95 55 96
REMARK H PARENT 12 7 8 10 17 27 79 46 45 57
REMARK Flexibility Score: inf
ROOT
ATOM      1  C   UNL A   1      33.034  29.643  26.767  1.00  0.00     0.023 C 
ENDROOT
BRANCH   1   2
ATOM      2  C   UNL A   1      32.499  28.221  26.599  1.00  0.00     0.023 C 
BRANCH   2   3
ATOM      3  C   UNL A   1      33.537  27.185  26.171  1.00  0.00     0.116 C 
BRANCH   3   4
ATOM      4  N   UNL A   1      33.607  26.990  24.730  1.00  0.00    -0.354 N 
ATOM      5  C   UNL A   1      33.692  25.803  24.044  1.00  0.00     0.247 C 
ATOM      6  O   UNL A   1      33.650  25.859  22.807  1.00  0.00    -0.272 OA
ATOM      7  H   UNL A   1      33.590  27.807  24.182  1.00  0.00     0.163 HD
BRANCH   5   8
ATOM      8  C   UNL A   1      33.886  24.437  24.776  1.00  0.00     0.200 C 
BRANCH   8   9
ATOM      9  N   UNL A   1      32.757  23.546  24.404  1.00  0.00    -0.370 N 
ATOM     10  H   UNL A   1      31.905  24.038  24.370  1.00  0.00     0.161 HD
BRANCH   9  11
ATOM     11  C   UNL A   1      32.583  22.216  24.094  1.00  0.00     0.038 A 
ATOM     12  C   UNL A   1      32.933  21.532  26.546  1.00  0.00     0.046 C 
ATOM     13  C   UNL A   1      32.810  21.223  25.076  1.00  0.00    -0.028 A 
ATOM     14  C   UNL A   1      32.833  19.854  24.729  1.00  0.00     0.005 A 
ATOM     15  C   UNL A   1      32.549  19.437  23.435  1.00  0.00     0.000 A 
ATOM     16  C   UNL A   1      32.149  21.738  22.852  1.00  0.00     0.026 A 
ATOM     17  C   UNL A   1      32.161  20.381  22.506  1.00  0.00     0.002 A 
ENDBRANCH   9  11
ENDBRANCH   8   9
BRANCH   8  18
ATOM     18  C   UNL A   1      35.298  23.881  24.770  1.00  0.00    -0.016 A 
ATOM     19  C   UNL A   1      36.163  24.129  25.851  1.00  0.00     0.006 A 
ATOM     20  C   UNL A   1      35.785  23.103  23.708  1.00  0.00     0.006 A 
ATOM     21  C   UNL A   1      37.336  23.391  25.996  1.00  0.00     0.000 A 
ATOM     22  C   UNL A   1      36.961  22.374  23.844  1.00  0.00     0.000 A 
ATOM     23  C   UNL A   1      37.698  22.479  25.015  1.00  0.00     0.000 A 
ENDBRANCH   8  18
ENDBRANCH   5   8
ENDBRANCH   3   4
ENDBRANCH   2   3
ENDBRANCH   1   2
BRANCH   1  24
ATOM     24  C   UNL A   1      34.281  29.762  27.626  1.00  0.00     0.116 C 
BRANCH  24  25
ATOM     25  N   UNL A   1      35.380  30.541  27.079  1.00  0.00    -0.352 N 
ATOM     26  C   UNL A   1      36.445  30.864  27.924  1.00  0.00     0.251 C 
ATOM     27  H   UNL A   1      35.374  30.834  26.139  1.00  0.00     0.163 HD
ATOM     28  O   UNL A   1      36.572  31.919  28.514  1.00  0.00    -0.269 OA
BRANCH  26  29
ATOM     29  C   UNL A   1      37.340  29.716  28.210  1.00  0.00     0.039 A 
ATOM     30  C   UNL A   1      37.298  29.026  29.423  1.00  0.00     0.014 A 
ATOM     31  C   UNL A   1      38.332  29.445  27.268  1.00  0.00     0.014 A 
ATOM     32  C   UNL A   1      38.343  28.151  29.743  1.00  0.00     0.010 A 
ATOM     33  C   UNL A   1      39.405  28.665  27.620  1.00  0.00     0.010 A 
ATOM     34  C   UNL A   1      39.423  28.031  28.864  1.00  0.00    -0.014 A 
BRANCH  34  35
ATOM     35  C   UNL A   1      40.682  27.363  29.151  1.00  0.00     0.031 A 
ATOM     36  C   UNL A   1      40.940  25.979  28.697  1.00  0.00     0.074 A 
ATOM     37  C   UNL A   1      41.714  28.118  29.589  1.00  0.00     0.049 A 
ATOM     38  N   UNL A   1      41.879  25.235  29.175  1.00  0.00    -0.248 NA
ATOM     39  C   UNL A   1      40.155  25.315  27.658  1.00  0.00     0.031 C 
ATOM     40  C   UNL A   1      43.132  27.791  29.522  1.00  0.00     0.029 A 
ATOM     41  N   UNL A   1      41.672  29.280  30.355  1.00  0.00    -0.354 N 
ATOM     42  C   UNL A   1      42.032  24.169  28.320  1.00  0.00     0.074 A 
ATOM     43  C   UNL A   1      40.886  24.216  27.440  1.00  0.00     0.031 C 
ATOM     44  C   UNL A   1      43.776  28.501  30.458  1.00  0.00     0.029 A 
ATOM     45  C   UNL A   1      42.766  29.214  31.226  1.00  0.00     0.049 A 
ATOM     46  H   UNL A   1      41.006  30.002  30.298  1.00  0.00     0.167 HD
ATOM     47  C   UNL A   1      43.188  23.447  28.333  1.00  0.00     0.037 A 
ATOM     48  C   UNL A   1      42.694  29.266  32.586  1.00  0.00     0.037 A 
ATOM     49  C   UNL A   1      44.135  23.971  29.313  1.00  0.00     0.049 A 
ATOM     50  C   UNL A   1      43.340  28.051  33.203  1.00  0.00     0.074 A 
ATOM     51  C   UNL A   1      45.221  24.823  29.192  1.00  0.00     0.029 A 
ATOM     52  N   UNL A   1      43.841  23.901  30.672  1.00  0.00    -0.354 N 
ATOM     53  N   UNL A   1      43.541  26.944  32.540  1.00  0.00    -0.248 NA
ATOM     54  C   UNL A   1      43.833  27.970  34.573  1.00  0.00     0.031 C 
ATOM     55  C   UNL A   1      45.551  25.306  30.480  1.00  0.00     0.029 A 
ATOM     56  C   UNL A   1      44.675  24.738  31.390  1.00  0.00     0.049 A 
ATOM     57  H   UNL A   1      43.139  23.335  31.066  1.00  0.00     0.167 HD
ATOM     58  C   UNL A   1      44.208  26.045  33.324  1.00  0.00     0.074 A 
ATOM     59  C   UNL A   1      44.351  26.727  34.598  1.00  0.00     0.031 C 
ATOM     60  C   UNL A   1      44.602  24.830  32.842  1.00  0.00     0.037 A 
BRANCH  47  61
ATOM     61  C   UNL A   1      43.540  22.463  27.244  1.00  0.00     0.058 A 
ATOM     62  C   UNL A   1      42.824  21.259  27.078  1.00  0.00     0.135 A 
ATOM     63  C   UNL A   1      44.602  22.657  26.337  1.00  0.00     0.135 A 
ATOM     64  F   UNL A   1      41.767  20.957  27.844  1.00  0.00    -0.206 F 
ATOM     65  C   UNL A   1      43.171  20.293  26.132  1.00  0.00     0.059 A 
ATOM     66  C   UNL A   1      44.998  21.684  25.411  1.00  0.00     0.059 A 
ATOM     67  F   UNL A   1      45.285  23.812  26.319  1.00  0.00    -0.206 F 
ATOM     68  C   UNL A   1      44.273  20.503  25.315  1.00  0.00     0.060 A 
BRANCH  68  69
ATOM     69  S   UNL A   1      44.733  19.209  24.147  1.00  0.00     0.124 S 
ATOM     70  O   UNL A   1      43.792  18.143  24.478  1.00  0.00    -0.237 OA
ATOM     71  O   UNL A   1      44.519  19.868  22.864  1.00  0.00    -0.237 OA
ATOM     72  O   UNL A   1      46.126  18.928  24.485  1.00  0.00    -0.744 OA
ENDBRANCH  68  69
ENDBRANCH  47  61
BRANCH  48  73
ATOM     73  C   UNL A   1      41.529  30.038  33.095  1.00  0.00     0.058 A 
ATOM     74  C   UNL A   1      41.671  31.440  33.129  1.00  0.00     0.135 A 
ATOM     75  C   UNL A   1      40.229  29.520  32.996  1.00  0.00     0.135 A 
ATOM     76  F   UNL A   1      42.891  31.986  33.260  1.00  0.00    -0.206 F 
ATOM     77  C   UNL A   1      40.601  32.289  32.854  1.00  0.00     0.059 A 
ATOM     78  C   UNL A   1      39.142  30.354  32.726  1.00  0.00     0.059 A 
ATOM     79  F   UNL A   1      40.033  28.195  32.946  1.00  0.00    -0.206 F 
ATOM     80  C   UNL A   1      39.360  31.725  32.567  1.00  0.00     0.060 A 
BRANCH  80  81
ATOM     81  S   UNL A   1      38.097  32.781  31.804  1.00  0.00     0.124 S 
ATOM     82  O   UNL A   1      36.959  31.874  31.707  1.00  0.00    -0.237 OA
ATOM     83  O   UNL A   1      37.974  33.861  32.785  1.00  0.00    -0.237 OA
ATOM     84  O   UNL A   1      38.711  33.162  30.538  1.00  0.00    -0.744 OA
ENDBRANCH  80  81
ENDBRANCH  48  73
BRANCH  60  85
ATOM     85  C   UNL A   1      45.081  23.657  33.662  1.00  0.00     0.058 A 
ATOM     86  C   UNL A   1      46.334  23.610  34.295  1.00  0.00     0.135 A 
ATOM     87  C   UNL A   1      44.200  22.590  33.975  1.00  0.00     0.135 A 
ATOM     88  F   UNL A   1      47.219  24.608  34.167  1.00  0.00    -0.206 F 
ATOM     89  C   UNL A   1      46.710  22.558  35.130  1.00  0.00     0.059 A 
ATOM     90  C   UNL A   1      44.534  21.563  34.851  1.00  0.00     0.059 A 
ATOM     91  F   UNL A   1      42.966  22.519  33.456  1.00  0.00    -0.206 F 
ATOM     92  C   UNL A   1      45.803  21.541  35.406  1.00  0.00     0.060 A 
BRANCH  92  93
ATOM     93  S   UNL A   1      46.255  20.223  36.547  1.00  0.00     0.124 S 
ATOM     94  O   UNL A   1      45.322  19.172  36.157  1.00  0.00    -0.237 OA
ATOM     95  O   UNL A   1      47.655  19.977  36.217  1.00  0.00    -0.237 OA
ATOM     96  O   UNL A   1      46.024  20.824  37.857  1.00  0.00    -0.744 OA
ENDBRANCH  92  93
ENDBRANCH  60  85
ENDBRANCH  34  35
ENDBRANCH  26  29
ENDBRANCH  24  25
ENDBRANCH   1  24
TORSDOF 17
ENDMDL
MODEL 3
REMARK VINA RESULT:     -12.7      2.270      3.410
REMARK SMILES Cc1ccccc1N[C@H](C(=O)NCCCCNC(=O)c1ccc(-c2c3nc(c(-c4c(F)cc(S(=O)(=O)[O-])cc4F)c4ccc([nH]4)c(-c4c(F)cc(S(=O)(=O)[O-])cc4F)c4nc(c(-c5c(F)cc(S(=O)(=O)[O-])cc5F)c5ccc2[nH]5)C=C4)C=C3)cc1)c1ccccc1
REMARK SMILES IDX 15 1 14 2 13 3 12 4 10 5 11 6 9 8 8 9 7 11 1 12 2 13 3 14
REMARK SMILES IDX 4 15 6 16 5 17 86 18 87 19 91 20 88 21 90 22 89 23 16 24
REMARK SMILES IDX 17 25 18 26 19 28 20 29 21 30 85 31 22 32 84 33 23 34 24 35
REMARK SMILES IDX 25 36 78 37 26 38 83 39 77 40 79 41 27 42 82 43 76 44 75 45
REMARK SMILES IDX 28 47 62 48 41 49 61 50 42 51 45 52 60 53 80 54 43 55 44 56
REMARK SMILES IDX 59 58 81 59 46 60 29 61 30 62 39 63 31 64 32 65 38 66 40 67
REMARK SMILES IDX 33 68 34 69 35 70 36 71 37 72 63 73 64 74 73 75 65 76 66 77
REMARK SMILES IDX 72 78 74 79 67 80 68 81 69 82 70 83 71 84 47 85 48 86 57 87
REMARK SMILES IDX 49 88 50 89 56 90 58 91 51 92 52 93 53 94 54 95 55 96
REMARK H PARENT 12 7 8 10 17 27 79 46 45 57
REMARK Flexibility Score: inf
ROOT
ATOM      1  C   UNL A   1      33.229  29.451  26.983  1.00  0.00     0.023 C 
ENDROOT
BRANCH   1   2
ATOM      2  C   UNL A   1      32.480  28.243  27.545  1.00  0.00     0.023 C 
BRANCH   2   3
ATOM      3  C   UNL A   1      31.376  27.690  26.644  1.00  0.00     0.116 C 
BRANCH   3   4
ATOM      4  N   UNL A   1      31.038  26.302  26.921  1.00  0.00    -0.354 N 
ATOM      5  C   UNL A   1      31.771  25.180  26.622  1.00  0.00     0.247 C 
ATOM      6  O   UNL A   1      31.337  24.093  27.029  1.00  0.00    -0.272 OA
ATOM      7  H   UNL A   1      30.180  26.150  27.379  1.00  0.00     0.163 HD
BRANCH   5   8
ATOM      8  C   UNL A   1      33.072  25.248  25.760  1.00  0.00     0.200 C 
BRANCH   8   9
ATOM      9  N   UNL A   1      33.935  24.097  26.130  1.00  0.00    -0.370 N 
ATOM     10  H   UNL A   1      33.754  23.791  27.048  1.00  0.00     0.161 HD
BRANCH   9  11
ATOM     11  C   UNL A   1      34.921  23.343  25.533  1.00  0.00     0.038 A 
ATOM     12  C   UNL A   1      33.301  21.378  25.188  1.00  0.00     0.046 C 
ATOM     13  C   UNL A   1      34.680  21.987  25.210  1.00  0.00    -0.028 A 
ATOM     14  C   UNL A   1      35.733  21.146  24.785  1.00  0.00     0.005 A 
ATOM     15  C   UNL A   1      37.014  21.644  24.591  1.00  0.00     0.000 A 
ATOM     16  C   UNL A   1      36.182  23.828  25.170  1.00  0.00     0.026 A 
ATOM     17  C   UNL A   1      37.227  23.000  24.741  1.00  0.00     0.002 A 
ENDBRANCH   9  11
ENDBRANCH   8   9
BRANCH   8  18
ATOM     18  C   UNL A   1      32.874  25.580  24.292  1.00  0.00    -0.016 A 
ATOM     19  C   UNL A   1      33.563  26.659  23.710  1.00  0.00     0.006 A 
ATOM     20  C   UNL A   1      32.017  24.831  23.471  1.00  0.00     0.006 A 
ATOM     21  C   UNL A   1      33.621  26.791  22.324  1.00  0.00     0.000 A 
ATOM     22  C   UNL A   1      32.064  24.967  22.088  1.00  0.00     0.000 A 
ATOM     23  C   UNL A   1      32.913  25.908  21.522  1.00  0.00     0.000 A 
ENDBRANCH   8  18
ENDBRANCH   5   8
ENDBRANCH   3   4
ENDBRANCH   2   3
ENDBRANCH   1   2
BRANCH   1  24
ATOM     24  C   UNL A   1      34.356  29.972  27.860  1.00  0.00     0.116 C 
BRANCH  24  25
ATOM     25  N   UNL A   1      35.421  30.702  27.192  1.00  0.00    -0.352 N 
ATOM     26  C   UNL A   1      36.556  31.038  27.933  1.00  0.00     0.251 C 
ATOM     27  H   UNL A   1      35.345  30.952  26.242  1.00  0.00     0.163 HD
ATOM     28  O   UNL A   1      36.750  32.115  28.462  1.00  0.00    -0.269 OA
BRANCH  26  29
ATOM     29  C   UNL A   1      37.451  29.885  28.199  1.00  0.00     0.039 A 
ATOM     30  C   UNL A   1      37.404  29.170  29.398  1.00  0.00     0.014 A 
ATOM     31  C   UNL A   1      38.447  29.634  27.257  1.00  0.00     0.014 A 
ATOM     32  C   UNL A   1      38.447  28.289  29.704  1.00  0.00     0.010 A 
ATOM     33  C   UNL A   1      39.518  28.846  27.598  1.00  0.00     0.010 A 
ATOM     34  C   UNL A   1      39.531  28.187  28.828  1.00  0.00    -0.014 A 
BRANCH  34  35
ATOM     35  C   UNL A   1      40.789  27.514  29.107  1.00  0.00     0.031 A 
ATOM     36  C   UNL A   1      41.036  26.127  28.656  1.00  0.00     0.074 A 
ATOM     37  C   UNL A   1      41.828  28.265  29.533  1.00  0.00     0.049 A 
ATOM     38  N   UNL A   1      41.975  25.379  29.129  1.00  0.00    -0.248 NA
ATOM     39  C   UNL A   1      40.238  25.462  27.627  1.00  0.00     0.031 C 
ATOM     40  C   UNL A   1      43.244  27.930  29.455  1.00  0.00     0.029 A 
ATOM     41  N   UNL A   1      41.800  29.430  30.295  1.00  0.00    -0.354 N 
ATOM     42  C   UNL A   1      42.115  24.309  28.278  1.00  0.00     0.074 A 
ATOM     43  C   UNL A   1      40.962  24.359  27.407  1.00  0.00     0.031 C 
ATOM     44  C   UNL A   1      43.900  28.641  30.383  1.00  0.00     0.029 A 
ATOM     45  C   UNL A   1      42.900  29.362  31.156  1.00  0.00     0.049 A 
ATOM     46  H   UNL A   1      41.137  30.156  30.240  1.00  0.00     0.167 HD
ATOM     47  C   UNL A   1      43.268  23.581  28.284  1.00  0.00     0.037 A 
ATOM     48  C   UNL A   1      42.840  29.420  32.516  1.00  0.00     0.037 A 
ATOM     49  C   UNL A   1      44.226  24.104  29.253  1.00  0.00     0.049 A 
ATOM     50  C   UNL A   1      43.485  28.204  33.133  1.00  0.00     0.074 A 
ATOM     51  C   UNL A   1      45.315  24.950  29.119  1.00  0.00     0.029 A 
ATOM     52  N   UNL A   1      43.943  24.041  30.615  1.00  0.00    -0.354 N 
ATOM     53  N   UNL A   1      43.674  27.094  32.473  1.00  0.00    -0.248 NA
ATOM     54  C   UNL A   1      43.990  28.126  34.499  1.00  0.00     0.031 C 
ATOM     55  C   UNL A   1      45.658  25.436  30.403  1.00  0.00     0.029 A 
ATOM     56  C   UNL A   1      44.787  24.877  31.323  1.00  0.00     0.049 A 
ATOM     57  H   UNL A   1      43.241  23.480  31.018  1.00  0.00     0.167 HD
ATOM     58  C   UNL A   1      44.344  26.194  33.255  1.00  0.00     0.074 A 
ATOM     59  C   UNL A   1      44.501  26.880  34.524  1.00  0.00     0.031 C 
ATOM     60  C   UNL A   1      44.727  24.975  32.775  1.00  0.00     0.037 A 
BRANCH  47  61
ATOM     61  C   UNL A   1      43.605  22.591  27.195  1.00  0.00     0.058 A 
ATOM     62  C   UNL A   1      42.867  21.401  27.027  1.00  0.00     0.135 A 
ATOM     63  C   UNL A   1      44.674  22.765  26.292  1.00  0.00     0.135 A 
ATOM     64  F   UNL A   1      41.802  21.118  27.789  1.00  0.00    -0.206 F 
ATOM     65  C   UNL A   1      43.199  20.429  26.082  1.00  0.00     0.059 A 
ATOM     66  C   UNL A   1      45.054  21.786  25.367  1.00  0.00     0.059 A 
ATOM     67  F   UNL A   1      45.378  23.908  26.277  1.00  0.00    -0.206 F 
ATOM     68  C   UNL A   1      44.308  20.618  25.269  1.00  0.00     0.060 A 
BRANCH  68  69
ATOM     69  S   UNL A   1      44.748  19.316  24.102  1.00  0.00     0.124 S 
ATOM     70  O   UNL A   1      46.172  19.128  24.370  1.00  0.00    -0.237 OA
ATOM     71  O   UNL A   1      43.875  18.225  24.520  1.00  0.00    -0.237 OA
ATOM     72  O   UNL A   1      44.439  19.907  22.803  1.00  0.00    -0.744 OA
ENDBRANCH  68  69
ENDBRANCH  47  61
BRANCH  48  73
ATOM     73  C   UNL A   1      41.684  30.200  33.033  1.00  0.00     0.058 A 
ATOM     74  C   UNL A   1      41.854  31.597  33.112  1.00  0.00     0.135 A 
ATOM     75  C   UNL A   1      40.375  29.712  32.899  1.00  0.00     0.135 A 
ATOM     76  F   UNL A   1      43.083  32.113  33.277  1.00  0.00    -0.206 F 
ATOM     77  C   UNL A   1      40.806  32.476  32.848  1.00  0.00     0.059 A 
ATOM     78  C   UNL A   1      39.309  30.577  32.639  1.00  0.00     0.059 A 
ATOM     79  F   UNL A   1      40.153  28.394  32.805  1.00  0.00    -0.206 F 
ATOM     80  C   UNL A   1      39.558  31.947  32.525  1.00  0.00     0.060 A 
BRANCH  80  81
ATOM     81  S   UNL A   1      38.328  33.052  31.778  1.00  0.00     0.124 S 
ATOM     82  O   UNL A   1      38.923  33.336  30.478  1.00  0.00    -0.237 OA
ATOM     83  O   UNL A   1      37.132  32.208  31.766  1.00  0.00    -0.237 OA
ATOM     84  O   UNL A   1      38.285  34.172  32.712  1.00  0.00    -0.744 OA
ENDBRANCH  80  81
ENDBRANCH  48  73
BRANCH  60  85
ATOM     85  C   UNL A   1      45.207  23.802  33.595  1.00  0.00     0.058 A 
ATOM     86  C   UNL A   1      46.544  23.620  33.982  1.00  0.00     0.135 A 
ATOM     87  C   UNL A   1      44.278  22.896  34.167  1.00  0.00     0.135 A 
ATOM     88  F   UNL A   1      47.506  24.471  33.598  1.00  0.00    -0.206 F 
ATOM     89  C   UNL A   1      46.943  22.582  34.826  1.00  0.00     0.059 A 
ATOM     90  C   UNL A   1      44.646  21.892  35.056  1.00  0.00     0.059 A 
ATOM     91  F   UNL A   1      42.966  22.967  33.898  1.00  0.00    -0.206 F 
ATOM     92  C   UNL A   1      45.987  21.726  35.361  1.00  0.00     0.060 A 
BRANCH  92  93
ATOM     93  S   UNL A   1      46.486  20.437  36.514  1.00  0.00     0.124 S 
ATOM     94  O   UNL A   1      45.628  20.725  37.658  1.00  0.00    -0.237 OA
ATOM     95  O   UNL A   1      46.172  19.211  35.785  1.00  0.00    -0.237 OA
ATOM     96  O   UNL A   1      47.909  20.694  36.706  1.00  0.00    -0.744 OA
ENDBRANCH  92  93
ENDBRANCH  60  85
ENDBRANCH  34  35
ENDBRANCH  26  29
ENDBRANCH  24  25
ENDBRANCH   1  24
TORSDOF 17
ENDMDL
