MODEL 1
REMARK VINA RESULT:     -12.2      0.000      0.000
REMARK SMILES COc1ccccc1C(=O)N/C(=C/c1ccc2c(c1)OCO2)C(=O)Nc1ccc(C(=O)NCCCCNC(=O)c2ccc(-c3c4nc(c(-c5c(F)cc(S(=O)(=O)[O-])cc5F)c5ccc([nH]5)c(-c5c(F)cc(S(=O)(=O)[O-])cc5F)c5nc(c(-c6c(F)cc(S(=O)(=O)[O-])cc6F)c6ccc3[nH]6)C=C5)C=C4)cc2)cc1
REMARK SMILES IDX 33 1 32 2 30 3 31 4 29 6 26 7 27 8 107 9 28 10 106 11 25 12
REMARK SMILES IDX 23 13 24 14 12 16 13 17 11 18 9 19 10 20 8 22 3 23 4 24 5 25
REMARK SMILES IDX 7 26 6 27 2 28 1 29 14 30 15 31 19 32 16 33 18 34 17 35
REMARK SMILES IDX 20 36 22 37 21 38 34 39 35 40 36 41 37 42 38 43 39 45 40 46
REMARK SMILES IDX 41 47 105 48 42 49 104 50 43 51 44 52 45 53 98 54 46 55
REMARK SMILES IDX 103 56 97 57 99 58 47 59 102 60 96 61 95 62 48 64 82 65
REMARK SMILES IDX 61 66 81 67 62 68 65 69 80 70 100 71 63 72 64 73 79 75
REMARK SMILES IDX 101 76 66 77 49 78 50 79 59 80 51 81 52 82 58 83 60 84 53 85
REMARK SMILES IDX 54 86 55 87 56 88 57 89 83 90 84 91 93 92 85 93 86 94 92 95
REMARK SMILES IDX 94 96 87 97 88 98 89 99 90 100 91 101 67 102 68 103 77 104
REMARK SMILES IDX 69 105 70 106 76 107 78 108 71 109 72 110 73 111 74 112
REMARK SMILES IDX 75 113
REMARK H PARENT 32 5 25 15 11 21 37 44 99 63 65 74
REMARK Flexibility Score: inf
ROOT
ATOM      1  C   UNL A   1      34.149  30.883  27.297  1.00  0.00     0.116 C 
ENDROOT
BRANCH   1   2
ATOM      2  N   UNL A   1      32.808  31.257  26.899  1.00  0.00    -0.352 N 
ATOM      3  C   UNL A   1      31.893  30.551  26.165  1.00  0.00     0.251 C 
ATOM      4  O   UNL A   1      30.750  30.971  26.022  1.00  0.00    -0.269 OA
ATOM      5  H   UNL A   1      32.511  32.145  27.200  1.00  0.00     0.163 HD
BRANCH   3   6
ATOM      6  C   UNL A   1      32.239  29.243  25.598  1.00  0.00     0.039 A 
ATOM      7  C   UNL A   1      33.351  25.976  24.202  1.00  0.00     0.041 A 
ATOM      8  C   UNL A   1      33.390  26.201  25.955  1.00  0.00     0.027 A 
ATOM      9  C   UNL A   1      32.711  27.268  23.202  1.00  0.00     0.027 A 
ATOM     10  C   UNL A   1      32.846  27.987  26.736  1.00  0.00     0.016 A 
ATOM     11  C   UNL A   1      32.168  28.833  23.875  1.00  0.00     0.016 A 
BRANCH   7  12
ATOM     12  N   UNL A   1      34.439  25.210  23.752  1.00  0.00    -0.321 N 
ATOM     13  C   UNL A   1      34.371  23.822  23.697  1.00  0.00     0.272 C 
ATOM     14  O   UNL A   1      34.543  23.226  22.632  1.00  0.00    -0.267 OA
ATOM     15  H   UNL A   1      35.266  25.664  23.470  1.00  0.00     0.170 HD
BRANCH  13  16
ATOM     16  C   UNL A   1      34.314  23.010  25.014  1.00  0.00     0.108 C 
ATOM     17  C   UNL A   1      35.371  22.582  25.765  1.00  0.00     0.040 C 
BRANCH  16  18
ATOM     18  N   UNL A   1      33.058  22.710  25.535  1.00  0.00    -0.317 N 
ATOM     19  C   UNL A   1      32.094  21.754  25.295  1.00  0.00     0.259 C 
ATOM     20  O   UNL A   1      31.064  21.796  25.974  1.00  0.00    -0.269 OA
ATOM     21  H   UNL A   1      32.793  23.333  26.249  1.00  0.00     0.170 HD
BRANCH  19  22
ATOM     22  C   UNL A   1      32.169  20.704  24.264  1.00  0.00     0.082 A 
ATOM     23  C   UNL A   1      32.368  19.335  24.484  1.00  0.00     0.131 A 
ATOM     24  C   UNL A   1      32.553  18.495  23.372  1.00  0.00     0.047 A 
ATOM     25  C   UNL A   1      32.424  18.976  22.068  1.00  0.00     0.004 A 
ATOM     26  C   UNL A   1      31.975  21.168  22.947  1.00  0.00     0.018 A 
ATOM     27  C   UNL A   1      32.094  20.309  21.856  1.00  0.00     0.001 A 
BRANCH  23  28
ATOM     28  O   UNL A   1      32.472  18.658  25.666  1.00  0.00    -0.496 OA
ATOM     29  C   UNL A   1      33.027  17.350  25.642  1.00  0.00     0.278 C 
ENDBRANCH  23  28
ENDBRANCH  19  22
ENDBRANCH  16  18
BRANCH  17  30
ATOM     30  C   UNL A   1      36.791  22.567  25.340  1.00  0.00    -0.019 A 
ATOM     31  C   UNL A   1      37.623  23.987  26.060  1.00  0.00     0.012 A 
ATOM     32  C   UNL A   1      37.708  21.056  25.169  1.00  0.00     0.058 A 
ATOM     33  C   UNL A   1      39.505  23.743  26.770  1.00  0.00     0.051 A 
ATOM     34  C   UNL A   1      39.374  20.896  25.758  1.00  0.00     0.166 A 
ATOM     35  C   UNL A   1      40.268  22.148  26.535  1.00  0.00     0.165 A 
ATOM     36  O   UNL A   1      39.961  19.718  26.158  1.00  0.00    -0.454 OA
ATOM     37  O   UNL A   1      41.256  21.578  27.273  1.00  0.00    -0.454 OA
ATOM     38  C   UNL A   1      40.822  20.179  27.258  1.00  0.00     0.468 C 
ENDBRANCH  17  30
ENDBRANCH  13  16
ENDBRANCH   7  12
ENDBRANCH   3   6
ENDBRANCH   1   2
BRANCH   1  39
ATOM     39  C   UNL A   1      34.909  32.077  27.870  1.00  0.00     0.023 C 
BRANCH  39  40
ATOM     40  C   UNL A   1      34.170  33.409  27.776  1.00  0.00     0.023 C 
BRANCH  40  41
ATOM     41  C   UNL A   1      34.623  34.458  28.774  1.00  0.00     0.116 C 
BRANCH  41  42
ATOM     42  N   UNL A   1      33.537  34.987  29.590  1.00  0.00    -0.352 N 
ATOM     43  C   UNL A   1      33.430  34.921  30.961  1.00  0.00     0.251 C 
ATOM     44  H   UNL A   1      32.805  35.438  29.111  1.00  0.00     0.163 HD
ATOM     45  O   UNL A   1      32.431  35.324  31.543  1.00  0.00    -0.269 OA
BRANCH  43  46
ATOM     46  C   UNL A   1      34.553  34.309  31.693  1.00  0.00     0.039 A 
ATOM     47  C   UNL A   1      34.521  32.942  31.968  1.00  0.00     0.014 A 
ATOM     48  C   UNL A   1      35.694  35.074  31.946  1.00  0.00     0.014 A 
ATOM     49  C   UNL A   1      35.674  32.318  32.446  1.00  0.00     0.010 A 
ATOM     50  C   UNL A   1      36.859  34.436  32.343  1.00  0.00     0.010 A 
ATOM     51  C   UNL A   1      36.859  33.055  32.602  1.00  0.00    -0.014 A 
BRANCH  51  52
ATOM     52  C   UNL A   1      38.116  32.432  33.083  1.00  0.00     0.031 A 
ATOM     53  C   UNL A   1      38.547  32.682  34.501  1.00  0.00     0.074 A 
ATOM     54  C   UNL A   1      38.904  31.741  32.236  1.00  0.00     0.049 A 
ATOM     55  N   UNL A   1      39.683  32.404  35.083  1.00  0.00    -0.248 NA
ATOM     56  C   UNL A   1      37.583  33.384  35.366  1.00  0.00     0.031 C 
ATOM     57  C   UNL A   1      38.606  31.464  30.829  1.00  0.00     0.029 A 
ATOM     58  N   UNL A   1      40.134  31.165  32.432  1.00  0.00    -0.354 N 
ATOM     59  C   UNL A   1      39.584  32.928  36.365  1.00  0.00     0.074 A 
ATOM     60  C   UNL A   1      38.299  33.584  36.461  1.00  0.00     0.031 C 
ATOM     61  C   UNL A   1      39.619  30.763  30.294  1.00  0.00     0.029 A 
ATOM     62  C   UNL A   1      40.657  30.577  31.303  1.00  0.00     0.049 A 
ATOM     63  H   UNL A   1      40.599  31.172  33.300  1.00  0.00     0.167 HD
ATOM     64  C   UNL A   1      40.475  32.847  37.380  1.00  0.00     0.037 A 
ATOM     65  C   UNL A   1      41.846  29.972  31.106  1.00  0.00     0.037 A 
ATOM     66  C   UNL A   1      41.726  32.147  37.287  1.00  0.00     0.049 A 
ATOM     67  C   UNL A   1      42.813  29.874  32.257  1.00  0.00     0.074 A 
ATOM     68  C   UNL A   1      42.679  31.954  38.270  1.00  0.00     0.029 A 
ATOM     69  N   UNL A   1      42.191  31.513  36.144  1.00  0.00    -0.354 N 
ATOM     70  N   UNL A   1      42.689  30.338  33.478  1.00  0.00    -0.248 NA
ATOM     71  C   UNL A   1      44.078  29.166  32.010  1.00  0.00     0.031 C 
ATOM     72  C   UNL A   1      43.736  31.228  37.713  1.00  0.00     0.029 A 
ATOM     73  C   UNL A   1      43.419  30.930  36.396  1.00  0.00     0.049 A 
ATOM     74  H   UNL A   1      41.717  31.482  35.281  1.00  0.00     0.167 HD
ATOM     75  C   UNL A   1      43.838  29.945  34.154  1.00  0.00     0.074 A 
ATOM     76  C   UNL A   1      44.650  29.209  33.206  1.00  0.00     0.031 C 
ATOM     77  C   UNL A   1      44.189  30.169  35.444  1.00  0.00     0.037 A 
BRANCH  64  78
ATOM     78  C   UNL A   1      40.118  33.524  38.673  1.00  0.00     0.058 A 
ATOM     79  C   UNL A   1      39.182  32.971  39.562  1.00  0.00     0.135 A 
ATOM     80  C   UNL A   1      40.731  34.734  39.037  1.00  0.00     0.135 A 
ATOM     81  F   UNL A   1      38.552  31.827  39.254  1.00  0.00    -0.206 F 
ATOM     82  C   UNL A   1      38.839  33.612  40.747  1.00  0.00     0.059 A 
ATOM     83  C   UNL A   1      40.426  35.376  40.234  1.00  0.00     0.059 A 
ATOM     84  F   UNL A   1      41.632  35.308  38.223  1.00  0.00    -0.206 F 
ATOM     85  C   UNL A   1      39.465  34.815  41.074  1.00  0.00     0.060 A 
BRANCH  85  86
ATOM     86  S   UNL A   1      39.008  35.633  42.615  1.00  0.00     0.124 S 
ATOM     87  O   UNL A   1      39.897  34.974  43.568  1.00  0.00    -0.237 OA
ATOM     88  O   UNL A   1      39.311  37.032  42.330  1.00  0.00    -0.237 OA
ATOM     89  O   UNL A   1      37.589  35.319  42.759  1.00  0.00    -0.744 OA
ENDBRANCH  85  86
ENDBRANCH  64  78
BRANCH  65  90
ATOM     90  C   UNL A   1      42.176  29.390  29.778  1.00  0.00     0.058 A 
ATOM     91  C   UNL A   1      42.857  30.146  28.812  1.00  0.00     0.135 A 
ATOM     92  C   UNL A   1      41.831  28.070  29.450  1.00  0.00     0.135 A 
ATOM     93  F   UNL A   1      43.205  31.415  29.077  1.00  0.00    -0.206 F 
ATOM     94  C   UNL A   1      43.172  29.621  27.562  1.00  0.00     0.059 A 
ATOM     95  C   UNL A   1      42.154  27.515  28.214  1.00  0.00     0.059 A 
ATOM     96  F   UNL A   1      41.195  27.298  30.344  1.00  0.00    -0.206 F 
ATOM     97  C   UNL A   1      42.816  28.303  27.273  1.00  0.00     0.060 A 
BRANCH  97  98
ATOM     98  S   UNL A   1      43.270  27.618  25.664  1.00  0.00     0.124 S 
ATOM     99  O   UNL A   1      44.649  28.073  25.530  1.00  0.00    -0.237 OA
ATOM    100  O   UNL A   1      43.088  26.185  25.878  1.00  0.00    -0.237 OA
ATOM    101  O   UNL A   1      42.309  28.235  24.754  1.00  0.00    -0.744 OA
ENDBRANCH  97  98
ENDBRANCH  65  90
BRANCH  77 102
ATOM    102  C   UNL A   1      45.468  29.559  35.941  1.00  0.00     0.058 A 
ATOM    103  C   UNL A   1      46.675  30.273  35.943  1.00  0.00     0.135 A 
ATOM    104  C   UNL A   1      45.453  28.283  36.531  1.00  0.00     0.135 A 
ATOM    105  F   UNL A   1      46.741  31.491  35.385  1.00  0.00    -0.206 F 
ATOM    106  C   UNL A   1      47.826  29.743  36.517  1.00  0.00     0.059 A 
ATOM    107  C   UNL A   1      46.586  27.745  37.131  1.00  0.00     0.059 A 
ATOM    108  F   UNL A   1      44.319  27.567  36.562  1.00  0.00    -0.206 F 
ATOM    109  C   UNL A   1      47.769  28.482  37.118  1.00  0.00     0.060 A 
BRANCH 109 110
ATOM    110  S   UNL A   1      49.247  27.844  37.934  1.00  0.00     0.124 S 
ATOM    111  O   UNL A   1      49.482  26.609  37.194  1.00  0.00    -0.237 OA
ATOM    112  O   UNL A   1      50.215  28.914  37.708  1.00  0.00    -0.237 OA
ATOM    113  O   UNL A   1      48.823  27.675  39.321  1.00  0.00    -0.744 OA
ENDBRANCH 109 110
ENDBRANCH  77 102
ENDBRANCH  51  52
ENDBRANCH  43  46
ENDBRANCH  41  42
ENDBRANCH  40  41
ENDBRANCH  39  40
ENDBRANCH   1  39
TORSDOF 20
ENDMDL
MODEL 2
REMARK VINA RESULT:     -11.8      1.616      2.298
REMARK SMILES COc1ccccc1C(=O)N/C(=C/c1ccc2c(c1)OCO2)C(=O)Nc1ccc(C(=O)NCCCCNC(=O)c2ccc(-c3c4nc(c(-c5c(F)cc(S(=O)(=O)[O-])cc5F)c5ccc([nH]5)c(-c5c(F)cc(S(=O)(=O)[O-])cc5F)c5nc(c(-c6c(F)cc(S(=O)(=O)[O-])cc6F)c6ccc3[nH]6)C=C5)C=C4)cc2)cc1
REMARK SMILES IDX 33 1 32 2 30 3 31 4 29 6 26 7 27 8 107 9 28 10 106 11 25 12
REMARK SMILES IDX 23 13 24 14 12 16 13 17 11 18 9 19 10 20 8 22 3 23 4 24 5 25
REMARK SMILES IDX 7 26 6 27 2 28 1 29 14 30 15 31 19 32 16 33 18 34 17 35
REMARK SMILES IDX 20 36 22 37 21 38 34 39 35 40 36 41 37 42 38 43 39 45 40 46
REMARK SMILES IDX 41 47 105 48 42 49 104 50 43 51 44 52 45 53 98 54 46 55
REMARK SMILES IDX 103 56 97 57 99 58 47 59 102 60 96 61 95 62 48 64 82 65
REMARK SMILES IDX 61 66 81 67 62 68 65 69 80 70 100 71 63 72 64 73 79 75
REMARK SMILES IDX 101 76 66 77 49 78 50 79 59 80 51 81 52 82 58 83 60 84 53 85
REMARK SMILES IDX 54 86 55 87 56 88 57 89 83 90 84 91 93 92 85 93 86 94 92 95
REMARK SMILES IDX 94 96 87 97 88 98 89 99 90 100 91 101 67 102 68 103 77 104
REMARK SMILES IDX 69 105 70 106 76 107 78 108 71 109 72 110 73 111 74 112
REMARK SMILES IDX 75 113
REMARK H PARENT 32 5 25 15 11 21 37 44 99 63 65 74
REMARK Flexibility Score: inf
ROOT
ATOM      1  C   UNL A   1      34.019  31.161  27.361  1.00  0.00     0.116 C 
ENDROOT
BRANCH   1   2
ATOM      2  N   UNL A   1      32.701  31.530  26.889  1.00  0.00    -0.352 N 
ATOM      3  C   UNL A   1      31.819  30.812  26.128  1.00  0.00     0.251 C 
ATOM      4  O   UNL A   1      30.686  31.232  25.920  1.00  0.00    -0.269 OA
ATOM      5  H   UNL A   1      32.394  32.427  27.154  1.00  0.00     0.163 HD
BRANCH   3   6
ATOM      6  C   UNL A   1      32.185  29.489  25.609  1.00  0.00     0.039 A 
ATOM      7  C   UNL A   1      33.348  26.195  24.322  1.00  0.00     0.041 A 
ATOM      8  C   UNL A   1      33.451  26.505  26.060  1.00  0.00     0.027 A 
ATOM      9  C   UNL A   1      32.625  27.417  23.290  1.00  0.00     0.027 A 
ATOM     10  C   UNL A   1      32.879  28.309  26.778  1.00  0.00     0.016 A 
ATOM     11  C   UNL A   1      32.058  28.994  23.912  1.00  0.00     0.016 A 
BRANCH   7  12
ATOM     12  N   UNL A   1      34.442  25.442  23.864  1.00  0.00    -0.321 N 
ATOM     13  C   UNL A   1      34.382  24.055  23.786  1.00  0.00     0.272 C 
ATOM     14  O   UNL A   1      34.561  23.477  22.712  1.00  0.00    -0.267 OA
ATOM     15  H   UNL A   1      35.267  25.906  23.592  1.00  0.00     0.170 HD
BRANCH  13  16
ATOM     16  C   UNL A   1      34.326  23.222  25.090  1.00  0.00     0.108 C 
ATOM     17  C   UNL A   1      35.384  22.760  25.820  1.00  0.00     0.040 C 
BRANCH  16  18
ATOM     18  N   UNL A   1      33.071  22.937  25.621  1.00  0.00    -0.317 N 
ATOM     19  C   UNL A   1      32.221  21.851  25.618  1.00  0.00     0.259 C 
ATOM     20  O   UNL A   1      31.147  21.962  26.215  1.00  0.00    -0.269 OA
ATOM     21  H   UNL A   1      32.697  23.698  26.122  1.00  0.00     0.170 HD
BRANCH  19  22
ATOM     22  C   UNL A   1      32.469  20.575  24.924  1.00  0.00     0.082 A 
ATOM     23  C   UNL A   1      32.370  20.344  23.546  1.00  0.00     0.131 A 
ATOM     24  C   UNL A   1      32.507  19.028  23.072  1.00  0.00     0.047 A 
ATOM     25  C   UNL A   1      32.855  17.981  23.927  1.00  0.00     0.004 A 
ATOM     26  C   UNL A   1      32.885  19.526  25.769  1.00  0.00     0.018 A 
ATOM     27  C   UNL A   1      33.084  18.238  25.273  1.00  0.00     0.001 A 
BRANCH  23  28
ATOM     28  O   UNL A   1      32.091  21.228  22.542  1.00  0.00    -0.496 OA
ATOM     29  C   UNL A   1      31.729  20.706  21.271  1.00  0.00     0.278 C 
ENDBRANCH  23  28
ENDBRANCH  19  22
ENDBRANCH  16  18
BRANCH  17  30
ATOM     30  C   UNL A   1      36.797  22.724  25.376  1.00  0.00    -0.019 A 
ATOM     31  C   UNL A   1      37.672  24.102  26.129  1.00  0.00     0.012 A 
ATOM     32  C   UNL A   1      37.676  21.199  25.147  1.00  0.00     0.058 A 
ATOM     33  C   UNL A   1      39.556  23.791  26.808  1.00  0.00     0.051 A 
ATOM     34  C   UNL A   1      39.345  20.981  25.710  1.00  0.00     0.166 A 
ATOM     35  C   UNL A   1      40.277  22.187  26.514  1.00  0.00     0.165 A 
ATOM     36  O   UNL A   1      39.907  19.778  26.066  1.00  0.00    -0.454 OA
ATOM     37  O   UNL A   1      41.260  21.571  27.220  1.00  0.00    -0.454 OA
ATOM     38  C   UNL A   1      40.793  20.184  27.168  1.00  0.00     0.468 C 
ENDBRANCH  17  30
ENDBRANCH  13  16
ENDBRANCH   7  12
ENDBRANCH   3   6
ENDBRANCH   1   2
BRANCH   1  39
ATOM     39  C   UNL A   1      34.659  32.295  28.157  1.00  0.00     0.023 C 
BRANCH  39  40
ATOM     40  C   UNL A   1      33.763  33.512  28.369  1.00  0.00     0.023 C 
BRANCH  40  41
ATOM     41  C   UNL A   1      34.183  34.418  29.512  1.00  0.00     0.116 C 
BRANCH  41  42
ATOM     42  N   UNL A   1      33.058  34.965  30.260  1.00  0.00    -0.352 N 
ATOM     43  C   UNL A   1      32.933  35.027  31.629  1.00  0.00     0.251 C 
ATOM     44  H   UNL A   1      32.311  35.327  29.731  1.00  0.00     0.163 HD
ATOM     45  O   UNL A   1      31.905  35.431  32.158  1.00  0.00    -0.269 OA
BRANCH  43  46
ATOM     46  C   UNL A   1      34.074  34.550  32.430  1.00  0.00     0.039 A 
ATOM     47  C   UNL A   1      34.235  33.180  32.637  1.00  0.00     0.014 A 
ATOM     48  C   UNL A   1      35.055  35.464  32.821  1.00  0.00     0.014 A 
ATOM     49  C   UNL A   1      35.428  32.713  33.187  1.00  0.00     0.010 A 
ATOM     50  C   UNL A   1      36.270  34.989  33.291  1.00  0.00     0.010 A 
ATOM     51  C   UNL A   1      36.466  33.611  33.484  1.00  0.00    -0.014 A 
BRANCH  51  52
ATOM     52  C   UNL A   1      37.761  33.159  34.046  1.00  0.00     0.031 A 
ATOM     53  C   UNL A   1      37.953  33.201  35.537  1.00  0.00     0.074 A 
ATOM     54  C   UNL A   1      38.778  32.814  33.232  1.00  0.00     0.049 A 
ATOM     55  N   UNL A   1      39.044  33.038  36.237  1.00  0.00    -0.248 NA
ATOM     56  C   UNL A   1      36.762  33.519  36.343  1.00  0.00     0.031 C 
ATOM     57  C   UNL A   1      38.719  32.770  31.769  1.00  0.00     0.029 A 
ATOM     58  N   UNL A   1      40.072  32.459  33.522  1.00  0.00    -0.354 N 
ATOM     59  C   UNL A   1      38.678  33.268  37.557  1.00  0.00     0.074 A 
ATOM     60  C   UNL A   1      37.280  33.632  37.557  1.00  0.00     0.031 C 
ATOM     61  C   UNL A   1      39.918  32.397  31.291  1.00  0.00     0.029 A 
ATOM     62  C   UNL A   1      40.842  32.218  32.407  1.00  0.00     0.049 A 
ATOM     63  H   UNL A   1      40.416  32.383  34.441  1.00  0.00     0.167 HD
ATOM     64  C   UNL A   1      39.437  33.161  38.672  1.00  0.00     0.037 A 
ATOM     65  C   UNL A   1      42.150  31.905  32.303  1.00  0.00     0.037 A 
ATOM     66  C   UNL A   1      40.813  32.747  38.663  1.00  0.00     0.049 A 
ATOM     67  C   UNL A   1      42.969  31.769  33.560  1.00  0.00     0.074 A 
ATOM     68  C   UNL A   1      41.659  32.551  39.738  1.00  0.00     0.029 A 
ATOM     69  N   UNL A   1      41.540  32.454  37.518  1.00  0.00    -0.354 N 
ATOM     70  N   UNL A   1      42.600  31.949  34.806  1.00  0.00    -0.248 NA
ATOM     71  C   UNL A   1      44.379  31.382  33.402  1.00  0.00     0.031 C 
ATOM     72  C   UNL A   1      42.909  32.167  39.242  1.00  0.00     0.029 A 
ATOM     73  C   UNL A   1      42.826  32.081  37.861  1.00  0.00     0.049 A 
ATOM     74  H   UNL A   1      41.191  32.504  36.599  1.00  0.00     0.167 HD
ATOM     75  C   UNL A   1      43.718  31.659  35.580  1.00  0.00     0.074 A 
ATOM     76  C   UNL A   1      44.779  31.296  34.663  1.00  0.00     0.031 C 
ATOM     77  C   UNL A   1      43.853  31.686  36.929  1.00  0.00     0.037 A 
BRANCH  64  78
ATOM     78  C   UNL A   1      38.787  33.487  39.987  1.00  0.00     0.058 A 
ATOM     79  C   UNL A   1      38.941  34.744  40.594  1.00  0.00     0.135 A 
ATOM     80  C   UNL A   1      37.988  32.537  40.643  1.00  0.00     0.135 A 
ATOM     81  F   UNL A   1      39.712  35.682  40.021  1.00  0.00    -0.206 F 
ATOM     82  C   UNL A   1      38.357  35.035  41.822  1.00  0.00     0.059 A 
ATOM     83  C   UNL A   1      37.366  32.818  41.856  1.00  0.00     0.059 A 
ATOM     84  F   UNL A   1      37.808  31.318  40.108  1.00  0.00    -0.206 F 
ATOM     85  C   UNL A   1      37.572  34.064  42.446  1.00  0.00     0.060 A 
BRANCH  85  86
ATOM     86  S   UNL A   1      36.821  34.458  44.038  1.00  0.00     0.124 S 
ATOM     87  O   UNL A   1      37.289  35.825  44.250  1.00  0.00    -0.237 OA
ATOM     88  O   UNL A   1      35.396  34.314  43.757  1.00  0.00    -0.237 OA
ATOM     89  O   UNL A   1      37.384  33.456  44.937  1.00  0.00    -0.744 OA
ENDBRANCH  85  86
ENDBRANCH  64  78
BRANCH  65  90
ATOM     90  C   UNL A   1      42.757  31.673  30.966  1.00  0.00     0.058 A 
ATOM     91  C   UNL A   1      43.284  32.739  30.220  1.00  0.00     0.135 A 
ATOM     92  C   UNL A   1      42.835  30.387  30.409  1.00  0.00     0.135 A 
ATOM     93  F   UNL A   1      43.229  33.988  30.708  1.00  0.00    -0.206 F 
ATOM     94  C   UNL A   1      43.853  32.543  28.965  1.00  0.00     0.059 A 
ATOM     95  C   UNL A   1      43.419  30.162  29.164  1.00  0.00     0.059 A 
ATOM     96  F   UNL A   1      42.362  29.330  31.087  1.00  0.00    -0.206 F 
ATOM     97  C   UNL A   1      43.916  31.249  28.446  1.00  0.00     0.060 A 
BRANCH  97  98
ATOM     98  S   UNL A   1      44.697  31.001  26.836  1.00  0.00     0.124 S 
ATOM     99  O   UNL A   1      46.112  31.077  27.182  1.00  0.00    -0.237 OA
ATOM    100  O   UNL A   1      44.202  29.681  26.456  1.00  0.00    -0.237 OA
ATOM    101  O   UNL A   1      44.181  32.109  26.039  1.00  0.00    -0.744 OA
ENDBRANCH  97  98
ENDBRANCH  65  90
BRANCH  77 102
ATOM    102  C   UNL A   1      45.166  31.248  37.513  1.00  0.00     0.058 A 
ATOM    103  C   UNL A   1      46.172  32.168  37.841  1.00  0.00     0.135 A 
ATOM    104  C   UNL A   1      45.364  29.900  37.856  1.00  0.00     0.135 A 
ATOM    105  F   UNL A   1      46.031  33.465  37.527  1.00  0.00    -0.206 F 
ATOM    106  C   UNL A   1      47.333  31.765  38.493  1.00  0.00     0.059 A 
ATOM    107  C   UNL A   1      46.506  29.480  38.528  1.00  0.00     0.059 A 
ATOM    108  F   UNL A   1      44.424  28.985  37.570  1.00  0.00    -0.206 F 
ATOM    109  C   UNL A   1      47.486  30.420  38.842  1.00  0.00     0.060 A 
BRANCH 109 110
ATOM    110  S   UNL A   1      48.958  29.928  39.763  1.00  0.00     0.124 S 
ATOM    111  O   UNL A   1      48.468  29.954  41.137  1.00  0.00    -0.237 OA
ATOM    112  O   UNL A   1      49.241  28.604  39.215  1.00  0.00    -0.237 OA
ATOM    113  O   UNL A   1      49.933  30.961  39.424  1.00  0.00    -0.744 OA
ENDBRANCH 109 110
ENDBRANCH  77 102
ENDBRANCH  51  52
ENDBRANCH  43  46
ENDBRANCH  41  42
ENDBRANCH  40  41
ENDBRANCH  39  40
ENDBRANCH   1  39
TORSDOF 20
ENDMDL
MODEL 3
REMARK VINA RESULT:     -11.3      4.268      6.116
REMARK SMILES COc1ccccc1C(=O)N/C(=C/c1ccc2c(c1)OCO2)C(=O)Nc1ccc(C(=O)NCCCCNC(=O)c2ccc(-c3c4nc(c(-c5c(F)cc(S(=O)(=O)[O-])cc5F)c5ccc([nH]5)c(-c5c(F)cc(S(=O)(=O)[O-])cc5F)c5nc(c(-c6c(F)cc(S(=O)(=O)[O-])cc6F)c6ccc3[nH]6)C=C5)C=C4)cc2)cc1
REMARK SMILES IDX 33 1 32 2 30 3 31 4 29 6 26 7 27 8 107 9 28 10 106 11 25 12
REMARK SMILES IDX 23 13 24 14 12 16 13 17 11 18 9 19 10 20 8 22 3 23 4 24 5 25
REMARK SMILES IDX 7 26 6 27 2 28 1 29 14 30 15 31 19 32 16 33 18 34 17 35
REMARK SMILES IDX 20 36 22 37 21 38 34 39 35 40 36 41 37 42 38 43 39 45 40 46
REMARK SMILES IDX 41 47 105 48 42 49 104 50 43 51 44 52 45 53 98 54 46 55
REMARK SMILES IDX 103 56 97 57 99 58 47 59 102 60 96 61 95 62 48 64 82 65
REMARK SMILES IDX 61 66 81 67 62 68 65 69 80 70 100 71 63 72 64 73 79 75
REMARK SMILES IDX 101 76 66 77 49 78 50 79 59 80 51 81 52 82 58 83 60 84 53 85
REMARK SMILES IDX 54 86 55 87 56 88 57 89 83 90 84 91 93 92 85 93 86 94 92 95
REMARK SMILES IDX 94 96 87 97 88 98 89 99 90 100 91 101 67 102 68 103 77 104
REMARK SMILES IDX 69 105 70 106 76 107 78 108 71 109 72 110 73 111 74 112
REMARK SMILES IDX 75 113
REMARK H PARENT 32 5 25 15 11 21 37 44 99 63 65 74
REMARK Flexibility Score: inf
ROOT
ATOM      1  C   UNL A   1      37.029  32.027  28.711  1.00  0.00     0.116 C 
ENDROOT
BRANCH   1   2
ATOM      2  N   UNL A   1      36.533  31.060  29.667  1.00  0.00    -0.352 N 
ATOM      3  C   UNL A   1      37.073  29.862  30.048  1.00  0.00     0.251 C 
ATOM      4  O   UNL A   1      36.580  29.219  30.969  1.00  0.00    -0.269 OA
ATOM      5  H   UNL A   1      35.686  31.299  30.107  1.00  0.00     0.163 HD
BRANCH   3   6
ATOM      6  C   UNL A   1      38.297  29.359  29.416  1.00  0.00     0.039 A 
ATOM      7  C   UNL A   1      41.519  28.282  27.892  1.00  0.00     0.041 A 
ATOM      8  C   UNL A   1      41.324  28.135  29.644  1.00  0.00     0.027 A 
ATOM      9  C   UNL A   1      40.159  28.847  26.938  1.00  0.00     0.027 A 
ATOM     10  C   UNL A   1      39.605  28.768  30.503  1.00  0.00     0.016 A 
ATOM     11  C   UNL A   1      38.609  29.355  27.671  1.00  0.00     0.016 A 
BRANCH   7  12
ATOM     12  N   UNL A   1      42.828  28.656  27.545  1.00  0.00    -0.321 N 
ATOM     13  C   UNL A   1      43.565  27.928  26.618  1.00  0.00     0.272 C 
ATOM     14  O   UNL A   1      43.999  28.466  25.597  1.00  0.00    -0.267 OA
ATOM     15  H   UNL A   1      43.231  29.450  27.966  1.00  0.00     0.170 HD
BRANCH  13  16
ATOM     16  C   UNL A   1      44.045  26.500  26.979  1.00  0.00     0.108 C 
ATOM     17  C   UNL A   1      44.478  26.060  28.197  1.00  0.00     0.040 C 
BRANCH  16  18
ATOM     18  N   UNL A   1      43.995  25.530  25.982  1.00  0.00    -0.317 N 
ATOM     19  C   UNL A   1      43.099  24.556  25.596  1.00  0.00     0.259 C 
ATOM     20  O   UNL A   1      43.400  23.851  24.629  1.00  0.00    -0.269 OA
ATOM     21  H   UNL A   1      44.798  25.542  25.411  1.00  0.00     0.170 HD
BRANCH  19  22
ATOM     22  C   UNL A   1      41.823  24.255  26.270  1.00  0.00     0.082 A 
ATOM     23  C   UNL A   1      41.522  23.101  27.004  1.00  0.00     0.131 A 
ATOM     24  C   UNL A   1      40.206  22.918  27.461  1.00  0.00     0.047 A 
ATOM     25  C   UNL A   1      39.237  23.910  27.301  1.00  0.00     0.004 A 
ATOM     26  C   UNL A   1      40.859  25.278  26.171  1.00  0.00     0.018 A 
ATOM     27  C   UNL A   1      39.576  25.111  26.690  1.00  0.00     0.001 A 
BRANCH  23  28
ATOM     28  O   UNL A   1      42.329  22.042  27.316  1.00  0.00    -0.496 OA
ATOM     29  C   UNL A   1      42.395  20.958  26.401  1.00  0.00     0.278 C 
ENDBRANCH  23  28
ENDBRANCH  19  22
ENDBRANCH  16  18
BRANCH  17  30
ATOM     30  C   UNL A   1      44.838  26.914  29.353  1.00  0.00    -0.019 A 
ATOM     31  C   UNL A   1      44.000  26.288  30.815  1.00  0.00     0.012 A 
ATOM     32  C   UNL A   1      46.464  27.600  29.549  1.00  0.00     0.058 A 
ATOM     33  C   UNL A   1      45.013  26.264  32.569  1.00  0.00     0.051 A 
ATOM     34  C   UNL A   1      47.299  27.606  31.115  1.00  0.00     0.166 A 
ATOM     35  C   UNL A   1      46.649  26.973  32.580  1.00  0.00     0.165 A 
ATOM     36  O   UNL A   1      48.665  27.601  31.281  1.00  0.00    -0.454 OA
ATOM     37  O   UNL A   1      47.678  26.687  33.419  1.00  0.00    -0.454 OA
ATOM     38  C   UNL A   1      48.808  26.778  32.492  1.00  0.00     0.468 C 
ENDBRANCH  17  30
ENDBRANCH  13  16
ENDBRANCH   7  12
ENDBRANCH   3   6
ENDBRANCH   1   2
BRANCH   1  39
ATOM     39  C   UNL A   1      36.931  33.448  29.260  1.00  0.00     0.023 C 
BRANCH  39  40
ATOM     40  C   UNL A   1      35.649  34.188  28.892  1.00  0.00     0.023 C 
BRANCH  40  41
ATOM     41  C   UNL A   1      34.368  33.467  29.270  1.00  0.00     0.116 C 
BRANCH  41  42
ATOM     42  N   UNL A   1      33.364  34.342  29.861  1.00  0.00    -0.352 N 
ATOM     43  C   UNL A   1      33.313  34.771  31.168  1.00  0.00     0.251 C 
ATOM     44  H   UNL A   1      32.648  34.658  29.264  1.00  0.00     0.163 HD
ATOM     45  O   UNL A   1      32.375  35.439  31.584  1.00  0.00    -0.269 OA
BRANCH  43  46
ATOM     46  C   UNL A   1      34.416  34.358  32.054  1.00  0.00     0.039 A 
ATOM     47  C   UNL A   1      34.622  33.000  32.297  1.00  0.00     0.014 A 
ATOM     48  C   UNL A   1      35.329  35.321  32.492  1.00  0.00     0.014 A 
ATOM     49  C   UNL A   1      35.794  32.595  32.936  1.00  0.00     0.010 A 
ATOM     50  C   UNL A   1      36.528  34.908  33.053  1.00  0.00     0.010 A 
ATOM     51  C   UNL A   1      36.769  33.543  33.285  1.00  0.00    -0.014 A 
BRANCH  51  52
ATOM     52  C   UNL A   1      38.041  33.158  33.943  1.00  0.00     0.031 A 
ATOM     53  C   UNL A   1      38.108  33.171  35.444  1.00  0.00     0.074 A 
ATOM     54  C   UNL A   1      39.141  32.903  33.208  1.00  0.00     0.049 A 
ATOM     55  N   UNL A   1      39.146  33.057  36.229  1.00  0.00    -0.248 NA
ATOM     56  C   UNL A   1      36.837  33.389  36.156  1.00  0.00     0.031 C 
ATOM     57  C   UNL A   1      39.205  32.896  31.744  1.00  0.00     0.029 A 
ATOM     58  N   UNL A   1      40.427  32.622  33.596  1.00  0.00    -0.354 N 
ATOM     59  C   UNL A   1      38.660  33.227  37.519  1.00  0.00     0.074 A 
ATOM     60  C   UNL A   1      37.246  33.501  37.411  1.00  0.00     0.031 C 
ATOM     61  C   UNL A   1      40.461  32.614  31.360  1.00  0.00     0.029 A 
ATOM     62  C   UNL A   1      41.300  32.462  32.544  1.00  0.00     0.049 A 
ATOM     63  H   UNL A   1      40.700  32.542  34.539  1.00  0.00     0.167 HD
ATOM     64  C   UNL A   1      39.331  33.136  38.690  1.00  0.00     0.037 A 
ATOM     65  C   UNL A   1      42.630  32.236  32.541  1.00  0.00     0.037 A 
ATOM     66  C   UNL A   1      40.727  32.811  38.786  1.00  0.00     0.049 A 
ATOM     67  C   UNL A   1      43.351  32.116  33.859  1.00  0.00     0.074 A 
ATOM     68  C   UNL A   1      41.494  32.638  39.923  1.00  0.00     0.029 A 
ATOM     69  N   UNL A   1      41.563  32.597  37.699  1.00  0.00    -0.354 N 
ATOM     70  N   UNL A   1      42.871  32.237  35.074  1.00  0.00    -0.248 NA
ATOM     71  C   UNL A   1      44.791  31.824  33.809  1.00  0.00     0.031 C 
ATOM     72  C   UNL A   1      42.802  32.349  39.524  1.00  0.00     0.029 A 
ATOM     73  C   UNL A   1      42.839  32.297  38.139  1.00  0.00     0.049 A 
ATOM     74  H   UNL A   1      41.288  32.651  36.755  1.00  0.00     0.167 HD
ATOM     75  C   UNL A   1      43.939  31.997  35.931  1.00  0.00     0.074 A 
ATOM     76  C   UNL A   1      45.092  31.728  35.097  1.00  0.00     0.031 C 
ATOM     77  C   UNL A   1      43.962  31.994  37.286  1.00  0.00     0.037 A 
BRANCH  64  78
ATOM     78  C   UNL A   1      38.557  33.383  39.954  1.00  0.00     0.058 A 
ATOM     79  C   UNL A   1      37.886  32.345  40.623  1.00  0.00     0.135 A 
ATOM     80  C   UNL A   1      38.497  34.669  40.514  1.00  0.00     0.135 A 
ATOM     81  F   UNL A   1      37.894  31.101  40.120  1.00  0.00    -0.206 F 
ATOM     82  C   UNL A   1      37.152  32.582  41.780  1.00  0.00     0.059 A 
ATOM     83  C   UNL A   1      37.795  34.922  41.690  1.00  0.00     0.059 A 
ATOM     84  F   UNL A   1      39.119  35.697  39.915  1.00  0.00    -0.206 F 
ATOM     85  C   UNL A   1      37.112  33.874  42.305  1.00  0.00     0.060 A 
BRANCH  85  86
ATOM     86  S   UNL A   1      36.155  34.163  43.808  1.00  0.00     0.124 S 
ATOM     87  O   UNL A   1      34.802  34.278  43.271  1.00  0.00    -0.237 OA
ATOM     88  O   UNL A   1      36.427  32.961  44.588  1.00  0.00    -0.237 OA
ATOM     89  O   UNL A   1      36.726  35.396  44.342  1.00  0.00    -0.744 OA
ENDBRANCH  85  86
ENDBRANCH  64  78
BRANCH  65  90
ATOM     90  C   UNL A   1      43.358  32.080  31.254  1.00  0.00     0.058 A 
ATOM     91  C   UNL A   1      43.703  30.807  30.773  1.00  0.00     0.135 A 
ATOM     92  C   UNL A   1      43.713  33.191  30.473  1.00  0.00     0.135 A 
ATOM     93  F   UNL A   1      43.389  29.714  31.486  1.00  0.00    -0.206 F 
ATOM     94  C   UNL A   1      44.388  30.641  29.573  1.00  0.00     0.059 A 
ATOM     95  C   UNL A   1      44.380  33.048  29.258  1.00  0.00     0.059 A 
ATOM     96  F   UNL A   1      43.392  34.428  30.878  1.00  0.00    -0.206 F 
ATOM     97  C   UNL A   1      44.721  31.769  28.822  1.00  0.00     0.060 A 
BRANCH  97  98
ATOM     98  S   UNL A   1      45.570  31.537  27.244  1.00  0.00     0.124 S 
ATOM     99  O   UNL A   1      46.459  32.694  27.217  1.00  0.00    -0.237 OA
ATOM    100  O   UNL A   1      46.215  30.241  27.430  1.00  0.00    -0.237 OA
ATOM    101  O   UNL A   1      44.481  31.554  26.273  1.00  0.00    -0.744 OA
ENDBRANCH  97  98
ENDBRANCH  65  90
BRANCH  77 102
ATOM    102  C   UNL A   1      45.248  31.624  37.968  1.00  0.00     0.058 A 
ATOM    103  C   UNL A   1      46.156  32.596  38.410  1.00  0.00     0.135 A 
ATOM    104  C   UNL A   1      45.511  30.280  38.283  1.00  0.00     0.135 A 
ATOM    105  F   UNL A   1      45.951  33.892  38.126  1.00  0.00    -0.206 F 
ATOM    106  C   UNL A   1      47.284  32.248  39.146  1.00  0.00     0.059 A 
ATOM    107  C   UNL A   1      46.619  29.913  39.038  1.00  0.00     0.059 A 
ATOM    108  F   UNL A   1      44.665  29.315  37.889  1.00  0.00    -0.206 F 
ATOM    109  C   UNL A   1      47.502  30.905  39.464  1.00  0.00     0.060 A 
BRANCH 109 110
ATOM    110  S   UNL A   1      48.922  30.478  40.493  1.00  0.00     0.124 S 
ATOM    111  O   UNL A   1      49.326  29.198  39.922  1.00  0.00    -0.237 OA
ATOM    112  O   UNL A   1      49.829  31.596  40.252  1.00  0.00    -0.237 OA
ATOM    113  O   UNL A   1      48.359  30.415  41.840  1.00  0.00    -0.744 OA
ENDBRANCH 109 110
ENDBRANCH  77 102
ENDBRANCH  51  52
ENDBRANCH  43  46
ENDBRANCH  41  42
ENDBRANCH  40  41
ENDBRANCH  39  40
ENDBRANCH   1  39
TORSDOF 20
ENDMDL
