MODEL 1
REMARK VINA RESULT:     -12.3      0.000      0.000
REMARK SMILES COCc1c(C(=O)NCCCCNC(=O)c2ccc(-c3c4nc(c(-c5c(F)cc(S(=O)(=O)[O-])cc5F)c5ccc([nH]5)c(-c5c(F)cc(S(=O)(=O)[O-])cc5F)c5nc(c(-c6c(F)cc(S(=O)(=O)[O-])cc6F)c6ccc3[nH]6)C=C5)C=C4)cc2)nnn1-c1ccc(S(C)(=O)=O)cc1
REMARK SMILES IDX 11 1 10 2 9 3 8 4 6 5 7 6 5 8 4 9 84 10 82 11 83 12 3 13
REMARK SMILES IDX 2 14 1 15 85 16 86 17 94 18 87 19 93 20 88 21 89 22 90 23
REMARK SMILES IDX 91 24 92 25 12 26 13 27 14 28 15 30 16 31 17 32 81 33 18 34
REMARK SMILES IDX 80 35 19 36 20 37 21 38 74 39 22 40 79 41 73 42 75 43 23 44
REMARK SMILES IDX 78 45 72 46 71 47 24 49 58 50 37 51 57 52 38 53 41 54 56 55
REMARK SMILES IDX 76 56 39 57 40 58 55 60 77 61 42 62 25 63 26 64 35 65 27 66
REMARK SMILES IDX 28 67 34 68 36 69 29 70 30 71 31 72 32 73 33 74 59 75 60 76
REMARK SMILES IDX 69 77 61 78 62 79 68 80 70 81 63 82 64 83 65 84 66 85 67 86
REMARK SMILES IDX 43 87 44 88 53 89 45 90 46 91 52 92 54 93 47 94 48 95 49 96
REMARK SMILES IDX 50 97 51 98
REMARK H PARENT 8 7 13 29 75 48 41 59
REMARK Flexibility Score: inf
ROOT
ATOM      1  C   UNL A   1      37.745  22.366  24.932  1.00  0.00     0.023 C 
ENDROOT
BRANCH   1   2
ATOM      2  C   UNL A   1      36.851  23.615  24.940  1.00  0.00     0.023 C 
BRANCH   2   3
ATOM      3  C   UNL A   1      35.957  23.771  26.179  1.00  0.00     0.116 C 
BRANCH   3   4
ATOM      4  N   UNL A   1      34.880  22.819  26.176  1.00  0.00    -0.351 N 
ATOM      5  C   UNL A   1      33.523  22.884  26.010  1.00  0.00     0.273 C 
ATOM      6  O   UNL A   1      32.975  21.779  26.107  1.00  0.00    -0.267 OA
ATOM      7  H   UNL A   1      35.194  21.898  26.328  1.00  0.00     0.163 HD
BRANCH   5   8
ATOM      8  C   UNL A   1      32.707  24.078  25.727  1.00  0.00     0.176 A 
ATOM      9  C   UNL A   1      32.698  25.158  24.838  1.00  0.00     0.103 A 
ATOM     10  N   UNL A   1      31.524  25.839  25.163  1.00  0.00    -0.214 N 
ATOM     11  N   UNL A   1      31.648  24.270  26.611  1.00  0.00    -0.124 NA
ATOM     12  N   UNL A   1      31.017  25.386  26.316  1.00  0.00    -0.061 NA
BRANCH   9  13
ATOM     13  C   UNL A   1      33.614  25.748  23.836  1.00  0.00     0.218 C 
BRANCH  13  14
ATOM     14  O   UNL A   1      33.614  24.862  22.717  1.00  0.00    -0.378 OA
ATOM     15  C   UNL A   1      32.616  25.131  21.740  1.00  0.00     0.195 C 
ENDBRANCH  13  14
ENDBRANCH   9  13
BRANCH  10  16
ATOM     16  C   UNL A   1      30.938  26.958  24.527  1.00  0.00     0.067 A 
ATOM     17  C   UNL A   1      29.807  26.753  23.724  1.00  0.00     0.030 A 
ATOM     18  C   UNL A   1      31.416  28.253  24.772  1.00  0.00     0.030 A 
ATOM     19  C   UNL A   1      29.082  27.854  23.270  1.00  0.00     0.022 A 
ATOM     20  C   UNL A   1      30.709  29.353  24.290  1.00  0.00     0.022 A 
ATOM     21  C   UNL A   1      29.529  29.146  23.569  1.00  0.00     0.067 A 
BRANCH  21  22
ATOM     22  S   UNL A   1      28.519  30.530  23.104  1.00  0.00     0.175 S 
ATOM     23  C   UNL A   1      28.843  30.731  21.374  1.00  0.00     0.163 C 
ATOM     24  O   UNL A   1      27.141  30.119  23.268  1.00  0.00    -0.224 OA
ATOM     25  O   UNL A   1      29.033  31.704  23.789  1.00  0.00    -0.224 OA
ENDBRANCH  21  22
ENDBRANCH  10  16
ENDBRANCH   5   8
ENDBRANCH   3   4
ENDBRANCH   2   3
ENDBRANCH   1   2
BRANCH   1  26
ATOM     26  C   UNL A   1      38.587  22.175  26.192  1.00  0.00     0.116 C 
BRANCH  26  27
ATOM     27  N   UNL A   1      39.984  21.842  25.904  1.00  0.00    -0.352 N 
ATOM     28  C   UNL A   1      41.091  22.671  25.986  1.00  0.00     0.251 C 
ATOM     29  H   UNL A   1      40.157  20.917  25.616  1.00  0.00     0.163 HD
ATOM     30  O   UNL A   1      42.103  22.432  25.348  1.00  0.00    -0.269 OA
BRANCH  28  31
ATOM     31  C   UNL A   1      41.020  23.836  26.885  1.00  0.00     0.039 A 
ATOM     32  C   UNL A   1      41.789  23.923  28.048  1.00  0.00     0.014 A 
ATOM     33  C   UNL A   1      40.187  24.883  26.498  1.00  0.00     0.014 A 
ATOM     34  C   UNL A   1      41.773  25.115  28.768  1.00  0.00     0.010 A 
ATOM     35  C   UNL A   1      40.302  26.104  27.112  1.00  0.00     0.010 A 
ATOM     36  C   UNL A   1      41.044  26.213  28.279  1.00  0.00    -0.014 A 
BRANCH  36  37
ATOM     37  C   UNL A   1      41.125  27.518  28.923  1.00  0.00     0.031 A 
ATOM     38  C   UNL A   1      42.168  28.422  28.366  1.00  0.00     0.074 A 
ATOM     39  C   UNL A   1      40.216  27.965  29.816  1.00  0.00     0.049 A 
ATOM     40  N   UNL A   1      43.290  28.750  28.915  1.00  0.00    -0.248 NA
ATOM     41  C   UNL A   1      42.028  28.889  26.978  1.00  0.00     0.031 C 
ATOM     42  C   UNL A   1      38.960  27.340  30.250  1.00  0.00     0.029 A 
ATOM     43  N   UNL A   1      40.192  29.153  30.476  1.00  0.00    -0.354 N 
ATOM     44  C   UNL A   1      43.889  29.661  28.049  1.00  0.00     0.074 A 
ATOM     45  C   UNL A   1      43.177  29.548  26.803  1.00  0.00     0.031 C 
ATOM     46  C   UNL A   1      38.203  28.246  30.909  1.00  0.00     0.029 A 
ATOM     47  C   UNL A   1      38.988  29.450  31.104  1.00  0.00     0.049 A 
ATOM     48  H   UNL A   1      40.968  29.757  30.508  1.00  0.00     0.167 HD
ATOM     49  C   UNL A   1      44.767  30.598  28.512  1.00  0.00     0.037 A 
ATOM     50  C   UNL A   1      38.662  30.607  31.736  1.00  0.00     0.037 A 
ATOM     51  C   UNL A   1      45.211  30.271  29.848  1.00  0.00     0.049 A 
ATOM     52  C   UNL A   1      39.945  31.266  32.099  1.00  0.00     0.074 A 
ATOM     53  C   UNL A   1      45.842  29.179  30.415  1.00  0.00     0.029 A 
ATOM     54  N   UNL A   1      44.642  30.954  30.898  1.00  0.00    -0.354 N 
ATOM     55  N   UNL A   1      40.789  30.772  32.966  1.00  0.00    -0.248 NA
ATOM     56  C   UNL A   1      40.516  32.203  31.141  1.00  0.00     0.031 C 
ATOM     57  C   UNL A   1      45.182  28.986  31.665  1.00  0.00     0.029 A 
ATOM     58  C   UNL A   1      44.259  30.019  31.829  1.00  0.00     0.049 A 
ATOM     59  H   UNL A   1      44.531  31.930  30.970  1.00  0.00     0.167 HD
ATOM     60  C   UNL A   1      42.040  30.981  32.405  1.00  0.00     0.074 A 
ATOM     61  C   UNL A   1      41.813  31.935  31.318  1.00  0.00     0.031 C 
ATOM     62  C   UNL A   1      43.094  30.154  32.678  1.00  0.00     0.037 A 
BRANCH  49  63
ATOM     63  C   UNL A   1      44.947  31.978  27.922  1.00  0.00     0.058 A 
ATOM     64  C   UNL A   1      46.189  32.326  27.349  1.00  0.00     0.135 A 
ATOM     65  C   UNL A   1      44.057  33.054  28.137  1.00  0.00     0.135 A 
ATOM     66  F   UNL A   1      47.117  31.388  27.102  1.00  0.00    -0.206 F 
ATOM     67  C   UNL A   1      46.548  33.649  27.086  1.00  0.00     0.059 A 
ATOM     68  C   UNL A   1      44.373  34.373  27.830  1.00  0.00     0.059 A 
ATOM     69  F   UNL A   1      42.876  32.896  28.744  1.00  0.00    -0.206 F 
ATOM     70  C   UNL A   1      45.635  34.667  27.345  1.00  0.00     0.060 A 
BRANCH  70  71
ATOM     71  S   UNL A   1      46.129  36.381  27.103  1.00  0.00     0.124 S 
ATOM     72  O   UNL A   1      46.927  36.625  28.298  1.00  0.00    -0.237 OA
ATOM     73  O   UNL A   1      46.866  36.307  25.845  1.00  0.00    -0.237 OA
ATOM     74  O   UNL A   1      44.856  37.091  27.036  1.00  0.00    -0.744 OA
ENDBRANCH  70  71
ENDBRANCH  49  63
BRANCH  50  75
ATOM     75  C   UNL A   1      37.357  31.322  31.724  1.00  0.00     0.058 A 
ATOM     76  C   UNL A   1      36.693  31.652  32.920  1.00  0.00     0.135 A 
ATOM     77  C   UNL A   1      36.877  31.954  30.557  1.00  0.00     0.135 A 
ATOM     78  F   UNL A   1      37.091  31.111  34.082  1.00  0.00    -0.206 F 
ATOM     79  C   UNL A   1      35.656  32.593  32.966  1.00  0.00     0.059 A 
ATOM     80  C   UNL A   1      35.842  32.888  30.578  1.00  0.00     0.059 A 
ATOM     81  F   UNL A   1      37.465  31.749  29.369  1.00  0.00    -0.206 F 
ATOM     82  C   UNL A   1      35.254  33.225  31.791  1.00  0.00     0.060 A 
BRANCH  82  83
ATOM     83  S   UNL A   1      34.050  34.575  31.870  1.00  0.00     0.124 S 
ATOM     84  O   UNL A   1      34.892  35.707  32.241  1.00  0.00    -0.237 OA
ATOM     85  O   UNL A   1      33.518  34.595  30.512  1.00  0.00    -0.237 OA
ATOM     86  O   UNL A   1      33.112  34.131  32.898  1.00  0.00    -0.744 OA
ENDBRANCH  82  83
ENDBRANCH  50  75
BRANCH  62  87
ATOM     87  C   UNL A   1      42.962  29.160  33.808  1.00  0.00     0.058 A 
ATOM     88  C   UNL A   1      43.161  29.458  35.169  1.00  0.00     0.135 A 
ATOM     89  C   UNL A   1      42.454  27.887  33.507  1.00  0.00     0.135 A 
ATOM     90  F   UNL A   1      43.542  30.681  35.560  1.00  0.00    -0.206 F 
ATOM     91  C   UNL A   1      42.910  28.522  36.175  1.00  0.00     0.059 A 
ATOM     92  C   UNL A   1      42.165  26.948  34.495  1.00  0.00     0.059 A 
ATOM     93  F   UNL A   1      42.181  27.557  32.234  1.00  0.00    -0.206 F 
ATOM     94  C   UNL A   1      42.411  27.267  35.828  1.00  0.00     0.060 A 
BRANCH  94  95
ATOM     95  S   UNL A   1      42.028  26.078  37.132  1.00  0.00     0.124 S 
ATOM     96  O   UNL A   1      43.005  26.423  38.159  1.00  0.00    -0.237 OA
ATOM     97  O   UNL A   1      40.638  26.390  37.451  1.00  0.00    -0.237 OA
ATOM     98  O   UNL A   1      42.234  24.784  36.485  1.00  0.00    -0.744 OA
ENDBRANCH  94  95
ENDBRANCH  62  87
ENDBRANCH  36  37
ENDBRANCH  28  31
ENDBRANCH  26  27
ENDBRANCH   1  26
TORSDOF 18
ENDMDL
MODEL 2
REMARK VINA RESULT:     -12.2      3.391      9.827
REMARK SMILES COCc1c(C(=O)NCCCCNC(=O)c2ccc(-c3c4nc(c(-c5c(F)cc(S(=O)(=O)[O-])cc5F)c5ccc([nH]5)c(-c5c(F)cc(S(=O)(=O)[O-])cc5F)c5nc(c(-c6c(F)cc(S(=O)(=O)[O-])cc6F)c6ccc3[nH]6)C=C5)C=C4)cc2)nnn1-c1ccc(S(C)(=O)=O)cc1
REMARK SMILES IDX 11 1 10 2 9 3 8 4 6 5 7 6 5 8 4 9 84 10 82 11 83 12 3 13
REMARK SMILES IDX 2 14 1 15 85 16 86 17 94 18 87 19 93 20 88 21 89 22 90 23
REMARK SMILES IDX 91 24 92 25 12 26 13 27 14 28 15 30 16 31 17 32 81 33 18 34
REMARK SMILES IDX 80 35 19 36 20 37 21 38 74 39 22 40 79 41 73 42 75 43 23 44
REMARK SMILES IDX 78 45 72 46 71 47 24 49 58 50 37 51 57 52 38 53 41 54 56 55
REMARK SMILES IDX 76 56 39 57 40 58 55 60 77 61 42 62 25 63 26 64 35 65 27 66
REMARK SMILES IDX 28 67 34 68 36 69 29 70 30 71 31 72 32 73 33 74 59 75 60 76
REMARK SMILES IDX 69 77 61 78 62 79 68 80 70 81 63 82 64 83 65 84 66 85 67 86
REMARK SMILES IDX 43 87 44 88 53 89 45 90 46 91 52 92 54 93 47 94 48 95 49 96
REMARK SMILES IDX 50 97 51 98
REMARK H PARENT 8 7 13 29 75 48 41 59
REMARK Flexibility Score: inf
ROOT
ATOM      1  C   UNL A   1      33.386  29.827  27.314  1.00  0.00     0.023 C 
ENDROOT
BRANCH   1   2
ATOM      2  C   UNL A   1      34.030  28.600  26.650  1.00  0.00     0.023 C 
BRANCH   2   3
ATOM      3  C   UNL A   1      33.042  27.553  26.115  1.00  0.00     0.116 C 
BRANCH   3   4
ATOM      4  N   UNL A   1      32.869  27.670  24.692  1.00  0.00    -0.351 N 
ATOM      5  C   UNL A   1      32.959  26.816  23.626  1.00  0.00     0.273 C 
ATOM      6  O   UNL A   1      32.737  27.375  22.545  1.00  0.00    -0.267 OA
ATOM      7  H   UNL A   1      32.627  28.585  24.419  1.00  0.00     0.163 HD
BRANCH   5   8
ATOM      8  C   UNL A   1      33.258  25.374  23.652  1.00  0.00     0.176 A 
ATOM      9  C   UNL A   1      33.007  24.262  24.462  1.00  0.00     0.103 A 
ATOM     10  N   UNL A   1      33.575  23.204  23.751  1.00  0.00    -0.214 N 
ATOM     11  N   UNL A   1      34.082  24.942  22.615  1.00  0.00    -0.124 NA
ATOM     12  N   UNL A   1      34.342  23.660  22.754  1.00  0.00    -0.061 NA
BRANCH   9  13
ATOM     13  C   UNL A   1      32.455  24.003  25.812  1.00  0.00     0.218 C 
BRANCH  13  14
ATOM     14  O   UNL A   1      31.051  23.813  25.644  1.00  0.00    -0.378 OA
ATOM     15  C   UNL A   1      30.233  24.777  26.297  1.00  0.00     0.195 C 
ENDBRANCH  13  14
ENDBRANCH   9  13
BRANCH  10  16
ATOM     16  C   UNL A   1      33.539  21.819  24.035  1.00  0.00     0.067 A 
ATOM     17  C   UNL A   1      32.482  21.057  23.519  1.00  0.00     0.030 A 
ATOM     18  C   UNL A   1      34.589  21.204  24.732  1.00  0.00     0.030 A 
ATOM     19  C   UNL A   1      32.539  19.666  23.594  1.00  0.00     0.022 A 
ATOM     20  C   UNL A   1      34.630  19.814  24.835  1.00  0.00     0.022 A 
ATOM     21  C   UNL A   1      33.620  19.054  24.237  1.00  0.00     0.067 A 
BRANCH  21  22
ATOM     22  S   UNL A   1      33.748  17.284  24.199  1.00  0.00     0.175 S 
ATOM     23  C   UNL A   1      32.539  16.744  25.375  1.00  0.00     0.163 C 
ATOM     24  O   UNL A   1      33.327  16.860  22.880  1.00  0.00    -0.224 OA
ATOM     25  O   UNL A   1      35.058  16.921  24.714  1.00  0.00    -0.224 OA
ENDBRANCH  21  22
ENDBRANCH  10  16
ENDBRANCH   5   8
ENDBRANCH   3   4
ENDBRANCH   2   3
ENDBRANCH   1   2
BRANCH   1  26
ATOM     26  C   UNL A   1      34.214  31.108  27.229  1.00  0.00     0.116 C 
BRANCH  26  27
ATOM     27  N   UNL A   1      34.173  31.901  28.459  1.00  0.00    -0.352 N 
ATOM     28  C   UNL A   1      34.990  31.788  29.572  1.00  0.00     0.251 C 
ATOM     29  H   UNL A   1      33.480  32.598  28.501  1.00  0.00     0.163 HD
ATOM     30  O   UNL A   1      34.623  32.189  30.664  1.00  0.00    -0.269 OA
BRANCH  28  31
ATOM     31  C   UNL A   1      36.326  31.190  29.395  1.00  0.00     0.039 A 
ATOM     32  C   UNL A   1      37.466  31.972  29.195  1.00  0.00     0.014 A 
ATOM     33  C   UNL A   1      36.416  29.804  29.489  1.00  0.00     0.014 A 
ATOM     34  C   UNL A   1      38.709  31.343  29.179  1.00  0.00     0.010 A 
ATOM     35  C   UNL A   1      37.643  29.212  29.639  1.00  0.00     0.010 A 
ATOM     36  C   UNL A   1      38.792  29.962  29.427  1.00  0.00    -0.014 A 
BRANCH  36  37
ATOM     37  C   UNL A   1      40.082  29.298  29.569  1.00  0.00     0.031 A 
ATOM     38  C   UNL A   1      40.519  29.080  30.974  1.00  0.00     0.074 A 
ATOM     39  C   UNL A   1      40.750  28.743  28.534  1.00  0.00     0.049 A 
ATOM     40  N   UNL A   1      41.450  29.711  31.609  1.00  0.00    -0.248 NA
ATOM     41  C   UNL A   1      39.731  28.175  31.825  1.00  0.00     0.031 C 
ATOM     42  C   UNL A   1      40.329  28.589  27.136  1.00  0.00     0.029 A 
ATOM     43  N   UNL A   1      41.951  28.106  28.547  1.00  0.00    -0.354 N 
ATOM     44  C   UNL A   1      41.533  29.114  32.863  1.00  0.00     0.074 A 
ATOM     45  C   UNL A   1      40.333  28.330  33.008  1.00  0.00     0.031 C 
ATOM     46  C   UNL A   1      41.145  27.714  26.506  1.00  0.00     0.029 A 
ATOM     47  C   UNL A   1      42.246  27.389  27.393  1.00  0.00     0.049 A 
ATOM     48  H   UNL A   1      42.565  28.150  29.315  1.00  0.00     0.167 HD
ATOM     49  C   UNL A   1      42.697  29.130  33.574  1.00  0.00     0.037 A 
ATOM     50  C   UNL A   1      43.320  26.583  27.188  1.00  0.00     0.037 A 
ATOM     51  C   UNL A   1      43.620  30.099  33.028  1.00  0.00     0.049 A 
ATOM     52  C   UNL A   1      44.360  27.007  28.162  1.00  0.00     0.074 A 
ATOM     53  C   UNL A   1      43.564  31.461  32.798  1.00  0.00     0.029 A 
ATOM     54  N   UNL A   1      44.646  29.634  32.239  1.00  0.00    -0.354 N 
ATOM     55  N   UNL A   1      44.950  28.173  28.124  1.00  0.00    -0.248 NA
ATOM     56  C   UNL A   1      44.382  26.342  29.457  1.00  0.00     0.031 C 
ATOM     57  C   UNL A   1      44.183  31.641  31.526  1.00  0.00     0.029 A 
ATOM     58  C   UNL A   1      44.661  30.402  31.099  1.00  0.00     0.049 A 
ATOM     59  H   UNL A   1      45.257  28.891  32.451  1.00  0.00     0.167 HD
ATOM     60  C   UNL A   1      45.024  28.578  29.449  1.00  0.00     0.074 A 
ATOM     61  C   UNL A   1      44.728  27.376  30.229  1.00  0.00     0.031 C 
ATOM     62  C   UNL A   1      45.033  29.901  29.792  1.00  0.00     0.037 A 
BRANCH  49  63
ATOM     63  C   UNL A   1      43.147  28.039  34.521  1.00  0.00     0.058 A 
ATOM     64  C   UNL A   1      43.452  28.370  35.858  1.00  0.00     0.135 A 
ATOM     65  C   UNL A   1      43.550  26.750  34.109  1.00  0.00     0.135 A 
ATOM     66  F   UNL A   1      43.120  29.571  36.360  1.00  0.00    -0.206 F 
ATOM     67  C   UNL A   1      44.174  27.517  36.695  1.00  0.00     0.059 A 
ATOM     68  C   UNL A   1      44.221  25.862  34.944  1.00  0.00     0.059 A 
ATOM     69  F   UNL A   1      43.403  26.320  32.851  1.00  0.00    -0.206 F 
ATOM     70  C   UNL A   1      44.566  26.269  36.220  1.00  0.00     0.060 A 
BRANCH  70  71
ATOM     71  S   UNL A   1      45.582  25.207  37.260  1.00  0.00     0.124 S 
ATOM     72  O   UNL A   1      46.902  25.797  37.075  1.00  0.00    -0.237 OA
ATOM     73  O   UNL A   1      44.973  25.399  38.572  1.00  0.00    -0.237 OA
ATOM     74  O   UNL A   1      45.391  23.884  36.674  1.00  0.00    -0.744 OA
ENDBRANCH  70  71
ENDBRANCH  49  63
BRANCH  50  75
ATOM     75  C   UNL A   1      43.364  25.281  26.468  1.00  0.00     0.058 A 
ATOM     76  C   UNL A   1      44.206  25.087  25.358  1.00  0.00     0.135 A 
ATOM     77  C   UNL A   1      42.802  24.114  27.029  1.00  0.00     0.135 A 
ATOM     78  F   UNL A   1      44.796  26.138  24.769  1.00  0.00    -0.206 F 
ATOM     79  C   UNL A   1      44.519  23.812  24.870  1.00  0.00     0.059 A 
ATOM     80  C   UNL A   1      43.094  22.835  26.555  1.00  0.00     0.059 A 
ATOM     81  F   UNL A   1      42.022  24.177  28.118  1.00  0.00    -0.206 F 
ATOM     82  C   UNL A   1      43.976  22.688  25.492  1.00  0.00     0.060 A 
BRANCH  82  83
ATOM     83  S   UNL A   1      44.523  21.038  24.990  1.00  0.00     0.124 S 
ATOM     84  O   UNL A   1      44.529  21.151  23.535  1.00  0.00    -0.237 OA
ATOM     85  O   UNL A   1      45.831  20.939  25.627  1.00  0.00    -0.237 OA
ATOM     86  O   UNL A   1      43.495  20.159  25.543  1.00  0.00    -0.744 OA
ENDBRANCH  82  83
ENDBRANCH  50  75
BRANCH  62  87
ATOM     87  C   UNL A   1      45.231  30.932  28.705  1.00  0.00     0.058 A 
ATOM     88  C   UNL A   1      44.198  31.496  27.935  1.00  0.00     0.135 A 
ATOM     89  C   UNL A   1      46.511  31.488  28.552  1.00  0.00     0.135 A 
ATOM     90  F   UNL A   1      42.927  31.103  28.089  1.00  0.00    -0.206 F 
ATOM     91  C   UNL A   1      44.433  32.530  27.025  1.00  0.00     0.059 A 
ATOM     92  C   UNL A   1      46.764  32.541  27.676  1.00  0.00     0.059 A 
ATOM     93  F   UNL A   1      47.531  31.041  29.302  1.00  0.00    -0.206 F 
ATOM     94  C   UNL A   1      45.722  33.048  26.902  1.00  0.00     0.060 A 
BRANCH  94  95
ATOM     95  S   UNL A   1      46.017  34.425  25.772  1.00  0.00     0.124 S 
ATOM     96  O   UNL A   1      47.428  34.256  25.444  1.00  0.00    -0.237 OA
ATOM     97  O   UNL A   1      45.078  34.154  24.688  1.00  0.00    -0.237 OA
ATOM     98  O   UNL A   1      45.701  35.601  26.578  1.00  0.00    -0.744 OA
ENDBRANCH  94  95
ENDBRANCH  62  87
ENDBRANCH  36  37
ENDBRANCH  28  31
ENDBRANCH  26  27
ENDBRANCH   1  26
TORSDOF 18
ENDMDL
MODEL 3
REMARK VINA RESULT:     -12.0      1.133      1.750
REMARK SMILES COCc1c(C(=O)NCCCCNC(=O)c2ccc(-c3c4nc(c(-c5c(F)cc(S(=O)(=O)[O-])cc5F)c5ccc([nH]5)c(-c5c(F)cc(S(=O)(=O)[O-])cc5F)c5nc(c(-c6c(F)cc(S(=O)(=O)[O-])cc6F)c6ccc3[nH]6)C=C5)C=C4)cc2)nnn1-c1ccc(S(C)(=O)=O)cc1
REMARK SMILES IDX 11 1 10 2 9 3 8 4 6 5 7 6 5 8 4 9 84 10 82 11 83 12 3 13
REMARK SMILES IDX 2 14 1 15 85 16 86 17 94 18 87 19 93 20 88 21 89 22 90 23
REMARK SMILES IDX 91 24 92 25 12 26 13 27 14 28 15 30 16 31 17 32 81 33 18 34
REMARK SMILES IDX 80 35 19 36 20 37 21 38 74 39 22 40 79 41 73 42 75 43 23 44
REMARK SMILES IDX 78 45 72 46 71 47 24 49 58 50 37 51 57 52 38 53 41 54 56 55
REMARK SMILES IDX 76 56 39 57 40 58 55 60 77 61 42 62 25 63 26 64 35 65 27 66
REMARK SMILES IDX 28 67 34 68 36 69 29 70 30 71 31 72 32 73 33 74 59 75 60 76
REMARK SMILES IDX 69 77 61 78 62 79 68 80 70 81 63 82 64 83 65 84 66 85 67 86
REMARK SMILES IDX 43 87 44 88 53 89 45 90 46 91 52 92 54 93 47 94 48 95 49 96
REMARK SMILES IDX 50 97 51 98
REMARK H PARENT 8 7 13 29 75 48 41 59
REMARK Flexibility Score: inf
ROOT
ATOM      1  C   UNL A   1      39.248  21.769  25.936  1.00  0.00     0.023 C 
ENDROOT
BRANCH   1   2
ATOM      2  C   UNL A   1      38.448  22.988  26.422  1.00  0.00     0.023 C 
BRANCH   2   3
ATOM      3  C   UNL A   1      37.217  23.342  25.574  1.00  0.00     0.116 C 
BRANCH   3   4
ATOM      4  N   UNL A   1      36.258  22.270  25.564  1.00  0.00    -0.351 N 
ATOM      5  C   UNL A   1      34.893  22.184  25.574  1.00  0.00     0.273 C 
ATOM      6  O   UNL A   1      34.487  21.015  25.575  1.00  0.00    -0.267 OA
ATOM      7  H   UNL A   1      36.689  21.384  25.543  1.00  0.00     0.163 HD
BRANCH   5   8
ATOM      8  C   UNL A   1      33.922  23.292  25.565  1.00  0.00     0.176 A 
ATOM      9  C   UNL A   1      33.579  24.383  24.760  1.00  0.00     0.103 A 
ATOM     10  N   UNL A   1      32.471  24.931  25.407  1.00  0.00    -0.214 N 
ATOM     11  N   UNL A   1      33.116  23.355  26.699  1.00  0.00    -0.124 NA
ATOM     12  N   UNL A   1      32.327  24.405  26.629  1.00  0.00    -0.061 NA
BRANCH   9  13
ATOM     13  C   UNL A   1      34.142  25.086  23.585  1.00  0.00     0.218 C 
BRANCH  13  14
ATOM     14  O   UNL A   1      34.268  24.109  22.552  1.00  0.00    -0.378 OA
ATOM     15  C   UNL A   1      33.038  23.573  22.080  1.00  0.00     0.195 C 
ENDBRANCH  13  14
ENDBRANCH   9  13
BRANCH  10  16
ATOM     16  C   UNL A   1      31.635  25.995  24.995  1.00  0.00     0.067 A 
ATOM     17  C   UNL A   1      32.106  27.308  25.133  1.00  0.00     0.030 A 
ATOM     18  C   UNL A   1      30.404  25.739  24.374  1.00  0.00     0.030 A 
ATOM     19  C   UNL A   1      31.403  28.354  24.535  1.00  0.00     0.022 A 
ATOM     20  C   UNL A   1      29.686  26.789  23.805  1.00  0.00     0.022 A 
ATOM     21  C   UNL A   1      30.207  28.085  23.862  1.00  0.00     0.067 A 
BRANCH  21  22
ATOM     22  S   UNL A   1      29.401  29.405  22.989  1.00  0.00     0.175 S 
ATOM     23  C   UNL A   1      27.705  28.899  22.924  1.00  0.00     0.163 C 
ATOM     24  O   UNL A   1      29.498  30.583  23.825  1.00  0.00    -0.224 OA
ATOM     25  O   UNL A   1      29.912  29.414  21.628  1.00  0.00    -0.224 OA
ENDBRANCH  21  22
ENDBRANCH  10  16
ENDBRANCH   5   8
ENDBRANCH   3   4
ENDBRANCH   2   3
ENDBRANCH   1   2
BRANCH   1  26
ATOM     26  C   UNL A   1      40.535  21.500  26.712  1.00  0.00     0.116 C 
BRANCH  26  27
ATOM     27  N   UNL A   1      41.744  21.764  25.928  1.00  0.00    -0.352 N 
ATOM     28  C   UNL A   1      42.291  22.992  25.596  1.00  0.00     0.251 C 
ATOM     29  H   UNL A   1      42.225  20.972  25.595  1.00  0.00     0.163 HD
ATOM     30  O   UNL A   1      43.026  23.113  24.629  1.00  0.00    -0.269 OA
BRANCH  28  31
ATOM     31  C   UNL A   1      41.980  24.147  26.458  1.00  0.00     0.039 A 
ATOM     32  C   UNL A   1      42.488  24.261  27.754  1.00  0.00     0.014 A 
ATOM     33  C   UNL A   1      41.196  25.155  25.906  1.00  0.00     0.014 A 
ATOM     34  C   UNL A   1      42.267  25.445  28.453  1.00  0.00     0.010 A 
ATOM     35  C   UNL A   1      41.122  26.375  26.527  1.00  0.00     0.010 A 
ATOM     36  C   UNL A   1      41.602  26.510  27.822  1.00  0.00    -0.014 A 
BRANCH  36  37
ATOM     37  C   UNL A   1      41.486  27.813  28.466  1.00  0.00     0.031 A 
ATOM     38  C   UNL A   1      42.580  28.768  28.140  1.00  0.00     0.074 A 
ATOM     39  C   UNL A   1      40.389  28.212  29.146  1.00  0.00     0.049 A 
ATOM     40  N   UNL A   1      43.545  29.142  28.912  1.00  0.00    -0.248 NA
ATOM     41  C   UNL A   1      42.715  29.239  26.753  1.00  0.00     0.031 C 
ATOM     42  C   UNL A   1      39.100  27.527  29.306  1.00  0.00     0.029 A 
ATOM     43  N   UNL A   1      40.172  29.392  29.784  1.00  0.00    -0.354 N 
ATOM     44  C   UNL A   1      44.271  30.085  28.191  1.00  0.00     0.074 A 
ATOM     45  C   UNL A   1      43.844  29.950  26.822  1.00  0.00     0.031 C 
ATOM     46  C   UNL A   1      38.180  28.393  29.789  1.00  0.00     0.029 A 
ATOM     47  C   UNL A   1      38.850  29.629  30.143  1.00  0.00     0.049 A 
ATOM     48  H   UNL A   1      40.896  30.030  29.977  1.00  0.00     0.167 HD
ATOM     49  C   UNL A   1      44.987  31.057  28.826  1.00  0.00     0.037 A 
ATOM     50  C   UNL A   1      38.347  30.766  30.689  1.00  0.00     0.037 A 
ATOM     51  C   UNL A   1      45.154  30.741  30.226  1.00  0.00     0.049 A 
ATOM     52  C   UNL A   1      39.492  31.480  31.313  1.00  0.00     0.074 A 
ATOM     53  C   UNL A   1      45.701  29.674  30.916  1.00  0.00     0.029 A 
ATOM     54  N   UNL A   1      44.347  31.389  31.132  1.00  0.00    -0.354 N 
ATOM     55  N   UNL A   1      40.156  31.018  32.340  1.00  0.00    -0.248 NA
ATOM     56  C   UNL A   1      40.209  32.448  30.496  1.00  0.00     0.031 C 
ATOM     57  C   UNL A   1      44.802  29.442  31.999  1.00  0.00     0.029 A 
ATOM     58  C   UNL A   1      43.819  30.431  31.963  1.00  0.00     0.049 A 
ATOM     59  H   UNL A   1      44.178  32.359  31.176  1.00  0.00     0.167 HD
ATOM     60  C   UNL A   1      41.487  31.287  32.055  1.00  0.00     0.074 A 
ATOM     61  C   UNL A   1      41.450  32.238  30.943  1.00  0.00     0.031 C 
ATOM     62  C   UNL A   1      42.496  30.507  32.547  1.00  0.00     0.037 A 
BRANCH  49  63
ATOM     63  C   UNL A   1      45.224  32.449  28.284  1.00  0.00     0.058 A 
ATOM     64  C   UNL A   1      46.549  32.911  28.126  1.00  0.00     0.135 A 
ATOM     65  C   UNL A   1      44.222  33.437  28.175  1.00  0.00     0.135 A 
ATOM     66  F   UNL A   1      47.586  32.061  28.213  1.00  0.00    -0.206 F 
ATOM     67  C   UNL A   1      46.855  34.261  27.953  1.00  0.00     0.059 A 
ATOM     68  C   UNL A   1      44.502  34.780  27.947  1.00  0.00     0.059 A 
ATOM     69  F   UNL A   1      42.927  33.172  28.380  1.00  0.00    -0.206 F 
ATOM     70  C   UNL A   1      45.822  35.190  27.880  1.00  0.00     0.060 A 
BRANCH  70  71
ATOM     71  S   UNL A   1      46.216  36.943  27.758  1.00  0.00     0.124 S 
ATOM     72  O   UNL A   1      45.603  37.463  28.974  1.00  0.00    -0.237 OA
ATOM     73  O   UNL A   1      47.675  36.923  27.734  1.00  0.00    -0.237 OA
ATOM     74  O   UNL A   1      45.579  37.342  26.507  1.00  0.00    -0.744 OA
ENDBRANCH  70  71
ENDBRANCH  49  63
BRANCH  50  75
ATOM     75  C   UNL A   1      37.042  31.421  30.401  1.00  0.00     0.058 A 
ATOM     76  C   UNL A   1      36.295  32.044  31.419  1.00  0.00     0.135 A 
ATOM     77  C   UNL A   1      36.640  31.705  29.079  1.00  0.00     0.135 A 
ATOM     78  F   UNL A   1      36.615  31.845  32.706  1.00  0.00    -0.206 F 
ATOM     79  C   UNL A   1      35.254  32.939  31.142  1.00  0.00     0.059 A 
ATOM     80  C   UNL A   1      35.601  32.587  28.780  1.00  0.00     0.059 A 
ATOM     81  F   UNL A   1      37.309  31.203  28.030  1.00  0.00    -0.206 F 
ATOM     82  C   UNL A   1      34.930  33.223  29.816  1.00  0.00     0.060 A 
BRANCH  82  83
ATOM     83  S   UNL A   1      33.717  34.517  29.450  1.00  0.00     0.124 S 
ATOM     84  O   UNL A   1      33.256  34.883  30.785  1.00  0.00    -0.237 OA
ATOM     85  O   UNL A   1      34.527  35.513  28.760  1.00  0.00    -0.237 OA
ATOM     86  O   UNL A   1      32.733  33.831  28.617  1.00  0.00    -0.744 OA
ENDBRANCH  82  83
ENDBRANCH  50  75
BRANCH  62  87
ATOM     87  C   UNL A   1      42.174  29.498  33.625  1.00  0.00     0.058 A 
ATOM     88  C   UNL A   1      41.621  28.225  33.395  1.00  0.00     0.135 A 
ATOM     89  C   UNL A   1      42.595  29.778  34.934  1.00  0.00     0.135 A 
ATOM     90  F   UNL A   1      41.288  27.828  32.160  1.00  0.00    -0.206 F 
ATOM     91  C   UNL A   1      41.455  27.294  34.424  1.00  0.00     0.059 A 
ATOM     92  C   UNL A   1      42.470  28.855  35.969  1.00  0.00     0.059 A 
ATOM     93  F   UNL A   1      43.189  30.951  35.211  1.00  0.00    -0.206 F 
ATOM     94  C   UNL A   1      41.885  27.618  35.711  1.00  0.00     0.060 A 
BRANCH  94  95
ATOM     95  S   UNL A   1      41.727  26.394  37.028  1.00  0.00     0.124 S 
ATOM     96  O   UNL A   1      40.405  26.692  37.568  1.00  0.00    -0.237 OA
ATOM     97  O   UNL A   1      41.847  25.131  36.306  1.00  0.00    -0.237 OA
ATOM     98  O   UNL A   1      42.847  26.702  37.915  1.00  0.00    -0.744 OA
ENDBRANCH  94  95
ENDBRANCH  62  87
ENDBRANCH  36  37
ENDBRANCH  28  31
ENDBRANCH  26  27
ENDBRANCH   1  26
TORSDOF 18
ENDMDL
