MODEL 1
REMARK VINA RESULT:     -14.6      0.000      0.000
REMARK SMILES C[C@]1(C(=O)NCCCCNC(=O)c2ccc(-c3c4nc(c(-c5c(F)cc(S(=O)(=O)[O-])cc5F)c5ccc([nH]5)c(-c5c(F)cc(S(=O)(=O)[O-])cc5F)c5nc(c(-c6c(F)cc(S(=O)(=O)[O-])cc6F)c6ccc3[nH]6)C=C5)C=C4)cc2)[NH2+]C2(C(=O)c3ccccc3C2=O)[C@@H]2C(=O)N(c3ccccc3)C(=O)[C@H]21
REMARK SMILES IDX 8 1 7 2 6 3 5 4 3 5 4 6 2 8 1 9 79 10 103 11 80 12 91 15
REMARK SMILES IDX 101 16 81 17 89 18 92 19 94 20 102 21 82 22 83 23 88 24
REMARK SMILES IDX 90 25 93 26 84 27 87 28 85 29 86 30 95 31 96 32 100 33 97 34
REMARK SMILES IDX 99 35 98 36 9 37 10 38 11 39 12 41 13 42 14 43 78 44 15 45
REMARK SMILES IDX 77 46 16 47 17 48 18 49 71 50 19 51 76 52 70 53 72 54 20 55
REMARK SMILES IDX 75 56 69 57 68 58 21 60 55 61 34 62 54 63 35 64 38 65 53 66
REMARK SMILES IDX 73 67 36 68 37 69 52 71 74 72 39 73 22 74 23 75 32 76 24 77
REMARK SMILES IDX 25 78 31 79 33 80 26 81 27 82 28 83 29 84 30 85 56 86 57 87
REMARK SMILES IDX 66 88 58 89 59 90 65 91 67 92 60 93 61 94 62 95 63 96 64 97
REMARK SMILES IDX 40 98 41 99 50 100 42 101 43 102 49 103 51 104 44 105 45 106
REMARK SMILES IDX 46 107 47 108 48 109
REMARK H PARENT 5 7 79 13 79 14 10 40 72 59 38 70
REMARK Flexibility Score: inf
ROOT
ATOM      1  C   UNL A   1      35.276  32.454  28.051  1.00  0.00     0.023 C 
ENDROOT
BRANCH   1   2
ATOM      2  C   UNL A   1      33.841  32.019  27.834  1.00  0.00     0.023 C 
BRANCH   2   3
ATOM      3  C   UNL A   1      33.630  30.638  27.243  1.00  0.00     0.116 C 
BRANCH   3   4
ATOM      4  N   UNL A   1      32.716  29.711  27.824  1.00  0.00    -0.351 N 
ATOM      5  C   UNL A   1      32.452  28.427  27.425  1.00  0.00     0.281 C 
ATOM      6  O   UNL A   1      31.607  27.839  28.116  1.00  0.00    -0.268 OA
ATOM      7  H   UNL A   1      32.214  30.033  28.608  1.00  0.00     0.163 HD
BRANCH   5   8
ATOM      8  C   UNL A   1      33.132  27.675  26.179  1.00  0.00     0.186 C 
ATOM      9  C   UNL A   1      34.569  28.254  26.083  1.00  0.00     0.091 C 
ATOM     10  N   UNL A   1      33.248  26.169  26.361  1.00  0.00    -0.314 N 
ATOM     11  C   UNL A   1      32.506  27.769  24.812  1.00  0.00     0.170 C 
ATOM     12  C   UNL A   1      32.457  25.462  25.262  1.00  0.00     0.236 C 
ATOM     13  H   UNL A   1      32.874  25.906  27.272  1.00  0.00     0.348 HD
ATOM     14  H   UNL A   1      34.229  25.894  26.304  1.00  0.00     0.348 HD
ATOM     15  C   UNL A   1      31.612  26.555  24.688  1.00  0.00     0.177 C 
ATOM     16  C   UNL A   1      31.600  28.846  24.340  1.00  0.00     0.244 C 
ATOM     17  C   UNL A   1      33.337  24.703  24.269  1.00  0.00     0.232 C 
ATOM     18  C   UNL A   1      31.659  24.317  25.921  1.00  0.00     0.232 C 
ATOM     19  C   UNL A   1      30.991  26.834  23.362  1.00  0.00     0.245 C 
ATOM     20  N   UNL A   1      30.802  28.223  23.379  1.00  0.00    -0.250 N 
ATOM     21  O   UNL A   1      31.623  30.002  24.719  1.00  0.00    -0.273 OA
ATOM     22  O   UNL A   1      34.188  25.178  23.540  1.00  0.00    -0.286 OA
ATOM     23  C   UNL A   1      33.028  23.264  24.370  1.00  0.00     0.036 A 
ATOM     24  C   UNL A   1      32.084  23.054  25.360  1.00  0.00     0.036 A 
ATOM     25  O   UNL A   1      30.793  24.348  26.774  1.00  0.00    -0.286 OA
ATOM     26  O   UNL A   1      30.595  25.986  22.585  1.00  0.00    -0.273 OA
ATOM     27  C   UNL A   1      33.538  22.192  23.664  1.00  0.00     0.013 A 
ATOM     28  C   UNL A   1      31.626  21.799  25.724  1.00  0.00     0.013 A 
ATOM     29  C   UNL A   1      33.077  20.906  23.998  1.00  0.00     0.001 A 
ATOM     30  C   UNL A   1      32.136  20.710  25.026  1.00  0.00     0.001 A 
BRANCH  20  31
ATOM     31  C   UNL A   1      29.745  28.917  22.759  1.00  0.00     0.052 A 
ATOM     32  C   UNL A   1      30.016  29.922  21.822  1.00  0.00     0.027 A 
ATOM     33  C   UNL A   1      28.434  28.744  23.218  1.00  0.00     0.027 A 
ATOM     34  C   UNL A   1      28.993  30.743  21.347  1.00  0.00     0.002 A 
ATOM     35  C   UNL A   1      27.421  29.604  22.781  1.00  0.00     0.002 A 
ATOM     36  C   UNL A   1      27.700  30.597  21.843  1.00  0.00     0.000 A 
ENDBRANCH  20  31
ENDBRANCH   5   8
ENDBRANCH   3   4
ENDBRANCH   2   3
ENDBRANCH   1   2
BRANCH   1  37
ATOM     37  C   UNL A   1      35.768  32.444  29.493  1.00  0.00     0.116 C 
BRANCH  37  38
ATOM     38  N   UNL A   1      35.632  31.171  30.204  1.00  0.00    -0.352 N 
ATOM     39  C   UNL A   1      36.586  30.199  30.455  1.00  0.00     0.251 C 
ATOM     40  H   UNL A   1      34.732  30.977  30.554  1.00  0.00     0.163 HD
ATOM     41  O   UNL A   1      36.302  29.189  31.089  1.00  0.00    -0.269 OA
BRANCH  39  42
ATOM     42  C   UNL A   1      37.938  30.367  29.880  1.00  0.00     0.039 A 
ATOM     43  C   UNL A   1      38.160  30.057  28.543  1.00  0.00     0.014 A 
ATOM     44  C   UNL A   1      39.012  30.647  30.730  1.00  0.00     0.014 A 
ATOM     45  C   UNL A   1      39.444  29.716  28.145  1.00  0.00     0.010 A 
ATOM     46  C   UNL A   1      40.319  30.448  30.273  1.00  0.00     0.010 A 
ATOM     47  C   UNL A   1      40.543  29.885  29.007  1.00  0.00    -0.014 A 
BRANCH  47  48
ATOM     48  C   UNL A   1      41.892  29.425  28.567  1.00  0.00     0.031 A 
ATOM     49  C   UNL A   1      43.094  30.340  28.637  1.00  0.00     0.074 A 
ATOM     50  C   UNL A   1      42.052  28.140  28.190  1.00  0.00     0.049 A 
ATOM     51  N   UNL A   1      44.337  30.092  28.302  1.00  0.00    -0.248 NA
ATOM     52  C   UNL A   1      42.882  31.707  29.140  1.00  0.00     0.031 C 
ATOM     53  C   UNL A   1      40.975  27.149  28.104  1.00  0.00     0.029 A 
ATOM     54  N   UNL A   1      43.177  27.433  27.851  1.00  0.00    -0.354 N 
ATOM     55  C   UNL A   1      45.041  31.272  28.522  1.00  0.00     0.074 A 
ATOM     56  C   UNL A   1      44.085  32.247  28.997  1.00  0.00     0.031 C 
ATOM     57  C   UNL A   1      41.501  25.950  27.820  1.00  0.00     0.029 A 
ATOM     58  C   UNL A   1      42.935  26.101  27.607  1.00  0.00     0.049 A 
ATOM     59  H   UNL A   1      44.071  27.840  27.788  1.00  0.00     0.167 HD
ATOM     60  C   UNL A   1      46.365  31.517  28.355  1.00  0.00     0.037 A 
ATOM     61  C   UNL A   1      43.763  25.111  27.228  1.00  0.00     0.037 A 
ATOM     62  C   UNL A   1      47.321  30.530  27.920  1.00  0.00     0.049 A 
ATOM     63  C   UNL A   1      45.214  25.418  27.009  1.00  0.00     0.074 A 
ATOM     64  C   UNL A   1      48.686  30.677  27.735  1.00  0.00     0.029 A 
ATOM     65  N   UNL A   1      47.019  29.211  27.612  1.00  0.00    -0.354 N 
ATOM     66  N   UNL A   1      45.852  26.548  27.195  1.00  0.00    -0.248 NA
ATOM     67  C   UNL A   1      46.055  24.323  26.509  1.00  0.00     0.031 C 
ATOM     68  C   UNL A   1      49.200  29.461  27.276  1.00  0.00     0.029 A 
ATOM     69  C   UNL A   1      48.167  28.541  27.220  1.00  0.00     0.049 A 
ATOM     70  H   UNL A   1      46.121  28.810  27.666  1.00  0.00     0.167 HD
ATOM     71  C   UNL A   1      47.171  26.300  26.839  1.00  0.00     0.074 A 
ATOM     72  C   UNL A   1      47.245  24.907  26.449  1.00  0.00     0.031 C 
ATOM     73  C   UNL A   1      48.224  27.154  26.829  1.00  0.00     0.037 A 
BRANCH  60  74
ATOM     74  C   UNL A   1      46.871  32.909  28.632  1.00  0.00     0.058 A 
ATOM     75  C   UNL A   1      46.886  33.903  27.642  1.00  0.00     0.135 A 
ATOM     76  C   UNL A   1      47.280  33.273  29.926  1.00  0.00     0.135 A 
ATOM     77  F   UNL A   1      46.518  33.610  26.385  1.00  0.00    -0.206 F 
ATOM     78  C   UNL A   1      47.304  35.202  27.919  1.00  0.00     0.059 A 
ATOM     79  C   UNL A   1      47.679  34.571  30.234  1.00  0.00     0.059 A 
ATOM     80  F   UNL A   1      47.283  32.363  30.914  1.00  0.00    -0.206 F 
ATOM     81  C   UNL A   1      47.697  35.528  29.220  1.00  0.00     0.060 A 
BRANCH  81  82
ATOM     82  S   UNL A   1      48.223  37.221  29.563  1.00  0.00     0.124 S 
ATOM     83  O   UNL A   1      47.543  37.958  28.502  1.00  0.00    -0.237 OA
ATOM     84  O   UNL A   1      47.713  37.439  30.911  1.00  0.00    -0.237 OA
ATOM     85  O   UNL A   1      49.677  37.157  29.447  1.00  0.00    -0.744 OA
ENDBRANCH  81  82
ENDBRANCH  60  74
BRANCH  61  86
ATOM     86  C   UNL A   1      43.220  23.744  27.019  1.00  0.00     0.058 A 
ATOM     87  C   UNL A   1      42.937  23.268  25.731  1.00  0.00     0.135 A 
ATOM     88  C   UNL A   1      43.024  22.867  28.099  1.00  0.00     0.135 A 
ATOM     89  F   UNL A   1      43.102  24.071  24.669  1.00  0.00    -0.206 F 
ATOM     90  C   UNL A   1      42.481  21.971  25.519  1.00  0.00     0.059 A 
ATOM     91  C   UNL A   1      42.599  21.557  27.910  1.00  0.00     0.059 A 
ATOM     92  F   UNL A   1      43.297  23.270  29.350  1.00  0.00    -0.206 F 
ATOM     93  C   UNL A   1      42.324  21.120  26.616  1.00  0.00     0.060 A 
BRANCH  93  94
ATOM     94  S   UNL A   1      41.800  19.418  26.322  1.00  0.00     0.124 S 
ATOM     95  O   UNL A   1      42.221  18.765  27.556  1.00  0.00    -0.237 OA
ATOM     96  O   UNL A   1      40.359  19.570  26.138  1.00  0.00    -0.237 OA
ATOM     97  O   UNL A   1      42.540  19.041  25.122  1.00  0.00    -0.744 OA
ENDBRANCH  93  94
ENDBRANCH  61  86
BRANCH  73  98
ATOM     98  C   UNL A   1      49.551  26.607  26.388  1.00  0.00     0.058 A 
ATOM     99  C   UNL A   1      50.005  26.766  25.070  1.00  0.00     0.135 A 
ATOM    100  C   UNL A   1      50.405  25.975  27.307  1.00  0.00     0.135 A 
ATOM    101  F   UNL A   1      49.223  27.354  24.152  1.00  0.00    -0.206 F 
ATOM    102  C   UNL A   1      51.256  26.305  24.673  1.00  0.00     0.059 A 
ATOM    103  C   UNL A   1      51.670  25.529  26.938  1.00  0.00     0.059 A 
ATOM    104  F   UNL A   1      50.019  25.804  28.581  1.00  0.00    -0.206 F 
ATOM    105  C   UNL A   1      52.084  25.693  25.616  1.00  0.00     0.060 A 
BRANCH 105 106
ATOM    106  S   UNL A   1      53.723  25.145  25.098  1.00  0.00     0.124 S 
ATOM    107  O   UNL A   1      53.539  23.700  25.019  1.00  0.00    -0.237 OA
ATOM    108  O   UNL A   1      53.891  25.833  23.821  1.00  0.00    -0.237 OA
ATOM    109  O   UNL A   1      54.595  25.609  26.172  1.00  0.00    -0.744 OA
ENDBRANCH 105 106
ENDBRANCH  73  98
ENDBRANCH  47  48
ENDBRANCH  39  42
ENDBRANCH  37  38
ENDBRANCH   1  37
TORSDOF 15
ENDMDL
MODEL 2
REMARK VINA RESULT:     -14.6      6.325     11.866
REMARK SMILES C[C@]1(C(=O)NCCCCNC(=O)c2ccc(-c3c4nc(c(-c5c(F)cc(S(=O)(=O)[O-])cc5F)c5ccc([nH]5)c(-c5c(F)cc(S(=O)(=O)[O-])cc5F)c5nc(c(-c6c(F)cc(S(=O)(=O)[O-])cc6F)c6ccc3[nH]6)C=C5)C=C4)cc2)[NH2+]C2(C(=O)c3ccccc3C2=O)[C@@H]2C(=O)N(c3ccccc3)C(=O)[C@H]21
REMARK SMILES IDX 8 1 7 2 6 3 5 4 3 5 4 6 2 8 1 9 79 10 103 11 80 12 91 15
REMARK SMILES IDX 101 16 81 17 89 18 92 19 94 20 102 21 82 22 83 23 88 24
REMARK SMILES IDX 90 25 93 26 84 27 87 28 85 29 86 30 95 31 96 32 100 33 97 34
REMARK SMILES IDX 99 35 98 36 9 37 10 38 11 39 12 41 13 42 14 43 78 44 15 45
REMARK SMILES IDX 77 46 16 47 17 48 18 49 71 50 19 51 76 52 70 53 72 54 20 55
REMARK SMILES IDX 75 56 69 57 68 58 21 60 55 61 34 62 54 63 35 64 38 65 53 66
REMARK SMILES IDX 73 67 36 68 37 69 52 71 74 72 39 73 22 74 23 75 32 76 24 77
REMARK SMILES IDX 25 78 31 79 33 80 26 81 27 82 28 83 29 84 30 85 56 86 57 87
REMARK SMILES IDX 66 88 58 89 59 90 65 91 67 92 60 93 61 94 62 95 63 96 64 97
REMARK SMILES IDX 40 98 41 99 50 100 42 101 43 102 49 103 51 104 44 105 45 106
REMARK SMILES IDX 46 107 47 108 48 109
REMARK H PARENT 5 7 79 13 79 14 10 40 72 59 38 70
REMARK Flexibility Score: inf
ROOT
ATOM      1  C   UNL A   1      40.526  22.102  27.264  1.00  0.00     0.023 C 
ENDROOT
BRANCH   1   2
ATOM      2  C   UNL A   1      39.761  21.396  26.163  1.00  0.00     0.023 C 
BRANCH   2   3
ATOM      3  C   UNL A   1      38.386  21.945  25.831  1.00  0.00     0.116 C 
BRANCH   3   4
ATOM      4  N   UNL A   1      38.036  22.318  24.500  1.00  0.00    -0.351 N 
ATOM      5  C   UNL A   1      36.901  22.958  24.078  1.00  0.00     0.281 C 
ATOM      6  O   UNL A   1      36.852  23.163  22.855  1.00  0.00    -0.268 OA
ATOM      7  H   UNL A   1      38.688  22.087  23.800  1.00  0.00     0.163 HD
BRANCH   5   8
ATOM      8  C   UNL A   1      35.688  23.435  25.017  1.00  0.00     0.186 C 
ATOM      9  C   UNL A   1      36.343  23.821  26.371  1.00  0.00     0.091 C 
ATOM     10  N   UNL A   1      34.948  24.656  24.493  1.00  0.00    -0.314 N 
ATOM     11  C   UNL A   1      34.550  22.492  25.310  1.00  0.00     0.170 C 
ATOM     12  C   UNL A   1      33.486  24.295  24.240  1.00  0.00     0.236 C 
ATOM     13  H   UNL A   1      35.378  24.967  23.622  1.00  0.00     0.348 HD
ATOM     14  H   UNL A   1      34.999  25.406  25.183  1.00  0.00     0.348 HD
ATOM     15  C   UNL A   1      33.490  22.799  24.276  1.00  0.00     0.177 C 
ATOM     16  C   UNL A   1      34.604  21.010  25.239  1.00  0.00     0.244 C 
ATOM     17  C   UNL A   1      32.513  24.987  25.195  1.00  0.00     0.232 C 
ATOM     18  C   UNL A   1      33.083  24.900  22.879  1.00  0.00     0.232 C 
ATOM     19  C   UNL A   1      32.495  21.741  24.613  1.00  0.00     0.245 C 
ATOM     20  N   UNL A   1      33.294  20.636  24.934  1.00  0.00    -0.250 N 
ATOM     21  O   UNL A   1      35.592  20.331  25.446  1.00  0.00    -0.273 OA
ATOM     22  O   UNL A   1      32.474  24.870  26.405  1.00  0.00    -0.286 OA
ATOM     23  C   UNL A   1      31.641  25.882  24.410  1.00  0.00     0.036 A 
ATOM     24  C   UNL A   1      32.011  25.850  23.077  1.00  0.00     0.036 A 
ATOM     25  O   UNL A   1      33.516  24.689  21.762  1.00  0.00    -0.286 OA
ATOM     26  O   UNL A   1      31.294  21.832  24.440  1.00  0.00    -0.273 OA
ATOM     27  C   UNL A   1      30.598  26.690  24.818  1.00  0.00     0.013 A 
ATOM     28  C   UNL A   1      31.409  26.624  22.099  1.00  0.00     0.013 A 
ATOM     29  C   UNL A   1      29.953  27.472  23.843  1.00  0.00     0.001 A 
ATOM     30  C   UNL A   1      30.362  27.447  22.497  1.00  0.00     0.001 A 
BRANCH  20  31
ATOM     31  C   UNL A   1      32.967  19.287  24.696  1.00  0.00     0.052 A 
ATOM     32  C   UNL A   1      32.714  18.423  25.770  1.00  0.00     0.027 A 
ATOM     33  C   UNL A   1      33.085  18.758  23.405  1.00  0.00     0.027 A 
ATOM     34  C   UNL A   1      32.578  17.051  25.559  1.00  0.00     0.002 A 
ATOM     35  C   UNL A   1      33.003  17.376  23.205  1.00  0.00     0.002 A 
ATOM     36  C   UNL A   1      32.744  16.526  24.279  1.00  0.00     0.000 A 
ENDBRANCH  20  31
ENDBRANCH   5   8
ENDBRANCH   3   4
ENDBRANCH   2   3
ENDBRANCH   1   2
BRANCH   1  37
ATOM     37  C   UNL A   1      41.737  22.916  26.822  1.00  0.00     0.116 C 
BRANCH  37  38
ATOM     38  N   UNL A   1      41.459  24.024  25.906  1.00  0.00    -0.352 N 
ATOM     39  C   UNL A   1      41.305  25.372  26.180  1.00  0.00     0.251 C 
ATOM     40  H   UNL A   1      41.367  23.774  24.958  1.00  0.00     0.163 HD
ATOM     41  O   UNL A   1      41.091  26.176  25.279  1.00  0.00    -0.269 OA
BRANCH  39  42
ATOM     42  C   UNL A   1      41.331  25.817  27.589  1.00  0.00     0.039 A 
ATOM     43  C   UNL A   1      40.174  25.735  28.358  1.00  0.00     0.014 A 
ATOM     44  C   UNL A   1      42.455  26.492  28.074  1.00  0.00     0.014 A 
ATOM     45  C   UNL A   1      40.037  26.585  29.445  1.00  0.00     0.010 A 
ATOM     46  C   UNL A   1      42.357  27.229  29.259  1.00  0.00     0.010 A 
ATOM     47  C   UNL A   1      41.118  27.362  29.902  1.00  0.00    -0.014 A 
BRANCH  47  48
ATOM     48  C   UNL A   1      40.901  28.325  31.020  1.00  0.00     0.031 A 
ATOM     49  C   UNL A   1      41.824  28.359  32.217  1.00  0.00     0.074 A 
ATOM     50  C   UNL A   1      39.917  29.241  30.911  1.00  0.00     0.049 A 
ATOM     51  N   UNL A   1      41.779  29.139  33.269  1.00  0.00    -0.248 NA
ATOM     52  C   UNL A   1      42.936  27.394  32.247  1.00  0.00     0.031 C 
ATOM     53  C   UNL A   1      38.973  29.331  29.793  1.00  0.00     0.029 A 
ATOM     54  N   UNL A   1      39.571  30.294  31.718  1.00  0.00    -0.354 N 
ATOM     55  C   UNL A   1      42.829  28.743  34.093  1.00  0.00     0.074 A 
ATOM     56  C   UNL A   1      43.482  27.634  33.432  1.00  0.00     0.031 C 
ATOM     57  C   UNL A   1      38.214  30.425  29.943  1.00  0.00     0.029 A 
ATOM     58  C   UNL A   1      38.547  31.060  31.211  1.00  0.00     0.049 A 
ATOM     59  H   UNL A   1      40.012  30.483  32.577  1.00  0.00     0.167 HD
ATOM     60  C   UNL A   1      43.220  29.261  35.284  1.00  0.00     0.037 A 
ATOM     61  C   UNL A   1      37.923  32.141  31.715  1.00  0.00     0.037 A 
ATOM     62  C   UNL A   1      42.590  30.392  35.917  1.00  0.00     0.049 A 
ATOM     63  C   UNL A   1      38.346  32.669  33.053  1.00  0.00     0.074 A 
ATOM     64  C   UNL A   1      42.923  31.002  37.116  1.00  0.00     0.029 A 
ATOM     65  N   UNL A   1      41.509  31.093  35.404  1.00  0.00    -0.354 N 
ATOM     66  N   UNL A   1      39.322  32.259  33.827  1.00  0.00    -0.248 NA
ATOM     67  C   UNL A   1      37.572  33.791  33.598  1.00  0.00     0.031 C 
ATOM     68  C   UNL A   1      42.017  32.042  37.347  1.00  0.00     0.029 A 
ATOM     69  C   UNL A   1      41.150  32.113  36.270  1.00  0.00     0.049 A 
ATOM     70  H   UNL A   1      41.063  30.894  34.548  1.00  0.00     0.167 HD
ATOM     71  C   UNL A   1      39.283  33.076  34.949  1.00  0.00     0.074 A 
ATOM     72  C   UNL A   1      38.202  34.019  34.742  1.00  0.00     0.031 C 
ATOM     73  C   UNL A   1      40.068  33.042  36.054  1.00  0.00     0.037 A 
BRANCH  60  74
ATOM     74  C   UNL A   1      44.378  28.613  35.996  1.00  0.00     0.058 A 
ATOM     75  C   UNL A   1      45.695  29.077  35.844  1.00  0.00     0.135 A 
ATOM     76  C   UNL A   1      44.160  27.558  36.898  1.00  0.00     0.135 A 
ATOM     77  F   UNL A   1      45.965  30.073  34.987  1.00  0.00    -0.206 F 
ATOM     78  C   UNL A   1      46.754  28.509  36.547  1.00  0.00     0.059 A 
ATOM     79  C   UNL A   1      45.199  26.990  37.631  1.00  0.00     0.059 A 
ATOM     80  F   UNL A   1      42.921  27.076  37.086  1.00  0.00    -0.206 F 
ATOM     81  C   UNL A   1      46.495  27.466  37.441  1.00  0.00     0.060 A 
BRANCH  81  82
ATOM     82  S   UNL A   1      47.880  26.750  38.353  1.00  0.00     0.124 S 
ATOM     83  O   UNL A   1      48.881  26.609  37.299  1.00  0.00    -0.237 OA
ATOM     84  O   UNL A   1      48.156  27.774  39.354  1.00  0.00    -0.237 OA
ATOM     85  O   UNL A   1      47.337  25.498  38.872  1.00  0.00    -0.744 OA
ENDBRANCH  81  82
ENDBRANCH  60  74
BRANCH  61  86
ATOM     86  C   UNL A   1      36.820  32.773  30.947  1.00  0.00     0.058 A 
ATOM     87  C   UNL A   1      35.479  32.534  31.277  1.00  0.00     0.135 A 
ATOM     88  C   UNL A   1      37.086  33.671  29.900  1.00  0.00     0.135 A 
ATOM     89  F   UNL A   1      35.174  31.678  32.265  1.00  0.00    -0.206 F 
ATOM     90  C   UNL A   1      34.440  33.163  30.600  1.00  0.00     0.059 A 
ATOM     91  C   UNL A   1      36.066  34.336  29.228  1.00  0.00     0.059 A 
ATOM     92  F   UNL A   1      38.355  33.947  29.556  1.00  0.00    -0.206 F 
ATOM     93  C   UNL A   1      34.745  34.070  29.582  1.00  0.00     0.060 A 
BRANCH  93  94
ATOM     94  S   UNL A   1      33.391  34.934  28.759  1.00  0.00     0.124 S 
ATOM     95  O   UNL A   1      32.977  33.951  27.765  1.00  0.00    -0.237 OA
ATOM     96  O   UNL A   1      32.461  35.162  29.860  1.00  0.00    -0.237 OA
ATOM     97  O   UNL A   1      34.032  36.135  28.231  1.00  0.00    -0.744 OA
ENDBRANCH  93  94
ENDBRANCH  61  86
BRANCH  73  98
ATOM     98  C   UNL A   1      39.794  34.057  37.126  1.00  0.00     0.058 A 
ATOM     99  C   UNL A   1      39.054  33.727  38.272  1.00  0.00     0.135 A 
ATOM    100  C   UNL A   1      40.329  35.352  37.038  1.00  0.00     0.135 A 
ATOM    101  F   UNL A   1      38.513  32.505  38.399  1.00  0.00    -0.206 F 
ATOM    102  C   UNL A   1      38.843  34.651  39.290  1.00  0.00     0.059 A 
ATOM    103  C   UNL A   1      40.152  36.284  38.055  1.00  0.00     0.059 A 
ATOM    104  F   UNL A   1      41.048  35.715  35.964  1.00  0.00    -0.206 F 
ATOM    105  C   UNL A   1      39.401  35.926  39.175  1.00  0.00     0.060 A 
BRANCH 105 106
ATOM    106  S   UNL A   1      39.160  37.097  40.527  1.00  0.00     0.124 S 
ATOM    107  O   UNL A   1      38.525  36.256  41.536  1.00  0.00    -0.237 OA
ATOM    108  O   UNL A   1      40.526  37.518  40.820  1.00  0.00    -0.237 OA
ATOM    109  O   UNL A   1      38.306  38.125  39.938  1.00  0.00    -0.744 OA
ENDBRANCH 105 106
ENDBRANCH  73  98
ENDBRANCH  47  48
ENDBRANCH  39  42
ENDBRANCH  37  38
ENDBRANCH   1  37
TORSDOF 15
ENDMDL
MODEL 3
REMARK VINA RESULT:     -14.5      0.363      7.815
REMARK SMILES C[C@]1(C(=O)NCCCCNC(=O)c2ccc(-c3c4nc(c(-c5c(F)cc(S(=O)(=O)[O-])cc5F)c5ccc([nH]5)c(-c5c(F)cc(S(=O)(=O)[O-])cc5F)c5nc(c(-c6c(F)cc(S(=O)(=O)[O-])cc6F)c6ccc3[nH]6)C=C5)C=C4)cc2)[NH2+]C2(C(=O)c3ccccc3C2=O)[C@@H]2C(=O)N(c3ccccc3)C(=O)[C@H]21
REMARK SMILES IDX 8 1 7 2 6 3 5 4 3 5 4 6 2 8 1 9 79 10 103 11 80 12 91 15
REMARK SMILES IDX 101 16 81 17 89 18 92 19 94 20 102 21 82 22 83 23 88 24
REMARK SMILES IDX 90 25 93 26 84 27 87 28 85 29 86 30 95 31 96 32 100 33 97 34
REMARK SMILES IDX 99 35 98 36 9 37 10 38 11 39 12 41 13 42 14 43 78 44 15 45
REMARK SMILES IDX 77 46 16 47 17 48 18 49 71 50 19 51 76 52 70 53 72 54 20 55
REMARK SMILES IDX 75 56 69 57 68 58 21 60 55 61 34 62 54 63 35 64 38 65 53 66
REMARK SMILES IDX 73 67 36 68 37 69 52 71 74 72 39 73 22 74 23 75 32 76 24 77
REMARK SMILES IDX 25 78 31 79 33 80 26 81 27 82 28 83 29 84 30 85 56 86 57 87
REMARK SMILES IDX 66 88 58 89 59 90 65 91 67 92 60 93 61 94 62 95 63 96 64 97
REMARK SMILES IDX 40 98 41 99 50 100 42 101 43 102 49 103 51 104 44 105 45 106
REMARK SMILES IDX 46 107 47 108 48 109
REMARK H PARENT 5 7 79 13 79 14 10 40 72 59 38 70
REMARK Flexibility Score: inf
ROOT
ATOM      1  C   UNL A   1      35.353  32.457  28.024  1.00  0.00     0.023 C 
ENDROOT
BRANCH   1   2
ATOM      2  C   UNL A   1      33.924  31.989  27.840  1.00  0.00     0.023 C 
BRANCH   2   3
ATOM      3  C   UNL A   1      33.733  30.595  27.273  1.00  0.00     0.116 C 
BRANCH   3   4
ATOM      4  N   UNL A   1      32.791  29.685  27.838  1.00  0.00    -0.351 N 
ATOM      5  C   UNL A   1      32.500  28.412  27.424  1.00  0.00     0.281 C 
ATOM      6  O   UNL A   1      31.634  27.838  28.102  1.00  0.00    -0.268 OA
ATOM      7  H   UNL A   1      32.289  30.012  28.619  1.00  0.00     0.163 HD
BRANCH   5   8
ATOM      8  C   UNL A   1      33.173  27.654  26.178  1.00  0.00     0.186 C 
ATOM      9  C   UNL A   1      34.611  28.229  26.075  1.00  0.00     0.091 C 
ATOM     10  N   UNL A   1      33.286  26.148  26.363  1.00  0.00    -0.314 N 
ATOM     11  C   UNL A   1      32.542  27.747  24.813  1.00  0.00     0.170 C 
ATOM     12  C   UNL A   1      32.489  25.440  25.270  1.00  0.00     0.236 C 
ATOM     13  H   UNL A   1      32.915  25.889  27.277  1.00  0.00     0.348 HD
ATOM     14  H   UNL A   1      34.266  25.871  26.303  1.00  0.00     0.348 HD
ATOM     15  C   UNL A   1      31.644  26.534  24.696  1.00  0.00     0.177 C 
ATOM     16  C   UNL A   1      31.637  28.824  24.342  1.00  0.00     0.244 C 
ATOM     17  C   UNL A   1      33.364  24.677  24.275  1.00  0.00     0.232 C 
ATOM     18  C   UNL A   1      31.691  24.300  25.935  1.00  0.00     0.232 C 
ATOM     19  C   UNL A   1      31.019  26.811  23.371  1.00  0.00     0.245 C 
ATOM     20  N   UNL A   1      30.834  28.201  23.385  1.00  0.00    -0.250 N 
ATOM     21  O   UNL A   1      31.664  29.981  24.717  1.00  0.00    -0.273 OA
ATOM     22  O   UNL A   1      34.213  25.147  23.541  1.00  0.00    -0.286 OA
ATOM     23  C   UNL A   1      33.051  23.238  24.381  1.00  0.00     0.036 A 
ATOM     24  C   UNL A   1      32.110  23.033  25.375  1.00  0.00     0.036 A 
ATOM     25  O   UNL A   1      30.828  24.335  26.791  1.00  0.00    -0.286 OA
ATOM     26  O   UNL A   1      30.618  25.962  22.598  1.00  0.00    -0.273 OA
ATOM     27  C   UNL A   1      33.556  22.163  23.677  1.00  0.00     0.013 A 
ATOM     28  C   UNL A   1      31.651  21.781  25.745  1.00  0.00     0.013 A 
ATOM     29  C   UNL A   1      33.092  20.880  24.016  1.00  0.00     0.001 A 
ATOM     30  C   UNL A   1      32.155  20.689  25.048  1.00  0.00     0.001 A 
BRANCH  20  31
ATOM     31  C   UNL A   1      29.776  28.896  22.767  1.00  0.00     0.052 A 
ATOM     32  C   UNL A   1      30.047  29.929  21.861  1.00  0.00     0.027 A 
ATOM     33  C   UNL A   1      28.461  28.692  23.201  1.00  0.00     0.027 A 
ATOM     34  C   UNL A   1      29.019  30.747  21.392  1.00  0.00     0.002 A 
ATOM     35  C   UNL A   1      27.442  29.549  22.771  1.00  0.00     0.002 A 
ATOM     36  C   UNL A   1      27.721  30.570  21.864  1.00  0.00     0.000 A 
ENDBRANCH  20  31
ENDBRANCH   5   8
ENDBRANCH   3   4
ENDBRANCH   2   3
ENDBRANCH   1   2
BRANCH   1  37
ATOM     37  C   UNL A   1      35.900  32.400  29.445  1.00  0.00     0.116 C 
BRANCH  37  38
ATOM     38  N   UNL A   1      35.728  31.123  30.142  1.00  0.00    -0.352 N 
ATOM     39  C   UNL A   1      36.669  30.151  30.437  1.00  0.00     0.251 C 
ATOM     40  H   UNL A   1      34.812  30.928  30.445  1.00  0.00     0.163 HD
ATOM     41  O   UNL A   1      36.354  29.137  31.051  1.00  0.00    -0.269 OA
BRANCH  39  42
ATOM     42  C   UNL A   1      38.048  30.322  29.932  1.00  0.00     0.039 A 
ATOM     43  C   UNL A   1      38.329  30.060  28.596  1.00  0.00     0.014 A 
ATOM     44  C   UNL A   1      39.085  30.554  30.841  1.00  0.00     0.014 A 
ATOM     45  C   UNL A   1      39.626  29.716  28.244  1.00  0.00     0.010 A 
ATOM     46  C   UNL A   1      40.410  30.354  30.438  1.00  0.00     0.010 A 
ATOM     47  C   UNL A   1      40.685  29.837  29.162  1.00  0.00    -0.014 A 
BRANCH  47  48
ATOM     48  C   UNL A   1      42.047  29.375  28.768  1.00  0.00     0.031 A 
ATOM     49  C   UNL A   1      42.290  27.958  28.298  1.00  0.00     0.074 A 
ATOM     50  C   UNL A   1      43.058  30.269  28.743  1.00  0.00     0.049 A 
ATOM     51  N   UNL A   1      43.412  27.401  27.913  1.00  0.00    -0.248 NA
ATOM     52  C   UNL A   1      41.135  27.046  28.261  1.00  0.00     0.031 C 
ATOM     53  C   UNL A   1      42.947  31.674  29.147  1.00  0.00     0.029 A 
ATOM     54  N   UNL A   1      44.358  30.149  28.324  1.00  0.00    -0.354 N 
ATOM     55  C   UNL A   1      43.105  26.075  27.618  1.00  0.00     0.074 A 
ATOM     56  C   UNL A   1      41.696  25.901  27.893  1.00  0.00     0.031 C 
ATOM     57  C   UNL A   1      44.100  32.302  28.880  1.00  0.00     0.029 A 
ATOM     58  C   UNL A   1      45.062  31.329  28.377  1.00  0.00     0.049 A 
ATOM     59  H   UNL A   1      44.749  29.300  28.016  1.00  0.00     0.167 HD
ATOM     60  C   UNL A   1      43.920  25.096  27.152  1.00  0.00     0.037 A 
ATOM     61  C   UNL A   1      46.346  31.602  28.082  1.00  0.00     0.037 A 
ATOM     62  C   UNL A   1      45.315  25.286  26.840  1.00  0.00     0.049 A 
ATOM     63  C   UNL A   1      47.236  30.494  27.607  1.00  0.00     0.074 A 
ATOM     64  C   UNL A   1      46.220  24.361  26.347  1.00  0.00     0.029 A 
ATOM     65  N   UNL A   1      46.006  26.481  26.980  1.00  0.00    -0.354 N 
ATOM     66  N   UNL A   1      46.932  29.241  27.365  1.00  0.00    -0.248 NA
ATOM     67  C   UNL A   1      48.649  30.826  27.387  1.00  0.00     0.031 C 
ATOM     68  C   UNL A   1      47.466  24.984  26.229  1.00  0.00     0.029 A 
ATOM     69  C   UNL A   1      47.328  26.311  26.602  1.00  0.00     0.049 A 
ATOM     70  H   UNL A   1      45.613  27.326  27.299  1.00  0.00     0.167 HD
ATOM     71  C   UNL A   1      48.113  28.637  26.958  1.00  0.00     0.074 A 
ATOM     72  C   UNL A   1      49.134  29.666  26.965  1.00  0.00     0.031 C 
ATOM     73  C   UNL A   1      48.334  27.344  26.618  1.00  0.00     0.037 A 
BRANCH  60  74
ATOM     74  C   UNL A   1      43.338  23.721  26.951  1.00  0.00     0.058 A 
ATOM     75  C   UNL A   1      43.062  23.212  25.672  1.00  0.00     0.135 A 
ATOM     76  C   UNL A   1      43.119  22.873  28.051  1.00  0.00     0.135 A 
ATOM     77  F   UNL A   1      43.239  23.981  24.587  1.00  0.00    -0.206 F 
ATOM     78  C   UNL A   1      42.574  21.920  25.491  1.00  0.00     0.059 A 
ATOM     79  C   UNL A   1      42.656  21.569  27.893  1.00  0.00     0.059 A 
ATOM     80  F   UNL A   1      43.369  23.306  29.297  1.00  0.00    -0.206 F 
ATOM     81  C   UNL A   1      42.377  21.105  26.609  1.00  0.00     0.060 A 
BRANCH  81  82
ATOM     82  S   UNL A   1      41.757  19.428  26.352  1.00  0.00     0.124 S 
ATOM     83  O   UNL A   1      42.169  18.773  27.590  1.00  0.00    -0.237 OA
ATOM     84  O   UNL A   1      40.323  19.646  26.200  1.00  0.00    -0.237 OA
ATOM     85  O   UNL A   1      42.453  18.986  25.148  1.00  0.00    -0.744 OA
ENDBRANCH  81  82
ENDBRANCH  60  74
BRANCH  61  86
ATOM     86  C   UNL A   1      46.855  32.988  28.248  1.00  0.00     0.058 A 
ATOM     87  C   UNL A   1      47.463  33.396  29.443  1.00  0.00     0.135 A 
ATOM     88  C   UNL A   1      46.793  33.916  27.195  1.00  0.00     0.135 A 
ATOM     89  F   UNL A   1      47.539  32.548  30.480  1.00  0.00    -0.206 F 
ATOM     90  C   UNL A   1      47.993  34.674  29.590  1.00  0.00     0.059 A 
ATOM     91  C   UNL A   1      47.342  35.188  27.307  1.00  0.00     0.059 A 
ATOM     92  F   UNL A   1      46.236  33.568  26.024  1.00  0.00    -0.206 F 
ATOM     93  C   UNL A   1      47.935  35.560  28.512  1.00  0.00     0.060 A 
BRANCH  93  94
ATOM     94  S   UNL A   1      48.689  37.190  28.690  1.00  0.00     0.124 S 
ATOM     95  O   UNL A   1      49.662  36.950  29.749  1.00  0.00    -0.237 OA
ATOM     96  O   UNL A   1      49.239  37.418  27.356  1.00  0.00    -0.237 OA
ATOM     97  O   UNL A   1      47.561  38.044  29.048  1.00  0.00    -0.744 OA
ENDBRANCH  93  94
ENDBRANCH  61  86
BRANCH  73  98
ATOM     98  C   UNL A   1      49.731  26.964  26.218  1.00  0.00     0.058 A 
ATOM     99  C   UNL A   1      50.651  26.469  27.155  1.00  0.00     0.135 A 
ATOM    100  C   UNL A   1      50.134  27.037  24.875  1.00  0.00     0.135 A 
ATOM    101  F   UNL A   1      50.317  26.389  28.452  1.00  0.00    -0.206 F 
ATOM    102  C   UNL A   1      51.928  26.068  26.776  1.00  0.00     0.059 A 
ATOM    103  C   UNL A   1      51.397  26.619  24.469  1.00  0.00     0.059 A 
ATOM    104  F   UNL A   1      49.289  27.498  23.939  1.00  0.00    -0.206 F 
ATOM    105  C   UNL A   1      52.290  26.141  25.430  1.00  0.00     0.060 A 
BRANCH 105 106
ATOM    106  S   UNL A   1      53.934  25.573  24.947  1.00  0.00     0.124 S 
ATOM    107  O   UNL A   1      54.733  25.972  26.100  1.00  0.00    -0.237 OA
ATOM    108  O   UNL A   1      53.729  24.137  24.784  1.00  0.00    -0.237 OA
ATOM    109  O   UNL A   1      54.200  26.306  23.714  1.00  0.00    -0.744 OA
ENDBRANCH 105 106
ENDBRANCH  73  98
ENDBRANCH  47  48
ENDBRANCH  39  42
ENDBRANCH  37  38
ENDBRANCH   1  37
TORSDOF 15
ENDMDL
