MODEL 1
REMARK VINA RESULT:     -12.7      0.000      0.000
REMARK SMILES COc1ccc2c(c1)c(CC(=O)NCCCCNC(=O)c1ccc(-c3c4nc(c(-c5c(F)cc(S(=O)(=O)[O-])cc5F)c5ccc([nH]5)c(-c5c(F)cc(S(=O)(=O)[O-])cc5F)c5nc(c(-c6c(F)cc(S(=O)(=O)[O-])cc6F)c6ccc3[nH]6)C=C5)C=C4)cc1)c(C)n2Cc1ccn(C(F)F)c(=O)c1
REMARK SMILES IDX 15 1 14 2 13 3 11 4 12 5 10 7 9 8 3 9 4 10 8 11 5 12 7 13
REMARK SMILES IDX 6 14 89 15 87 16 88 17 2 18 1 19 90 20 91 21 92 22 100 23
REMARK SMILES IDX 93 24 98 25 94 26 99 27 95 28 96 29 97 30 16 31 17 32 18 33
REMARK SMILES IDX 19 34 20 36 21 37 22 38 86 39 23 40 85 41 24 42 25 43 26 44
REMARK SMILES IDX 79 45 27 46 84 47 78 48 80 49 28 50 83 51 77 52 76 53 29 55
REMARK SMILES IDX 63 56 42 57 62 58 43 59 46 60 61 61 81 62 44 63 45 64 60 66
REMARK SMILES IDX 82 67 47 68 30 69 31 70 40 71 32 72 33 73 39 74 41 75 34 76
REMARK SMILES IDX 35 77 36 78 37 79 38 80 64 81 65 82 74 83 66 84 67 85 73 86
REMARK SMILES IDX 75 87 68 88 69 89 70 90 71 91 72 92 48 93 49 94 58 95 50 96
REMARK SMILES IDX 51 97 57 98 59 99 52 100 53 101 54 102 55 103 56 104
REMARK H PARENT 13 6 18 35 80 54 46 65
REMARK Flexibility Score: inf
ROOT
ATOM      1  C   UNL A   1      35.777  31.663  27.890  1.00  0.00     0.023 C 
ENDROOT
BRANCH   1   2
ATOM      2  C   UNL A   1      35.469  30.178  27.693  1.00  0.00     0.116 C 
BRANCH   2   3
ATOM      3  N   UNL A   1      34.054  29.886  27.795  1.00  0.00    -0.356 N 
ATOM      4  C   UNL A   1      33.352  28.846  27.254  1.00  0.00     0.224 C 
ATOM      5  O   UNL A   1      32.147  28.762  27.508  1.00  0.00    -0.275 OA
ATOM      6  H   UNL A   1      33.525  30.527  28.325  1.00  0.00     0.163 HD
BRANCH   4   7
ATOM      7  C   UNL A   1      34.064  27.767  26.446  1.00  0.00     0.138 C 
BRANCH   7   8
ATOM      8  C   UNL A   1      33.176  27.091  25.447  1.00  0.00    -0.010 A 
ATOM      9  C   UNL A   1      31.693  23.770  26.575  1.00  0.00     0.119 A 
ATOM     10  C   UNL A   1      30.869  23.587  25.472  1.00  0.00     0.048 A 
ATOM     11  C   UNL A   1      32.463  24.926  26.691  1.00  0.00     0.057 A 
ATOM     12  C   UNL A   1      30.825  24.536  24.436  1.00  0.00     0.031 A 
ATOM     13  C   UNL A   1      32.472  25.870  25.643  1.00  0.00     0.007 A 
ATOM     14  C   UNL A   1      31.655  25.669  24.528  1.00  0.00     0.049 A 
ATOM     15  N   UNL A   1      31.844  26.760  23.683  1.00  0.00    -0.340 N 
ATOM     16  C   UNL A   1      32.919  27.504  24.144  1.00  0.00     0.020 A 
ATOM     17  C   UNL A   1      33.603  28.593  23.392  1.00  0.00     0.065 C 
BRANCH   9  18
ATOM     18  O   UNL A   1      31.756  22.898  27.628  1.00  0.00    -0.497 OA
ATOM     19  C   UNL A   1      33.069  22.397  27.860  1.00  0.00     0.278 C 
ENDBRANCH   9  18
BRANCH  15  20
ATOM     20  C   UNL A   1      31.089  27.002  22.444  1.00  0.00     0.158 C 
BRANCH  20  21
ATOM     21  C   UNL A   1      30.102  28.156  22.507  1.00  0.00    -0.021 A 
ATOM     22  C   UNL A   1      30.457  29.445  21.937  1.00  0.00     0.024 A 
ATOM     23  C   UNL A   1      28.856  28.009  22.996  1.00  0.00     0.077 A 
ATOM     24  C   UNL A   1      29.626  30.491  22.013  1.00  0.00     0.095 A 
ATOM     25  C   UNL A   1      27.877  29.142  23.005  1.00  0.00     0.255 A 
ATOM     26  N   UNL A   1      28.372  30.363  22.572  1.00  0.00    -0.258 N 
ATOM     27  O   UNL A   1      26.731  28.925  23.365  1.00  0.00    -0.269 OA
BRANCH  26  28
ATOM     28  C   UNL A   1      27.479  31.495  22.630  1.00  0.00     0.451 C 
ATOM     29  F   UNL A   1      27.777  32.284  23.692  1.00  0.00    -0.185 F 
ATOM     30  F   UNL A   1      27.562  32.248  21.510  1.00  0.00    -0.185 F 
ENDBRANCH  26  28
ENDBRANCH  20  21
ENDBRANCH  15  20
ENDBRANCH   7   8
ENDBRANCH   4   7
ENDBRANCH   2   3
ENDBRANCH   1   2
BRANCH   1  31
ATOM     31  C   UNL A   1      34.547  32.580  27.842  1.00  0.00     0.023 C 
BRANCH  31  32
ATOM     32  C   UNL A   1      34.765  33.954  28.478  1.00  0.00     0.116 C 
BRANCH  32  33
ATOM     33  N   UNL A   1      34.241  34.054  29.828  1.00  0.00    -0.352 N 
ATOM     34  C   UNL A   1      34.724  33.766  31.073  1.00  0.00     0.251 C 
ATOM     35  H   UNL A   1      33.326  34.414  29.852  1.00  0.00     0.163 HD
ATOM     36  O   UNL A   1      33.990  34.086  32.015  1.00  0.00    -0.269 OA
BRANCH  34  37
ATOM     37  C   UNL A   1      35.983  33.028  31.353  1.00  0.00     0.039 A 
ATOM     38  C   UNL A   1      37.266  33.572  31.303  1.00  0.00     0.014 A 
ATOM     39  C   UNL A   1      35.846  31.641  31.556  1.00  0.00     0.014 A 
ATOM     40  C   UNL A   1      38.377  32.744  31.272  1.00  0.00     0.010 A 
ATOM     41  C   UNL A   1      36.954  30.809  31.548  1.00  0.00     0.010 A 
ATOM     42  C   UNL A   1      38.209  31.361  31.319  1.00  0.00    -0.014 A 
BRANCH  42  43
ATOM     43  C   UNL A   1      39.394  30.534  31.145  1.00  0.00     0.031 A 
ATOM     44  C   UNL A   1      40.185  30.304  32.391  1.00  0.00     0.074 A 
ATOM     45  C   UNL A   1      39.692  29.968  29.958  1.00  0.00     0.049 A 
ATOM     46  N   UNL A   1      41.419  30.611  32.638  1.00  0.00    -0.248 NA
ATOM     47  C   UNL A   1      39.459  29.786  33.563  1.00  0.00     0.031 C 
ATOM     48  C   UNL A   1      38.886  29.924  28.733  1.00  0.00     0.029 A 
ATOM     49  N   UNL A   1      40.778  29.220  29.626  1.00  0.00    -0.354 N 
ATOM     50  C   UNL A   1      41.680  30.162  33.933  1.00  0.00     0.074 A 
ATOM     51  C   UNL A   1      40.409  29.787  34.496  1.00  0.00     0.031 C 
ATOM     52  C   UNL A   1      39.395  28.991  27.895  1.00  0.00     0.029 A 
ATOM     53  C   UNL A   1      40.636  28.488  28.453  1.00  0.00     0.049 A 
ATOM     54  H   UNL A   1      41.597  29.199  30.173  1.00  0.00     0.167 HD
ATOM     55  C   UNL A   1      42.946  29.976  34.403  1.00  0.00     0.037 A 
ATOM     56  C   UNL A   1      41.453  27.485  28.039  1.00  0.00     0.037 A 
ATOM     57  C   UNL A   1      43.914  30.684  33.611  1.00  0.00     0.049 A 
ATOM     58  C   UNL A   1      42.748  27.665  28.755  1.00  0.00     0.074 A 
ATOM     59  C   UNL A   1      44.177  32.019  33.380  1.00  0.00     0.029 A 
ATOM     60  N   UNL A   1      44.564  30.001  32.613  1.00  0.00    -0.354 N 
ATOM     61  N   UNL A   1      43.543  28.685  28.568  1.00  0.00    -0.248 NA
ATOM     62  C   UNL A   1      42.913  26.970  30.023  1.00  0.00     0.031 C 
ATOM     63  C   UNL A   1      44.533  32.093  32.001  1.00  0.00     0.029 A 
ATOM     64  C   UNL A   1      44.530  30.795  31.491  1.00  0.00     0.049 A 
ATOM     65  H   UNL A   1      44.977  29.110  32.686  1.00  0.00     0.167 HD
ATOM     66  C   UNL A   1      44.012  29.013  29.833  1.00  0.00     0.074 A 
ATOM     67  C   UNL A   1      43.630  27.885  30.683  1.00  0.00     0.031 C 
ATOM     68  C   UNL A   1      44.417  30.282  30.142  1.00  0.00     0.037 A 
BRANCH  55  69
ATOM     69  C   UNL A   1      43.327  28.935  35.427  1.00  0.00     0.058 A 
ATOM     70  C   UNL A   1      43.958  29.318  36.629  1.00  0.00     0.135 A 
ATOM     71  C   UNL A   1      43.330  27.549  35.155  1.00  0.00     0.135 A 
ATOM     72  F   UNL A   1      44.026  30.611  36.985  1.00  0.00    -0.206 F 
ATOM     73  C   UNL A   1      44.588  28.396  37.469  1.00  0.00     0.059 A 
ATOM     74  C   UNL A   1      43.907  26.609  36.002  1.00  0.00     0.059 A 
ATOM     75  F   UNL A   1      42.850  27.051  34.007  1.00  0.00    -0.206 F 
ATOM     76  C   UNL A   1      44.568  27.044  37.139  1.00  0.00     0.060 A 
BRANCH  76  77
ATOM     77  S   UNL A   1      45.471  25.867  38.164  1.00  0.00     0.124 S 
ATOM     78  O   UNL A   1      45.294  24.629  37.414  1.00  0.00    -0.237 OA
ATOM     79  O   UNL A   1      46.816  26.433  38.157  1.00  0.00    -0.237 OA
ATOM     80  O   UNL A   1      44.776  25.933  39.446  1.00  0.00    -0.744 OA
ENDBRANCH  76  77
ENDBRANCH  55  69
BRANCH  56  81
ATOM     81  C   UNL A   1      41.028  26.173  27.471  1.00  0.00     0.058 A 
ATOM     82  C   UNL A   1      41.776  25.538  26.464  1.00  0.00     0.135 A 
ATOM     83  C   UNL A   1      40.048  25.381  28.105  1.00  0.00     0.135 A 
ATOM     84  F   UNL A   1      42.748  26.205  25.823  1.00  0.00    -0.206 F 
ATOM     85  C   UNL A   1      41.598  24.185  26.140  1.00  0.00     0.059 A 
ATOM     86  C   UNL A   1      39.847  24.037  27.794  1.00  0.00     0.059 A 
ATOM     87  F   UNL A   1      39.317  25.864  29.120  1.00  0.00    -0.206 F 
ATOM     88  C   UNL A   1      40.645  23.437  26.829  1.00  0.00     0.060 A 
BRANCH  88  89
ATOM     89  S   UNL A   1      40.534  21.653  26.548  1.00  0.00     0.124 S 
ATOM     90  O   UNL A   1      40.655  21.122  27.902  1.00  0.00    -0.237 OA
ATOM     91  O   UNL A   1      39.219  21.521  25.927  1.00  0.00    -0.237 OA
ATOM     92  O   UNL A   1      41.666  21.375  25.667  1.00  0.00    -0.744 OA
ENDBRANCH  88  89
ENDBRANCH  56  81
BRANCH  68  93
ATOM     93  C   UNL A   1      44.538  31.284  29.016  1.00  0.00     0.058 A 
ATOM     94  C   UNL A   1      45.630  31.349  28.129  1.00  0.00     0.135 A 
ATOM     95  C   UNL A   1      43.443  32.111  28.730  1.00  0.00     0.135 A 
ATOM     96  F   UNL A   1      46.670  30.515  28.259  1.00  0.00    -0.206 F 
ATOM     97  C   UNL A   1      45.654  32.230  27.044  1.00  0.00     0.059 A 
ATOM     98  C   UNL A   1      43.431  32.975  27.636  1.00  0.00     0.059 A 
ATOM     99  F   UNL A   1      42.340  32.050  29.493  1.00  0.00    -0.206 F 
ATOM    100  C   UNL A   1      44.548  33.043  26.806  1.00  0.00     0.060 A 
BRANCH 100 101
ATOM    101  S   UNL A   1      44.556  34.152  25.379  1.00  0.00     0.124 S 
ATOM    102  O   UNL A   1      45.837  34.835  25.524  1.00  0.00    -0.237 OA
ATOM    103  O   UNL A   1      44.456  33.226  24.254  1.00  0.00    -0.237 OA
ATOM    104  O   UNL A   1      43.377  34.990  25.590  1.00  0.00    -0.744 OA
ENDBRANCH 100 101
ENDBRANCH  68  93
ENDBRANCH  42  43
ENDBRANCH  34  37
ENDBRANCH  32  33
ENDBRANCH  31  32
ENDBRANCH   1  31
TORSDOF 19
ENDMDL
MODEL 2
REMARK VINA RESULT:     -12.6      3.708      9.682
REMARK SMILES COc1ccc2c(c1)c(CC(=O)NCCCCNC(=O)c1ccc(-c3c4nc(c(-c5c(F)cc(S(=O)(=O)[O-])cc5F)c5ccc([nH]5)c(-c5c(F)cc(S(=O)(=O)[O-])cc5F)c5nc(c(-c6c(F)cc(S(=O)(=O)[O-])cc6F)c6ccc3[nH]6)C=C5)C=C4)cc1)c(C)n2Cc1ccn(C(F)F)c(=O)c1
REMARK SMILES IDX 15 1 14 2 13 3 11 4 12 5 10 7 9 8 3 9 4 10 8 11 5 12 7 13
REMARK SMILES IDX 6 14 89 15 87 16 88 17 2 18 1 19 90 20 91 21 92 22 100 23
REMARK SMILES IDX 93 24 98 25 94 26 99 27 95 28 96 29 97 30 16 31 17 32 18 33
REMARK SMILES IDX 19 34 20 36 21 37 22 38 86 39 23 40 85 41 24 42 25 43 26 44
REMARK SMILES IDX 79 45 27 46 84 47 78 48 80 49 28 50 83 51 77 52 76 53 29 55
REMARK SMILES IDX 63 56 42 57 62 58 43 59 46 60 61 61 81 62 44 63 45 64 60 66
REMARK SMILES IDX 82 67 47 68 30 69 31 70 40 71 32 72 33 73 39 74 41 75 34 76
REMARK SMILES IDX 35 77 36 78 37 79 38 80 64 81 65 82 74 83 66 84 67 85 73 86
REMARK SMILES IDX 75 87 68 88 69 89 70 90 71 91 72 92 48 93 49 94 58 95 50 96
REMARK SMILES IDX 51 97 57 98 59 99 52 100 53 101 54 102 55 103 56 104
REMARK H PARENT 13 6 18 35 80 54 46 65
REMARK Flexibility Score: inf
ROOT
ATOM      1  C   UNL A   1      39.790  21.038  26.173  1.00  0.00     0.023 C 
ENDROOT
BRANCH   1   2
ATOM      2  C   UNL A   1      38.876  22.263  26.202  1.00  0.00     0.116 C 
BRANCH   2   3
ATOM      3  N   UNL A   1      38.189  22.473  24.943  1.00  0.00    -0.356 N 
ATOM      4  C   UNL A   1      37.143  23.309  24.666  1.00  0.00     0.224 C 
ATOM      5  O   UNL A   1      36.738  23.367  23.502  1.00  0.00    -0.275 OA
ATOM      6  H   UNL A   1      38.521  21.940  24.184  1.00  0.00     0.163 HD
BRANCH   4   7
ATOM      7  C   UNL A   1      36.567  24.214  25.748  1.00  0.00     0.138 C 
BRANCH   7   8
ATOM      8  C   UNL A   1      35.080  24.093  25.892  1.00  0.00    -0.010 A 
ATOM      9  C   UNL A   1      33.132  27.328  25.407  1.00  0.00     0.119 A 
ATOM     10  C   UNL A   1      31.867  26.757  25.472  1.00  0.00     0.048 A 
ATOM     11  C   UNL A   1      34.268  26.525  25.483  1.00  0.00     0.057 A 
ATOM     12  C   UNL A   1      31.707  25.374  25.657  1.00  0.00     0.031 A 
ATOM     13  C   UNL A   1      34.134  25.141  25.716  1.00  0.00     0.007 A 
ATOM     14  C   UNL A   1      32.858  24.577  25.800  1.00  0.00     0.049 A 
ATOM     15  N   UNL A   1      33.030  23.210  26.000  1.00  0.00    -0.340 N 
ATOM     16  C   UNL A   1      34.367  22.959  26.267  1.00  0.00     0.020 A 
ATOM     17  C   UNL A   1      34.920  21.677  26.785  1.00  0.00     0.065 C 
BRANCH   9  18
ATOM     18  O   UNL A   1      33.352  28.663  25.197  1.00  0.00    -0.497 OA
ATOM     19  C   UNL A   1      33.017  29.083  23.878  1.00  0.00     0.278 C 
ENDBRANCH   9  18
BRANCH  15  20
ATOM     20  C   UNL A   1      31.939  22.223  26.033  1.00  0.00     0.158 C 
BRANCH  20  21
ATOM     21  C   UNL A   1      32.110  21.045  25.087  1.00  0.00    -0.021 A 
ATOM     22  C   UNL A   1      32.192  21.273  23.655  1.00  0.00     0.024 A 
ATOM     23  C   UNL A   1      32.283  19.787  25.533  1.00  0.00     0.077 A 
ATOM     24  C   UNL A   1      32.302  20.254  22.794  1.00  0.00     0.095 A 
ATOM     25  C   UNL A   1      32.501  18.644  24.591  1.00  0.00     0.255 A 
ATOM     26  N   UNL A   1      32.414  18.955  23.243  1.00  0.00    -0.258 N 
ATOM     27  O   UNL A   1      32.753  17.542  25.054  1.00  0.00    -0.269 OA
BRANCH  26  28
ATOM     28  C   UNL A   1      32.551  17.867  22.304  1.00  0.00     0.451 C 
ATOM     29  F   UNL A   1      32.251  18.281  21.047  1.00  0.00    -0.185 F 
ATOM     30  F   UNL A   1      33.811  17.376  22.296  1.00  0.00    -0.185 F 
ENDBRANCH  26  28
ENDBRANCH  20  21
ENDBRANCH  15  20
ENDBRANCH   7   8
ENDBRANCH   4   7
ENDBRANCH   2   3
ENDBRANCH   1   2
BRANCH   1  31
ATOM     31  C   UNL A   1      40.872  21.025  27.262  1.00  0.00     0.023 C 
BRANCH  31  32
ATOM     32  C   UNL A   1      41.834  19.839  27.174  1.00  0.00     0.116 C 
BRANCH  32  33
ATOM     33  N   UNL A   1      42.668  19.859  25.987  1.00  0.00    -0.352 N 
ATOM     34  C   UNL A   1      43.528  20.763  25.428  1.00  0.00     0.251 C 
ATOM     35  H   UNL A   1      42.600  19.030  25.463  1.00  0.00     0.163 HD
ATOM     36  O   UNL A   1      44.142  20.366  24.432  1.00  0.00    -0.269 OA
BRANCH  34  37
ATOM     37  C   UNL A   1      43.690  22.174  25.867  1.00  0.00     0.039 A 
ATOM     38  C   UNL A   1      44.466  22.600  26.945  1.00  0.00     0.014 A 
ATOM     39  C   UNL A   1      42.884  23.116  25.202  1.00  0.00     0.014 A 
ATOM     40  C   UNL A   1      44.308  23.876  27.459  1.00  0.00     0.010 A 
ATOM     41  C   UNL A   1      42.737  24.402  25.699  1.00  0.00     0.010 A 
ATOM     42  C   UNL A   1      43.387  24.746  26.878  1.00  0.00    -0.014 A 
BRANCH  42  43
ATOM     43  C   UNL A   1      43.160  26.023  27.538  1.00  0.00     0.031 A 
ATOM     44  C   UNL A   1      44.210  27.055  27.285  1.00  0.00     0.074 A 
ATOM     45  C   UNL A   1      42.042  26.259  28.254  1.00  0.00     0.049 A 
ATOM     46  N   UNL A   1      44.973  27.663  28.136  1.00  0.00    -0.248 NA
ATOM     47  C   UNL A   1      44.545  27.342  25.880  1.00  0.00     0.031 C 
ATOM     48  C   UNL A   1      40.842  25.424  28.385  1.00  0.00     0.029 A 
ATOM     49  N   UNL A   1      41.711  27.369  28.965  1.00  0.00    -0.354 N 
ATOM     50  C   UNL A   1      45.760  28.544  27.394  1.00  0.00     0.074 A 
ATOM     51  C   UNL A   1      45.549  28.208  26.010  1.00  0.00     0.031 C 
ATOM     52  C   UNL A   1      39.839  26.162  28.916  1.00  0.00     0.029 A 
ATOM     53  C   UNL A   1      40.364  27.459  29.298  1.00  0.00     0.049 A 
ATOM     54  H   UNL A   1      42.371  28.053  29.223  1.00  0.00     0.167 HD
ATOM     55  C   UNL A   1      46.412  29.599  27.959  1.00  0.00     0.037 A 
ATOM     56  C   UNL A   1      39.735  28.566  29.772  1.00  0.00     0.037 A 
ATOM     57  C   UNL A   1      46.549  29.436  29.381  1.00  0.00     0.049 A 
ATOM     58  C   UNL A   1      40.793  29.446  30.344  1.00  0.00     0.074 A 
ATOM     59  C   UNL A   1      47.241  28.554  30.186  1.00  0.00     0.029 A 
ATOM     60  N   UNL A   1      45.618  30.030  30.197  1.00  0.00    -0.354 N 
ATOM     61  N   UNL A   1      41.507  29.135  31.393  1.00  0.00    -0.248 NA
ATOM     62  C   UNL A   1      41.387  30.440  29.460  1.00  0.00     0.031 C 
ATOM     63  C   UNL A   1      46.372  28.300  31.288  1.00  0.00     0.029 A 
ATOM     64  C   UNL A   1      45.234  29.089  31.123  1.00  0.00     0.049 A 
ATOM     65  H   UNL A   1      45.287  30.955  30.131  1.00  0.00     0.167 HD
ATOM     66  C   UNL A   1      42.792  29.567  31.097  1.00  0.00     0.074 A 
ATOM     67  C   UNL A   1      42.644  30.413  29.913  1.00  0.00     0.031 C 
ATOM     68  C   UNL A   1      43.894  28.984  31.660  1.00  0.00     0.037 A 
BRANCH  55  69
ATOM     69  C   UNL A   1      46.692  30.902  27.252  1.00  0.00     0.058 A 
ATOM     70  C   UNL A   1      48.016  31.366  27.113  1.00  0.00     0.135 A 
ATOM     71  C   UNL A   1      45.684  31.840  26.935  1.00  0.00     0.135 A 
ATOM     72  F   UNL A   1      49.056  30.565  27.398  1.00  0.00    -0.206 F 
ATOM     73  C   UNL A   1      48.313  32.679  26.738  1.00  0.00     0.059 A 
ATOM     74  C   UNL A   1      45.958  33.136  26.511  1.00  0.00     0.059 A 
ATOM     75  F   UNL A   1      44.384  31.569  27.110  1.00  0.00    -0.206 F 
ATOM     76  C   UNL A   1      47.275  33.560  26.451  1.00  0.00     0.060 A 
BRANCH  76  77
ATOM     77  S   UNL A   1      47.652  35.281  26.070  1.00  0.00     0.124 S 
ATOM     78  O   UNL A   1      48.637  35.138  25.004  1.00  0.00    -0.237 OA
ATOM     79  O   UNL A   1      46.346  35.794  25.668  1.00  0.00    -0.237 OA
ATOM     80  O   UNL A   1      48.162  35.804  27.334  1.00  0.00    -0.744 OA
ENDBRANCH  76  77
ENDBRANCH  55  69
BRANCH  56  81
ATOM     81  C   UNL A   1      38.410  29.089  29.333  1.00  0.00     0.058 A 
ATOM     82  C   UNL A   1      37.400  29.390  30.264  1.00  0.00     0.135 A 
ATOM     83  C   UNL A   1      38.210  29.579  28.025  1.00  0.00     0.135 A 
ATOM     84  F   UNL A   1      37.516  28.987  31.539  1.00  0.00    -0.206 F 
ATOM     85  C   UNL A   1      36.283  30.171  29.931  1.00  0.00     0.059 A 
ATOM     86  C   UNL A   1      37.104  30.350  27.669  1.00  0.00     0.059 A 
ATOM     87  F   UNL A   1      39.135  29.405  27.070  1.00  0.00    -0.206 F 
ATOM     88  C   UNL A   1      36.158  30.667  28.634  1.00  0.00     0.060 A 
BRANCH  88  89
ATOM     89  S   UNL A   1      34.822  31.823  28.245  1.00  0.00     0.124 S 
ATOM     90  O   UNL A   1      35.525  32.861  27.497  1.00  0.00    -0.237 OA
ATOM     91  O   UNL A   1      33.909  30.988  27.471  1.00  0.00    -0.237 OA
ATOM     92  O   UNL A   1      34.328  32.229  29.558  1.00  0.00    -0.744 OA
ENDBRANCH  88  89
ENDBRANCH  56  81
BRANCH  68  93
ATOM     93  C   UNL A   1      43.679  27.987  32.775  1.00  0.00     0.058 A 
ATOM     94  C   UNL A   1      43.667  26.589  32.597  1.00  0.00     0.135 A 
ATOM     95  C   UNL A   1      43.631  28.454  34.096  1.00  0.00     0.135 A 
ATOM     96  F   UNL A   1      43.824  26.052  31.380  1.00  0.00    -0.206 F 
ATOM     97  C   UNL A   1      43.560  25.704  33.674  1.00  0.00     0.059 A 
ATOM     98  C   UNL A   1      43.556  27.590  35.187  1.00  0.00     0.059 A 
ATOM     99  F   UNL A   1      43.709  29.772  34.344  1.00  0.00    -0.206 F 
ATOM    100  C   UNL A   1      43.503  26.215  34.969  1.00  0.00     0.060 A 
BRANCH 100 101
ATOM    101  S   UNL A   1      43.408  25.074  36.366  1.00  0.00     0.124 S 
ATOM    102  O   UNL A   1      42.759  25.888  37.388  1.00  0.00    -0.237 OA
ATOM    103  O   UNL A   1      42.609  23.975  35.829  1.00  0.00    -0.237 OA
ATOM    104  O   UNL A   1      44.806  24.741  36.632  1.00  0.00    -0.744 OA
ENDBRANCH 100 101
ENDBRANCH  68  93
ENDBRANCH  42  43
ENDBRANCH  34  37
ENDBRANCH  32  33
ENDBRANCH  31  32
ENDBRANCH   1  31
TORSDOF 19
ENDMDL
MODEL 3
REMARK VINA RESULT:     -12.5      3.340      9.152
REMARK SMILES COc1ccc2c(c1)c(CC(=O)NCCCCNC(=O)c1ccc(-c3c4nc(c(-c5c(F)cc(S(=O)(=O)[O-])cc5F)c5ccc([nH]5)c(-c5c(F)cc(S(=O)(=O)[O-])cc5F)c5nc(c(-c6c(F)cc(S(=O)(=O)[O-])cc6F)c6ccc3[nH]6)C=C5)C=C4)cc1)c(C)n2Cc1ccn(C(F)F)c(=O)c1
REMARK SMILES IDX 15 1 14 2 13 3 11 4 12 5 10 7 9 8 3 9 4 10 8 11 5 12 7 13
REMARK SMILES IDX 6 14 89 15 87 16 88 17 2 18 1 19 90 20 91 21 92 22 100 23
REMARK SMILES IDX 93 24 98 25 94 26 99 27 95 28 96 29 97 30 16 31 17 32 18 33
REMARK SMILES IDX 19 34 20 36 21 37 22 38 86 39 23 40 85 41 24 42 25 43 26 44
REMARK SMILES IDX 79 45 27 46 84 47 78 48 80 49 28 50 83 51 77 52 76 53 29 55
REMARK SMILES IDX 63 56 42 57 62 58 43 59 46 60 61 61 81 62 44 63 45 64 60 66
REMARK SMILES IDX 82 67 47 68 30 69 31 70 40 71 32 72 33 73 39 74 41 75 34 76
REMARK SMILES IDX 35 77 36 78 37 79 38 80 64 81 65 82 74 83 66 84 67 85 73 86
REMARK SMILES IDX 75 87 68 88 69 89 70 90 71 91 72 92 48 93 49 94 58 95 50 96
REMARK SMILES IDX 51 97 57 98 59 99 52 100 53 101 54 102 55 103 56 104
REMARK H PARENT 13 6 18 35 80 54 46 65
REMARK Flexibility Score: inf
ROOT
ATOM      1  C   UNL A   1      40.742  21.722  26.496  1.00  0.00     0.023 C 
ENDROOT
BRANCH   1   2
ATOM      2  C   UNL A   1      39.305  22.225  26.635  1.00  0.00     0.116 C 
BRANCH   2   3
ATOM      3  N   UNL A   1      38.664  22.436  25.353  1.00  0.00    -0.356 N 
ATOM      4  C   UNL A   1      37.336  22.599  25.075  1.00  0.00     0.224 C 
ATOM      5  O   UNL A   1      37.009  22.815  23.904  1.00  0.00    -0.275 OA
ATOM      6  H   UNL A   1      39.269  22.465  24.575  1.00  0.00     0.163 HD
BRANCH   4   7
ATOM      7  C   UNL A   1      36.305  22.614  26.197  1.00  0.00     0.138 C 
BRANCH   7   8
ATOM      8  C   UNL A   1      34.903  22.386  25.718  1.00  0.00    -0.010 A 
ATOM      9  C   UNL A   1      34.177  18.880  24.422  1.00  0.00     0.119 A 
ATOM     10  C   UNL A   1      32.812  19.063  24.241  1.00  0.00     0.048 A 
ATOM     11  C   UNL A   1      34.957  19.905  24.957  1.00  0.00     0.057 A 
ATOM     12  C   UNL A   1      32.199  20.289  24.551  1.00  0.00     0.031 A 
ATOM     13  C   UNL A   1      34.374  21.159  25.231  1.00  0.00     0.007 A 
ATOM     14  C   UNL A   1      33.003  21.341  25.028  1.00  0.00     0.049 A 
ATOM     15  N   UNL A   1      32.706  22.647  25.407  1.00  0.00    -0.340 N 
ATOM     16  C   UNL A   1      33.891  23.335  25.620  1.00  0.00     0.020 A 
ATOM     17  C   UNL A   1      34.017  24.809  25.786  1.00  0.00     0.065 C 
BRANCH   9  18
ATOM     18  O   UNL A   1      34.825  17.702  24.168  1.00  0.00    -0.497 OA
ATOM     19  C   UNL A   1      34.017  16.761  23.468  1.00  0.00     0.278 C 
ENDBRANCH   9  18
BRANCH  15  20
ATOM     20  C   UNL A   1      31.351  23.218  25.457  1.00  0.00     0.158 C 
BRANCH  20  21
ATOM     21  C   UNL A   1      31.142  24.451  24.592  1.00  0.00    -0.021 A 
ATOM     22  C   UNL A   1      30.553  25.648  25.168  1.00  0.00     0.024 A 
ATOM     23  C   UNL A   1      31.570  24.515  23.318  1.00  0.00     0.077 A 
ATOM     24  C   UNL A   1      30.319  26.735  24.423  1.00  0.00     0.095 A 
ATOM     25  C   UNL A   1      31.404  25.754  22.494  1.00  0.00     0.255 A 
ATOM     26  N   UNL A   1      30.697  26.782  23.098  1.00  0.00    -0.258 N 
ATOM     27  O   UNL A   1      31.901  25.789  21.379  1.00  0.00    -0.269 OA
BRANCH  26  28
ATOM     28  C   UNL A   1      30.455  27.968  22.312  1.00  0.00     0.451 C 
ATOM     29  F   UNL A   1      29.216  28.461  22.559  1.00  0.00    -0.185 F 
ATOM     30  F   UNL A   1      31.357  28.938  22.590  1.00  0.00    -0.185 F 
ENDBRANCH  26  28
ENDBRANCH  20  21
ENDBRANCH  15  20
ENDBRANCH   7   8
ENDBRANCH   4   7
ENDBRANCH   2   3
ENDBRANCH   1   2
BRANCH   1  31
ATOM     31  C   UNL A   1      40.866  20.215  26.228  1.00  0.00     0.023 C 
BRANCH  31  32
ATOM     32  C   UNL A   1      42.270  19.653  26.455  1.00  0.00     0.116 C 
BRANCH  32  33
ATOM     33  N   UNL A   1      43.126  19.749  25.287  1.00  0.00    -0.352 N 
ATOM     34  C   UNL A   1      43.997  20.685  24.805  1.00  0.00     0.251 C 
ATOM     35  H   UNL A   1      43.067  18.955  24.709  1.00  0.00     0.163 HD
ATOM     36  O   UNL A   1      44.628  20.353  23.796  1.00  0.00    -0.269 OA
BRANCH  34  37
ATOM     37  C   UNL A   1      44.151  22.064  25.338  1.00  0.00     0.039 A 
ATOM     38  C   UNL A   1      44.866  22.411  26.484  1.00  0.00     0.014 A 
ATOM     39  C   UNL A   1      43.401  23.059  24.683  1.00  0.00     0.014 A 
ATOM     40  C   UNL A   1      44.694  23.657  27.064  1.00  0.00     0.010 A 
ATOM     41  C   UNL A   1      43.242  24.315  25.248  1.00  0.00     0.010 A 
ATOM     42  C   UNL A   1      43.823  24.576  26.483  1.00  0.00    -0.014 A 
BRANCH  42  43
ATOM     43  C   UNL A   1      43.574  25.816  27.205  1.00  0.00     0.031 A 
ATOM     44  C   UNL A   1      44.617  26.869  27.020  1.00  0.00     0.074 A 
ATOM     45  C   UNL A   1      42.444  26.003  27.917  1.00  0.00     0.049 A 
ATOM     46  N   UNL A   1      45.361  27.440  27.912  1.00  0.00    -0.248 NA
ATOM     47  C   UNL A   1      44.968  27.232  25.636  1.00  0.00     0.031 C 
ATOM     48  C   UNL A   1      41.252  25.151  27.988  1.00  0.00     0.029 A 
ATOM     49  N   UNL A   1      42.092  27.072  28.679  1.00  0.00    -0.354 N 
ATOM     50  C   UNL A   1      46.149  28.366  27.227  1.00  0.00     0.074 A 
ATOM     51  C   UNL A   1      45.961  28.100  25.824  1.00  0.00     0.031 C 
ATOM     52  C   UNL A   1      40.234  25.850  28.542  1.00  0.00     0.029 A 
ATOM     53  C   UNL A   1      40.740  27.131  28.997  1.00  0.00     0.049 A 
ATOM     54  H   UNL A   1      42.741  27.748  28.981  1.00  0.00     0.167 HD
ATOM     55  C   UNL A   1      46.783  29.396  27.855  1.00  0.00     0.037 A 
ATOM     56  C   UNL A   1      40.094  28.206  29.519  1.00  0.00     0.037 A 
ATOM     57  C   UNL A   1      46.902  29.161  29.268  1.00  0.00     0.049 A 
ATOM     58  C   UNL A   1      41.135  29.066  30.150  1.00  0.00     0.074 A 
ATOM     59  C   UNL A   1      47.593  28.246  30.036  1.00  0.00     0.029 A 
ATOM     60  N   UNL A   1      45.954  29.703  30.101  1.00  0.00    -0.354 N 
ATOM     61  N   UNL A   1      41.838  28.708  31.192  1.00  0.00    -0.248 NA
ATOM     62  C   UNL A   1      41.729  30.110  29.327  1.00  0.00     0.031 C 
ATOM     63  C   UNL A   1      46.712  27.927  31.112  1.00  0.00     0.029 A 
ATOM     64  C   UNL A   1      45.568  28.713  30.972  1.00  0.00     0.049 A 
ATOM     65  H   UNL A   1      45.615  30.627  30.078  1.00  0.00     0.167 HD
ATOM     66  C   UNL A   1      43.122  29.167  30.936  1.00  0.00     0.074 A 
ATOM     67  C   UNL A   1      42.980  30.071  29.795  1.00  0.00     0.031 C 
ATOM     68  C   UNL A   1      44.222  28.567  31.484  1.00  0.00     0.037 A 
BRANCH  55  69
ATOM     69  C   UNL A   1      47.058  30.737  27.220  1.00  0.00     0.058 A 
ATOM     70  C   UNL A   1      48.367  31.264  27.208  1.00  0.00     0.135 A 
ATOM     71  C   UNL A   1      46.037  31.642  26.852  1.00  0.00     0.135 A 
ATOM     72  F   UNL A   1      49.416  30.498  27.551  1.00  0.00    -0.206 F 
ATOM     73  C   UNL A   1      48.632  32.601  26.905  1.00  0.00     0.059 A 
ATOM     74  C   UNL A   1      46.284  32.963  26.498  1.00  0.00     0.059 A 
ATOM     75  F   UNL A   1      44.741  31.307  26.908  1.00  0.00    -0.206 F 
ATOM     76  C   UNL A   1      47.581  33.447  26.564  1.00  0.00     0.060 A 
BRANCH  76  77
ATOM     77  S   UNL A   1      47.907  35.197  26.276  1.00  0.00     0.124 S 
ATOM     78  O   UNL A   1      46.585  35.779  26.478  1.00  0.00    -0.237 OA
ATOM     79  O   UNL A   1      48.899  35.491  27.305  1.00  0.00    -0.237 OA
ATOM     80  O   UNL A   1      48.406  35.226  24.905  1.00  0.00    -0.744 OA
ENDBRANCH  76  77
ENDBRANCH  55  69
BRANCH  56  81
ATOM     81  C   UNL A   1      38.769  28.738  29.090  1.00  0.00     0.058 A 
ATOM     82  C   UNL A   1      37.733  28.953  30.017  1.00  0.00     0.135 A 
ATOM     83  C   UNL A   1      38.588  29.320  27.817  1.00  0.00     0.135 A 
ATOM     84  F   UNL A   1      37.829  28.459  31.261  1.00  0.00    -0.206 F 
ATOM     85  C   UNL A   1      36.610  29.738  29.717  1.00  0.00     0.059 A 
ATOM     86  C   UNL A   1      37.477  30.097  27.493  1.00  0.00     0.059 A 
ATOM     87  F   UNL A   1      39.537  29.233  26.874  1.00  0.00    -0.206 F 
ATOM     88  C   UNL A   1      36.504  30.326  28.457  1.00  0.00     0.060 A 
BRANCH  88  89
ATOM     89  S   UNL A   1      35.157  31.486  28.123  1.00  0.00     0.124 S 
ATOM     90  O   UNL A   1      34.333  30.734  27.182  1.00  0.00    -0.237 OA
ATOM     91  O   UNL A   1      34.586  31.685  29.452  1.00  0.00    -0.237 OA
ATOM     92  O   UNL A   1      35.839  32.649  27.561  1.00  0.00    -0.744 OA
ENDBRANCH  88  89
ENDBRANCH  56  81
BRANCH  68  93
ATOM     93  C   UNL A   1      44.002  27.511  32.543  1.00  0.00     0.058 A 
ATOM     94  C   UNL A   1      44.000  26.125  32.292  1.00  0.00     0.135 A 
ATOM     95  C   UNL A   1      43.942  27.908  33.886  1.00  0.00     0.135 A 
ATOM     96  F   UNL A   1      44.169  25.654  31.049  1.00  0.00    -0.206 F 
ATOM     97  C   UNL A   1      43.888  25.184  33.319  1.00  0.00     0.059 A 
ATOM     98  C   UNL A   1      43.862  26.987  34.930  1.00  0.00     0.059 A 
ATOM     99  F   UNL A   1      44.011  29.211  34.204  1.00  0.00    -0.206 F 
ATOM    100  C   UNL A   1      43.817  25.625  34.638  1.00  0.00     0.060 A 
BRANCH 100 101
ATOM    101  S   UNL A   1      43.716  24.412  35.973  1.00  0.00     0.124 S 
ATOM    102  O   UNL A   1      44.453  23.280  35.420  1.00  0.00    -0.237 OA
ATOM    103  O   UNL A   1      44.363  25.105  37.085  1.00  0.00    -0.237 OA
ATOM    104  O   UNL A   1      42.280  24.199  36.136  1.00  0.00    -0.744 OA
ENDBRANCH 100 101
ENDBRANCH  68  93
ENDBRANCH  42  43
ENDBRANCH  34  37
ENDBRANCH  32  33
ENDBRANCH  31  32
ENDBRANCH   1  31
TORSDOF 19
ENDMDL
