MODEL 1
REMARK VINA RESULT:     -12.3      0.000      0.000
REMARK SMILES O=C(NCCCCNC(=O)[C@H]1CCCN(C(=O)c2ccc(NC(=O)c3ccccc3)cc2)C1)c1ccc(-c2c3nc(c(-c4c(F)cc(S(=O)(=O)[O-])cc4F)c4ccc([nH]4)c(-c4c(F)cc(S(=O)(=O)[O-])cc4F)c4nc(c(-c5c(F)cc(S(=O)(=O)[O-])cc5F)c5ccc2[nH]5)C=C4)C=C3)cc1
REMARK SMILES IDX 6 1 5 2 4 3 3 4 1 5 2 6 34 8 35 9 99 10 36 11 98 12 37 13
REMARK SMILES IDX 38 14 39 15 92 16 40 17 97 18 91 19 93 20 41 21 96 22 90 23
REMARK SMILES IDX 89 24 42 26 76 27 55 28 75 29 56 30 59 31 74 32 94 33 57 34
REMARK SMILES IDX 58 35 73 37 95 38 60 39 43 40 44 41 53 42 45 43 46 44 52 45
REMARK SMILES IDX 54 46 47 47 48 48 49 49 50 50 51 51 77 52 78 53 87 54 79 55
REMARK SMILES IDX 80 56 86 57 88 58 81 59 82 60 83 61 84 62 85 63 61 64 62 65
REMARK SMILES IDX 71 66 63 67 64 68 70 69 72 70 65 71 66 72 67 73 68 74 69 75
REMARK SMILES IDX 7 76 8 77 9 78 10 80 11 81 12 82 33 83 13 84 15 85 14 86
REMARK SMILES IDX 16 87 17 88 18 89 19 90 32 91 20 92 31 93 21 94 22 95 23 96
REMARK SMILES IDX 24 98 25 99 26 100 30 101 27 102 29 103 28 104
REMARK H PARENT 3 7 93 25 59 36 8 79 22 97
REMARK Flexibility Score: inf
ROOT
ATOM      1  C   UNL A   1      33.645  31.188  26.942  1.00  0.00     0.023 C 
ENDROOT
BRANCH   1   2
ATOM      2  C   UNL A   1      34.366  31.825  28.134  1.00  0.00     0.023 C 
BRANCH   2   3
ATOM      3  C   UNL A   1      35.580  31.066  28.662  1.00  0.00     0.116 C 
BRANCH   3   4
ATOM      4  N   UNL A   1      35.519  30.817  30.092  1.00  0.00    -0.352 N 
ATOM      5  O   UNL A   1      36.201  30.055  32.098  1.00  0.00    -0.269 OA
ATOM      6  C   UNL A   1      36.482  30.305  30.929  1.00  0.00     0.251 C 
ATOM      7  H   UNL A   1      34.665  31.049  30.525  1.00  0.00     0.163 HD
BRANCH   6   8
ATOM      8  C   UNL A   1      37.841  30.024  30.415  1.00  0.00     0.039 A 
ATOM      9  C   UNL A   1      38.135  30.129  29.054  1.00  0.00     0.014 A 
ATOM     10  C   UNL A   1      38.843  29.658  31.320  1.00  0.00     0.014 A 
ATOM     11  C   UNL A   1      39.389  29.745  28.583  1.00  0.00     0.010 A 
ATOM     12  C   UNL A   1      40.121  29.339  30.854  1.00  0.00     0.010 A 
ATOM     13  C   UNL A   1      40.397  29.350  29.478  1.00  0.00    -0.014 A 
BRANCH  13  14
ATOM     14  C   UNL A   1      41.744  29.000  28.962  1.00  0.00     0.031 A 
ATOM     15  C   UNL A   1      42.848  30.021  28.919  1.00  0.00     0.074 A 
ATOM     16  C   UNL A   1      41.972  27.741  28.541  1.00  0.00     0.049 A 
ATOM     17  N   UNL A   1      44.079  29.884  28.497  1.00  0.00    -0.248 NA
ATOM     18  C   UNL A   1      42.529  31.372  29.404  1.00  0.00     0.031 C 
ATOM     19  C   UNL A   1      40.975  26.668  28.522  1.00  0.00     0.029 A 
ATOM     20  N   UNL A   1      43.108  27.146  28.057  1.00  0.00    -0.354 N 
ATOM     21  C   UNL A   1      44.678  31.130  28.648  1.00  0.00     0.074 A 
ATOM     22  C   UNL A   1      43.666  32.018  29.181  1.00  0.00     0.031 C 
ATOM     23  C   UNL A   1      41.551  25.539  28.083  1.00  0.00     0.029 A 
ATOM     24  C   UNL A   1      42.942  25.818  27.740  1.00  0.00     0.049 A 
ATOM     25  H   UNL A   1      43.962  27.623  27.948  1.00  0.00     0.167 HD
ATOM     26  C   UNL A   1      45.955  31.495  28.376  1.00  0.00     0.037 A 
ATOM     27  C   UNL A   1      43.804  24.927  27.217  1.00  0.00     0.037 A 
ATOM     28  C   UNL A   1      46.961  30.601  27.860  1.00  0.00     0.049 A 
ATOM     29  C   UNL A   1      45.209  25.360  26.913  1.00  0.00     0.074 A 
ATOM     30  C   UNL A   1      48.291  30.868  27.584  1.00  0.00     0.029 A 
ATOM     31  N   UNL A   1      46.749  29.268  27.539  1.00  0.00    -0.354 N 
ATOM     32  N   UNL A   1      45.764  26.536  27.090  1.00  0.00    -0.248 NA
ATOM     33  C   UNL A   1      46.105  24.349  26.337  1.00  0.00     0.031 C 
ATOM     34  C   UNL A   1      48.873  29.708  27.061  1.00  0.00     0.029 A 
ATOM     35  C   UNL A   1      47.917  28.705  27.051  1.00  0.00     0.049 A 
ATOM     36  H   UNL A   1      45.893  28.791  27.643  1.00  0.00     0.167 HD
ATOM     37  C   UNL A   1      47.077  26.402  26.659  1.00  0.00     0.074 A 
ATOM     38  C   UNL A   1      47.239  25.028  26.228  1.00  0.00     0.031 C 
ATOM     39  C   UNL A   1      48.061  27.335  26.624  1.00  0.00     0.037 A 
BRANCH  26  40
ATOM     40  C   UNL A   1      46.336  32.931  28.616  1.00  0.00     0.058 A 
ATOM     41  C   UNL A   1      46.852  33.361  29.848  1.00  0.00     0.135 A 
ATOM     42  C   UNL A   1      46.220  33.880  27.588  1.00  0.00     0.135 A 
ATOM     43  F   UNL A   1      46.973  32.498  30.870  1.00  0.00    -0.206 F 
ATOM     44  C   UNL A   1      47.214  34.688  30.062  1.00  0.00     0.059 A 
ATOM     45  C   UNL A   1      46.597  35.208  27.772  1.00  0.00     0.059 A 
ATOM     46  F   UNL A   1      45.734  33.522  26.389  1.00  0.00    -0.206 F 
ATOM     47  C   UNL A   1      47.078  35.606  29.018  1.00  0.00     0.060 A 
BRANCH  47  48
ATOM     48  S   UNL A   1      47.544  37.326  29.311  1.00  0.00     0.124 S 
ATOM     49  O   UNL A   1      48.971  37.295  29.007  1.00  0.00    -0.237 OA
ATOM     50  O   UNL A   1      46.709  38.046  28.354  1.00  0.00    -0.237 OA
ATOM     51  O   UNL A   1      47.206  37.535  30.715  1.00  0.00    -0.744 OA
ENDBRANCH  47  48
ENDBRANCH  26  40
BRANCH  27  52
ATOM     52  C   UNL A   1      43.350  23.539  26.952  1.00  0.00     0.058 A 
ATOM     53  C   UNL A   1      43.080  23.103  25.648  1.00  0.00     0.135 A 
ATOM     54  C   UNL A   1      43.222  22.608  27.995  1.00  0.00     0.135 A 
ATOM     55  F   UNL A   1      43.184  23.959  24.620  1.00  0.00    -0.206 F 
ATOM     56  C   UNL A   1      42.693  21.793  25.385  1.00  0.00     0.059 A 
ATOM     57  C   UNL A   1      42.862  21.286  27.755  1.00  0.00     0.059 A 
ATOM     58  F   UNL A   1      43.488  22.973  29.259  1.00  0.00    -0.206 F 
ATOM     59  C   UNL A   1      42.592  20.890  26.446  1.00  0.00     0.060 A 
BRANCH  59  60
ATOM     60  S   UNL A   1      42.158  19.174  26.088  1.00  0.00     0.124 S 
ATOM     61  O   UNL A   1      43.010  18.891  24.939  1.00  0.00    -0.237 OA
ATOM     62  O   UNL A   1      42.518  18.499  27.332  1.00  0.00    -0.237 OA
ATOM     63  O   UNL A   1      40.727  19.242  25.813  1.00  0.00    -0.744 OA
ENDBRANCH  59  60
ENDBRANCH  27  52
BRANCH  39  64
ATOM     64  C   UNL A   1      49.406  26.894  26.119  1.00  0.00     0.058 A 
ATOM     65  C   UNL A   1      50.340  26.276  26.962  1.00  0.00     0.135 A 
ATOM     66  C   UNL A   1      49.746  27.059  24.766  1.00  0.00     0.135 A 
ATOM     67  F   UNL A   1      50.066  26.103  28.264  1.00  0.00    -0.206 F 
ATOM     68  C   UNL A   1      51.577  25.854  26.486  1.00  0.00     0.059 A 
ATOM     69  C   UNL A   1      50.968  26.624  24.265  1.00  0.00     0.059 A 
ATOM     70  F   UNL A   1      48.882  27.638  23.917  1.00  0.00    -0.206 F 
ATOM     71  C   UNL A   1      51.883  26.033  25.135  1.00  0.00     0.060 A 
BRANCH  71  72
ATOM     72  S   UNL A   1      53.479  25.453  24.521  1.00  0.00     0.124 S 
ATOM     73  O   UNL A   1      54.406  26.195  25.368  1.00  0.00    -0.237 OA
ATOM     74  O   UNL A   1      53.407  24.015  24.766  1.00  0.00    -0.237 OA
ATOM     75  O   UNL A   1      53.461  25.844  23.114  1.00  0.00    -0.744 OA
ENDBRANCH  71  72
ENDBRANCH  39  64
ENDBRANCH  13  14
ENDBRANCH   6   8
ENDBRANCH   3   4
ENDBRANCH   2   3
ENDBRANCH   1   2
BRANCH   1  76
ATOM     76  C   UNL A   1      32.785  29.971  27.278  1.00  0.00     0.116 C 
BRANCH  76  77
ATOM     77  N   UNL A   1      33.482  28.724  27.030  1.00  0.00    -0.356 N 
ATOM     78  C   UNL A   1      33.378  27.706  26.156  1.00  0.00     0.224 C 
ATOM     79  H   UNL A   1      34.223  28.587  27.665  1.00  0.00     0.163 HD
ATOM     80  O   UNL A   1      34.206  26.800  26.332  1.00  0.00    -0.275 OA
BRANCH  78  81
ATOM     81  C   UNL A   1      32.415  27.598  24.974  1.00  0.00     0.098 C 
ATOM     82  C   UNL A   1      31.572  28.894  24.941  1.00  0.00     0.017 C 
ATOM     83  C   UNL A   1      32.949  27.298  23.577  1.00  0.00     0.133 C 
ATOM     84  C   UNL A   1      30.477  28.823  23.887  1.00  0.00     0.022 C 
ATOM     85  N   UNL A   1      31.873  27.280  22.572  1.00  0.00    -0.338 N 
ATOM     86  C   UNL A   1      31.056  28.492  22.520  1.00  0.00     0.120 C 
BRANCH  85  87
ATOM     87  C   UNL A   1      31.694  26.117  21.817  1.00  0.00     0.253 C 
ATOM     88  O   UNL A   1      31.610  26.114  20.590  1.00  0.00    -0.269 OA
BRANCH  87  89
ATOM     89  C   UNL A   1      31.716  24.792  22.477  1.00  0.00     0.040 A 
ATOM     90  C   UNL A   1      32.731  23.909  22.102  1.00  0.00     0.016 A 
ATOM     91  C   UNL A   1      30.775  24.395  23.426  1.00  0.00     0.016 A 
ATOM     92  C   UNL A   1      32.883  22.693  22.768  1.00  0.00     0.027 A 
ATOM     93  C   UNL A   1      30.961  23.195  24.121  1.00  0.00     0.027 A 
ATOM     94  C   UNL A   1      32.060  22.369  23.847  1.00  0.00     0.041 A 
BRANCH  94  95
ATOM     95  N   UNL A   1      32.255  21.260  24.691  1.00  0.00    -0.322 N 
ATOM     96  C   UNL A   1      33.364  20.774  25.351  1.00  0.00     0.255 C 
ATOM     97  H   UNL A   1      31.441  20.727  24.838  1.00  0.00     0.170 HD
ATOM     98  O   UNL A   1      33.305  19.679  25.912  1.00  0.00    -0.269 OA
BRANCH  96  99
ATOM     99  C   UNL A   1      34.621  21.542  25.450  1.00  0.00     0.040 A 
ATOM    100  C   UNL A   1      35.740  21.071  24.756  1.00  0.00     0.014 A 
ATOM    101  C   UNL A   1      34.705  22.712  26.216  1.00  0.00     0.014 A 
ATOM    102  C   UNL A   1      36.922  21.813  24.765  1.00  0.00     0.001 A 
ATOM    103  C   UNL A   1      35.887  23.455  26.213  1.00  0.00     0.001 A 
ATOM    104  C   UNL A   1      36.988  23.010  25.479  1.00  0.00     0.000 A 
ENDBRANCH  96  99
ENDBRANCH  94  95
ENDBRANCH  87  89
ENDBRANCH  85  87
ENDBRANCH  78  81
ENDBRANCH  76  77
ENDBRANCH   1  76
TORSDOF 18
ENDMDL
MODEL 2
REMARK VINA RESULT:     -11.9      2.624      9.017
REMARK SMILES O=C(NCCCCNC(=O)[C@H]1CCCN(C(=O)c2ccc(NC(=O)c3ccccc3)cc2)C1)c1ccc(-c2c3nc(c(-c4c(F)cc(S(=O)(=O)[O-])cc4F)c4ccc([nH]4)c(-c4c(F)cc(S(=O)(=O)[O-])cc4F)c4nc(c(-c5c(F)cc(S(=O)(=O)[O-])cc5F)c5ccc2[nH]5)C=C4)C=C3)cc1
REMARK SMILES IDX 6 1 5 2 4 3 3 4 1 5 2 6 34 8 35 9 99 10 36 11 98 12 37 13
REMARK SMILES IDX 38 14 39 15 92 16 40 17 97 18 91 19 93 20 41 21 96 22 90 23
REMARK SMILES IDX 89 24 42 26 76 27 55 28 75 29 56 30 59 31 74 32 94 33 57 34
REMARK SMILES IDX 58 35 73 37 95 38 60 39 43 40 44 41 53 42 45 43 46 44 52 45
REMARK SMILES IDX 54 46 47 47 48 48 49 49 50 50 51 51 77 52 78 53 87 54 79 55
REMARK SMILES IDX 80 56 86 57 88 58 81 59 82 60 83 61 84 62 85 63 61 64 62 65
REMARK SMILES IDX 71 66 63 67 64 68 70 69 72 70 65 71 66 72 67 73 68 74 69 75
REMARK SMILES IDX 7 76 8 77 9 78 10 80 11 81 12 82 33 83 13 84 15 85 14 86
REMARK SMILES IDX 16 87 17 88 18 89 19 90 32 91 20 92 31 93 21 94 22 95 23 96
REMARK SMILES IDX 24 98 25 99 26 100 30 101 27 102 29 103 28 104
REMARK H PARENT 3 7 93 25 59 36 8 79 22 97
REMARK Flexibility Score: inf
ROOT
ATOM      1  C   UNL A   1      37.074  23.448  25.910  1.00  0.00     0.023 C 
ENDROOT
BRANCH   1   2
ATOM      2  C   UNL A   1      37.969  22.221  25.710  1.00  0.00     0.023 C 
BRANCH   2   3
ATOM      3  C   UNL A   1      39.166  22.108  26.649  1.00  0.00     0.116 C 
BRANCH   3   4
ATOM      4  N   UNL A   1      40.153  21.142  26.201  1.00  0.00    -0.352 N 
ATOM      5  O   UNL A   1      42.182  20.373  25.597  1.00  0.00    -0.269 OA
ATOM      6  C   UNL A   1      41.520  21.267  26.118  1.00  0.00     0.251 C 
ATOM      7  H   UNL A   1      39.793  20.270  25.917  1.00  0.00     0.163 HD
BRANCH   6   8
ATOM      8  C   UNL A   1      42.187  22.489  26.620  1.00  0.00     0.039 A 
ATOM      9  C   UNL A   1      42.284  23.636  25.831  1.00  0.00     0.014 A 
ATOM     10  C   UNL A   1      42.717  22.484  27.915  1.00  0.00     0.014 A 
ATOM     11  C   UNL A   1      43.020  24.730  26.282  1.00  0.00     0.010 A 
ATOM     12  C   UNL A   1      43.395  23.608  28.394  1.00  0.00     0.010 A 
ATOM     13  C   UNL A   1      43.579  24.729  27.571  1.00  0.00    -0.014 A 
BRANCH  13  14
ATOM     14  C   UNL A   1      44.310  25.927  28.056  1.00  0.00     0.031 A 
ATOM     15  C   UNL A   1      45.767  26.128  27.740  1.00  0.00     0.074 A 
ATOM     16  C   UNL A   1      43.642  26.848  28.778  1.00  0.00     0.049 A 
ATOM     17  N   UNL A   1      46.556  27.113  28.087  1.00  0.00    -0.248 NA
ATOM     18  C   UNL A   1      46.427  25.086  26.939  1.00  0.00     0.031 C 
ATOM     19  C   UNL A   1      42.231  26.756  29.158  1.00  0.00     0.029 A 
ATOM     20  N   UNL A   1      44.052  28.042  29.313  1.00  0.00    -0.354 N 
ATOM     21  C   UNL A   1      47.807  26.806  27.564  1.00  0.00     0.074 A 
ATOM     22  C   UNL A   1      47.677  25.529  26.894  1.00  0.00     0.031 C 
ATOM     23  C   UNL A   1      41.884  27.861  29.836  1.00  0.00     0.029 A 
ATOM     24  C   UNL A   1      43.058  28.715  29.983  1.00  0.00     0.049 A 
ATOM     25  H   UNL A   1      44.970  28.386  29.225  1.00  0.00     0.167 HD
ATOM     26  C   UNL A   1      48.953  27.527  27.629  1.00  0.00     0.037 A 
ATOM     27  C   UNL A   1      43.087  29.880  30.657  1.00  0.00     0.037 A 
ATOM     28  C   UNL A   1      49.070  28.804  28.285  1.00  0.00     0.049 A 
ATOM     29  C   UNL A   1      44.373  30.653  30.724  1.00  0.00     0.074 A 
ATOM     30  C   UNL A   1      50.180  29.628  28.376  1.00  0.00     0.029 A 
ATOM     31  N   UNL A   1      48.044  29.446  28.965  1.00  0.00    -0.354 N 
ATOM     32  N   UNL A   1      45.538  30.358  30.199  1.00  0.00    -0.248 NA
ATOM     33  C   UNL A   1      44.350  31.914  31.478  1.00  0.00     0.031 C 
ATOM     34  C   UNL A   1      49.835  30.747  29.142  1.00  0.00     0.029 A 
ATOM     35  C   UNL A   1      48.498  30.643  29.493  1.00  0.00     0.049 A 
ATOM     36  H   UNL A   1      47.126  29.099  29.058  1.00  0.00     0.167 HD
ATOM     37  C   UNL A   1      46.384  31.404  30.547  1.00  0.00     0.074 A 
ATOM     38  C   UNL A   1      45.593  32.345  31.314  1.00  0.00     0.031 C 
ATOM     39  C   UNL A   1      47.699  31.569  30.257  1.00  0.00     0.037 A 
BRANCH  26  40
ATOM     40  C   UNL A   1      50.183  26.943  26.987  1.00  0.00     0.058 A 
ATOM     41  C   UNL A   1      51.104  26.178  27.719  1.00  0.00     0.135 A 
ATOM     42  C   UNL A   1      50.421  27.118  25.614  1.00  0.00     0.135 A 
ATOM     43  F   UNL A   1      50.932  25.989  29.037  1.00  0.00    -0.206 F 
ATOM     44  C   UNL A   1      52.234  25.629  27.118  1.00  0.00     0.059 A 
ATOM     45  C   UNL A   1      51.533  26.560  24.988  1.00  0.00     0.059 A 
ATOM     46  F   UNL A   1      49.571  27.839  24.867  1.00  0.00    -0.206 F 
ATOM     47  C   UNL A   1      52.442  25.830  25.752  1.00  0.00     0.060 A 
BRANCH  47  48
ATOM     48  S   UNL A   1      53.916  25.120  24.988  1.00  0.00     0.124 S 
ATOM     49  O   UNL A   1      54.011  25.904  23.760  1.00  0.00    -0.237 OA
ATOM     50  O   UNL A   1      54.947  25.383  25.987  1.00  0.00    -0.237 OA
ATOM     51  O   UNL A   1      53.564  23.716  24.810  1.00  0.00    -0.744 OA
ENDBRANCH  47  48
ENDBRANCH  26  40
BRANCH  27  52
ATOM     52  C   UNL A   1      41.853  30.375  31.316  1.00  0.00     0.058 A 
ATOM     53  C   UNL A   1      40.841  31.001  30.576  1.00  0.00     0.135 A 
ATOM     54  C   UNL A   1      41.642  30.191  32.691  1.00  0.00     0.135 A 
ATOM     55  F   UNL A   1      41.000  31.203  29.259  1.00  0.00    -0.206 F 
ATOM     56  C   UNL A   1      39.663  31.433  31.176  1.00  0.00     0.059 A 
ATOM     57  C   UNL A   1      40.463  30.591  33.310  1.00  0.00     0.059 A 
ATOM     58  F   UNL A   1      42.575  29.580  33.438  1.00  0.00    -0.206 F 
ATOM     59  C   UNL A   1      39.481  31.219  32.544  1.00  0.00     0.060 A 
BRANCH  59  60
ATOM     60  S   UNL A   1      37.921  31.718  33.303  1.00  0.00     0.124 S 
ATOM     61  O   UNL A   1      37.223  30.441  33.404  1.00  0.00    -0.237 OA
ATOM     62  O   UNL A   1      38.364  32.304  34.564  1.00  0.00    -0.237 OA
ATOM     63  O   UNL A   1      37.370  32.666  32.340  1.00  0.00    -0.744 OA
ENDBRANCH  59  60
ENDBRANCH  27  52
BRANCH  39  64
ATOM     64  C   UNL A   1      48.358  32.823  30.755  1.00  0.00     0.058 A 
ATOM     65  C   UNL A   1      48.361  34.002  29.997  1.00  0.00     0.135 A 
ATOM     66  C   UNL A   1      48.962  32.852  32.022  1.00  0.00     0.135 A 
ATOM     67  F   UNL A   1      47.805  34.023  28.776  1.00  0.00    -0.206 F 
ATOM     68  C   UNL A   1      48.958  35.166  30.470  1.00  0.00     0.059 A 
ATOM     69  C   UNL A   1      49.545  34.011  32.524  1.00  0.00     0.059 A 
ATOM     70  F   UNL A   1      48.979  31.751  32.790  1.00  0.00    -0.206 F 
ATOM     71  C   UNL A   1      49.549  35.161  31.735  1.00  0.00     0.060 A 
BRANCH  71  72
ATOM     72  S   UNL A   1      50.294  36.685  32.353  1.00  0.00     0.124 S 
ATOM     73  O   UNL A   1      51.713  36.347  32.332  1.00  0.00    -0.237 OA
ATOM     74  O   UNL A   1      49.862  37.670  31.364  1.00  0.00    -0.237 OA
ATOM     75  O   UNL A   1      49.703  36.837  33.679  1.00  0.00    -0.744 OA
ENDBRANCH  71  72
ENDBRANCH  39  64
ENDBRANCH  13  14
ENDBRANCH   6   8
ENDBRANCH   3   4
ENDBRANCH   2   3
ENDBRANCH   1   2
BRANCH   1  76
ATOM     76  C   UNL A   1      35.578  23.198  25.725  1.00  0.00     0.116 C 
BRANCH  76  77
ATOM     77  N   UNL A   1      35.212  23.091  24.326  1.00  0.00    -0.356 N 
ATOM     78  C   UNL A   1      34.433  23.775  23.468  1.00  0.00     0.224 C 
ATOM     79  H   UNL A   1      35.644  22.319  23.893  1.00  0.00     0.163 HD
ATOM     80  O   UNL A   1      34.395  23.295  22.324  1.00  0.00    -0.275 OA
BRANCH  78  81
ATOM     81  C   UNL A   1      33.674  25.072  23.742  1.00  0.00     0.098 C 
ATOM     82  C   UNL A   1      33.436  25.770  22.383  1.00  0.00     0.017 C 
ATOM     83  C   UNL A   1      32.374  25.045  24.540  1.00  0.00     0.133 C 
ATOM     84  C   UNL A   1      32.816  27.148  22.560  1.00  0.00     0.022 C 
ATOM     85  N   UNL A   1      31.775  26.386  24.657  1.00  0.00    -0.338 N 
ATOM     86  C   UNL A   1      31.542  27.071  23.386  1.00  0.00     0.120 C 
BRANCH  85  87
ATOM     87  C   UNL A   1      31.544  26.896  25.938  1.00  0.00     0.253 C 
ATOM     88  O   UNL A   1      30.737  26.404  26.726  1.00  0.00    -0.269 OA
BRANCH  87  89
ATOM     89  C   UNL A   1      32.371  28.010  26.454  1.00  0.00     0.040 A 
ATOM     90  C   UNL A   1      33.757  27.867  26.373  1.00  0.00     0.016 A 
ATOM     91  C   UNL A   1      31.830  29.164  27.019  1.00  0.00     0.016 A 
ATOM     92  C   UNL A   1      34.593  28.926  26.730  1.00  0.00     0.027 A 
ATOM     93  C   UNL A   1      32.671  30.238  27.332  1.00  0.00     0.027 A 
ATOM     94  C   UNL A   1      34.055  30.152  27.119  1.00  0.00     0.041 A 
BRANCH  94  95
ATOM     95  N   UNL A   1      34.808  31.324  27.317  1.00  0.00    -0.322 N 
ATOM     96  C   UNL A   1      35.966  31.581  28.019  1.00  0.00     0.255 C 
ATOM     97  H   UNL A   1      34.435  32.115  26.865  1.00  0.00     0.170 HD
ATOM     98  O   UNL A   1      36.343  32.745  28.164  1.00  0.00    -0.269 OA
BRANCH  96  99
ATOM     99  C   UNL A   1      36.806  30.501  28.573  1.00  0.00     0.040 A 
ATOM    100  C   UNL A   1      36.513  30.028  29.857  1.00  0.00     0.014 A 
ATOM    101  C   UNL A   1      37.873  29.957  27.847  1.00  0.00     0.014 A 
ATOM    102  C   UNL A   1      37.238  28.957  30.381  1.00  0.00     0.001 A 
ATOM    103  C   UNL A   1      38.587  28.879  28.372  1.00  0.00     0.001 A 
ATOM    104  C   UNL A   1      38.261  28.374  29.632  1.00  0.00     0.000 A 
ENDBRANCH  96  99
ENDBRANCH  94  95
ENDBRANCH  87  89
ENDBRANCH  85  87
ENDBRANCH  78  81
ENDBRANCH  76  77
ENDBRANCH   1  76
TORSDOF 18
ENDMDL
MODEL 3
REMARK VINA RESULT:     -11.9      6.151     11.603
REMARK SMILES O=C(NCCCCNC(=O)[C@H]1CCCN(C(=O)c2ccc(NC(=O)c3ccccc3)cc2)C1)c1ccc(-c2c3nc(c(-c4c(F)cc(S(=O)(=O)[O-])cc4F)c4ccc([nH]4)c(-c4c(F)cc(S(=O)(=O)[O-])cc4F)c4nc(c(-c5c(F)cc(S(=O)(=O)[O-])cc5F)c5ccc2[nH]5)C=C4)C=C3)cc1
REMARK SMILES IDX 6 1 5 2 4 3 3 4 1 5 2 6 34 8 35 9 99 10 36 11 98 12 37 13
REMARK SMILES IDX 38 14 39 15 92 16 40 17 97 18 91 19 93 20 41 21 96 22 90 23
REMARK SMILES IDX 89 24 42 26 76 27 55 28 75 29 56 30 59 31 74 32 94 33 57 34
REMARK SMILES IDX 58 35 73 37 95 38 60 39 43 40 44 41 53 42 45 43 46 44 52 45
REMARK SMILES IDX 54 46 47 47 48 48 49 49 50 50 51 51 77 52 78 53 87 54 79 55
REMARK SMILES IDX 80 56 86 57 88 58 81 59 82 60 83 61 84 62 85 63 61 64 62 65
REMARK SMILES IDX 71 66 63 67 64 68 70 69 72 70 65 71 66 72 67 73 68 74 69 75
REMARK SMILES IDX 7 76 8 77 9 78 10 80 11 81 12 82 33 83 13 84 15 85 14 86
REMARK SMILES IDX 16 87 17 88 18 89 19 90 32 91 20 92 31 93 21 94 22 95 23 96
REMARK SMILES IDX 24 98 25 99 26 100 30 101 27 102 29 103 28 104
REMARK H PARENT 3 7 93 25 59 36 8 79 22 97
REMARK Flexibility Score: inf
ROOT
ATOM      1  C   UNL A   1      38.748  24.642  26.893  1.00  0.00     0.023 C 
ENDROOT
BRANCH   1   2
ATOM      2  C   UNL A   1      39.984  24.617  25.989  1.00  0.00     0.023 C 
BRANCH   2   3
ATOM      3  C   UNL A   1      41.202  23.886  26.544  1.00  0.00     0.116 C 
BRANCH   3   4
ATOM      4  N   UNL A   1      42.450  24.306  25.930  1.00  0.00    -0.352 N 
ATOM      5  O   UNL A   1      44.223  25.636  25.528  1.00  0.00    -0.269 OA
ATOM      6  C   UNL A   1      43.261  25.370  26.246  1.00  0.00     0.251 C 
ATOM      7  H   UNL A   1      42.760  23.749  25.180  1.00  0.00     0.163 HD
BRANCH   6   8
ATOM      8  C   UNL A   1      42.958  26.213  27.424  1.00  0.00     0.039 A 
ATOM      9  C   UNL A   1      42.338  25.678  28.555  1.00  0.00     0.014 A 
ATOM     10  C   UNL A   1      43.314  27.566  27.396  1.00  0.00     0.014 A 
ATOM     11  C   UNL A   1      41.957  26.517  29.600  1.00  0.00     0.010 A 
ATOM     12  C   UNL A   1      42.994  28.393  28.475  1.00  0.00     0.010 A 
ATOM     13  C   UNL A   1      42.286  27.883  29.574  1.00  0.00    -0.014 A 
BRANCH  13  14
ATOM     14  C   UNL A   1      41.923  28.749  30.724  1.00  0.00     0.031 A 
ATOM     15  C   UNL A   1      40.706  29.632  30.677  1.00  0.00     0.074 A 
ATOM     16  C   UNL A   1      42.697  28.723  31.827  1.00  0.00     0.049 A 
ATOM     17  N   UNL A   1      40.248  30.450  31.590  1.00  0.00    -0.248 NA
ATOM     18  C   UNL A   1      39.904  29.599  29.445  1.00  0.00     0.031 C 
ATOM     19  C   UNL A   1      43.910  27.917  31.984  1.00  0.00     0.029 A 
ATOM     20  N   UNL A   1      42.580  29.382  33.023  1.00  0.00    -0.354 N 
ATOM     21  C   UNL A   1      39.116  31.043  31.040  1.00  0.00     0.074 A 
ATOM     22  C   UNL A   1      38.970  30.506  29.704  1.00  0.00     0.031 C 
ATOM     23  C   UNL A   1      44.405  28.102  33.216  1.00  0.00     0.029 A 
ATOM     24  C   UNL A   1      43.578  29.078  33.918  1.00  0.00     0.049 A 
ATOM     25  H   UNL A   1      41.850  30.011  33.224  1.00  0.00     0.167 HD
ATOM     26  C   UNL A   1      38.274  31.944  31.604  1.00  0.00     0.037 A 
ATOM     27  C   UNL A   1      43.815  29.543  35.159  1.00  0.00     0.037 A 
ATOM     28  C   UNL A   1      38.418  32.462  32.940  1.00  0.00     0.049 A 
ATOM     29  C   UNL A   1      42.873  30.549  35.755  1.00  0.00     0.074 A 
ATOM     30  C   UNL A   1      37.597  33.352  33.612  1.00  0.00     0.029 A 
ATOM     31  N   UNL A   1      39.450  32.141  33.810  1.00  0.00    -0.354 N 
ATOM     32  N   UNL A   1      41.793  31.076  35.229  1.00  0.00    -0.248 NA
ATOM     33  C   UNL A   1      43.183  31.027  37.109  1.00  0.00     0.031 C 
ATOM     34  C   UNL A   1      38.153  33.598  34.872  1.00  0.00     0.029 A 
ATOM     35  C   UNL A   1      39.299  32.828  35.003  1.00  0.00     0.049 A 
ATOM     36  H   UNL A   1      40.184  31.515  33.608  1.00  0.00     0.167 HD
ATOM     37  C   UNL A   1      41.286  31.938  36.194  1.00  0.00     0.074 A 
ATOM     38  C   UNL A   1      42.169  31.850  37.340  1.00  0.00     0.031 C 
ATOM     39  C   UNL A   1      40.187  32.731  36.135  1.00  0.00     0.037 A 
BRANCH  26  40
ATOM     40  C   UNL A   1      37.126  32.442  30.768  1.00  0.00     0.058 A 
ATOM     41  C   UNL A   1      35.899  31.763  30.720  1.00  0.00     0.135 A 
ATOM     42  C   UNL A   1      37.242  33.636  30.037  1.00  0.00     0.135 A 
ATOM     43  F   UNL A   1      35.737  30.610  31.389  1.00  0.00    -0.206 F 
ATOM     44  C   UNL A   1      34.836  32.234  29.954  1.00  0.00     0.059 A 
ATOM     45  C   UNL A   1      36.184  34.137  29.282  1.00  0.00     0.059 A 
ATOM     46  F   UNL A   1      38.393  34.327  30.049  1.00  0.00    -0.206 F 
ATOM     47  C   UNL A   1      34.991  33.420  29.234  1.00  0.00     0.060 A 
BRANCH  47  48
ATOM     48  S   UNL A   1      33.606  34.016  28.239  1.00  0.00     0.124 S 
ATOM     49  O   UNL A   1      32.792  34.686  29.248  1.00  0.00    -0.237 OA
ATOM     50  O   UNL A   1      34.265  34.892  27.275  1.00  0.00    -0.237 OA
ATOM     51  O   UNL A   1      33.036  32.794  27.684  1.00  0.00    -0.744 OA
ENDBRANCH  47  48
ENDBRANCH  26  40
BRANCH  27  52
ATOM     52  C   UNL A   1      44.997  29.052  35.912  1.00  0.00     0.058 A 
ATOM     53  C   UNL A   1      46.237  29.693  35.807  1.00  0.00     0.135 A 
ATOM     54  C   UNL A   1      44.895  27.958  36.785  1.00  0.00     0.135 A 
ATOM     55  F   UNL A   1      46.383  30.741  34.980  1.00  0.00    -0.206 F 
ATOM     56  C   UNL A   1      47.341  29.267  36.538  1.00  0.00     0.059 A 
ATOM     57  C   UNL A   1      45.976  27.528  37.546  1.00  0.00     0.059 A 
ATOM     58  F   UNL A   1      43.722  27.322  36.933  1.00  0.00    -0.206 F 
ATOM     59  C   UNL A   1      47.199  28.184  37.410  1.00  0.00     0.060 A 
BRANCH  59  60
ATOM     60  S   UNL A   1      48.616  27.680  38.408  1.00  0.00     0.124 S 
ATOM     61  O   UNL A   1      48.840  28.871  39.220  1.00  0.00    -0.237 OA
ATOM     62  O   UNL A   1      48.096  26.514  39.116  1.00  0.00    -0.237 OA
ATOM     63  O   UNL A   1      49.641  27.392  37.410  1.00  0.00    -0.744 OA
ENDBRANCH  59  60
ENDBRANCH  27  52
BRANCH  39  64
ATOM     64  C   UNL A   1      39.869  33.553  37.351  1.00  0.00     0.058 A 
ATOM     65  C   UNL A   1      40.494  34.785  37.590  1.00  0.00     0.135 A 
ATOM     66  C   UNL A   1      38.900  33.117  38.269  1.00  0.00     0.135 A 
ATOM     67  F   UNL A   1      41.434  35.241  36.747  1.00  0.00    -0.206 F 
ATOM     68  C   UNL A   1      40.184  35.551  38.709  1.00  0.00     0.059 A 
ATOM     69  C   UNL A   1      38.558  33.877  39.383  1.00  0.00     0.059 A 
ATOM     70  F   UNL A   1      38.267  31.948  38.082  1.00  0.00    -0.206 F 
ATOM     71  C   UNL A   1      39.214  35.088  39.601  1.00  0.00     0.060 A 
BRANCH  71  72
ATOM     72  S   UNL A   1      38.796  36.103  41.034  1.00  0.00     0.124 S 
ATOM     73  O   UNL A   1      37.635  35.397  41.565  1.00  0.00    -0.237 OA
ATOM     74  O   UNL A   1      40.010  36.024  41.841  1.00  0.00    -0.237 OA
ATOM     75  O   UNL A   1      38.523  37.414  40.452  1.00  0.00    -0.744 OA
ENDBRANCH  71  72
ENDBRANCH  39  64
ENDBRANCH  13  14
ENDBRANCH   6   8
ENDBRANCH   3   4
ENDBRANCH   2   3
ENDBRANCH   1   2
BRANCH   1  76
ATOM     76  C   UNL A   1      37.651  23.645  26.520  1.00  0.00     0.116 C 
BRANCH  76  77
ATOM     77  N   UNL A   1      37.416  23.603  25.090  1.00  0.00    -0.356 N 
ATOM     78  C   UNL A   1      36.441  23.159  24.275  1.00  0.00     0.224 C 
ATOM     79  H   UNL A   1      38.162  24.002  24.584  1.00  0.00     0.163 HD
ATOM     80  O   UNL A   1      36.677  23.317  23.068  1.00  0.00    -0.275 OA
BRANCH  78  81
ATOM     81  C   UNL A   1      35.094  22.564  24.686  1.00  0.00     0.098 C 
ATOM     82  C   UNL A   1      35.159  21.041  24.427  1.00  0.00     0.017 C 
ATOM     83  C   UNL A   1      34.537  22.824  26.083  1.00  0.00     0.133 C 
ATOM     84  C   UNL A   1      33.812  20.374  24.664  1.00  0.00     0.022 C 
ATOM     85  N   UNL A   1      33.255  22.130  26.298  1.00  0.00    -0.338 N 
ATOM     86  C   UNL A   1      33.286  20.688  26.056  1.00  0.00     0.120 C 
BRANCH  85  87
ATOM     87  C   UNL A   1      32.140  22.897  26.647  1.00  0.00     0.253 C 
ATOM     88  O   UNL A   1      31.715  22.987  27.798  1.00  0.00    -0.269 OA
BRANCH  87  89
ATOM     89  C   UNL A   1      31.477  23.749  25.634  1.00  0.00     0.040 A 
ATOM     90  C   UNL A   1      30.648  24.770  26.102  1.00  0.00     0.016 A 
ATOM     91  C   UNL A   1      31.635  23.565  24.261  1.00  0.00     0.016 A 
ATOM     92  C   UNL A   1      30.088  25.683  25.208  1.00  0.00     0.027 A 
ATOM     93  C   UNL A   1      31.108  24.511  23.374  1.00  0.00     0.027 A 
ATOM     94  C   UNL A   1      30.392  25.620  23.848  1.00  0.00     0.041 A 
BRANCH  94  95
ATOM     95  N   UNL A   1      30.028  26.599  22.905  1.00  0.00    -0.322 N 
ATOM     96  C   UNL A   1      30.349  27.933  22.776  1.00  0.00     0.255 C 
ATOM     97  H   UNL A   1      29.426  26.265  22.201  1.00  0.00     0.170 HD
ATOM     98  O   UNL A   1      29.765  28.619  21.935  1.00  0.00    -0.269 OA
BRANCH  96  99
ATOM     99  C   UNL A   1      31.408  28.570  23.583  1.00  0.00     0.040 A 
ATOM    100  C   UNL A   1      31.028  29.304  24.712  1.00  0.00     0.014 A 
ATOM    101  C   UNL A   1      32.761  28.454  23.239  1.00  0.00     0.014 A 
ATOM    102  C   UNL A   1      32.006  29.855  25.540  1.00  0.00     0.001 A 
ATOM    103  C   UNL A   1      33.735  28.998  24.078  1.00  0.00     0.001 A 
ATOM    104  C   UNL A   1      33.356  29.687  25.232  1.00  0.00     0.000 A 
ENDBRANCH  96  99
ENDBRANCH  94  95
ENDBRANCH  87  89
ENDBRANCH  85  87
ENDBRANCH  78  81
ENDBRANCH  76  77
ENDBRANCH   1  76
TORSDOF 18
ENDMDL
