MODEL 1
REMARK VINA RESULT:     -12.0      0.000      0.000
REMARK SMILES Cc1cc(C(=O)N[C@H](CC(C)C)C(=O)NCCCCNC(=O)c2ccc(-c3c4nc(c(-c5c(F)cc(S(=O)(=O)[O-])cc5F)c5ccc([nH]5)c(-c5c(F)cc(S(=O)(=O)[O-])cc5F)c5nc(c(-c6c(F)cc(S(=O)(=O)[O-])cc6F)c6ccc3[nH]6)C=C5)C=C4)cc2)sc1Br
REMARK SMILES IDX 18 1 17 2 16 3 15 4 13 5 14 6 8 8 7 9 5 10 6 11 4 13 1 14
REMARK SMILES IDX 2 15 3 16 90 17 89 18 91 19 9 20 10 21 11 22 12 23 19 24
REMARK SMILES IDX 20 25 21 26 22 28 23 29 24 30 88 31 25 32 87 33 26 34 27 35
REMARK SMILES IDX 28 36 81 37 29 38 86 39 80 40 82 41 30 42 85 43 79 44 78 45
REMARK SMILES IDX 31 47 65 48 44 49 64 50 45 51 48 52 63 53 83 54 46 55 47 56
REMARK SMILES IDX 62 58 84 59 49 60 32 61 33 62 42 63 34 64 35 65 41 66 43 67
REMARK SMILES IDX 36 68 37 69 38 70 39 71 40 72 66 73 67 74 76 75 68 76 69 77
REMARK SMILES IDX 75 78 77 79 70 80 71 81 72 82 73 83 74 84 50 85 51 86 60 87
REMARK SMILES IDX 52 88 53 89 59 90 61 91 54 92 55 93 56 94 57 95 58 96
REMARK H PARENT 15 7 7 12 20 27 82 46 48 57
REMARK Flexibility Score: inf
ROOT
ATOM      1  C   UNL A   1      36.860  22.758  24.597  1.00  0.00     0.023 C 
ENDROOT
BRANCH   1   2
ATOM      2  C   UNL A   1      36.106  21.424  24.686  1.00  0.00     0.023 C 
BRANCH   2   3
ATOM      3  C   UNL A   1      35.142  21.296  25.870  1.00  0.00     0.116 C 
BRANCH   3   4
ATOM      4  N   UNL A   1      34.049  20.394  25.578  1.00  0.00    -0.354 N 
ATOM      5  C   UNL A   1      32.737  20.638  25.307  1.00  0.00     0.242 C 
ATOM      6  O   UNL A   1      31.989  19.660  25.204  1.00  0.00    -0.273 OA
ATOM      7  H   UNL A   1      34.296  19.442  25.575  1.00  0.00     0.163 HD
BRANCH   5   8
ATOM      8  C   UNL A   1      32.166  22.069  25.140  1.00  0.00     0.171 C 
BRANCH   8   9
ATOM      9  N   UNL A   1      31.120  22.308  26.114  1.00  0.00    -0.340 N 
ATOM     10  C   UNL A   1      30.591  23.455  26.659  1.00  0.00     0.262 C 
ATOM     11  O   UNL A   1      29.693  23.239  27.480  1.00  0.00    -0.268 OA
ATOM     12  H   UNL A   1      30.703  21.483  26.454  1.00  0.00     0.164 HD
BRANCH  10  13
ATOM     13  C   UNL A   1      31.007  24.798  26.264  1.00  0.00     0.093 A 
ATOM     14  C   UNL A   1      33.241  27.837  26.088  1.00  0.00     0.046 C 
ATOM     15  C   UNL A   1      32.121  26.865  25.908  1.00  0.00    -0.025 A 
ATOM     16  C   UNL A   1      32.036  25.637  26.659  1.00  0.00     0.030 A 
ATOM     17  C   UNL A   1      31.038  26.967  25.068  1.00  0.00     0.074 A 
ATOM     18  S   UNL A   1      30.032  25.607  25.088  1.00  0.00    -0.123 S 
ATOM     19  Br  UNL A   1      30.655  28.446  23.972  1.00  0.00    -0.039 Br
ENDBRANCH  10  13
ENDBRANCH   8   9
BRANCH   8  20
ATOM     20  C   UNL A   1      31.884  22.485  23.681  1.00  0.00     0.038 C 
BRANCH  20  21
ATOM     21  C   UNL A   1      32.653  23.633  22.993  1.00  0.00    -0.015 C 
ATOM     22  C   UNL A   1      33.762  24.248  23.846  1.00  0.00     0.007 C 
ATOM     23  C   UNL A   1      33.276  23.090  21.697  1.00  0.00     0.007 C 
ENDBRANCH  20  21
ENDBRANCH   8  20
ENDBRANCH   5   8
ENDBRANCH   3   4
ENDBRANCH   2   3
ENDBRANCH   1   2
BRANCH   1  24
ATOM     24  C   UNL A   1      37.637  23.136  25.856  1.00  0.00     0.116 C 
BRANCH  24  25
ATOM     25  N   UNL A   1      38.690  22.175  26.175  1.00  0.00    -0.352 N 
ATOM     26  C   UNL A   1      40.020  22.436  26.427  1.00  0.00     0.251 C 
ATOM     27  H   UNL A   1      38.418  21.229  26.215  1.00  0.00     0.163 HD
ATOM     28  O   UNL A   1      40.869  21.557  26.276  1.00  0.00    -0.269 OA
BRANCH  26  29
ATOM     29  C   UNL A   1      40.408  23.779  26.886  1.00  0.00     0.039 A 
ATOM     30  C   UNL A   1      39.672  24.906  26.519  1.00  0.00     0.014 A 
ATOM     31  C   UNL A   1      41.511  23.889  27.733  1.00  0.00     0.014 A 
ATOM     32  C   UNL A   1      39.997  26.136  27.089  1.00  0.00     0.010 A 
ATOM     33  C   UNL A   1      41.764  25.081  28.374  1.00  0.00     0.010 A 
ATOM     34  C   UNL A   1      41.028  26.216  28.042  1.00  0.00    -0.014 A 
BRANCH  34  35
ATOM     35  C   UNL A   1      41.209  27.443  28.822  1.00  0.00     0.031 A 
ATOM     36  C   UNL A   1      42.334  28.305  28.347  1.00  0.00     0.074 A 
ATOM     37  C   UNL A   1      40.308  27.896  29.725  1.00  0.00     0.049 A 
ATOM     38  N   UNL A   1      43.425  28.610  28.968  1.00  0.00    -0.248 NA
ATOM     39  C   UNL A   1      42.309  28.760  26.944  1.00  0.00     0.031 C 
ATOM     40  C   UNL A   1      38.998  27.320  30.051  1.00  0.00     0.029 A 
ATOM     41  N   UNL A   1      40.314  29.044  30.461  1.00  0.00    -0.354 N 
ATOM     42  C   UNL A   1      44.104  29.498  28.134  1.00  0.00     0.074 A 
ATOM     43  C   UNL A   1      43.485  29.382  26.841  1.00  0.00     0.031 C 
ATOM     44  C   UNL A   1      38.252  28.233  30.712  1.00  0.00     0.029 A 
ATOM     45  C   UNL A   1      39.078  29.389  31.006  1.00  0.00     0.049 A 
ATOM     46  H   UNL A   1      41.126  29.585  30.596  1.00  0.00     0.167 HD
ATOM     47  C   UNL A   1      44.940  30.449  28.643  1.00  0.00     0.037 A 
ATOM     48  C   UNL A   1      38.746  30.552  31.627  1.00  0.00     0.037 A 
ATOM     49  C   UNL A   1      45.307  30.134  30.003  1.00  0.00     0.049 A 
ATOM     50  C   UNL A   1      40.014  31.201  32.040  1.00  0.00     0.074 A 
ATOM     51  C   UNL A   1      45.917  29.064  30.629  1.00  0.00     0.029 A 
ATOM     52  N   UNL A   1      44.693  30.850  31.001  1.00  0.00    -0.354 N 
ATOM     53  N   UNL A   1      40.812  30.726  32.955  1.00  0.00    -0.248 NA
ATOM     54  C   UNL A   1      40.615  32.158  31.127  1.00  0.00     0.031 C 
ATOM     55  C   UNL A   1      45.237  28.930  31.876  1.00  0.00     0.029 A 
ATOM     56  C   UNL A   1      44.308  29.966  31.973  1.00  0.00     0.049 A 
ATOM     57  H   UNL A   1      44.556  31.824  31.016  1.00  0.00     0.167 HD
ATOM     58  C   UNL A   1      42.087  30.965  32.467  1.00  0.00     0.074 A 
ATOM     59  C   UNL A   1      41.904  31.941  31.396  1.00  0.00     0.031 C 
ATOM     60  C   UNL A   1      43.126  30.137  32.788  1.00  0.00     0.037 A 
BRANCH  47  61
ATOM     61  C   UNL A   1      45.097  31.850  28.078  1.00  0.00     0.058 A 
ATOM     62  C   UNL A   1      46.382  32.294  27.693  1.00  0.00     0.135 A 
ATOM     63  C   UNL A   1      44.118  32.863  28.177  1.00  0.00     0.135 A 
ATOM     64  F   UNL A   1      47.396  31.423  27.561  1.00  0.00    -0.206 F 
ATOM     65  C   UNL A   1      46.690  33.644  27.515  1.00  0.00     0.059 A 
ATOM     66  C   UNL A   1      44.390  34.208  27.951  1.00  0.00     0.059 A 
ATOM     67  F   UNL A   1      42.868  32.622  28.589  1.00  0.00    -0.206 F 
ATOM     68  C   UNL A   1      45.688  34.596  27.665  1.00  0.00     0.060 A 
BRANCH  68  69
ATOM     69  S   UNL A   1      46.095  36.345  27.536  1.00  0.00     0.124 S 
ATOM     70  O   UNL A   1      46.356  36.476  26.108  1.00  0.00    -0.237 OA
ATOM     71  O   UNL A   1      44.873  36.975  28.025  1.00  0.00    -0.237 OA
ATOM     72  O   UNL A   1      47.256  36.483  28.408  1.00  0.00    -0.744 OA
ENDBRANCH  68  69
ENDBRANCH  47  61
BRANCH  48  73
ATOM     73  C   UNL A   1      37.451  31.286  31.646  1.00  0.00     0.058 A 
ATOM     74  C   UNL A   1      36.825  31.618  32.863  1.00  0.00     0.135 A 
ATOM     75  C   UNL A   1      36.960  31.942  30.500  1.00  0.00     0.135 A 
ATOM     76  F   UNL A   1      37.232  31.050  34.009  1.00  0.00    -0.206 F 
ATOM     77  C   UNL A   1      35.827  32.595  32.951  1.00  0.00     0.059 A 
ATOM     78  C   UNL A   1      35.958  32.912  30.561  1.00  0.00     0.059 A 
ATOM     79  F   UNL A   1      37.512  31.734  29.296  1.00  0.00    -0.206 F 
ATOM     80  C   UNL A   1      35.419  33.259  31.795  1.00  0.00     0.060 A 
BRANCH  80  81
ATOM     81  S   UNL A   1      34.289  34.666  31.933  1.00  0.00     0.124 S 
ATOM     82  O   UNL A   1      35.099  35.635  32.664  1.00  0.00    -0.237 OA
ATOM     83  O   UNL A   1      34.024  34.986  30.534  1.00  0.00    -0.237 OA
ATOM     84  O   UNL A   1      33.153  34.118  32.668  1.00  0.00    -0.744 OA
ENDBRANCH  80  81
ENDBRANCH  48  73
BRANCH  60  85
ATOM     85  C   UNL A   1      42.954  29.199  33.955  1.00  0.00     0.058 A 
ATOM     86  C   UNL A   1      43.137  29.540  35.308  1.00  0.00     0.135 A 
ATOM     87  C   UNL A   1      42.472  27.909  33.682  1.00  0.00     0.135 A 
ATOM     88  F   UNL A   1      43.486  30.783  35.668  1.00  0.00    -0.206 F 
ATOM     89  C   UNL A   1      42.913  28.618  36.334  1.00  0.00     0.059 A 
ATOM     90  C   UNL A   1      42.206  26.987  34.690  1.00  0.00     0.059 A 
ATOM     91  F   UNL A   1      42.215  27.539  32.417  1.00  0.00    -0.206 F 
ATOM     92  C   UNL A   1      42.452  27.341  36.014  1.00  0.00     0.060 A 
BRANCH  92  93
ATOM     93  S   UNL A   1      42.129  26.159  37.338  1.00  0.00     0.124 S 
ATOM     94  O   UNL A   1      43.146  26.513  38.322  1.00  0.00    -0.237 OA
ATOM     95  O   UNL A   1      40.751  26.466  37.711  1.00  0.00    -0.237 OA
ATOM     96  O   UNL A   1      42.314  24.861  36.692  1.00  0.00    -0.744 OA
ENDBRANCH  92  93
ENDBRANCH  60  85
ENDBRANCH  34  35
ENDBRANCH  26  29
ENDBRANCH  24  25
ENDBRANCH   1  24
TORSDOF 18
ENDMDL
MODEL 2
REMARK VINA RESULT:     -11.8      2.258      3.152
REMARK SMILES Cc1cc(C(=O)N[C@H](CC(C)C)C(=O)NCCCCNC(=O)c2ccc(-c3c4nc(c(-c5c(F)cc(S(=O)(=O)[O-])cc5F)c5ccc([nH]5)c(-c5c(F)cc(S(=O)(=O)[O-])cc5F)c5nc(c(-c6c(F)cc(S(=O)(=O)[O-])cc6F)c6ccc3[nH]6)C=C5)C=C4)cc2)sc1Br
REMARK SMILES IDX 18 1 17 2 16 3 15 4 13 5 14 6 8 8 7 9 5 10 6 11 4 13 1 14
REMARK SMILES IDX 2 15 3 16 90 17 89 18 91 19 9 20 10 21 11 22 12 23 19 24
REMARK SMILES IDX 20 25 21 26 22 28 23 29 24 30 88 31 25 32 87 33 26 34 27 35
REMARK SMILES IDX 28 36 81 37 29 38 86 39 80 40 82 41 30 42 85 43 79 44 78 45
REMARK SMILES IDX 31 47 65 48 44 49 64 50 45 51 48 52 63 53 83 54 46 55 47 56
REMARK SMILES IDX 62 58 84 59 49 60 32 61 33 62 42 63 34 64 35 65 41 66 43 67
REMARK SMILES IDX 36 68 37 69 38 70 39 71 40 72 66 73 67 74 76 75 68 76 69 77
REMARK SMILES IDX 75 78 77 79 70 80 71 81 72 82 73 83 74 84 50 85 51 86 60 87
REMARK SMILES IDX 52 88 53 89 59 90 61 91 54 92 55 93 56 94 57 95 58 96
REMARK H PARENT 15 7 7 12 20 27 82 46 48 57
REMARK Flexibility Score: inf
ROOT
ATOM      1  C   UNL A   1      40.553  20.362  26.436  1.00  0.00     0.023 C 
ENDROOT
BRANCH   1   2
ATOM      2  C   UNL A   1      39.989  21.779  26.612  1.00  0.00     0.023 C 
BRANCH   2   3
ATOM      3  C   UNL A   1      38.698  22.068  25.840  1.00  0.00     0.116 C 
BRANCH   3   4
ATOM      4  N   UNL A   1      38.054  20.851  25.394  1.00  0.00    -0.354 N 
ATOM      5  C   UNL A   1      36.746  20.578  25.132  1.00  0.00     0.242 C 
ATOM      6  O   UNL A   1      36.455  19.406  24.869  1.00  0.00    -0.273 OA
ATOM      7  H   UNL A   1      38.665  20.093  25.256  1.00  0.00     0.163 HD
BRANCH   5   8
ATOM      8  C   UNL A   1      35.639  21.661  25.163  1.00  0.00     0.171 C 
BRANCH   8   9
ATOM      9  N   UNL A   1      35.090  21.778  26.500  1.00  0.00    -0.340 N 
ATOM     10  C   UNL A   1      34.295  22.723  27.108  1.00  0.00     0.262 C 
ATOM     11  O   UNL A   1      34.039  22.462  28.288  1.00  0.00    -0.268 OA
ATOM     12  H   UNL A   1      35.335  21.031  27.093  1.00  0.00     0.164 HD
BRANCH  10  13
ATOM     13  C   UNL A   1      33.757  23.888  26.411  1.00  0.00     0.093 A 
ATOM     14  C   UNL A   1      33.803  26.942  24.191  1.00  0.00     0.046 C 
ATOM     15  C   UNL A   1      33.384  25.830  25.097  1.00  0.00    -0.025 A 
ATOM     16  C   UNL A   1      34.333  24.938  25.716  1.00  0.00     0.030 A 
ATOM     17  C   UNL A   1      32.111  25.493  25.491  1.00  0.00     0.074 A 
ATOM     18  S   UNL A   1      32.043  24.105  26.456  1.00  0.00    -0.123 S 
ATOM     19  Br  UNL A   1      30.552  26.438  25.033  1.00  0.00    -0.039 Br
ENDBRANCH  10  13
ENDBRANCH   8   9
BRANCH   8  20
ATOM     20  C   UNL A   1      34.638  21.596  23.990  1.00  0.00     0.038 C 
BRANCH  20  21
ATOM     21  C   UNL A   1      33.158  21.209  24.196  1.00  0.00    -0.015 C 
ATOM     22  C   UNL A   1      32.209  21.764  23.135  1.00  0.00     0.007 C 
ATOM     23  C   UNL A   1      33.053  19.675  24.194  1.00  0.00     0.007 C 
ENDBRANCH  20  21
ENDBRANCH   8  20
ENDBRANCH   5   8
ENDBRANCH   3   4
ENDBRANCH   2   3
ENDBRANCH   1   2
BRANCH   1  24
ATOM     24  C   UNL A   1      41.890  20.118  27.130  1.00  0.00     0.116 C 
BRANCH  24  25
ATOM     25  N   UNL A   1      42.973  19.851  26.185  1.00  0.00    -0.352 N 
ATOM     26  C   UNL A   1      43.672  20.765  25.425  1.00  0.00     0.251 C 
ATOM     27  H   UNL A   1      43.235  18.908  26.079  1.00  0.00     0.163 HD
ATOM     28  O   UNL A   1      44.249  20.411  24.397  1.00  0.00    -0.269 OA
BRANCH  26  29
ATOM     29  C   UNL A   1      43.723  22.168  25.866  1.00  0.00     0.039 A 
ATOM     30  C   UNL A   1      42.979  23.154  25.216  1.00  0.00     0.014 A 
ATOM     31  C   UNL A   1      44.504  22.478  26.978  1.00  0.00     0.014 A 
ATOM     32  C   UNL A   1      42.954  24.440  25.754  1.00  0.00     0.010 A 
ATOM     33  C   UNL A   1      44.396  23.718  27.567  1.00  0.00     0.010 A 
ATOM     34  C   UNL A   1      43.641  24.713  26.950  1.00  0.00    -0.014 A 
BRANCH  34  35
ATOM     35  C   UNL A   1      43.418  25.981  27.649  1.00  0.00     0.031 A 
ATOM     36  C   UNL A   1      44.450  27.024  27.361  1.00  0.00     0.074 A 
ATOM     37  C   UNL A   1      42.269  26.289  28.293  1.00  0.00     0.049 A 
ATOM     38  N   UNL A   1      45.299  27.556  28.177  1.00  0.00    -0.248 NA
ATOM     39  C   UNL A   1      44.667  27.410  25.954  1.00  0.00     0.031 C 
ATOM     40  C   UNL A   1      41.043  25.487  28.372  1.00  0.00     0.029 A 
ATOM     41  N   UNL A   1      41.903  27.445  28.917  1.00  0.00    -0.354 N 
ATOM     42  C   UNL A   1      45.982  28.524  27.442  1.00  0.00     0.074 A 
ATOM     43  C   UNL A   1      45.707  28.241  26.059  1.00  0.00     0.031 C 
ATOM     44  C   UNL A   1      40.015  26.265  28.778  1.00  0.00     0.029 A 
ATOM     45  C   UNL A   1      40.533  27.569  29.150  1.00  0.00     0.049 A 
ATOM     46  H   UNL A   1      42.552  28.136  29.181  1.00  0.00     0.167 HD
ATOM     47  C   UNL A   1      46.497  29.636  28.042  1.00  0.00     0.037 A 
ATOM     48  C   UNL A   1      39.867  28.670  29.587  1.00  0.00     0.037 A 
ATOM     49  C   UNL A   1      46.592  29.451  29.469  1.00  0.00     0.049 A 
ATOM     50  C   UNL A   1      40.871  29.565  30.212  1.00  0.00     0.074 A 
ATOM     51  C   UNL A   1      47.223  28.542  30.298  1.00  0.00     0.029 A 
ATOM     52  N   UNL A   1      45.650  30.075  30.249  1.00  0.00    -0.354 N 
ATOM     53  N   UNL A   1      41.510  29.288  31.315  1.00  0.00    -0.248 NA
ATOM     54  C   UNL A   1      41.485  30.583  29.376  1.00  0.00     0.031 C 
ATOM     55  C   UNL A   1      46.310  28.330  31.374  1.00  0.00     0.029 A 
ATOM     56  C   UNL A   1      45.215  29.173  31.182  1.00  0.00     0.049 A 
ATOM     57  H   UNL A   1      45.342  31.005  30.154  1.00  0.00     0.167 HD
ATOM     58  C   UNL A   1      42.799  29.748  31.098  1.00  0.00     0.074 A 
ATOM     59  C   UNL A   1      42.696  30.628  29.937  1.00  0.00     0.031 C 
ATOM     60  C   UNL A   1      43.867  29.146  31.704  1.00  0.00     0.037 A 
BRANCH  47  61
ATOM     61  C   UNL A   1      46.528  31.018  27.412  1.00  0.00     0.058 A 
ATOM     62  C   UNL A   1      47.717  31.778  27.487  1.00  0.00     0.135 A 
ATOM     63  C   UNL A   1      45.380  31.738  27.013  1.00  0.00     0.135 A 
ATOM     64  F   UNL A   1      48.875  31.205  27.851  1.00  0.00    -0.206 F 
ATOM     65  C   UNL A   1      47.742  33.158  27.275  1.00  0.00     0.059 A 
ATOM     66  C   UNL A   1      45.394  33.102  26.745  1.00  0.00     0.059 A 
ATOM     67  F   UNL A   1      44.165  31.182  26.952  1.00  0.00    -0.206 F 
ATOM     68  C   UNL A   1      46.567  33.814  26.923  1.00  0.00     0.060 A 
BRANCH  68  69
ATOM     69  S   UNL A   1      46.568  35.606  26.746  1.00  0.00     0.124 S 
ATOM     70  O   UNL A   1      45.139  35.891  26.691  1.00  0.00    -0.237 OA
ATOM     71  O   UNL A   1      47.259  36.027  27.960  1.00  0.00    -0.237 OA
ATOM     72  O   UNL A   1      47.305  35.819  25.506  1.00  0.00    -0.744 OA
ENDBRANCH  68  69
ENDBRANCH  47  61
BRANCH  48  73
ATOM     73  C   UNL A   1      38.493  29.144  29.264  1.00  0.00     0.058 A 
ATOM     74  C   UNL A   1      37.572  29.444  30.286  1.00  0.00     0.135 A 
ATOM     75  C   UNL A   1      38.157  29.603  27.975  1.00  0.00     0.135 A 
ATOM     76  F   UNL A   1      37.812  29.055  31.547  1.00  0.00    -0.206 F 
ATOM     77  C   UNL A   1      36.428  30.217  30.060  1.00  0.00     0.059 A 
ATOM     78  C   UNL A   1      37.015  30.366  27.723  1.00  0.00     0.059 A 
ATOM     79  F   UNL A   1      38.984  29.411  26.936  1.00  0.00    -0.206 F 
ATOM     80  C   UNL A   1      36.172  30.699  28.778  1.00  0.00     0.060 A 
BRANCH  80  81
ATOM     81  S   UNL A   1      34.817  31.872  28.525  1.00  0.00     0.124 S 
ATOM     82  O   UNL A   1      34.558  32.335  29.883  1.00  0.00    -0.237 OA
ATOM     83  O   UNL A   1      35.419  32.849  27.624  1.00  0.00    -0.237 OA
ATOM     84  O   UNL A   1      33.764  31.051  27.932  1.00  0.00    -0.744 OA
ENDBRANCH  80  81
ENDBRANCH  48  73
BRANCH  60  85
ATOM     85  C   UNL A   1      43.601  28.239  32.878  1.00  0.00     0.058 A 
ATOM     86  C   UNL A   1      43.519  26.836  32.820  1.00  0.00     0.135 A 
ATOM     87  C   UNL A   1      43.531  28.830  34.149  1.00  0.00     0.135 A 
ATOM     88  F   UNL A   1      43.688  26.179  31.664  1.00  0.00    -0.206 F 
ATOM     89  C   UNL A   1      43.313  26.065  33.966  1.00  0.00     0.059 A 
ATOM     90  C   UNL A   1      43.363  28.079  35.308  1.00  0.00     0.059 A 
ATOM     91  F   UNL A   1      43.665  30.160  34.282  1.00  0.00    -0.206 F 
ATOM     92  C   UNL A   1      43.231  26.698  35.207  1.00  0.00     0.060 A 
BRANCH  92  93
ATOM     93  S   UNL A   1      42.998  25.703  36.695  1.00  0.00     0.124 S 
ATOM     94  O   UNL A   1      42.009  24.724  36.259  1.00  0.00    -0.237 OA
ATOM     95  O   UNL A   1      44.340  25.181  36.943  1.00  0.00    -0.237 OA
ATOM     96  O   UNL A   1      42.524  26.670  37.682  1.00  0.00    -0.744 OA
ENDBRANCH  92  93
ENDBRANCH  60  85
ENDBRANCH  34  35
ENDBRANCH  26  29
ENDBRANCH  24  25
ENDBRANCH   1  24
TORSDOF 18
ENDMDL
MODEL 3
REMARK VINA RESULT:     -11.6      2.607      3.718
REMARK SMILES Cc1cc(C(=O)N[C@H](CC(C)C)C(=O)NCCCCNC(=O)c2ccc(-c3c4nc(c(-c5c(F)cc(S(=O)(=O)[O-])cc5F)c5ccc([nH]5)c(-c5c(F)cc(S(=O)(=O)[O-])cc5F)c5nc(c(-c6c(F)cc(S(=O)(=O)[O-])cc6F)c6ccc3[nH]6)C=C5)C=C4)cc2)sc1Br
REMARK SMILES IDX 18 1 17 2 16 3 15 4 13 5 14 6 8 8 7 9 5 10 6 11 4 13 1 14
REMARK SMILES IDX 2 15 3 16 90 17 89 18 91 19 9 20 10 21 11 22 12 23 19 24
REMARK SMILES IDX 20 25 21 26 22 28 23 29 24 30 88 31 25 32 87 33 26 34 27 35
REMARK SMILES IDX 28 36 81 37 29 38 86 39 80 40 82 41 30 42 85 43 79 44 78 45
REMARK SMILES IDX 31 47 65 48 44 49 64 50 45 51 48 52 63 53 83 54 46 55 47 56
REMARK SMILES IDX 62 58 84 59 49 60 32 61 33 62 42 63 34 64 35 65 41 66 43 67
REMARK SMILES IDX 36 68 37 69 38 70 39 71 40 72 66 73 67 74 76 75 68 76 69 77
REMARK SMILES IDX 75 78 77 79 70 80 71 81 72 82 73 83 74 84 50 85 51 86 60 87
REMARK SMILES IDX 52 88 53 89 59 90 61 91 54 92 55 93 56 94 57 95 58 96
REMARK H PARENT 15 7 7 12 20 27 82 46 48 57
REMARK Flexibility Score: inf
ROOT
ATOM      1  C   UNL A   1      40.674  20.963  26.370  1.00  0.00     0.023 C 
ENDROOT
BRANCH   1   2
ATOM      2  C   UNL A   1      40.197  22.204  27.138  1.00  0.00     0.023 C 
BRANCH   2   3
ATOM      3  C   UNL A   1      39.057  22.983  26.476  1.00  0.00     0.116 C 
BRANCH   3   4
ATOM      4  N   UNL A   1      38.358  22.183  25.493  1.00  0.00    -0.354 N 
ATOM      5  C   UNL A   1      37.064  22.215  25.071  1.00  0.00     0.242 C 
ATOM      6  O   UNL A   1      36.702  21.331  24.287  1.00  0.00    -0.273 OA
ATOM      7  H   UNL A   1      38.914  21.500  25.053  1.00  0.00     0.163 HD
BRANCH   5   8
ATOM      8  C   UNL A   1      36.055  23.293  25.539  1.00  0.00     0.171 C 
BRANCH   8   9
ATOM      9  N   UNL A   1      35.258  22.788  26.640  1.00  0.00    -0.340 N 
ATOM     10  C   UNL A   1      34.162  21.958  26.701  1.00  0.00     0.262 C 
ATOM     11  O   UNL A   1      33.759  21.762  27.852  1.00  0.00    -0.268 OA
ATOM     12  H   UNL A   1      35.563  23.101  27.522  1.00  0.00     0.164 HD
BRANCH  10  13
ATOM     13  C   UNL A   1      33.570  21.321  25.527  1.00  0.00     0.093 A 
ATOM     14  C   UNL A   1      31.885  21.126  22.153  1.00  0.00     0.046 C 
ATOM     15  C   UNL A   1      32.541  20.792  23.453  1.00  0.00    -0.025 A 
ATOM     16  C   UNL A   1      32.842  21.792  24.447  1.00  0.00     0.030 A 
ATOM     17  C   UNL A   1      32.931  19.556  23.912  1.00  0.00     0.074 A 
ATOM     18  S   UNL A   1      33.726  19.605  25.404  1.00  0.00    -0.123 S 
ATOM     19  Br  UNL A   1      32.643  17.930  23.013  1.00  0.00    -0.039 Br
ENDBRANCH  10  13
ENDBRANCH   8   9
BRANCH   8  20
ATOM     20  C   UNL A   1      35.309  24.019  24.399  1.00  0.00     0.038 C 
BRANCH  20  21
ATOM     21  C   UNL A   1      34.083  24.917  24.664  1.00  0.00    -0.015 C 
ATOM     22  C   UNL A   1      34.336  26.052  25.656  1.00  0.00     0.007 C 
ATOM     23  C   UNL A   1      33.631  25.527  23.327  1.00  0.00     0.007 C 
ENDBRANCH  20  21
ENDBRANCH   8  20
ENDBRANCH   5   8
ENDBRANCH   3   4
ENDBRANCH   2   3
ENDBRANCH   1   2
BRANCH   1  24
ATOM     24  C   UNL A   1      41.796  20.185  27.052  1.00  0.00     0.116 C 
BRANCH  24  25
ATOM     25  N   UNL A   1      42.899  19.878  26.144  1.00  0.00    -0.352 N 
ATOM     26  C   UNL A   1      43.654  20.765  25.405  1.00  0.00     0.251 C 
ATOM     27  H   UNL A   1      43.131  18.926  26.048  1.00  0.00     0.163 HD
ATOM     28  O   UNL A   1      44.252  20.388  24.397  1.00  0.00    -0.269 OA
BRANCH  26  29
ATOM     29  C   UNL A   1      43.739  22.166  25.845  1.00  0.00     0.039 A 
ATOM     30  C   UNL A   1      43.074  23.180  25.153  1.00  0.00     0.014 A 
ATOM     31  C   UNL A   1      44.470  22.449  26.998  1.00  0.00     0.014 A 
ATOM     32  C   UNL A   1      43.073  24.468  25.685  1.00  0.00     0.010 A 
ATOM     33  C   UNL A   1      44.382  23.695  27.577  1.00  0.00     0.010 A 
ATOM     34  C   UNL A   1      43.704  24.717  26.917  1.00  0.00    -0.014 A 
BRANCH  34  35
ATOM     35  C   UNL A   1      43.497  25.997  27.599  1.00  0.00     0.031 A 
ATOM     36  C   UNL A   1      44.531  27.029  27.284  1.00  0.00     0.074 A 
ATOM     37  C   UNL A   1      42.357  26.321  28.253  1.00  0.00     0.049 A 
ATOM     38  N   UNL A   1      45.392  27.569  28.083  1.00  0.00    -0.248 NA
ATOM     39  C   UNL A   1      44.734  27.394  25.869  1.00  0.00     0.031 C 
ATOM     40  C   UNL A   1      41.127  25.527  28.358  1.00  0.00     0.029 A 
ATOM     41  N   UNL A   1      42.004  27.488  28.863  1.00  0.00    -0.354 N 
ATOM     42  C   UNL A   1      46.072  28.522  27.325  1.00  0.00     0.074 A 
ATOM     43  C   UNL A   1      45.779  28.220  25.950  1.00  0.00     0.031 C 
ATOM     44  C   UNL A   1      40.109  26.317  28.765  1.00  0.00     0.029 A 
ATOM     45  C   UNL A   1      40.639  27.623  29.111  1.00  0.00     0.049 A 
ATOM     46  H   UNL A   1      42.661  28.179  29.110  1.00  0.00     0.167 HD
ATOM     47  C   UNL A   1      46.600  29.640  27.902  1.00  0.00     0.037 A 
ATOM     48  C   UNL A   1      39.983  28.734  29.539  1.00  0.00     0.037 A 
ATOM     49  C   UNL A   1      46.711  29.475  29.331  1.00  0.00     0.049 A 
ATOM     50  C   UNL A   1      41.000  29.633  30.139  1.00  0.00     0.074 A 
ATOM     51  C   UNL A   1      47.346  28.576  30.165  1.00  0.00     0.029 A 
ATOM     52  N   UNL A   1      45.781  30.116  30.112  1.00  0.00    -0.354 N 
ATOM     53  N   UNL A   1      41.650  29.368  31.238  1.00  0.00    -0.248 NA
ATOM     54  C   UNL A   1      41.609  30.635  29.281  1.00  0.00     0.031 C 
ATOM     55  C   UNL A   1      46.446  28.384  31.255  1.00  0.00     0.029 A 
ATOM     56  C   UNL A   1      45.352  29.230  31.064  1.00  0.00     0.049 A 
ATOM     57  H   UNL A   1      45.478  31.046  30.007  1.00  0.00     0.167 HD
ATOM     58  C   UNL A   1      42.939  29.817  30.999  1.00  0.00     0.074 A 
ATOM     59  C   UNL A   1      42.826  30.681  29.827  1.00  0.00     0.031 C 
ATOM     60  C   UNL A   1      44.010  29.219  31.601  1.00  0.00     0.037 A 
BRANCH  47  61
ATOM     61  C   UNL A   1      46.631  31.012  27.252  1.00  0.00     0.058 A 
ATOM     62  C   UNL A   1      47.839  31.744  27.255  1.00  0.00     0.135 A 
ATOM     63  C   UNL A   1      45.481  31.754  26.901  1.00  0.00     0.135 A 
ATOM     64  F   UNL A   1      49.001  31.148  27.568  1.00  0.00    -0.206 F 
ATOM     65  C   UNL A   1      47.886  33.121  27.022  1.00  0.00     0.059 A 
ATOM     66  C   UNL A   1      45.513  33.115  26.613  1.00  0.00     0.059 A 
ATOM     67  F   UNL A   1      44.252  31.228  26.910  1.00  0.00    -0.206 F 
ATOM     68  C   UNL A   1      46.711  33.800  26.721  1.00  0.00     0.060 A 
BRANCH  68  69
ATOM     69  S   UNL A   1      46.744  35.589  26.518  1.00  0.00     0.124 S 
ATOM     70  O   UNL A   1      47.722  35.740  25.448  1.00  0.00    -0.237 OA
ATOM     71  O   UNL A   1      45.358  35.877  26.165  1.00  0.00    -0.237 OA
ATOM     72  O   UNL A   1      47.162  36.066  27.831  1.00  0.00    -0.744 OA
ENDBRANCH  68  69
ENDBRANCH  47  61
BRANCH  48  73
ATOM     73  C   UNL A   1      38.608  29.211  29.225  1.00  0.00     0.058 A 
ATOM     74  C   UNL A   1      37.725  29.600  30.251  1.00  0.00     0.135 A 
ATOM     75  C   UNL A   1      38.240  29.585  27.918  1.00  0.00     0.135 A 
ATOM     76  F   UNL A   1      37.999  29.295  31.529  1.00  0.00    -0.206 F 
ATOM     77  C   UNL A   1      36.588  30.377  30.006  1.00  0.00     0.059 A 
ATOM     78  C   UNL A   1      37.104  30.350  27.648  1.00  0.00     0.059 A 
ATOM     79  F   UNL A   1      39.030  29.305  26.871  1.00  0.00    -0.206 F 
ATOM     80  C   UNL A   1      36.300  30.773  28.702  1.00  0.00     0.060 A 
BRANCH  80  81
ATOM     81  S   UNL A   1      34.958  31.951  28.407  1.00  0.00     0.124 S 
ATOM     82  O   UNL A   1      35.639  33.008  27.668  1.00  0.00    -0.237 OA
ATOM     83  O   UNL A   1      34.007  31.152  27.643  1.00  0.00    -0.237 OA
ATOM     84  O   UNL A   1      34.521  32.311  29.754  1.00  0.00    -0.744 OA
ENDBRANCH  80  81
ENDBRANCH  48  73
BRANCH  60  85
ATOM     85  C   UNL A   1      43.754  28.331  32.792  1.00  0.00     0.058 A 
ATOM     86  C   UNL A   1      43.590  26.934  32.745  1.00  0.00     0.135 A 
ATOM     87  C   UNL A   1      43.781  28.928  34.062  1.00  0.00     0.135 A 
ATOM     88  F   UNL A   1      43.664  26.267  31.585  1.00  0.00    -0.206 F 
ATOM     89  C   UNL A   1      43.399  26.179  33.904  1.00  0.00     0.059 A 
ATOM     90  C   UNL A   1      43.630  28.190  35.232  1.00  0.00     0.059 A 
ATOM     91  F   UNL A   1      43.996  30.248  34.182  1.00  0.00    -0.206 F 
ATOM     92  C   UNL A   1      43.416  26.818  35.145  1.00  0.00     0.060 A 
BRANCH  92  93
ATOM     93  S   UNL A   1      43.203  25.840  36.647  1.00  0.00     0.124 S 
ATOM     94  O   UNL A   1      42.376  26.717  37.469  1.00  0.00    -0.237 OA
ATOM     95  O   UNL A   1      42.549  24.632  36.152  1.00  0.00    -0.237 OA
ATOM     96  O   UNL A   1      44.570  25.647  37.125  1.00  0.00    -0.744 OA
ENDBRANCH  92  93
ENDBRANCH  60  85
ENDBRANCH  34  35
ENDBRANCH  26  29
ENDBRANCH  24  25
ENDBRANCH   1  24
TORSDOF 18
ENDMDL
