MODEL 1
REMARK VINA RESULT:     -15.6      0.000      0.000
REMARK SMILES Cc1cccc(-c2ncc(C[NH+]3CCC4(CC3)NC(=O)C[C@H]4C(=O)NCCCCNC(=O)c3ccc(-c4c5nc(c(-c6c(F)cc(S(=O)(=O)[O-])cc6F)c6ccc([nH]6)c(-c6c(F)cc(S(=O)(=O)[O-])cc6F)c6nc(c(-c7c(F)cc(S(=O)(=O)[O-])cc7F)c7ccc4[nH]7)C=C6)C=C5)cc3)cn2)c1
REMARK SMILES IDX 27 1 26 2 25 3 23 4 24 5 22 7 12 8 13 9 17 10 14 12 16 13
REMARK SMILES IDX 15 14 18 15 19 16 21 18 20 19 11 20 10 21 7 22 8 23 100 24
REMARK SMILES IDX 9 25 99 26 6 27 1 28 2 29 3 30 101 31 4 32 5 33 28 34 29 35
REMARK SMILES IDX 30 36 31 37 32 39 33 40 34 41 98 42 35 43 97 44 36 45 37 46
REMARK SMILES IDX 38 47 91 48 39 49 96 50 90 51 92 52 40 53 95 54 89 55 88 56
REMARK SMILES IDX 41 58 75 59 54 60 74 61 55 62 58 63 73 64 93 65 56 66 57 67
REMARK SMILES IDX 72 69 94 70 59 71 42 72 43 73 52 74 44 75 45 76 51 77 53 78
REMARK SMILES IDX 46 79 47 80 48 81 49 82 50 83 76 84 77 85 86 86 78 87 79 88
REMARK SMILES IDX 85 89 87 90 80 91 81 92 82 93 83 94 84 95 60 96 61 97 70 98
REMARK SMILES IDX 62 99 63 100 69 101 71 102 64 103 65 104 66 105 67 106
REMARK SMILES IDX 68 107
REMARK H PARENT 25 6 12 11 18 17 30 38 92 57 58 68
REMARK Flexibility Score: inf
ROOT
ATOM      1  C   UNL A   1      31.925  29.380  26.819  1.00  0.00     0.023 C 
ENDROOT
BRANCH   1   2
ATOM      2  C   UNL A   1      31.874  30.407  25.671  1.00  0.00     0.116 C 
BRANCH   2   3
ATOM      3  N   UNL A   1      31.318  29.943  24.395  1.00  0.00    -0.356 N 
ATOM      4  C   UNL A   1      31.538  28.896  23.558  1.00  0.00     0.226 C 
ATOM      5  O   UNL A   1      30.779  28.811  22.581  1.00  0.00    -0.275 OA
ATOM      6  H   UNL A   1      30.609  30.540  24.063  1.00  0.00     0.163 HD
BRANCH   4   7
ATOM      7  C   UNL A   1      32.667  27.865  23.675  1.00  0.00     0.114 C 
ATOM      8  N   UNL A   1      31.783  25.128  26.713  1.00  0.00    -0.331 N 
ATOM      9  C   UNL A   1      33.157  25.307  26.274  1.00  0.00     0.264 C 
ATOM     10  C   UNL A   1      30.950  26.227  26.259  1.00  0.00     0.264 C 
ATOM     11  H   UNL A   1      31.834  25.183  27.730  1.00  0.00     0.348 HD
ATOM     12  C   UNL A   1      33.379  25.633  24.794  1.00  0.00     0.091 C 
ATOM     13  C   UNL A   1      30.898  26.336  24.746  1.00  0.00     0.091 C 
ATOM     14  C   UNL A   1      32.261  26.420  24.039  1.00  0.00     0.063 C 
ATOM     15  N   UNL A   1      32.231  25.824  22.710  1.00  0.00    -0.349 N 
ATOM     16  C   UNL A   1      33.055  26.453  21.803  1.00  0.00     0.221 C 
ATOM     17  H   UNL A   1      31.674  25.045  22.482  1.00  0.00     0.164 HD
ATOM     18  C   UNL A   1      33.492  27.766  22.388  1.00  0.00     0.116 C 
ATOM     19  O   UNL A   1      33.387  26.001  20.723  1.00  0.00    -0.275 OA
BRANCH   8  20
ATOM     20  C   UNL A   1      31.188  23.780  26.676  1.00  0.00     0.302 C 
BRANCH  20  21
ATOM     21  C   UNL A   1      31.950  22.692  25.981  1.00  0.00     0.043 A 
ATOM     22  C   UNL A   1      32.961  20.436  24.836  1.00  0.00     0.159 A 
ATOM     23  N   UNL A   1      32.176  21.237  24.087  1.00  0.00    -0.236 NA
ATOM     24  N   UNL A   1      33.368  20.741  26.084  1.00  0.00    -0.236 NA
ATOM     25  C   UNL A   1      31.727  22.364  24.665  1.00  0.00     0.124 A 
ATOM     26  C   UNL A   1      32.847  21.862  26.630  1.00  0.00     0.124 A 
BRANCH  22  27
ATOM     27  C   UNL A   1      33.235  19.088  24.314  1.00  0.00     0.019 A 
ATOM     28  C   UNL A   1      35.370  16.067  25.292  1.00  0.00     0.044 C 
ATOM     29  C   UNL A   1      34.405  16.931  24.536  1.00  0.00    -0.050 A 
ATOM     30  C   UNL A   1      33.844  16.513  23.331  1.00  0.00     0.003 A 
ATOM     31  C   UNL A   1      34.075  18.202  25.025  1.00  0.00     0.015 A 
ATOM     32  C   UNL A   1      33.011  17.366  22.607  1.00  0.00     0.001 A 
ATOM     33  C   UNL A   1      32.720  18.646  23.086  1.00  0.00     0.012 A 
ENDBRANCH  22  27
ENDBRANCH  20  21
ENDBRANCH   8  20
ENDBRANCH   4   7
ENDBRANCH   2   3
ENDBRANCH   1   2
BRANCH   1  34
ATOM     34  C   UNL A   1      33.192  29.383  27.681  1.00  0.00     0.023 C 
BRANCH  34  35
ATOM     35  C   UNL A   1      34.412  29.889  26.927  1.00  0.00     0.116 C 
BRANCH  35  36
ATOM     36  N   UNL A   1      35.074  31.043  27.523  1.00  0.00    -0.352 N 
ATOM     37  C   UNL A   1      36.228  31.034  28.300  1.00  0.00     0.251 C 
ATOM     38  H   UNL A   1      34.661  31.922  27.359  1.00  0.00     0.163 HD
ATOM     39  O   UNL A   1      36.604  32.002  28.936  1.00  0.00    -0.269 OA
BRANCH  37  40
ATOM     40  C   UNL A   1      37.041  29.800  28.242  1.00  0.00     0.039 A 
ATOM     41  C   UNL A   1      37.144  29.050  29.420  1.00  0.00     0.014 A 
ATOM     42  C   UNL A   1      37.945  29.633  27.197  1.00  0.00     0.014 A 
ATOM     43  C   UNL A   1      38.283  28.283  29.642  1.00  0.00     0.010 A 
ATOM     44  C   UNL A   1      39.116  28.951  27.459  1.00  0.00     0.010 A 
ATOM     45  C   UNL A   1      39.306  28.321  28.700  1.00  0.00    -0.014 A 
BRANCH  45  46
ATOM     46  C   UNL A   1      40.636  27.764  28.920  1.00  0.00     0.031 A 
ATOM     47  C   UNL A   1      40.891  26.352  28.567  1.00  0.00     0.074 A 
ATOM     48  C   UNL A   1      41.648  28.562  29.327  1.00  0.00     0.049 A 
ATOM     49  N   UNL A   1      41.931  25.676  28.917  1.00  0.00    -0.248 NA
ATOM     50  C   UNL A   1      39.925  25.562  27.815  1.00  0.00     0.031 C 
ATOM     51  C   UNL A   1      43.079  28.284  29.251  1.00  0.00     0.029 A 
ATOM     52  N   UNL A   1      41.559  29.713  30.114  1.00  0.00    -0.354 N 
ATOM     53  C   UNL A   1      41.915  24.482  28.228  1.00  0.00     0.074 A 
ATOM     54  C   UNL A   1      40.611  24.436  27.612  1.00  0.00     0.031 C 
ATOM     55  C   UNL A   1      43.720  29.049  30.149  1.00  0.00     0.029 A 
ATOM     56  C   UNL A   1      42.703  29.721  30.938  1.00  0.00     0.049 A 
ATOM     57  H   UNL A   1      40.840  30.385  30.096  1.00  0.00     0.167 HD
ATOM     58  C   UNL A   1      43.062  23.744  28.162  1.00  0.00     0.037 A 
ATOM     59  C   UNL A   1      42.592  29.637  32.297  1.00  0.00     0.037 A 
ATOM     60  C   UNL A   1      44.074  24.292  29.071  1.00  0.00     0.049 A 
ATOM     61  C   UNL A   1      43.278  28.425  32.889  1.00  0.00     0.074 A 
ATOM     62  C   UNL A   1      45.156  25.136  28.882  1.00  0.00     0.029 A 
ATOM     63  N   UNL A   1      43.854  24.238  30.444  1.00  0.00    -0.354 N 
ATOM     64  N   UNL A   1      43.625  27.375  32.197  1.00  0.00    -0.248 NA
ATOM     65  C   UNL A   1      43.629  28.295  34.301  1.00  0.00     0.031 C 
ATOM     66  C   UNL A   1      45.532  25.658  30.147  1.00  0.00     0.029 A 
ATOM     67  C   UNL A   1      44.700  25.107  31.106  1.00  0.00     0.049 A 
ATOM     68  H   UNL A   1      43.188  23.661  30.883  1.00  0.00     0.167 HD
ATOM     69  C   UNL A   1      44.210  26.447  33.020  1.00  0.00     0.074 A 
ATOM     70  C   UNL A   1      44.207  27.080  34.326  1.00  0.00     0.031 C 
ATOM     71  C   UNL A   1      44.642  25.237  32.556  1.00  0.00     0.037 A 
BRANCH  58  72
ATOM     72  C   UNL A   1      43.368  22.724  27.074  1.00  0.00     0.058 A 
ATOM     73  C   UNL A   1      42.727  21.462  27.074  1.00  0.00     0.135 A 
ATOM     74  C   UNL A   1      44.334  22.873  26.060  1.00  0.00     0.135 A 
ATOM     75  F   UNL A   1      41.713  21.191  27.908  1.00  0.00    -0.206 F 
ATOM     76  C   UNL A   1      43.098  20.412  26.227  1.00  0.00     0.059 A 
ATOM     77  C   UNL A   1      44.760  21.826  25.237  1.00  0.00     0.059 A 
ATOM     78  F   UNL A   1      44.872  24.060  25.767  1.00  0.00    -0.206 F 
ATOM     79  C   UNL A   1      44.144  20.590  25.335  1.00  0.00     0.060 A 
BRANCH  79  80
ATOM     80  S   UNL A   1      44.668  19.212  24.299  1.00  0.00     0.124 S 
ATOM     81  O   UNL A   1      44.492  19.755  22.955  1.00  0.00    -0.237 OA
ATOM     82  O   UNL A   1      46.047  19.013  24.730  1.00  0.00    -0.237 OA
ATOM     83  O   UNL A   1      43.740  18.143  24.659  1.00  0.00    -0.744 OA
ENDBRANCH  79  80
ENDBRANCH  58  72
BRANCH  59  84
ATOM     84  C   UNL A   1      41.363  30.302  32.815  1.00  0.00     0.058 A 
ATOM     85  C   UNL A   1      40.288  29.468  33.181  1.00  0.00     0.135 A 
ATOM     86  C   UNL A   1      41.388  31.595  33.353  1.00  0.00     0.135 A 
ATOM     87  F   UNL A   1      40.205  28.220  32.687  1.00  0.00    -0.206 F 
ATOM     88  C   UNL A   1      39.385  29.833  34.172  1.00  0.00     0.059 A 
ATOM     89  C   UNL A   1      40.465  31.995  34.325  1.00  0.00     0.059 A 
ATOM     90  F   UNL A   1      42.383  32.438  33.043  1.00  0.00    -0.206 F 
ATOM     91  C   UNL A   1      39.510  31.082  34.773  1.00  0.00     0.060 A 
BRANCH  91  92
ATOM     92  S   UNL A   1      38.527  31.400  36.258  1.00  0.00     0.124 S 
ATOM     93  O   UNL A   1      37.424  32.193  35.725  1.00  0.00    -0.237 OA
ATOM     94  O   UNL A   1      38.192  30.043  36.686  1.00  0.00    -0.237 OA
ATOM     95  O   UNL A   1      39.454  32.119  37.125  1.00  0.00    -0.744 OA
ENDBRANCH  91  92
ENDBRANCH  59  84
BRANCH  71  96
ATOM     96  C   UNL A   1      45.118  24.075  33.397  1.00  0.00     0.058 A 
ATOM     97  C   UNL A   1      46.400  23.985  33.965  1.00  0.00     0.135 A 
ATOM     98  C   UNL A   1      44.203  23.069  33.799  1.00  0.00     0.135 A 
ATOM     99  F   UNL A   1      47.329  24.925  33.738  1.00  0.00    -0.206 F 
ATOM    100  C   UNL A   1      46.763  22.953  34.835  1.00  0.00     0.059 A 
ATOM    101  C   UNL A   1      44.527  22.064  34.707  1.00  0.00     0.059 A 
ATOM    102  F   UNL A   1      42.946  23.040  33.329  1.00  0.00    -0.206 F 
ATOM    103  C   UNL A   1      45.818  22.002  35.207  1.00  0.00     0.060 A 
BRANCH 103 104
ATOM    104  S   UNL A   1      46.245  20.722  36.403  1.00  0.00     0.124 S 
ATOM    105  O   UNL A   1      45.711  21.288  37.638  1.00  0.00    -0.237 OA
ATOM    106  O   UNL A   1      45.542  19.550  35.892  1.00  0.00    -0.237 OA
ATOM    107  O   UNL A   1      47.700  20.657  36.312  1.00  0.00    -0.744 OA
ENDBRANCH 103 104
ENDBRANCH  71  96
ENDBRANCH  45  46
ENDBRANCH  37  40
ENDBRANCH  35  36
ENDBRANCH  34  35
ENDBRANCH   1  34
TORSDOF 17
ENDMDL
MODEL 2
REMARK VINA RESULT:     -14.3      4.244     11.277
REMARK SMILES Cc1cccc(-c2ncc(C[NH+]3CCC4(CC3)NC(=O)C[C@H]4C(=O)NCCCCNC(=O)c3ccc(-c4c5nc(c(-c6c(F)cc(S(=O)(=O)[O-])cc6F)c6ccc([nH]6)c(-c6c(F)cc(S(=O)(=O)[O-])cc6F)c6nc(c(-c7c(F)cc(S(=O)(=O)[O-])cc7F)c7ccc4[nH]7)C=C6)C=C5)cc3)cn2)c1
REMARK SMILES IDX 27 1 26 2 25 3 23 4 24 5 22 7 12 8 13 9 17 10 14 12 16 13
REMARK SMILES IDX 15 14 18 15 19 16 21 18 20 19 11 20 10 21 7 22 8 23 100 24
REMARK SMILES IDX 9 25 99 26 6 27 1 28 2 29 3 30 101 31 4 32 5 33 28 34 29 35
REMARK SMILES IDX 30 36 31 37 32 39 33 40 34 41 98 42 35 43 97 44 36 45 37 46
REMARK SMILES IDX 38 47 91 48 39 49 96 50 90 51 92 52 40 53 95 54 89 55 88 56
REMARK SMILES IDX 41 58 75 59 54 60 74 61 55 62 58 63 73 64 93 65 56 66 57 67
REMARK SMILES IDX 72 69 94 70 59 71 42 72 43 73 52 74 44 75 45 76 51 77 53 78
REMARK SMILES IDX 46 79 47 80 48 81 49 82 50 83 76 84 77 85 86 86 78 87 79 88
REMARK SMILES IDX 85 89 87 90 80 91 81 92 82 93 83 94 84 95 60 96 61 97 70 98
REMARK SMILES IDX 62 99 63 100 69 101 71 102 64 103 65 104 66 105 67 106
REMARK SMILES IDX 68 107
REMARK H PARENT 25 6 12 11 18 17 30 38 92 57 58 68
REMARK Flexibility Score: inf
ROOT
ATOM      1  C   UNL A   1      35.033  22.367  26.600  1.00  0.00     0.023 C 
ENDROOT
BRANCH   1   2
ATOM      2  C   UNL A   1      33.695  21.605  26.525  1.00  0.00     0.116 C 
BRANCH   2   3
ATOM      3  N   UNL A   1      32.525  22.269  27.110  1.00  0.00    -0.356 N 
ATOM      4  C   UNL A   1      31.429  22.915  26.632  1.00  0.00     0.226 C 
ATOM      5  O   UNL A   1      30.600  23.281  27.478  1.00  0.00    -0.275 OA
ATOM      6  H   UNL A   1      32.537  22.239  28.094  1.00  0.00     0.163 HD
BRANCH   4   7
ATOM      7  C   UNL A   1      31.164  23.288  25.168  1.00  0.00     0.114 C 
ATOM      8  N   UNL A   1      30.640  27.426  24.830  1.00  0.00    -0.331 N 
ATOM      9  C   UNL A   1      30.124  26.541  23.799  1.00  0.00     0.264 C 
ATOM     10  C   UNL A   1      30.954  26.681  26.037  1.00  0.00     0.264 C 
ATOM     11  H   UNL A   1      29.859  28.044  25.047  1.00  0.00     0.348 HD
ATOM     12  C   UNL A   1      30.924  25.268  23.506  1.00  0.00     0.091 C 
ATOM     13  C   UNL A   1      32.022  25.626  25.812  1.00  0.00     0.091 C 
ATOM     14  C   UNL A   1      31.744  24.631  24.673  1.00  0.00     0.063 C 
ATOM     15  N   UNL A   1      32.969  24.160  24.041  1.00  0.00    -0.349 N 
ATOM     16  C   UNL A   1      32.899  22.856  23.601  1.00  0.00     0.221 C 
ATOM     17  H   UNL A   1      33.772  24.720  23.937  1.00  0.00     0.164 HD
ATOM     18  C   UNL A   1      31.677  22.219  24.199  1.00  0.00     0.116 C 
ATOM     19  O   UNL A   1      33.684  22.328  22.836  1.00  0.00    -0.275 OA
BRANCH   8  20
ATOM     20  C   UNL A   1      31.570  28.503  24.451  1.00  0.00     0.302 C 
BRANCH  20  21
ATOM     21  C   UNL A   1      32.223  29.290  25.548  1.00  0.00     0.043 A 
ATOM     22  C   UNL A   1      33.546  31.017  27.189  1.00  0.00     0.159 A 
ATOM     23  N   UNL A   1      32.243  31.253  26.928  1.00  0.00    -0.236 NA
ATOM     24  N   UNL A   1      34.204  29.916  26.777  1.00  0.00    -0.236 NA
ATOM     25  C   UNL A   1      31.606  30.361  26.150  1.00  0.00     0.124 A 
ATOM     26  C   UNL A   1      33.527  29.080  25.961  1.00  0.00     0.124 A 
BRANCH  22  27
ATOM     27  C   UNL A   1      34.313  32.109  27.807  1.00  0.00     0.019 A 
ATOM     28  C   UNL A   1      33.671  35.697  28.970  1.00  0.00     0.044 C 
ATOM     29  C   UNL A   1      34.383  34.405  28.697  1.00  0.00    -0.050 A 
ATOM     30  C   UNL A   1      35.748  34.261  28.938  1.00  0.00     0.003 A 
ATOM     31  C   UNL A   1      33.678  33.321  28.157  1.00  0.00     0.015 A 
ATOM     32  C   UNL A   1      36.402  33.076  28.602  1.00  0.00     0.001 A 
ATOM     33  C   UNL A   1      35.695  32.015  28.029  1.00  0.00     0.012 A 
ENDBRANCH  22  27
ENDBRANCH  20  21
ENDBRANCH   8  20
ENDBRANCH   4   7
ENDBRANCH   2   3
ENDBRANCH   1   2
BRANCH   1  34
ATOM     34  C   UNL A   1      36.101  21.970  25.576  1.00  0.00     0.023 C 
BRANCH  34  35
ATOM     35  C   UNL A   1      37.341  22.848  25.653  1.00  0.00     0.116 C 
BRANCH  35  36
ATOM     36  N   UNL A   1      38.529  22.196  26.190  1.00  0.00    -0.352 N 
ATOM     37  C   UNL A   1      39.661  22.818  26.706  1.00  0.00     0.251 C 
ATOM     38  H   UNL A   1      38.531  21.212  26.188  1.00  0.00     0.163 HD
ATOM     39  O   UNL A   1      40.696  22.221  26.941  1.00  0.00    -0.269 OA
BRANCH  37  40
ATOM     40  C   UNL A   1      39.517  24.250  27.049  1.00  0.00     0.039 A 
ATOM     41  C   UNL A   1      40.107  25.175  26.180  1.00  0.00     0.014 A 
ATOM     42  C   UNL A   1      39.161  24.603  28.348  1.00  0.00     0.014 A 
ATOM     43  C   UNL A   1      40.541  26.399  26.680  1.00  0.00     0.010 A 
ATOM     44  C   UNL A   1      39.677  25.774  28.863  1.00  0.00     0.010 A 
ATOM     45  C   UNL A   1      40.412  26.646  28.042  1.00  0.00    -0.014 A 
BRANCH  45  46
ATOM     46  C   UNL A   1      41.037  27.771  28.729  1.00  0.00     0.031 A 
ATOM     47  C   UNL A   1      40.215  28.952  29.066  1.00  0.00     0.074 A 
ATOM     48  C   UNL A   1      42.315  27.682  29.156  1.00  0.00     0.049 A 
ATOM     49  N   UNL A   1      40.677  30.091  29.454  1.00  0.00    -0.248 NA
ATOM     50  C   UNL A   1      38.764  28.944  28.927  1.00  0.00     0.031 C 
ATOM     51  C   UNL A   1      42.978  28.524  30.149  1.00  0.00     0.029 A 
ATOM     52  N   UNL A   1      43.350  26.932  28.591  1.00  0.00    -0.354 N 
ATOM     53  C   UNL A   1      39.614  30.861  29.875  1.00  0.00     0.074 A 
ATOM     54  C   UNL A   1      38.445  30.125  29.459  1.00  0.00     0.031 C 
ATOM     55  C   UNL A   1      44.305  28.456  29.962  1.00  0.00     0.029 A 
ATOM     56  C   UNL A   1      44.525  27.697  28.743  1.00  0.00     0.049 A 
ATOM     57  H   UNL A   1      43.273  26.046  28.169  1.00  0.00     0.167 HD
ATOM     58  C   UNL A   1      39.863  31.966  30.639  1.00  0.00     0.037 A 
ATOM     59  C   UNL A   1      45.212  28.156  27.656  1.00  0.00     0.037 A 
ATOM     60  C   UNL A   1      41.300  32.247  30.677  1.00  0.00     0.049 A 
ATOM     61  C   UNL A   1      45.314  29.664  27.592  1.00  0.00     0.074 A 
ATOM     62  C   UNL A   1      42.296  31.959  31.596  1.00  0.00     0.029 A 
ATOM     63  N   UNL A   1      41.947  32.637  29.508  1.00  0.00    -0.354 N 
ATOM     64  N   UNL A   1      44.544  30.474  28.266  1.00  0.00    -0.248 NA
ATOM     65  C   UNL A   1      46.284  30.382  26.769  1.00  0.00     0.031 C 
ATOM     66  C   UNL A   1      43.549  32.095  30.944  1.00  0.00     0.029 A 
ATOM     67  C   UNL A   1      43.316  32.497  29.640  1.00  0.00     0.049 A 
ATOM     68  H   UNL A   1      41.493  32.967  28.700  1.00  0.00     0.167 HD
ATOM     69  C   UNL A   1      44.875  31.774  27.983  1.00  0.00     0.074 A 
ATOM     70  C   UNL A   1      45.985  31.663  27.054  1.00  0.00     0.031 C 
ATOM     71  C   UNL A   1      44.205  32.829  28.534  1.00  0.00     0.037 A 
BRANCH  58  72
ATOM     72  C   UNL A   1      38.852  32.605  31.582  1.00  0.00     0.058 A 
ATOM     73  C   UNL A   1      38.182  31.823  32.553  1.00  0.00     0.135 A 
ATOM     74  C   UNL A   1      38.423  33.946  31.535  1.00  0.00     0.135 A 
ATOM     75  F   UNL A   1      38.537  30.554  32.798  1.00  0.00    -0.206 F 
ATOM     76  C   UNL A   1      37.109  32.299  33.315  1.00  0.00     0.059 A 
ATOM     77  C   UNL A   1      37.321  34.432  32.245  1.00  0.00     0.059 A 
ATOM     78  F   UNL A   1      39.090  34.877  30.847  1.00  0.00    -0.206 F 
ATOM     79  C   UNL A   1      36.658  33.596  33.127  1.00  0.00     0.060 A 
BRANCH  79  80
ATOM     80  S   UNL A   1      35.229  34.180  34.056  1.00  0.00     0.124 S 
ATOM     81  O   UNL A   1      34.147  33.383  33.486  1.00  0.00    -0.237 OA
ATOM     82  O   UNL A   1      35.604  33.858  35.428  1.00  0.00    -0.237 OA
ATOM     83  O   UNL A   1      35.177  35.606  33.742  1.00  0.00    -0.744 OA
ENDBRANCH  79  80
ENDBRANCH  58  72
BRANCH  59  84
ATOM     84  C   UNL A   1      45.140  27.222  26.496  1.00  0.00     0.058 A 
ATOM     85  C   UNL A   1      46.118  26.209  26.425  1.00  0.00     0.135 A 
ATOM     86  C   UNL A   1      43.958  27.028  25.769  1.00  0.00     0.135 A 
ATOM     87  F   UNL A   1      47.276  26.345  27.092  1.00  0.00    -0.206 F 
ATOM     88  C   UNL A   1      45.861  24.988  25.816  1.00  0.00     0.059 A 
ATOM     89  C   UNL A   1      43.696  25.818  25.118  1.00  0.00     0.059 A 
ATOM     90  F   UNL A   1      42.989  27.954  25.794  1.00  0.00    -0.206 F 
ATOM     91  C   UNL A   1      44.628  24.783  25.204  1.00  0.00     0.060 A 
BRANCH  91  92
ATOM     92  S   UNL A   1      44.211  23.097  24.700  1.00  0.00     0.124 S 
ATOM     93  O   UNL A   1      44.713  22.313  25.824  1.00  0.00    -0.237 OA
ATOM     94  O   UNL A   1      42.756  23.178  24.576  1.00  0.00    -0.237 OA
ATOM     95  O   UNL A   1      44.938  22.933  23.447  1.00  0.00    -0.744 OA
ENDBRANCH  91  92
ENDBRANCH  59  84
BRANCH  71  96
ATOM     96  C   UNL A   1      44.353  34.283  28.149  1.00  0.00     0.058 A 
ATOM     97  C   UNL A   1      43.887  34.831  26.942  1.00  0.00     0.135 A 
ATOM     98  C   UNL A   1      44.840  35.221  29.095  1.00  0.00     0.135 A 
ATOM     99  F   UNL A   1      43.319  34.061  26.003  1.00  0.00    -0.206 F 
ATOM    100  C   UNL A   1      43.936  36.201  26.673  1.00  0.00     0.059 A 
ATOM    101  C   UNL A   1      44.847  36.595  28.870  1.00  0.00     0.059 A 
ATOM    102  F   UNL A   1      45.315  34.828  30.287  1.00  0.00    -0.206 F 
ATOM    103  C   UNL A   1      44.410  37.077  27.646  1.00  0.00     0.060 A 
BRANCH 103 104
ATOM    104  S   UNL A   1      44.388  38.855  27.349  1.00  0.00     0.124 S 
ATOM    105  O   UNL A   1      43.022  39.055  26.876  1.00  0.00    -0.237 OA
ATOM    106  O   UNL A   1      44.684  39.409  28.667  1.00  0.00    -0.237 OA
ATOM    107  O   UNL A   1      45.438  39.037  26.352  1.00  0.00    -0.744 OA
ENDBRANCH 103 104
ENDBRANCH  71  96
ENDBRANCH  45  46
ENDBRANCH  37  40
ENDBRANCH  35  36
ENDBRANCH  34  35
ENDBRANCH   1  34
TORSDOF 17
ENDMDL
MODEL 3
REMARK VINA RESULT:     -14.2      2.398      4.148
REMARK SMILES Cc1cccc(-c2ncc(C[NH+]3CCC4(CC3)NC(=O)C[C@H]4C(=O)NCCCCNC(=O)c3ccc(-c4c5nc(c(-c6c(F)cc(S(=O)(=O)[O-])cc6F)c6ccc([nH]6)c(-c6c(F)cc(S(=O)(=O)[O-])cc6F)c6nc(c(-c7c(F)cc(S(=O)(=O)[O-])cc7F)c7ccc4[nH]7)C=C6)C=C5)cc3)cn2)c1
REMARK SMILES IDX 27 1 26 2 25 3 23 4 24 5 22 7 12 8 13 9 17 10 14 12 16 13
REMARK SMILES IDX 15 14 18 15 19 16 21 18 20 19 11 20 10 21 7 22 8 23 100 24
REMARK SMILES IDX 9 25 99 26 6 27 1 28 2 29 3 30 101 31 4 32 5 33 28 34 29 35
REMARK SMILES IDX 30 36 31 37 32 39 33 40 34 41 98 42 35 43 97 44 36 45 37 46
REMARK SMILES IDX 38 47 91 48 39 49 96 50 90 51 92 52 40 53 95 54 89 55 88 56
REMARK SMILES IDX 41 58 75 59 54 60 74 61 55 62 58 63 73 64 93 65 56 66 57 67
REMARK SMILES IDX 72 69 94 70 59 71 42 72 43 73 52 74 44 75 45 76 51 77 53 78
REMARK SMILES IDX 46 79 47 80 48 81 49 82 50 83 76 84 77 85 86 86 78 87 79 88
REMARK SMILES IDX 85 89 87 90 80 91 81 92 82 93 83 94 84 95 60 96 61 97 70 98
REMARK SMILES IDX 62 99 63 100 69 101 71 102 64 103 65 104 66 105 67 106
REMARK SMILES IDX 68 107
REMARK H PARENT 25 6 12 11 18 17 30 38 92 57 58 68
REMARK Flexibility Score: inf
ROOT
ATOM      1  C   UNL A   1      32.960  29.334  24.721  1.00  0.00     0.023 C 
ENDROOT
BRANCH   1   2
ATOM      2  C   UNL A   1      33.660  27.970  24.559  1.00  0.00     0.116 C 
BRANCH   2   3
ATOM      3  N   UNL A   1      33.672  27.390  23.212  1.00  0.00    -0.356 N 
ATOM      4  C   UNL A   1      32.992  26.407  22.567  1.00  0.00     0.226 C 
ATOM      5  O   UNL A   1      33.250  26.266  21.363  1.00  0.00    -0.275 OA
ATOM      6  H   UNL A   1      34.340  27.821  22.631  1.00  0.00     0.163 HD
BRANCH   4   7
ATOM      7  C   UNL A   1      32.000  25.425  23.203  1.00  0.00     0.114 C 
ATOM      8  N   UNL A   1      33.837  21.706  23.752  1.00  0.00    -0.331 N 
ATOM      9  C   UNL A   1      32.387  21.800  23.706  1.00  0.00     0.264 C 
ATOM     10  C   UNL A   1      34.449  22.912  23.222  1.00  0.00     0.264 C 
ATOM     11  H   UNL A   1      34.061  20.944  23.112  1.00  0.00     0.348 HD
ATOM     12  C   UNL A   1      31.753  23.073  24.275  1.00  0.00     0.091 C 
ATOM     13  C   UNL A   1      34.081  24.152  24.017  1.00  0.00     0.091 C 
ATOM     14  C   UNL A   1      32.575  24.400  24.204  1.00  0.00     0.063 C 
ATOM     15  N   UNL A   1      32.279  25.078  25.459  1.00  0.00    -0.349 N 
ATOM     16  C   UNL A   1      31.204  25.936  25.383  1.00  0.00     0.221 C 
ATOM     17  H   UNL A   1      32.798  24.937  26.283  1.00  0.00     0.164 HD
ATOM     18  C   UNL A   1      30.865  26.146  23.935  1.00  0.00     0.116 C 
ATOM     19  O   UNL A   1      30.618  26.416  26.336  1.00  0.00    -0.275 OA
BRANCH   8  20
ATOM     20  C   UNL A   1      34.480  21.094  24.928  1.00  0.00     0.302 C 
BRANCH  20  21
ATOM     21  C   UNL A   1      35.961  21.259  25.087  1.00  0.00     0.043 A 
ATOM     22  C   UNL A   1      38.595  21.306  25.783  1.00  0.00     0.159 A 
ATOM     23  N   UNL A   1      38.149  20.272  25.040  1.00  0.00    -0.236 NA
ATOM     24  N   UNL A   1      37.842  22.375  26.109  1.00  0.00    -0.236 NA
ATOM     25  C   UNL A   1      36.855  20.298  24.676  1.00  0.00     0.124 A 
ATOM     26  C   UNL A   1      36.539  22.323  25.757  1.00  0.00     0.124 A 
BRANCH  22  27
ATOM     27  C   UNL A   1      39.920  21.160  26.406  1.00  0.00     0.019 A 
ATOM     28  C   UNL A   1      42.708  18.540  26.516  1.00  0.00     0.044 C 
ATOM     29  C   UNL A   1      41.952  19.812  26.763  1.00  0.00    -0.050 A 
ATOM     30  C   UNL A   1      42.442  20.795  27.621  1.00  0.00     0.003 A 
ATOM     31  C   UNL A   1      40.710  20.017  26.148  1.00  0.00     0.015 A 
ATOM     32  C   UNL A   1      41.684  21.933  27.895  1.00  0.00     0.001 A 
ATOM     33  C   UNL A   1      40.430  22.109  27.305  1.00  0.00     0.012 A 
ENDBRANCH  22  27
ENDBRANCH  20  21
ENDBRANCH   8  20
ENDBRANCH   4   7
ENDBRANCH   2   3
ENDBRANCH   1   2
BRANCH   1  34
ATOM     34  C   UNL A   1      32.040  29.488  25.936  1.00  0.00     0.023 C 
BRANCH  34  35
ATOM     35  C   UNL A   1      32.810  29.680  27.234  1.00  0.00     0.116 C 
BRANCH  35  36
ATOM     36  N   UNL A   1      33.252  31.044  27.497  1.00  0.00    -0.352 N 
ATOM     37  C   UNL A   1      34.418  31.432  28.148  1.00  0.00     0.251 C 
ATOM     38  H   UNL A   1      32.663  31.767  27.181  1.00  0.00     0.163 HD
ATOM     39  O   UNL A   1      34.621  32.575  28.517  1.00  0.00    -0.269 OA
BRANCH  37  40
ATOM     40  C   UNL A   1      35.461  30.393  28.290  1.00  0.00     0.039 A 
ATOM     41  C   UNL A   1      35.658  29.860  29.569  1.00  0.00     0.014 A 
ATOM     42  C   UNL A   1      36.426  30.261  27.294  1.00  0.00     0.014 A 
ATOM     43  C   UNL A   1      36.915  29.379  29.921  1.00  0.00     0.010 A 
ATOM     44  C   UNL A   1      37.695  29.874  27.673  1.00  0.00     0.010 A 
ATOM     45  C   UNL A   1      37.951  29.484  28.998  1.00  0.00    -0.014 A 
BRANCH  45  46
ATOM     46  C   UNL A   1      39.354  29.246  29.319  1.00  0.00     0.031 A 
ATOM     47  C   UNL A   1      39.967  27.955  28.941  1.00  0.00     0.074 A 
ATOM     48  C   UNL A   1      40.109  30.236  29.843  1.00  0.00     0.049 A 
ATOM     49  N   UNL A   1      41.107  27.525  29.359  1.00  0.00    -0.248 NA
ATOM     50  C   UNL A   1      39.282  27.003  28.076  1.00  0.00     0.031 C 
ATOM     51  C   UNL A   1      41.567  30.307  29.888  1.00  0.00     0.029 A 
ATOM     52  N   UNL A   1      39.684  31.287  30.659  1.00  0.00    -0.354 N 
ATOM     53  C   UNL A   1      41.433  26.402  28.630  1.00  0.00     0.074 A 
ATOM     54  C   UNL A   1      40.232  26.084  27.897  1.00  0.00     0.031 C 
ATOM     55  C   UNL A   1      41.931  31.150  30.867  1.00  0.00     0.029 A 
ATOM     56  C   UNL A   1      40.724  31.518  31.584  1.00  0.00     0.049 A 
ATOM     57  H   UNL A   1      38.829  31.770  30.600  1.00  0.00     0.167 HD
ATOM     58  C   UNL A   1      42.726  25.960  28.643  1.00  0.00     0.037 A 
ATOM     59  C   UNL A   1      40.528  31.335  32.923  1.00  0.00     0.037 A 
ATOM     60  C   UNL A   1      43.501  26.679  29.658  1.00  0.00     0.049 A 
ATOM     61  C   UNL A   1      41.435  30.288  33.532  1.00  0.00     0.074 A 
ATOM     62  C   UNL A   1      44.360  27.763  29.598  1.00  0.00     0.029 A 
ATOM     63  N   UNL A   1      43.191  26.498  31.003  1.00  0.00    -0.354 N 
ATOM     64  N   UNL A   1      42.078  29.390  32.837  1.00  0.00    -0.248 NA
ATOM     65  C   UNL A   1      41.692  30.165  34.965  1.00  0.00     0.031 C 
ATOM     66  C   UNL A   1      44.498  28.289  30.910  1.00  0.00     0.029 A 
ATOM     67  C   UNL A   1      43.749  27.504  31.769  1.00  0.00     0.049 A 
ATOM     68  H   UNL A   1      42.651  25.757  31.359  1.00  0.00     0.167 HD
ATOM     69  C   UNL A   1      42.800  28.582  33.677  1.00  0.00     0.074 A 
ATOM     70  C   UNL A   1      42.541  29.121  34.999  1.00  0.00     0.031 C 
ATOM     71  C   UNL A   1      43.546  27.535  33.212  1.00  0.00     0.037 A 
BRANCH  58  72
ATOM     72  C   UNL A   1      43.353  25.103  27.552  1.00  0.00     0.058 A 
ATOM     73  C   UNL A   1      44.295  24.099  27.880  1.00  0.00     0.135 A 
ATOM     74  C   UNL A   1      43.151  25.264  26.167  1.00  0.00     0.135 A 
ATOM     75  F   UNL A   1      44.530  23.749  29.152  1.00  0.00    -0.206 F 
ATOM     76  C   UNL A   1      45.050  23.412  26.924  1.00  0.00     0.059 A 
ATOM     77  C   UNL A   1      43.928  24.629  25.192  1.00  0.00     0.059 A 
ATOM     78  F   UNL A   1      42.146  25.997  25.680  1.00  0.00    -0.206 F 
ATOM     79  C   UNL A   1      44.887  23.711  25.580  1.00  0.00     0.060 A 
BRANCH  79  80
ATOM     80  S   UNL A   1      45.915  22.876  24.357  1.00  0.00     0.124 S 
ATOM     81  O   UNL A   1      44.936  22.497  23.342  1.00  0.00    -0.237 OA
ATOM     82  O   UNL A   1      46.852  23.927  23.978  1.00  0.00    -0.237 OA
ATOM     83  O   UNL A   1      46.495  21.762  25.103  1.00  0.00    -0.744 OA
ENDBRANCH  79  80
ENDBRANCH  58  72
BRANCH  59  84
ATOM     84  C   UNL A   1      39.138  31.661  33.350  1.00  0.00     0.058 A 
ATOM     85  C   UNL A   1      38.828  33.021  33.547  1.00  0.00     0.135 A 
ATOM     86  C   UNL A   1      38.068  30.782  33.133  1.00  0.00     0.135 A 
ATOM     87  F   UNL A   1      39.812  33.909  33.770  1.00  0.00    -0.206 F 
ATOM     88  C   UNL A   1      37.543  33.513  33.356  1.00  0.00     0.059 A 
ATOM     89  C   UNL A   1      36.761  31.253  32.975  1.00  0.00     0.059 A 
ATOM     90  F   UNL A   1      38.295  29.475  32.939  1.00  0.00    -0.206 F 
ATOM     91  C   UNL A   1      36.523  32.627  33.024  1.00  0.00     0.060 A 
BRANCH  91  92
ATOM     92  S   UNL A   1      34.946  33.329  32.482  1.00  0.00     0.124 S 
ATOM     93  O   UNL A   1      34.389  32.241  31.685  1.00  0.00    -0.237 OA
ATOM     94  O   UNL A   1      34.285  33.590  33.759  1.00  0.00    -0.237 OA
ATOM     95  O   UNL A   1      35.348  34.513  31.731  1.00  0.00    -0.744 OA
ENDBRANCH  91  92
ENDBRANCH  59  84
BRANCH  71  96
ATOM     96  C   UNL A   1      44.218  26.473  34.051  1.00  0.00     0.058 A 
ATOM     97  C   UNL A   1      43.527  25.485  34.773  1.00  0.00     0.135 A 
ATOM     98  C   UNL A   1      45.627  26.323  34.011  1.00  0.00     0.135 A 
ATOM     99  F   UNL A   1      42.187  25.461  34.813  1.00  0.00    -0.206 F 
ATOM    100  C   UNL A   1      44.184  24.448  35.441  1.00  0.00     0.059 A 
ATOM    101  C   UNL A   1      46.298  25.267  34.622  1.00  0.00     0.059 A 
ATOM    102  F   UNL A   1      46.404  27.199  33.355  1.00  0.00    -0.206 F 
ATOM    103  C   UNL A   1      45.569  24.342  35.353  1.00  0.00     0.060 A 
BRANCH 103 104
ATOM    104  S   UNL A   1      46.421  22.954  36.127  1.00  0.00     0.124 S 
ATOM    105  O   UNL A   1      47.036  23.598  37.283  1.00  0.00    -0.237 OA
ATOM    106  O   UNL A   1      45.332  22.029  36.428  1.00  0.00    -0.237 OA
ATOM    107  O   UNL A   1      47.341  22.507  35.086  1.00  0.00    -0.744 OA
ENDBRANCH 103 104
ENDBRANCH  71  96
ENDBRANCH  45  46
ENDBRANCH  37  40
ENDBRANCH  35  36
ENDBRANCH  34  35
ENDBRANCH   1  34
TORSDOF 17
ENDMDL
