MODEL 1
REMARK VINA RESULT:     -10.4      0.000      0.000
REMARK SMILES CC(C)c1ccc2c(c1)c(SC(C)(C)C)c(CC(C)(C)C(=O)NCCCCNC(=O)c1ccc(-c3c4nc(c(-c5c(F)cc(S(=O)(=O)[O-])cc5F)c5ccc([nH]5)c(-c5c(F)cc(S(=O)(=O)[O-])cc5F)c5nc(c(-c6c(F)cc(S(=O)(=O)[O-])cc6F)c6ccc3[nH]6)C=C5)C=C4)cc1)n2Cc1ccc(Cl)cc1
REMARK SMILES IDX 25 1 24 2 23 3 21 4 22 5 18 7 19 8 20 9 17 10 16 11 4 12
REMARK SMILES IDX 5 13 9 14 6 15 8 16 7 17 10 18 97 19 2 20 1 21 3 22 11 23
REMARK SMILES IDX 12 24 13 25 14 26 15 27 98 28 99 29 100 30 105 31 101 32
REMARK SMILES IDX 104 33 102 34 103 35 26 36 27 37 28 38 29 39 30 41 31 42
REMARK SMILES IDX 32 43 96 44 33 45 95 46 34 47 35 48 36 49 89 50 37 51 94 52
REMARK SMILES IDX 88 53 90 54 38 55 93 56 87 57 86 58 39 60 73 61 52 62 72 63
REMARK SMILES IDX 53 64 56 65 71 66 91 67 54 68 55 69 70 71 92 72 57 73 40 74
REMARK SMILES IDX 41 75 50 76 42 77 43 78 49 79 51 80 44 81 45 82 46 83 47 84
REMARK SMILES IDX 48 85 74 86 75 87 84 88 76 89 77 90 83 91 85 92 78 93 79 94
REMARK SMILES IDX 80 95 81 96 82 97 58 98 59 99 68 100 60 101 61 102 67 103
REMARK SMILES IDX 69 104 62 105 63 106 64 107 65 108 66 109
REMARK H PARENT 23 6 28 40 90 59 56 70
REMARK Flexibility Score: inf
ROOT
ATOM      1  C   UNL A   1      36.817  31.792  32.752  1.00  0.00     0.023 C 
ENDROOT
BRANCH   1   2
ATOM      2  C   UNL A   1      37.260  32.188  34.135  1.00  0.00     0.116 C 
BRANCH   2   3
ATOM      3  N   UNL A   1      37.680  31.059  34.950  1.00  0.00    -0.356 N 
ATOM      4  C   UNL A   1      38.204  31.091  36.220  1.00  0.00     0.226 C 
ATOM      5  O   UNL A   1      38.055  30.090  36.912  1.00  0.00    -0.275 OA
ATOM      6  H   UNL A   1      37.575  30.168  34.545  1.00  0.00     0.163 HD
BRANCH   4   7
ATOM      7  C   UNL A   1      38.711  32.431  36.762  1.00  0.00     0.049 C 
ATOM      8  C   UNL A   1      37.978  32.396  38.126  1.00  0.00     0.022 C 
ATOM      9  C   UNL A   1      38.375  33.531  35.704  1.00  0.00     0.022 C 
BRANCH   7  10
ATOM     10  C   UNL A   1      40.245  32.634  36.945  1.00  0.00     0.071 C 
BRANCH  10  11
ATOM     11  C   UNL A   1      40.845  33.857  36.389  1.00  0.00     0.034 A 
ATOM     12  C   UNL A   1      43.582  37.501  35.563  1.00  0.00    -0.045 A 
ATOM     13  C   UNL A   1      44.038  36.628  34.572  1.00  0.00     0.006 A 
ATOM     14  C   UNL A   1      42.464  37.123  36.336  1.00  0.00     0.015 A 
ATOM     15  C   UNL A   1      43.439  35.383  34.361  1.00  0.00     0.027 A 
ATOM     16  C   UNL A   1      41.845  35.854  36.169  1.00  0.00     0.014 A 
ATOM     17  C   UNL A   1      42.372  34.998  35.191  1.00  0.00     0.050 A 
ATOM     18  C   UNL A   1      40.763  35.167  36.840  1.00  0.00     0.037 A 
ATOM     19  N   UNL A   1      41.656  33.812  35.256  1.00  0.00    -0.339 N 
BRANCH  12  20
ATOM     20  C   UNL A   1      44.312  38.800  35.872  1.00  0.00     0.013 C 
ATOM     21  C   UNL A   1      44.504  38.964  37.385  1.00  0.00     0.012 C 
ATOM     22  C   UNL A   1      45.659  38.915  35.152  1.00  0.00     0.012 C 
ENDBRANCH  12  20
BRANCH  18  23
ATOM     23  S   UNL A   1      39.849  35.961  38.150  1.00  0.00    -0.118 SA
BRANCH  23  24
ATOM     24  C   UNL A   1      40.457  35.848  39.917  1.00  0.00     0.012 C 
ATOM     25  C   UNL A   1      39.327  36.158  40.903  1.00  0.00     0.023 C 
ATOM     26  C   UNL A   1      41.257  34.641  40.460  1.00  0.00     0.023 C 
ATOM     27  C   UNL A   1      41.524  36.976  39.979  1.00  0.00     0.023 C 
ENDBRANCH  23  24
ENDBRANCH  18  23
BRANCH  19  28
ATOM     28  C   UNL A   1      41.622  32.802  34.165  1.00  0.00     0.158 C 
BRANCH  28  29
ATOM     29  C   UNL A   1      41.043  33.219  32.824  1.00  0.00    -0.028 A 
ATOM     30  C   UNL A   1      41.638  32.802  31.616  1.00  0.00     0.007 A 
ATOM     31  C   UNL A   1      39.914  34.051  32.741  1.00  0.00     0.007 A 
ATOM     32  C   UNL A   1      41.253  33.350  30.388  1.00  0.00     0.021 A 
ATOM     33  C   UNL A   1      39.488  34.557  31.502  1.00  0.00     0.021 A 
ATOM     34  C   UNL A   1      40.193  34.247  30.341  1.00  0.00     0.041 A 
ATOM     35  Cl  UNL A   1      39.780  35.004  28.853  1.00  0.00    -0.084 Cl
ENDBRANCH  28  29
ENDBRANCH  19  28
ENDBRANCH  10  11
ENDBRANCH   7  10
ENDBRANCH   4   7
ENDBRANCH   2   3
ENDBRANCH   1   2
BRANCH   1  36
ATOM     36  C   UNL A   1      35.395  32.238  32.462  1.00  0.00     0.023 C 
BRANCH  36  37
ATOM     37  C   UNL A   1      35.283  33.264  31.321  1.00  0.00     0.116 C 
BRANCH  37  38
ATOM     38  N   UNL A   1      34.639  32.756  30.120  1.00  0.00    -0.352 N 
ATOM     39  C   UNL A   1      34.968  31.792  29.207  1.00  0.00     0.251 C 
ATOM     40  H   UNL A   1      33.783  33.201  29.923  1.00  0.00     0.163 HD
ATOM     41  O   UNL A   1      34.127  31.543  28.340  1.00  0.00    -0.269 OA
BRANCH  39  42
ATOM     42  C   UNL A   1      36.274  31.085  29.178  1.00  0.00     0.039 A 
ATOM     43  C   UNL A   1      36.424  29.704  29.265  1.00  0.00     0.014 A 
ATOM     44  C   UNL A   1      37.432  31.880  29.114  1.00  0.00     0.014 A 
ATOM     45  C   UNL A   1      37.670  29.133  29.421  1.00  0.00     0.010 A 
ATOM     46  C   UNL A   1      38.698  31.305  29.204  1.00  0.00     0.010 A 
ATOM     47  C   UNL A   1      38.807  29.935  29.405  1.00  0.00    -0.014 A 
BRANCH  47  48
ATOM     48  C   UNL A   1      40.072  29.222  29.508  1.00  0.00     0.031 A 
ATOM     49  C   UNL A   1      40.542  29.002  30.903  1.00  0.00     0.074 A 
ATOM     50  C   UNL A   1      40.770  28.779  28.448  1.00  0.00     0.049 A 
ATOM     51  N   UNL A   1      41.573  29.517  31.488  1.00  0.00    -0.248 NA
ATOM     52  C   UNL A   1      39.673  28.220  31.797  1.00  0.00     0.031 C 
ATOM     53  C   UNL A   1      40.313  28.686  27.060  1.00  0.00     0.029 A 
ATOM     54  N   UNL A   1      42.015  28.225  28.410  1.00  0.00    -0.354 N 
ATOM     55  C   UNL A   1      41.609  28.947  32.758  1.00  0.00     0.074 A 
ATOM     56  C   UNL A   1      40.343  28.286  32.948  1.00  0.00     0.031 C 
ATOM     57  C   UNL A   1      41.167  27.900  26.369  1.00  0.00     0.029 A 
ATOM     58  C   UNL A   1      42.301  27.575  27.220  1.00  0.00     0.049 A 
ATOM     59  H   UNL A   1      42.652  28.281  29.159  1.00  0.00     0.167 HD
ATOM     60  C   UNL A   1      42.771  28.843  33.458  1.00  0.00     0.037 A 
ATOM     61  C   UNL A   1      43.366  26.780  26.971  1.00  0.00     0.037 A 
ATOM     62  C   UNL A   1      43.803  29.684  32.914  1.00  0.00     0.049 A 
ATOM     63  C   UNL A   1      44.455  27.168  27.900  1.00  0.00     0.074 A 
ATOM     64  C   UNL A   1      44.162  31.011  32.981  1.00  0.00     0.029 A 
ATOM     65  N   UNL A   1      44.480  29.130  31.863  1.00  0.00    -0.354 N 
ATOM     66  N   UNL A   1      45.052  28.329  27.872  1.00  0.00    -0.248 NA
ATOM     67  C   UNL A   1      44.723  26.360  29.087  1.00  0.00     0.031 C 
ATOM     68  C   UNL A   1      44.950  31.273  31.819  1.00  0.00     0.029 A 
ATOM     69  C   UNL A   1      45.061  30.095  31.084  1.00  0.00     0.049 A 
ATOM     70  H   UNL A   1      44.541  28.162  31.689  1.00  0.00     0.167 HD
ATOM     71  C   UNL A   1      45.417  28.560  29.182  1.00  0.00     0.074 A 
ATOM     72  C   UNL A   1      45.363  27.261  29.836  1.00  0.00     0.031 C 
ATOM     73  C   UNL A   1      45.408  29.818  29.706  1.00  0.00     0.037 A 
BRANCH  60  74
ATOM     74  C   UNL A   1      43.117  27.664  34.338  1.00  0.00     0.058 A 
ATOM     75  C   UNL A   1      43.305  27.848  35.723  1.00  0.00     0.135 A 
ATOM     76  C   UNL A   1      43.565  26.426  33.822  1.00  0.00     0.135 A 
ATOM     77  F   UNL A   1      42.943  28.998  36.313  1.00  0.00    -0.206 F 
ATOM     78  C   UNL A   1      43.923  26.886  36.528  1.00  0.00     0.059 A 
ATOM     79  C   UNL A   1      44.135  25.435  34.614  1.00  0.00     0.059 A 
ATOM     80  F   UNL A   1      43.562  26.164  32.509  1.00  0.00    -0.206 F 
ATOM     81  C   UNL A   1      44.342  25.686  35.960  1.00  0.00     0.060 A 
BRANCH  81  82
ATOM     82  S   UNL A   1      45.210  24.475  36.974  1.00  0.00     0.124 S 
ATOM     83  O   UNL A   1      44.570  24.664  38.270  1.00  0.00    -0.237 OA
ATOM     84  O   UNL A   1      44.903  23.226  36.285  1.00  0.00    -0.237 OA
ATOM     85  O   UNL A   1      46.603  24.903  36.888  1.00  0.00    -0.744 OA
ENDBRANCH  81  82
ENDBRANCH  60  74
BRANCH  61  86
ATOM     86  C   UNL A   1      43.391  25.509  26.206  1.00  0.00     0.058 A 
ATOM     87  C   UNL A   1      44.384  25.285  25.237  1.00  0.00     0.135 A 
ATOM     88  C   UNL A   1      42.657  24.381  26.625  1.00  0.00     0.135 A 
ATOM     89  F   UNL A   1      45.128  26.305  24.783  1.00  0.00    -0.206 F 
ATOM     90  C   UNL A   1      44.700  24.004  24.781  1.00  0.00     0.059 A 
ATOM     91  C   UNL A   1      42.943  23.096  26.172  1.00  0.00     0.059 A 
ATOM     92  F   UNL A   1      41.707  24.479  27.566  1.00  0.00    -0.206 F 
ATOM     93  C   UNL A   1      43.995  22.911  25.283  1.00  0.00     0.060 A 
BRANCH  93  94
ATOM     94  S   UNL A   1      44.557  21.244  24.877  1.00  0.00     0.124 S 
ATOM     95  O   UNL A   1      44.615  21.292  23.420  1.00  0.00    -0.237 OA
ATOM     96  O   UNL A   1      45.842  21.181  25.565  1.00  0.00    -0.237 OA
ATOM     97  O   UNL A   1      43.512  20.389  25.433  1.00  0.00    -0.744 OA
ENDBRANCH  93  94
ENDBRANCH  61  86
BRANCH  73  98
ATOM     98  C   UNL A   1      45.598  30.965  28.760  1.00  0.00     0.058 A 
ATOM     99  C   UNL A   1      46.837  31.400  28.264  1.00  0.00     0.135 A 
ATOM    100  C   UNL A   1      44.449  31.624  28.295  1.00  0.00     0.135 A 
ATOM    101  F   UNL A   1      47.973  30.770  28.598  1.00  0.00    -0.206 F 
ATOM    102  C   UNL A   1      46.931  32.473  27.375  1.00  0.00     0.059 A 
ATOM    103  C   UNL A   1      44.516  32.674  27.387  1.00  0.00     0.059 A 
ATOM    104  F   UNL A   1      43.233  31.224  28.702  1.00  0.00    -0.206 F 
ATOM    105  C   UNL A   1      45.763  33.104  26.942  1.00  0.00     0.060 A 
BRANCH 105 106
ATOM    106  S   UNL A   1      45.886  34.455  25.751  1.00  0.00     0.124 S 
ATOM    107  O   UNL A   1      44.949  34.041  24.715  1.00  0.00    -0.237 OA
ATOM    108  O   UNL A   1      45.485  35.614  26.545  1.00  0.00    -0.237 OA
ATOM    109  O   UNL A   1      47.296  34.439  25.360  1.00  0.00    -0.744 OA
ENDBRANCH 105 106
ENDBRANCH  73  98
ENDBRANCH  47  48
ENDBRANCH  39  42
ENDBRANCH  37  38
ENDBRANCH  36  37
ENDBRANCH   1  36
TORSDOF 21
ENDMDL
MODEL 2
REMARK VINA RESULT:     -10.4      2.031      3.919
REMARK SMILES CC(C)c1ccc2c(c1)c(SC(C)(C)C)c(CC(C)(C)C(=O)NCCCCNC(=O)c1ccc(-c3c4nc(c(-c5c(F)cc(S(=O)(=O)[O-])cc5F)c5ccc([nH]5)c(-c5c(F)cc(S(=O)(=O)[O-])cc5F)c5nc(c(-c6c(F)cc(S(=O)(=O)[O-])cc6F)c6ccc3[nH]6)C=C5)C=C4)cc1)n2Cc1ccc(Cl)cc1
REMARK SMILES IDX 25 1 24 2 23 3 21 4 22 5 18 7 19 8 20 9 17 10 16 11 4 12
REMARK SMILES IDX 5 13 9 14 6 15 8 16 7 17 10 18 97 19 2 20 1 21 3 22 11 23
REMARK SMILES IDX 12 24 13 25 14 26 15 27 98 28 99 29 100 30 105 31 101 32
REMARK SMILES IDX 104 33 102 34 103 35 26 36 27 37 28 38 29 39 30 41 31 42
REMARK SMILES IDX 32 43 96 44 33 45 95 46 34 47 35 48 36 49 89 50 37 51 94 52
REMARK SMILES IDX 88 53 90 54 38 55 93 56 87 57 86 58 39 60 73 61 52 62 72 63
REMARK SMILES IDX 53 64 56 65 71 66 91 67 54 68 55 69 70 71 92 72 57 73 40 74
REMARK SMILES IDX 41 75 50 76 42 77 43 78 49 79 51 80 44 81 45 82 46 83 47 84
REMARK SMILES IDX 48 85 74 86 75 87 84 88 76 89 77 90 83 91 85 92 78 93 79 94
REMARK SMILES IDX 80 95 81 96 82 97 58 98 59 99 68 100 60 101 61 102 67 103
REMARK SMILES IDX 69 104 62 105 63 106 64 107 65 108 66 109
REMARK H PARENT 23 6 28 40 90 59 56 70
REMARK Flexibility Score: inf
ROOT
ATOM      1  C   UNL A   1      36.630  32.022  32.706  1.00  0.00     0.023 C 
ENDROOT
BRANCH   1   2
ATOM      2  C   UNL A   1      36.977  32.134  34.166  1.00  0.00     0.116 C 
BRANCH   2   3
ATOM      3  N   UNL A   1      37.792  31.031  34.650  1.00  0.00    -0.356 N 
ATOM      4  C   UNL A   1      38.811  31.082  35.570  1.00  0.00     0.226 C 
ATOM      5  O   UNL A   1      39.052  30.056  36.197  1.00  0.00    -0.275 OA
ATOM      6  H   UNL A   1      37.588  30.144  34.275  1.00  0.00     0.163 HD
BRANCH   4   7
ATOM      7  C   UNL A   1      39.402  32.451  35.922  1.00  0.00     0.049 C 
ATOM      8  C   UNL A   1      39.565  32.986  34.477  1.00  0.00     0.022 C 
ATOM      9  C   UNL A   1      40.651  32.213  36.829  1.00  0.00     0.022 C 
BRANCH   7  10
ATOM     10  C   UNL A   1      38.561  33.427  36.799  1.00  0.00     0.071 C 
BRANCH  10  11
ATOM     11  C   UNL A   1      39.288  34.334  37.701  1.00  0.00     0.034 A 
ATOM     12  C   UNL A   1      40.523  37.891  40.398  1.00  0.00    -0.045 A 
ATOM     13  C   UNL A   1      40.111  36.981  41.375  1.00  0.00     0.006 A 
ATOM     14  C   UNL A   1      40.574  37.466  39.054  1.00  0.00     0.015 A 
ATOM     15  C   UNL A   1      39.714  35.682  41.043  1.00  0.00     0.027 A 
ATOM     16  C   UNL A   1      40.152  36.162  38.675  1.00  0.00     0.014 A 
ATOM     17  C   UNL A   1      39.705  35.304  39.690  1.00  0.00     0.050 A 
ATOM     18  C   UNL A   1      40.019  35.477  37.408  1.00  0.00     0.037 A 
ATOM     19  N   UNL A   1      39.292  34.129  39.080  1.00  0.00    -0.339 N 
BRANCH  12  20
ATOM     20  C   UNL A   1      40.837  39.338  40.746  1.00  0.00     0.013 C 
ATOM     21  C   UNL A   1      42.112  39.802  40.031  1.00  0.00     0.012 C 
ATOM     22  C   UNL A   1      39.679  40.293  40.436  1.00  0.00     0.012 C 
ENDBRANCH  12  20
BRANCH  18  23
ATOM     23  S   UNL A   1      40.502  36.269  35.885  1.00  0.00    -0.118 SA
BRANCH  23  24
ATOM     24  C   UNL A   1      42.181  35.915  35.136  1.00  0.00     0.012 C 
ATOM     25  C   UNL A   1      43.127  35.315  36.180  1.00  0.00     0.023 C 
ATOM     26  C   UNL A   1      42.368  35.142  33.810  1.00  0.00     0.023 C 
ATOM     27  C   UNL A   1      42.678  37.332  34.738  1.00  0.00     0.023 C 
ENDBRANCH  23  24
ENDBRANCH  18  23
BRANCH  19  28
ATOM     28  C   UNL A   1      39.118  32.837  39.798  1.00  0.00     0.158 C 
BRANCH  28  29
ATOM     29  C   UNL A   1      37.833  32.621  40.577  1.00  0.00    -0.028 A 
ATOM     30  C   UNL A   1      37.729  33.012  41.928  1.00  0.00     0.007 A 
ATOM     31  C   UNL A   1      36.716  32.002  39.992  1.00  0.00     0.007 A 
ATOM     32  C   UNL A   1      36.640  32.626  42.716  1.00  0.00     0.021 A 
ATOM     33  C   UNL A   1      35.596  31.663  40.767  1.00  0.00     0.021 A 
ATOM     34  C   UNL A   1      35.588  31.929  42.135  1.00  0.00     0.041 A 
ATOM     35  Cl  UNL A   1      34.296  31.359  43.117  1.00  0.00    -0.084 Cl
ENDBRANCH  28  29
ENDBRANCH  19  28
ENDBRANCH  10  11
ENDBRANCH   7  10
ENDBRANCH   4   7
ENDBRANCH   2   3
ENDBRANCH   1   2
BRANCH   1  36
ATOM     36  C   UNL A   1      35.180  32.385  32.437  1.00  0.00     0.023 C 
BRANCH  36  37
ATOM     37  C   UNL A   1      34.996  33.451  31.343  1.00  0.00     0.116 C 
BRANCH  37  38
ATOM     38  N   UNL A   1      34.390  32.953  30.119  1.00  0.00    -0.352 N 
ATOM     39  C   UNL A   1      34.754  32.005  29.201  1.00  0.00     0.251 C 
ATOM     40  H   UNL A   1      33.535  33.391  29.904  1.00  0.00     0.163 HD
ATOM     41  O   UNL A   1      33.939  31.759  28.309  1.00  0.00    -0.269 OA
BRANCH  39  42
ATOM     42  C   UNL A   1      36.069  31.312  29.198  1.00  0.00     0.039 A 
ATOM     43  C   UNL A   1      36.235  29.938  29.344  1.00  0.00     0.014 A 
ATOM     44  C   UNL A   1      37.217  32.117  29.095  1.00  0.00     0.014 A 
ATOM     45  C   UNL A   1      37.488  29.389  29.520  1.00  0.00     0.010 A 
ATOM     46  C   UNL A   1      38.490  31.563  29.206  1.00  0.00     0.010 A 
ATOM     47  C   UNL A   1      38.616  30.203  29.465  1.00  0.00    -0.014 A 
BRANCH  47  48
ATOM     48  C   UNL A   1      39.889  29.510  29.594  1.00  0.00     0.031 A 
ATOM     49  C   UNL A   1      40.377  29.376  30.994  1.00  0.00     0.074 A 
ATOM     50  C   UNL A   1      40.579  29.014  28.553  1.00  0.00     0.049 A 
ATOM     51  N   UNL A   1      41.409  29.934  31.536  1.00  0.00    -0.248 NA
ATOM     52  C   UNL A   1      39.526  28.638  31.941  1.00  0.00     0.031 C 
ATOM     53  C   UNL A   1      40.108  28.836  27.179  1.00  0.00     0.029 A 
ATOM     54  N   UNL A   1      41.830  28.471  28.532  1.00  0.00    -0.354 N 
ATOM     55  C   UNL A   1      41.465  29.439  32.836  1.00  0.00     0.074 A 
ATOM     56  C   UNL A   1      40.209  28.778  33.079  1.00  0.00     0.031 C 
ATOM     57  C   UNL A   1      40.963  28.019  26.524  1.00  0.00     0.029 A 
ATOM     58  C   UNL A   1      42.110  27.756  27.378  1.00  0.00     0.049 A 
ATOM     59  H   UNL A   1      42.475  28.577  29.269  1.00  0.00     0.167 HD
ATOM     60  C   UNL A   1      42.637  29.388  33.527  1.00  0.00     0.037 A 
ATOM     61  C   UNL A   1      43.180  26.959  27.163  1.00  0.00     0.037 A 
ATOM     62  C   UNL A   1      43.653  30.206  32.922  1.00  0.00     0.049 A 
ATOM     63  C   UNL A   1      44.276  27.411  28.055  1.00  0.00     0.074 A 
ATOM     64  C   UNL A   1      43.999  31.539  32.908  1.00  0.00     0.029 A 
ATOM     65  N   UNL A   1      44.324  29.599  31.898  1.00  0.00    -0.354 N 
ATOM     66  N   UNL A   1      44.860  28.574  27.953  1.00  0.00    -0.248 NA
ATOM     67  C   UNL A   1      44.566  26.676  29.284  1.00  0.00     0.031 C 
ATOM     68  C   UNL A   1      44.771  31.741  31.724  1.00  0.00     0.029 A 
ATOM     69  C   UNL A   1      44.886  30.523  31.057  1.00  0.00     0.049 A 
ATOM     70  H   UNL A   1      44.394  28.624  31.780  1.00  0.00     0.167 HD
ATOM     71  C   UNL A   1      45.237  28.884  29.243  1.00  0.00     0.074 A 
ATOM     72  C   UNL A   1      45.204  27.625  29.972  1.00  0.00     0.031 C 
ATOM     73  C   UNL A   1      45.220  30.171  29.694  1.00  0.00     0.037 A 
BRANCH  60  74
ATOM     74  C   UNL A   1      43.006  28.265  34.469  1.00  0.00     0.058 A 
ATOM     75  C   UNL A   1      43.275  28.542  35.825  1.00  0.00     0.135 A 
ATOM     76  C   UNL A   1      43.395  26.983  34.020  1.00  0.00     0.135 A 
ATOM     77  F   UNL A   1      42.973  29.740  36.350  1.00  0.00    -0.206 F 
ATOM     78  C   UNL A   1      43.916  27.624  36.662  1.00  0.00     0.059 A 
ATOM     79  C   UNL A   1      43.987  26.035  34.849  1.00  0.00     0.059 A 
ATOM     80  F   UNL A   1      43.313  26.628  32.732  1.00  0.00    -0.206 F 
ATOM     81  C   UNL A   1      44.275  26.375  36.160  1.00  0.00     0.060 A 
BRANCH  81  82
ATOM     82  S   UNL A   1      45.172  25.217  37.210  1.00  0.00     0.124 S 
ATOM     83  O   UNL A   1      44.287  25.121  38.365  1.00  0.00    -0.237 OA
ATOM     84  O   UNL A   1      45.245  24.032  36.361  1.00  0.00    -0.237 OA
ATOM     85  O   UNL A   1      46.446  25.892  37.442  1.00  0.00    -0.744 OA
ENDBRANCH  81  82
ENDBRANCH  60  74
BRANCH  61  86
ATOM     86  C   UNL A   1      43.211  25.646  26.473  1.00  0.00     0.058 A 
ATOM     87  C   UNL A   1      44.041  25.452  25.356  1.00  0.00     0.135 A 
ATOM     88  C   UNL A   1      42.684  24.485  27.073  1.00  0.00     0.135 A 
ATOM     89  F   UNL A   1      44.583  26.505  24.724  1.00  0.00    -0.206 F 
ATOM     90  C   UNL A   1      44.410  24.179  24.918  1.00  0.00     0.059 A 
ATOM     91  C   UNL A   1      43.025  23.205  26.644  1.00  0.00     0.059 A 
ATOM     92  F   UNL A   1      41.904  24.556  28.161  1.00  0.00    -0.206 F 
ATOM     93  C   UNL A   1      43.922  23.060  25.593  1.00  0.00     0.060 A 
BRANCH  93  94
ATOM     94  S   UNL A   1      44.583  21.431  25.181  1.00  0.00     0.124 S 
ATOM     95  O   UNL A   1      44.575  21.464  23.722  1.00  0.00    -0.237 OA
ATOM     96  O   UNL A   1      45.896  21.467  25.813  1.00  0.00    -0.237 OA
ATOM     97  O   UNL A   1      43.624  20.513  25.790  1.00  0.00    -0.744 OA
ENDBRANCH  93  94
ENDBRANCH  61  86
BRANCH  73  98
ATOM     98  C   UNL A   1      45.388  31.262  28.681  1.00  0.00     0.058 A 
ATOM     99  C   UNL A   1      44.336  31.899  28.004  1.00  0.00     0.135 A 
ATOM    100  C   UNL A   1      46.690  31.720  28.425  1.00  0.00     0.135 A 
ATOM    101  F   UNL A   1      43.059  31.574  28.255  1.00  0.00    -0.206 F 
ATOM    102  C   UNL A   1      44.573  32.918  27.079  1.00  0.00     0.059 A 
ATOM    103  C   UNL A   1      46.948  32.754  27.531  1.00  0.00     0.059 A 
ATOM    104  F   UNL A   1      47.733  31.177  29.075  1.00  0.00    -0.206 F 
ATOM    105  C   UNL A   1      45.885  33.338  26.850  1.00  0.00     0.060 A 
BRANCH 105 106
ATOM    106  S   UNL A   1      46.183  34.693  25.695  1.00  0.00     0.124 S 
ATOM    107  O   UNL A   1      45.863  35.864  26.500  1.00  0.00    -0.237 OA
ATOM    108  O   UNL A   1      47.594  34.519  25.360  1.00  0.00    -0.237 OA
ATOM    109  O   UNL A   1      45.254  34.417  24.598  1.00  0.00    -0.744 OA
ENDBRANCH 105 106
ENDBRANCH  73  98
ENDBRANCH  47  48
ENDBRANCH  39  42
ENDBRANCH  37  38
ENDBRANCH  36  37
ENDBRANCH   1  36
TORSDOF 21
ENDMDL
MODEL 3
REMARK VINA RESULT:     -10.2      1.618      3.514
REMARK SMILES CC(C)c1ccc2c(c1)c(SC(C)(C)C)c(CC(C)(C)C(=O)NCCCCNC(=O)c1ccc(-c3c4nc(c(-c5c(F)cc(S(=O)(=O)[O-])cc5F)c5ccc([nH]5)c(-c5c(F)cc(S(=O)(=O)[O-])cc5F)c5nc(c(-c6c(F)cc(S(=O)(=O)[O-])cc6F)c6ccc3[nH]6)C=C5)C=C4)cc1)n2Cc1ccc(Cl)cc1
REMARK SMILES IDX 25 1 24 2 23 3 21 4 22 5 18 7 19 8 20 9 17 10 16 11 4 12
REMARK SMILES IDX 5 13 9 14 6 15 8 16 7 17 10 18 97 19 2 20 1 21 3 22 11 23
REMARK SMILES IDX 12 24 13 25 14 26 15 27 98 28 99 29 100 30 105 31 101 32
REMARK SMILES IDX 104 33 102 34 103 35 26 36 27 37 28 38 29 39 30 41 31 42
REMARK SMILES IDX 32 43 96 44 33 45 95 46 34 47 35 48 36 49 89 50 37 51 94 52
REMARK SMILES IDX 88 53 90 54 38 55 93 56 87 57 86 58 39 60 73 61 52 62 72 63
REMARK SMILES IDX 53 64 56 65 71 66 91 67 54 68 55 69 70 71 92 72 57 73 40 74
REMARK SMILES IDX 41 75 50 76 42 77 43 78 49 79 51 80 44 81 45 82 46 83 47 84
REMARK SMILES IDX 48 85 74 86 75 87 84 88 76 89 77 90 83 91 85 92 78 93 79 94
REMARK SMILES IDX 80 95 81 96 82 97 58 98 59 99 68 100 60 101 61 102 67 103
REMARK SMILES IDX 69 104 62 105 63 106 64 107 65 108 66 109
REMARK H PARENT 23 6 28 40 90 59 56 70
REMARK Flexibility Score: inf
ROOT
ATOM      1  C   UNL A   1      37.241  32.745  32.821  1.00  0.00     0.023 C 
ENDROOT
BRANCH   1   2
ATOM      2  C   UNL A   1      37.285  32.675  34.324  1.00  0.00     0.116 C 
BRANCH   2   3
ATOM      3  N   UNL A   1      37.704  31.377  34.827  1.00  0.00    -0.356 N 
ATOM      4  C   UNL A   1      38.474  31.115  35.936  1.00  0.00     0.226 C 
ATOM      5  O   UNL A   1      38.334  30.020  36.469  1.00  0.00    -0.275 OA
ATOM      6  H   UNL A   1      37.400  30.593  34.314  1.00  0.00     0.163 HD
BRANCH   4   7
ATOM      7  C   UNL A   1      39.257  32.273  36.564  1.00  0.00     0.049 C 
ATOM      8  C   UNL A   1      40.646  31.588  36.605  1.00  0.00     0.022 C 
ATOM      9  C   UNL A   1      38.529  32.679  37.885  1.00  0.00     0.022 C 
BRANCH   7  10
ATOM     10  C   UNL A   1      39.316  33.634  35.809  1.00  0.00     0.071 C 
BRANCH  10  11
ATOM     11  C   UNL A   1      40.641  34.154  35.439  1.00  0.00     0.034 A 
ATOM     12  C   UNL A   1      44.111  36.666  33.677  1.00  0.00    -0.045 A 
ATOM     13  C   UNL A   1      44.102  37.154  34.985  1.00  0.00     0.006 A 
ATOM     14  C   UNL A   1      43.266  35.584  33.351  1.00  0.00     0.015 A 
ATOM     15  C   UNL A   1      43.250  36.623  35.958  1.00  0.00     0.027 A 
ATOM     16  C   UNL A   1      42.367  35.036  34.305  1.00  0.00     0.014 A 
ATOM     17  C   UNL A   1      42.366  35.594  35.592  1.00  0.00     0.050 A 
ATOM     18  C   UNL A   1      41.352  34.006  34.256  1.00  0.00     0.037 A 
ATOM     19  N   UNL A   1      41.377  34.948  36.318  1.00  0.00    -0.339 N 
BRANCH  12  20
ATOM     20  C   UNL A   1      44.948  37.326  32.591  1.00  0.00     0.013 C 
ATOM     21  C   UNL A   1      45.840  38.422  33.187  1.00  0.00     0.012 C 
ATOM     22  C   UNL A   1      45.797  36.326  31.799  1.00  0.00     0.012 C 
ENDBRANCH  12  20
BRANCH  18  23
ATOM     23  S   UNL A   1      41.072  33.070  32.763  1.00  0.00    -0.118 SA
BRANCH  23  24
ATOM     24  C   UNL A   1      41.081  33.933  31.102  1.00  0.00     0.012 C 
ATOM     25  C   UNL A   1      39.690  34.477  30.763  1.00  0.00     0.023 C 
ATOM     26  C   UNL A   1      42.129  35.001  30.710  1.00  0.00     0.023 C 
ATOM     27  C   UNL A   1      41.439  32.778  30.125  1.00  0.00     0.023 C 
ENDBRANCH  23  24
ENDBRANCH  18  23
BRANCH  19  28
ATOM     28  C   UNL A   1      41.300  34.953  37.804  1.00  0.00     0.158 C 
BRANCH  28  29
ATOM     29  C   UNL A   1      40.824  36.222  38.490  1.00  0.00    -0.028 A 
ATOM     30  C   UNL A   1      41.745  37.159  39.002  1.00  0.00     0.007 A 
ATOM     31  C   UNL A   1      39.457  36.493  38.660  1.00  0.00     0.007 A 
ATOM     32  C   UNL A   1      41.330  38.213  39.822  1.00  0.00     0.021 A 
ATOM     33  C   UNL A   1      39.035  37.585  39.436  1.00  0.00     0.021 A 
ATOM     34  C   UNL A   1      39.974  38.407  40.055  1.00  0.00     0.041 A 
ATOM     35  Cl  UNL A   1      39.462  39.635  41.145  1.00  0.00    -0.084 Cl
ENDBRANCH  28  29
ENDBRANCH  19  28
ENDBRANCH  10  11
ENDBRANCH   7  10
ENDBRANCH   4   7
ENDBRANCH   2   3
ENDBRANCH   1   2
BRANCH   1  36
ATOM     36  C   UNL A   1      35.880  32.352  32.275  1.00  0.00     0.023 C 
BRANCH  36  37
ATOM     37  C   UNL A   1      35.271  33.387  31.313  1.00  0.00     0.116 C 
BRANCH  37  38
ATOM     38  N   UNL A   1      34.592  32.809  30.164  1.00  0.00    -0.352 N 
ATOM     39  C   UNL A   1      34.893  31.791  29.301  1.00  0.00     0.251 C 
ATOM     40  H   UNL A   1      33.730  33.242  29.966  1.00  0.00     0.163 HD
ATOM     41  O   UNL A   1      34.026  31.491  28.477  1.00  0.00    -0.269 OA
BRANCH  39  42
ATOM     42  C   UNL A   1      36.198  31.081  29.276  1.00  0.00     0.039 A 
ATOM     43  C   UNL A   1      36.359  29.720  29.521  1.00  0.00     0.014 A 
ATOM     44  C   UNL A   1      37.346  31.858  29.042  1.00  0.00     0.014 A 
ATOM     45  C   UNL A   1      37.614  29.168  29.666  1.00  0.00     0.010 A 
ATOM     46  C   UNL A   1      38.618  31.294  29.122  1.00  0.00     0.010 A 
ATOM     47  C   UNL A   1      38.745  29.958  29.481  1.00  0.00    -0.014 A 
BRANCH  47  48
ATOM     48  C   UNL A   1      40.017  29.259  29.589  1.00  0.00     0.031 A 
ATOM     49  C   UNL A   1      40.499  29.074  30.986  1.00  0.00     0.074 A 
ATOM     50  C   UNL A   1      40.710  28.799  28.534  1.00  0.00     0.049 A 
ATOM     51  N   UNL A   1      41.530  29.610  31.551  1.00  0.00    -0.248 NA
ATOM     52  C   UNL A   1      39.644  28.304  31.903  1.00  0.00     0.031 C 
ATOM     53  C   UNL A   1      40.244  28.670  27.152  1.00  0.00     0.029 A 
ATOM     54  N   UNL A   1      41.960  28.255  28.498  1.00  0.00    -0.354 N 
ATOM     55  C   UNL A   1      41.581  29.069  32.833  1.00  0.00     0.074 A 
ATOM     56  C   UNL A   1      40.323  28.402  33.047  1.00  0.00     0.031 C 
ATOM     57  C   UNL A   1      41.099  27.877  26.472  1.00  0.00     0.029 A 
ATOM     58  C   UNL A   1      42.242  27.581  27.320  1.00  0.00     0.049 A 
ATOM     59  H   UNL A   1      42.602  28.332  29.241  1.00  0.00     0.167 HD
ATOM     60  C   UNL A   1      42.750  28.991  33.525  1.00  0.00     0.037 A 
ATOM     61  C   UNL A   1      43.312  26.790  27.081  1.00  0.00     0.037 A 
ATOM     62  C   UNL A   1      43.769  29.828  32.954  1.00  0.00     0.049 A 
ATOM     63  C   UNL A   1      44.406  27.208  27.992  1.00  0.00     0.074 A 
ATOM     64  C   UNL A   1      44.117  31.160  32.989  1.00  0.00     0.029 A 
ATOM     65  N   UNL A   1      44.443  29.257  31.911  1.00  0.00    -0.354 N 
ATOM     66  N   UNL A   1      44.992  28.373  27.934  1.00  0.00    -0.248 NA
ATOM     67  C   UNL A   1      44.690  26.428  29.195  1.00  0.00     0.031 C 
ATOM     68  C   UNL A   1      44.895  31.402  31.816  1.00  0.00     0.029 A 
ATOM     69  C   UNL A   1      45.010  30.209  31.106  1.00  0.00     0.049 A 
ATOM     70  H   UNL A   1      44.512  28.286  31.758  1.00  0.00     0.167 HD
ATOM     71  C   UNL A   1      45.365  28.636  29.236  1.00  0.00     0.074 A 
ATOM     72  C   UNL A   1      45.327  27.351  29.919  1.00  0.00     0.031 C 
ATOM     73  C   UNL A   1      45.348  29.905  29.732  1.00  0.00     0.037 A 
BRANCH  60  74
ATOM     74  C   UNL A   1      43.113  27.834  34.428  1.00  0.00     0.058 A 
ATOM     75  C   UNL A   1      43.351  28.057  35.799  1.00  0.00     0.135 A 
ATOM     76  C   UNL A   1      43.528  26.576  33.935  1.00  0.00     0.135 A 
ATOM     77  F   UNL A   1      43.023  29.230  36.367  1.00  0.00    -0.206 F 
ATOM     78  C   UNL A   1      43.986  27.113  36.611  1.00  0.00     0.059 A 
ATOM     79  C   UNL A   1      44.114  25.602  34.736  1.00  0.00     0.059 A 
ATOM     80  F   UNL A   1      43.476  26.274  32.632  1.00  0.00    -0.206 F 
ATOM     81  C   UNL A   1      44.371  25.891  36.067  1.00  0.00     0.060 A 
BRANCH  81  82
ATOM     82  S   UNL A   1      45.260  24.701  37.087  1.00  0.00     0.124 S 
ATOM     83  O   UNL A   1      44.660  24.929  38.396  1.00  0.00    -0.237 OA
ATOM     84  O   UNL A   1      44.923  23.436  36.440  1.00  0.00    -0.237 OA
ATOM     85  O   UNL A   1      46.653  25.115  36.948  1.00  0.00    -0.744 OA
ENDBRANCH  81  82
ENDBRANCH  60  74
BRANCH  61  86
ATOM     86  C   UNL A   1      43.343  25.502  26.344  1.00  0.00     0.058 A 
ATOM     87  C   UNL A   1      44.271  25.301  25.308  1.00  0.00     0.135 A 
ATOM     88  C   UNL A   1      42.698  24.352  26.842  1.00  0.00     0.135 A 
ATOM     89  F   UNL A   1      44.928  26.343  24.777  1.00  0.00    -0.206 F 
ATOM     90  C   UNL A   1      44.614  24.025  24.858  1.00  0.00     0.059 A 
ATOM     91  C   UNL A   1      43.013  23.071  26.396  1.00  0.00     0.059 A 
ATOM     92  F   UNL A   1      41.817  24.429  27.849  1.00  0.00    -0.206 F 
ATOM     93  C   UNL A   1      44.003  22.913  25.435  1.00  0.00     0.060 A 
BRANCH  93  94
ATOM     94  S   UNL A   1      44.615  21.265  25.024  1.00  0.00     0.124 S 
ATOM     95  O   UNL A   1      43.620  20.408  25.659  1.00  0.00    -0.237 OA
ATOM     96  O   UNL A   1      44.598  21.289  23.566  1.00  0.00    -0.237 OA
ATOM     97  O   UNL A   1      45.943  21.236  25.630  1.00  0.00    -0.744 OA
ENDBRANCH  93  94
ENDBRANCH  61  86
BRANCH  73  98
ATOM     98  C   UNL A   1      45.522  31.032  28.760  1.00  0.00     0.058 A 
ATOM     99  C   UNL A   1      44.490  31.602  27.998  1.00  0.00     0.135 A 
ATOM    100  C   UNL A   1      46.802  31.596  28.636  1.00  0.00     0.135 A 
ATOM    101  F   UNL A   1      43.225  31.173  28.121  1.00  0.00    -0.206 F 
ATOM    102  C   UNL A   1      44.730  32.660  27.118  1.00  0.00     0.059 A 
ATOM    103  C   UNL A   1      47.058  32.669  27.790  1.00  0.00     0.059 A 
ATOM    104  F   UNL A   1      47.820  31.120  29.372  1.00  0.00    -0.206 F 
ATOM    105  C   UNL A   1      46.020  33.186  27.022  1.00  0.00     0.060 A 
BRANCH 105 106
ATOM    106  S   UNL A   1      46.315  34.589  25.925  1.00  0.00     0.124 S 
ATOM    107  O   UNL A   1      45.776  35.704  26.694  1.00  0.00    -0.237 OA
ATOM    108  O   UNL A   1      47.766  34.569  25.769  1.00  0.00    -0.237 OA
ATOM    109  O   UNL A   1      45.563  34.243  24.717  1.00  0.00    -0.744 OA
ENDBRANCH 105 106
ENDBRANCH  73  98
ENDBRANCH  47  48
ENDBRANCH  39  42
ENDBRANCH  37  38
ENDBRANCH  36  37
ENDBRANCH   1  36
TORSDOF 21
ENDMDL
