MODEL 1
REMARK VINA RESULT:     -11.3      0.000      0.000
REMARK SMILES C[C@@H](C(=O)NCCCCNC(=O)c1ccc(-c2c3nc(c(-c4c(F)cc(S(=O)(=O)[O-])cc4F)c4ccc([nH]4)c(-c4c(F)cc(S(=O)(=O)[O-])cc4F)c4nc(c(-c5c(F)cc(S(=O)(=O)[O-])cc5F)c5ccc2[nH]5)C=C4)C=C3)cc1)[C@H]1CCOC2(CCCCC2)C1
REMARK SMILES IDX 8 1 7 2 6 3 5 4 3 5 4 6 2 8 1 9 79 10 80 11 89 12 81 13
REMARK SMILES IDX 83 14 82 15 84 16 88 17 85 18 87 19 86 20 9 21 10 22 11 23
REMARK SMILES IDX 12 25 13 26 14 27 78 28 15 29 77 30 16 31 17 32 18 33 71 34
REMARK SMILES IDX 19 35 76 36 70 37 72 38 20 39 75 40 69 41 68 42 21 44 55 45
REMARK SMILES IDX 34 46 54 47 35 48 38 49 53 50 73 51 36 52 37 53 52 55 74 56
REMARK SMILES IDX 39 57 22 58 23 59 32 60 24 61 25 62 31 63 33 64 26 65 27 66
REMARK SMILES IDX 28 67 29 68 30 69 56 70 57 71 66 72 58 73 59 74 65 75 67 76
REMARK SMILES IDX 60 77 61 78 62 79 63 80 64 81 40 82 41 83 50 84 42 85 43 86
REMARK SMILES IDX 49 87 51 88 44 89 45 90 46 91 47 92 48 93
REMARK H PARENT 5 7 10 24 72 43 38 54
REMARK Flexibility Score: inf
ROOT
ATOM      1  C   UNL A   1      33.770  28.276  25.677  1.00  0.00     0.023 C 
ENDROOT
BRANCH   1   2
ATOM      2  C   UNL A   1      32.913  29.194  24.804  1.00  0.00     0.023 C 
BRANCH   2   3
ATOM      3  C   UNL A   1      31.796  28.494  24.030  1.00  0.00     0.116 C 
BRANCH   3   4
ATOM      4  N   UNL A   1      30.923  27.744  24.907  1.00  0.00    -0.356 N 
ATOM      5  C   UNL A   1      30.644  26.412  24.954  1.00  0.00     0.223 C 
ATOM      6  O   UNL A   1      29.887  26.037  25.850  1.00  0.00    -0.275 OA
ATOM      7  H   UNL A   1      30.454  28.285  25.582  1.00  0.00     0.163 HD
BRANCH   5   8
ATOM      8  C   UNL A   1      31.296  25.436  23.960  1.00  0.00     0.078 C 
ATOM      9  C   UNL A   1      30.265  24.552  23.252  1.00  0.00     0.018 C 
BRANCH   8  10
ATOM     10  C   UNL A   1      32.407  24.601  24.669  1.00  0.00     0.006 C 
ATOM     11  C   UNL A   1      31.928  23.226  25.166  1.00  0.00     0.033 C 
ATOM     12  C   UNL A   1      33.637  24.393  23.765  1.00  0.00     0.040 C 
ATOM     13  C   UNL A   1      33.068  22.471  25.831  1.00  0.00     0.161 C 
ATOM     14  C   UNL A   1      34.732  23.533  24.432  1.00  0.00     0.069 C 
ATOM     15  O   UNL A   1      34.164  22.312  24.933  1.00  0.00    -0.375 OA
ATOM     16  C   UNL A   1      35.477  24.306  25.542  1.00  0.00     0.035 C 
ATOM     17  C   UNL A   1      35.756  23.111  23.353  1.00  0.00     0.035 C 
ATOM     18  C   UNL A   1      36.620  23.487  26.143  1.00  0.00     0.003 C 
ATOM     19  C   UNL A   1      36.911  22.295  23.935  1.00  0.00     0.003 C 
ATOM     20  C   UNL A   1      37.606  23.033  25.073  1.00  0.00     0.000 C 
ENDBRANCH   8  10
ENDBRANCH   5   8
ENDBRANCH   3   4
ENDBRANCH   2   3
ENDBRANCH   1   2
BRANCH   1  21
ATOM     21  C   UNL A   1      33.585  28.443  27.179  1.00  0.00     0.116 C 
BRANCH  21  22
ATOM     22  N   UNL A   1      33.507  29.836  27.589  1.00  0.00    -0.352 N 
ATOM     23  C   UNL A   1      34.463  30.614  28.193  1.00  0.00     0.251 C 
ATOM     24  H   UNL A   1      32.649  30.283  27.407  1.00  0.00     0.163 HD
ATOM     25  O   UNL A   1      34.177  31.742  28.587  1.00  0.00    -0.269 OA
BRANCH  23  26
ATOM     26  C   UNL A   1      35.824  30.074  28.401  1.00  0.00     0.039 A 
ATOM     27  C   UNL A   1      36.728  30.100  27.336  1.00  0.00     0.014 A 
ATOM     28  C   UNL A   1      36.214  29.572  29.645  1.00  0.00     0.014 A 
ATOM     29  C   UNL A   1      38.047  29.689  27.541  1.00  0.00     0.010 A 
ATOM     30  C   UNL A   1      37.546  29.228  29.866  1.00  0.00     0.010 A 
ATOM     31  C   UNL A   1      38.476  29.288  28.817  1.00  0.00    -0.014 A 
BRANCH  31  32
ATOM     32  C   UNL A   1      39.900  28.952  29.079  1.00  0.00     0.031 A 
ATOM     33  C   UNL A   1      40.832  29.990  29.641  1.00  0.00     0.074 A 
ATOM     34  C   UNL A   1      40.365  27.732  28.744  1.00  0.00     0.049 A 
ATOM     35  N   UNL A   1      42.117  29.907  29.868  1.00  0.00    -0.248 NA
ATOM     36  C   UNL A   1      40.250  31.302  29.967  1.00  0.00     0.031 C 
ATOM     37  C   UNL A   1      39.570  26.658  28.141  1.00  0.00     0.029 A 
ATOM     38  N   UNL A   1      41.622  27.191  28.849  1.00  0.00    -0.354 N 
ATOM     39  C   UNL A   1      42.500  31.153  30.349  1.00  0.00     0.074 A 
ATOM     40  C   UNL A   1      41.320  31.991  30.337  1.00  0.00     0.031 C 
ATOM     41  C   UNL A   1      40.354  25.586  27.946  1.00  0.00     0.029 A 
ATOM     42  C   UNL A   1      41.712  25.903  28.375  1.00  0.00     0.049 A 
ATOM     43  H   UNL A   1      42.388  27.680  29.228  1.00  0.00     0.167 HD
ATOM     44  C   UNL A   1      43.718  31.555  30.782  1.00  0.00     0.037 A 
ATOM     45  C   UNL A   1      42.771  25.075  28.286  1.00  0.00     0.037 A 
ATOM     46  C   UNL A   1      44.881  30.708  30.820  1.00  0.00     0.049 A 
ATOM     47  C   UNL A   1      44.113  25.545  28.780  1.00  0.00     0.074 A 
ATOM     48  C   UNL A   1      46.145  31.003  31.302  1.00  0.00     0.029 A 
ATOM     49  N   UNL A   1      44.925  29.400  30.358  1.00  0.00    -0.354 N 
ATOM     50  N   UNL A   1      44.440  26.706  29.296  1.00  0.00    -0.248 NA
ATOM     51  C   UNL A   1      45.228  24.593  28.686  1.00  0.00     0.031 C 
ATOM     52  C   UNL A   1      46.964  29.889  31.094  1.00  0.00     0.029 A 
ATOM     53  C   UNL A   1      46.200  28.882  30.526  1.00  0.00     0.049 A 
ATOM     54  H   UNL A   1      44.165  28.913  29.968  1.00  0.00     0.167 HD
ATOM     55  C   UNL A   1      45.790  26.613  29.614  1.00  0.00     0.074 A 
ATOM     56  C   UNL A   1      46.216  25.280  29.243  1.00  0.00     0.031 C 
ATOM     57  C   UNL A   1      46.605  27.548  30.162  1.00  0.00     0.037 A 
BRANCH  44  58
ATOM     58  C   UNL A   1      43.859  32.973  31.263  1.00  0.00     0.058 A 
ATOM     59  C   UNL A   1      44.220  34.012  30.390  1.00  0.00     0.135 A 
ATOM     60  C   UNL A   1      43.574  33.309  32.597  1.00  0.00     0.135 A 
ATOM     61  F   UNL A   1      44.520  33.746  29.109  1.00  0.00    -0.206 F 
ATOM     62  C   UNL A   1      44.312  35.330  30.827  1.00  0.00     0.059 A 
ATOM     63  C   UNL A   1      43.633  34.624  33.048  1.00  0.00     0.059 A 
ATOM     64  F   UNL A   1      43.226  32.353  33.473  1.00  0.00    -0.206 F 
ATOM     65  C   UNL A   1      44.013  35.626  32.158  1.00  0.00     0.060 A 
BRANCH  65  66
ATOM     66  S   UNL A   1      44.113  37.345  32.700  1.00  0.00     0.124 S 
ATOM     67  O   UNL A   1      45.479  37.410  33.211  1.00  0.00    -0.237 OA
ATOM     68  O   UNL A   1      43.864  38.078  31.463  1.00  0.00    -0.237 OA
ATOM     69  O   UNL A   1      43.061  37.446  33.708  1.00  0.00    -0.744 OA
ENDBRANCH  65  66
ENDBRANCH  44  58
BRANCH  45  70
ATOM     70  C   UNL A   1      42.607  23.710  27.718  1.00  0.00     0.058 A 
ATOM     71  C   UNL A   1      42.427  22.597  28.554  1.00  0.00     0.135 A 
ATOM     72  C   UNL A   1      42.628  23.489  26.332  1.00  0.00     0.135 A 
ATOM     73  F   UNL A   1      42.404  22.756  29.885  1.00  0.00    -0.206 F 
ATOM     74  C   UNL A   1      42.301  21.311  28.038  1.00  0.00     0.059 A 
ATOM     75  C   UNL A   1      42.477  22.216  25.792  1.00  0.00     0.059 A 
ATOM     76  F   UNL A   1      42.778  24.523  25.489  1.00  0.00    -0.206 F 
ATOM     77  C   UNL A   1      42.328  21.131  26.654  1.00  0.00     0.060 A 
BRANCH  77  78
ATOM     78  S   UNL A   1      42.132  19.461  25.993  1.00  0.00     0.124 S 
ATOM     79  O   UNL A   1      40.691  19.401  25.776  1.00  0.00    -0.237 OA
ATOM     80  O   UNL A   1      42.959  19.507  24.792  1.00  0.00    -0.237 OA
ATOM     81  O   UNL A   1      42.645  18.615  27.067  1.00  0.00    -0.744 OA
ENDBRANCH  77  78
ENDBRANCH  45  70
BRANCH  57  82
ATOM     82  C   UNL A   1      48.030  27.153  30.430  1.00  0.00     0.058 A 
ATOM     83  C   UNL A   1      49.053  27.412  29.506  1.00  0.00     0.135 A 
ATOM     84  C   UNL A   1      48.383  26.553  31.650  1.00  0.00     0.135 A 
ATOM     85  F   UNL A   1      48.768  27.977  28.322  1.00  0.00    -0.206 F 
ATOM     86  C   UNL A   1      50.375  27.068  29.771  1.00  0.00     0.059 A 
ATOM     87  C   UNL A   1      49.702  26.226  31.948  1.00  0.00     0.059 A 
ATOM     88  F   UNL A   1      47.443  26.294  32.573  1.00  0.00    -0.206 F 
ATOM     89  C   UNL A   1      50.690  26.477  30.997  1.00  0.00     0.060 A 
BRANCH  89  90
ATOM     90  S   UNL A   1      52.413  26.068  31.344  1.00  0.00     0.124 S 
ATOM     91  O   UNL A   1      52.789  27.136  32.264  1.00  0.00    -0.237 OA
ATOM     92  O   UNL A   1      52.306  24.735  31.931  1.00  0.00    -0.237 OA
ATOM     93  O   UNL A   1      53.046  26.118  30.030  1.00  0.00    -0.744 OA
ENDBRANCH  89  90
ENDBRANCH  57  82
ENDBRANCH  31  32
ENDBRANCH  23  26
ENDBRANCH  21  22
ENDBRANCH   1  21
TORSDOF 15
ENDMDL
MODEL 2
REMARK VINA RESULT:     -11.1      5.083     10.448
REMARK SMILES C[C@@H](C(=O)NCCCCNC(=O)c1ccc(-c2c3nc(c(-c4c(F)cc(S(=O)(=O)[O-])cc4F)c4ccc([nH]4)c(-c4c(F)cc(S(=O)(=O)[O-])cc4F)c4nc(c(-c5c(F)cc(S(=O)(=O)[O-])cc5F)c5ccc2[nH]5)C=C4)C=C3)cc1)[C@H]1CCOC2(CCCCC2)C1
REMARK SMILES IDX 8 1 7 2 6 3 5 4 3 5 4 6 2 8 1 9 79 10 80 11 89 12 81 13
REMARK SMILES IDX 83 14 82 15 84 16 88 17 85 18 87 19 86 20 9 21 10 22 11 23
REMARK SMILES IDX 12 25 13 26 14 27 78 28 15 29 77 30 16 31 17 32 18 33 71 34
REMARK SMILES IDX 19 35 76 36 70 37 72 38 20 39 75 40 69 41 68 42 21 44 55 45
REMARK SMILES IDX 34 46 54 47 35 48 38 49 53 50 73 51 36 52 37 53 52 55 74 56
REMARK SMILES IDX 39 57 22 58 23 59 32 60 24 61 25 62 31 63 33 64 26 65 27 66
REMARK SMILES IDX 28 67 29 68 30 69 56 70 57 71 66 72 58 73 59 74 65 75 67 76
REMARK SMILES IDX 60 77 61 78 62 79 63 80 64 81 40 82 41 83 50 84 42 85 43 86
REMARK SMILES IDX 49 87 51 88 44 89 45 90 46 91 47 92 48 93
REMARK H PARENT 5 7 10 24 72 43 38 54
REMARK Flexibility Score: inf
ROOT
ATOM      1  C   UNL A   1      39.183  22.725  26.623  1.00  0.00     0.023 C 
ENDROOT
BRANCH   1   2
ATOM      2  C   UNL A   1      38.173  23.782  26.171  1.00  0.00     0.023 C 
BRANCH   2   3
ATOM      3  C   UNL A   1      36.868  23.227  25.600  1.00  0.00     0.116 C 
BRANCH   3   4
ATOM      4  N   UNL A   1      35.920  22.904  26.644  1.00  0.00    -0.356 N 
ATOM      5  C   UNL A   1      34.582  22.660  26.582  1.00  0.00     0.223 C 
ATOM      6  O   UNL A   1      34.025  22.360  27.638  1.00  0.00    -0.275 OA
ATOM      7  H   UNL A   1      36.305  22.853  27.548  1.00  0.00     0.163 HD
BRANCH   5   8
ATOM      8  C   UNL A   1      33.834  22.708  25.239  1.00  0.00     0.078 C 
ATOM      9  C   UNL A   1      32.773  23.811  25.203  1.00  0.00     0.018 C 
BRANCH   8  10
ATOM     10  C   UNL A   1      33.243  21.305  24.896  1.00  0.00     0.006 C 
ATOM     11  C   UNL A   1      32.569  21.236  23.515  1.00  0.00     0.033 C 
ATOM     12  C   UNL A   1      34.310  20.196  24.975  1.00  0.00     0.040 C 
ATOM     13  C   UNL A   1      32.033  19.838  23.252  1.00  0.00     0.161 C 
ATOM     14  C   UNL A   1      33.757  18.805  24.598  1.00  0.00     0.069 C 
ATOM     15  O   UNL A   1      33.075  18.870  23.334  1.00  0.00    -0.375 OA
ATOM     16  C   UNL A   1      32.843  18.229  25.702  1.00  0.00     0.035 C 
ATOM     17  C   UNL A   1      34.946  17.839  24.388  1.00  0.00     0.035 C 
ATOM     18  C   UNL A   1      32.366  16.814  25.371  1.00  0.00     0.003 C 
ATOM     19  C   UNL A   1      34.489  16.416  24.061  1.00  0.00     0.003 C 
ATOM     20  C   UNL A   1      33.538  15.872  25.120  1.00  0.00     0.000 C 
ENDBRANCH   8  10
ENDBRANCH   5   8
ENDBRANCH   3   4
ENDBRANCH   2   3
ENDBRANCH   1   2
BRANCH   1  21
ATOM     21  C   UNL A   1      40.546  23.259  27.042  1.00  0.00     0.116 C 
BRANCH  21  22
ATOM     22  N   UNL A   1      41.200  24.026  25.993  1.00  0.00    -0.352 N 
ATOM     23  C   UNL A   1      41.615  25.335  26.011  1.00  0.00     0.251 C 
ATOM     24  H   UNL A   1      41.369  23.539  25.155  1.00  0.00     0.163 HD
ATOM     25  O   UNL A   1      42.037  25.858  24.982  1.00  0.00    -0.269 OA
BRANCH  23  26
ATOM     26  C   UNL A   1      41.516  26.119  27.261  1.00  0.00     0.039 A 
ATOM     27  C   UNL A   1      42.567  26.972  27.605  1.00  0.00     0.014 A 
ATOM     28  C   UNL A   1      40.382  26.034  28.072  1.00  0.00     0.014 A 
ATOM     29  C   UNL A   1      42.449  27.796  28.727  1.00  0.00     0.010 A 
ATOM     30  C   UNL A   1      40.236  26.905  29.149  1.00  0.00     0.010 A 
ATOM     31  C   UNL A   1      41.265  27.798  29.484  1.00  0.00    -0.014 A 
BRANCH  31  32
ATOM     32  C   UNL A   1      41.078  28.744  30.615  1.00  0.00     0.031 A 
ATOM     33  C   UNL A   1      41.915  28.615  31.857  1.00  0.00     0.074 A 
ATOM     34  C   UNL A   1      40.104  29.674  30.546  1.00  0.00     0.049 A 
ATOM     35  N   UNL A   1      41.848  29.296  32.971  1.00  0.00    -0.248 NA
ATOM     36  C   UNL A   1      42.946  27.564  31.859  1.00  0.00     0.031 C 
ATOM     37  C   UNL A   1      39.191  29.862  29.416  1.00  0.00     0.029 A 
ATOM     38  N   UNL A   1      39.709  30.628  31.450  1.00  0.00    -0.354 N 
ATOM     39  C   UNL A   1      42.814  28.753  33.809  1.00  0.00     0.074 A 
ATOM     40  C   UNL A   1      43.423  27.652  33.093  1.00  0.00     0.031 C 
ATOM     41  C   UNL A   1      38.356  30.878  29.688  1.00  0.00     0.029 A 
ATOM     42  C   UNL A   1      38.648  31.391  31.022  1.00  0.00     0.049 A 
ATOM     43  H   UNL A   1      40.146  30.754  32.324  1.00  0.00     0.167 HD
ATOM     44  C   UNL A   1      43.176  29.149  35.052  1.00  0.00     0.037 A 
ATOM     45  C   UNL A   1      37.978  32.384  31.640  1.00  0.00     0.037 A 
ATOM     46  C   UNL A   1      42.586  30.263  35.747  1.00  0.00     0.049 A 
ATOM     47  C   UNL A   1      38.405  32.808  33.019  1.00  0.00     0.074 A 
ATOM     48  C   UNL A   1      42.928  30.783  36.984  1.00  0.00     0.029 A 
ATOM     49  N   UNL A   1      41.533  31.029  35.269  1.00  0.00    -0.354 N 
ATOM     50  N   UNL A   1      39.368  32.326  33.768  1.00  0.00    -0.248 NA
ATOM     51  C   UNL A   1      37.660  33.915  33.635  1.00  0.00     0.031 C 
ATOM     52  C   UNL A   1      42.056  31.838  37.272  1.00  0.00     0.029 A 
ATOM     53  C   UNL A   1      41.201  32.006  36.194  1.00  0.00     0.049 A 
ATOM     54  H   UNL A   1      41.088  30.898  34.401  1.00  0.00     0.167 HD
ATOM     55  C   UNL A   1      39.362  33.088  34.931  1.00  0.00     0.074 A 
ATOM     56  C   UNL A   1      38.308  34.070  34.781  1.00  0.00     0.031 C 
ATOM     57  C   UNL A   1      40.156  32.984  36.025  1.00  0.00     0.037 A 
BRANCH  44  58
ATOM     58  C   UNL A   1      44.269  28.381  35.743  1.00  0.00     0.058 A 
ATOM     59  C   UNL A   1      45.621  28.722  35.584  1.00  0.00     0.135 A 
ATOM     60  C   UNL A   1      43.958  27.328  36.621  1.00  0.00     0.135 A 
ATOM     61  F   UNL A   1      45.974  29.709  34.745  1.00  0.00    -0.206 F 
ATOM     62  C   UNL A   1      46.628  28.037  36.255  1.00  0.00     0.059 A 
ATOM     63  C   UNL A   1      44.948  26.646  37.322  1.00  0.00     0.059 A 
ATOM     64  F   UNL A   1      42.681  26.959  36.808  1.00  0.00    -0.206 F 
ATOM     65  C   UNL A   1      46.281  27.002  37.124  1.00  0.00     0.060 A 
BRANCH  65  66
ATOM     66  S   UNL A   1      47.600  26.139  38.006  1.00  0.00     0.124 S 
ATOM     67  O   UNL A   1      48.674  27.127  37.960  1.00  0.00    -0.237 OA
ATOM     68  O   UNL A   1      47.003  25.913  39.318  1.00  0.00    -0.237 OA
ATOM     69  O   UNL A   1      47.817  24.939  37.204  1.00  0.00    -0.744 OA
ENDBRANCH  65  66
ENDBRANCH  44  58
BRANCH  45  70
ATOM     70  C   UNL A   1      36.842  33.057  30.955  1.00  0.00     0.058 A 
ATOM     71  C   UNL A   1      35.515  32.757  31.295  1.00  0.00     0.135 A 
ATOM     72  C   UNL A   1      37.059  34.009  29.946  1.00  0.00     0.135 A 
ATOM     73  F   UNL A   1      35.256  31.850  32.249  1.00  0.00    -0.206 F 
ATOM     74  C   UNL A   1      34.442  33.357  30.643  1.00  0.00     0.059 A 
ATOM     75  C   UNL A   1      36.003  34.642  29.299  1.00  0.00     0.059 A 
ATOM     76  F   UNL A   1      38.311  34.346  29.597  1.00  0.00    -0.206 F 
ATOM     77  C   UNL A   1      34.697  34.298  29.644  1.00  0.00     0.060 A 
BRANCH  77  78
ATOM     78  S   UNL A   1      33.298  35.095  28.826  1.00  0.00     0.124 S 
ATOM     79  O   UNL A   1      32.486  35.505  29.967  1.00  0.00    -0.237 OA
ATOM     80  O   UNL A   1      33.947  36.170  28.083  1.00  0.00    -0.237 OA
ATOM     81  O   UNL A   1      32.739  34.025  28.004  1.00  0.00    -0.744 OA
ENDBRANCH  77  78
ENDBRANCH  45  70
BRANCH  57  82
ATOM     82  C   UNL A   1      39.943  33.978  37.132  1.00  0.00     0.058 A 
ATOM     83  C   UNL A   1      40.586  35.225  37.138  1.00  0.00     0.135 A 
ATOM     84  C   UNL A   1      39.042  33.699  38.173  1.00  0.00     0.135 A 
ATOM     85  F   UNL A   1      41.462  35.538  36.170  1.00  0.00    -0.206 F 
ATOM     86  C   UNL A   1      40.364  36.152  38.151  1.00  0.00     0.059 A 
ATOM     87  C   UNL A   1      38.783  34.622  39.181  1.00  0.00     0.059 A 
ATOM     88  F   UNL A   1      38.391  32.525  38.208  1.00  0.00    -0.206 F 
ATOM     89  C   UNL A   1      39.458  35.842  39.167  1.00  0.00     0.060 A 
BRANCH  89  90
ATOM     90  S   UNL A   1      39.151  37.067  40.457  1.00  0.00     0.124 S 
ATOM     91  O   UNL A   1      38.507  36.256  41.485  1.00  0.00    -0.237 OA
ATOM     92  O   UNL A   1      40.497  37.536  40.771  1.00  0.00    -0.237 OA
ATOM     93  O   UNL A   1      38.290  38.045  39.798  1.00  0.00    -0.744 OA
ENDBRANCH  89  90
ENDBRANCH  57  82
ENDBRANCH  31  32
ENDBRANCH  23  26
ENDBRANCH  21  22
ENDBRANCH   1  21
TORSDOF 15
ENDMDL
MODEL 3
REMARK VINA RESULT:     -11.0      1.441      3.540
REMARK SMILES C[C@@H](C(=O)NCCCCNC(=O)c1ccc(-c2c3nc(c(-c4c(F)cc(S(=O)(=O)[O-])cc4F)c4ccc([nH]4)c(-c4c(F)cc(S(=O)(=O)[O-])cc4F)c4nc(c(-c5c(F)cc(S(=O)(=O)[O-])cc5F)c5ccc2[nH]5)C=C4)C=C3)cc1)[C@H]1CCOC2(CCCCC2)C1
REMARK SMILES IDX 8 1 7 2 6 3 5 4 3 5 4 6 2 8 1 9 79 10 80 11 89 12 81 13
REMARK SMILES IDX 83 14 82 15 84 16 88 17 85 18 87 19 86 20 9 21 10 22 11 23
REMARK SMILES IDX 12 25 13 26 14 27 78 28 15 29 77 30 16 31 17 32 18 33 71 34
REMARK SMILES IDX 19 35 76 36 70 37 72 38 20 39 75 40 69 41 68 42 21 44 55 45
REMARK SMILES IDX 34 46 54 47 35 48 38 49 53 50 73 51 36 52 37 53 52 55 74 56
REMARK SMILES IDX 39 57 22 58 23 59 32 60 24 61 25 62 31 63 33 64 26 65 27 66
REMARK SMILES IDX 28 67 29 68 30 69 56 70 57 71 66 72 58 73 59 74 65 75 67 76
REMARK SMILES IDX 60 77 61 78 62 79 63 80 64 81 40 82 41 83 50 84 42 85 43 86
REMARK SMILES IDX 49 87 51 88 44 89 45 90 46 91 47 92 48 93
REMARK H PARENT 5 7 10 24 72 43 38 54
REMARK Flexibility Score: inf
ROOT
ATOM      1  C   UNL A   1      32.949  27.954  25.982  1.00  0.00     0.023 C 
ENDROOT
BRANCH   1   2
ATOM      2  C   UNL A   1      33.700  26.768  25.375  1.00  0.00     0.023 C 
BRANCH   2   3
ATOM      3  C   UNL A   1      32.853  25.515  25.146  1.00  0.00     0.116 C 
BRANCH   3   4
ATOM      4  N   UNL A   1      31.655  25.521  25.958  1.00  0.00    -0.356 N 
ATOM      5  C   UNL A   1      30.347  25.654  25.605  1.00  0.00     0.223 C 
ATOM      6  O   UNL A   1      29.518  25.574  26.513  1.00  0.00    -0.275 OA
ATOM      7  H   UNL A   1      31.811  25.411  26.923  1.00  0.00     0.163 HD
BRANCH   5   8
ATOM      8  C   UNL A   1      29.942  25.840  24.133  1.00  0.00     0.078 C 
ATOM      9  C   UNL A   1      30.646  24.845  23.207  1.00  0.00     0.018 C 
BRANCH   8  10
ATOM     10  C   UNL A   1      30.163  27.321  23.692  1.00  0.00     0.006 C 
ATOM     11  C   UNL A   1      31.310  27.504  22.684  1.00  0.00     0.033 C 
ATOM     12  C   UNL A   1      28.885  27.941  23.097  1.00  0.00     0.040 C 
ATOM     13  C   UNL A   1      31.452  28.967  22.295  1.00  0.00     0.161 C 
ATOM     14  C   UNL A   1      29.093  29.394  22.615  1.00  0.00     0.069 C 
ATOM     15  O   UNL A   1      30.236  29.467  21.747  1.00  0.00    -0.375 OA
ATOM     16  C   UNL A   1      29.217  30.381  23.796  1.00  0.00     0.035 C 
ATOM     17  C   UNL A   1      27.879  29.807  21.752  1.00  0.00     0.035 C 
ATOM     18  C   UNL A   1      29.333  31.831  23.321  1.00  0.00     0.003 C 
ATOM     19  C   UNL A   1      27.974  31.256  21.270  1.00  0.00     0.003 C 
ATOM     20  C   UNL A   1      28.159  32.225  22.433  1.00  0.00     0.000 C 
ENDBRANCH   8  10
ENDBRANCH   5   8
ENDBRANCH   3   4
ENDBRANCH   2   3
ENDBRANCH   1   2
BRANCH   1  21
ATOM     21  C   UNL A   1      33.376  28.348  27.390  1.00  0.00     0.116 C 
BRANCH  21  22
ATOM     22  N   UNL A   1      33.314  29.782  27.620  1.00  0.00    -0.352 N 
ATOM     23  C   UNL A   1      34.291  30.625  28.090  1.00  0.00     0.251 C 
ATOM     24  H   UNL A   1      32.452  30.208  27.409  1.00  0.00     0.163 HD
ATOM     25  O   UNL A   1      34.019  31.796  28.344  1.00  0.00    -0.269 OA
BRANCH  23  26
ATOM     26  C   UNL A   1      35.656  30.107  28.323  1.00  0.00     0.039 A 
ATOM     27  C   UNL A   1      36.562  30.096  27.261  1.00  0.00     0.014 A 
ATOM     28  C   UNL A   1      36.047  29.662  29.589  1.00  0.00     0.014 A 
ATOM     29  C   UNL A   1      37.885  29.707  27.485  1.00  0.00     0.010 A 
ATOM     30  C   UNL A   1      37.382  29.341  29.827  1.00  0.00     0.010 A 
ATOM     31  C   UNL A   1      38.314  29.365  28.778  1.00  0.00    -0.014 A 
BRANCH  31  32
ATOM     32  C   UNL A   1      39.740  29.054  29.057  1.00  0.00     0.031 A 
ATOM     33  C   UNL A   1      40.648  30.108  29.629  1.00  0.00     0.074 A 
ATOM     34  C   UNL A   1      40.231  27.842  28.729  1.00  0.00     0.049 A 
ATOM     35  N   UNL A   1      41.931  30.048  29.871  1.00  0.00    -0.248 NA
ATOM     36  C   UNL A   1      40.039  31.411  29.946  1.00  0.00     0.031 C 
ATOM     37  C   UNL A   1      39.461  26.754  28.118  1.00  0.00     0.029 A 
ATOM     38  N   UNL A   1      41.495  27.322  28.850  1.00  0.00    -0.354 N 
ATOM     39  C   UNL A   1      42.287  31.301  30.355  1.00  0.00     0.074 A 
ATOM     40  C   UNL A   1      41.093  32.118  30.328  1.00  0.00     0.031 C 
ATOM     41  C   UNL A   1      40.266  25.695  27.934  1.00  0.00     0.029 A 
ATOM     42  C   UNL A   1      41.613  26.035  28.379  1.00  0.00     0.049 A 
ATOM     43  H   UNL A   1      42.248  27.825  29.238  1.00  0.00     0.167 HD
ATOM     44  C   UNL A   1      43.493  31.724  30.802  1.00  0.00     0.037 A 
ATOM     45  C   UNL A   1      42.687  25.226  28.303  1.00  0.00     0.037 A 
ATOM     46  C   UNL A   1      44.670  30.897  30.854  1.00  0.00     0.049 A 
ATOM     47  C   UNL A   1      44.015  25.720  28.813  1.00  0.00     0.074 A 
ATOM     48  C   UNL A   1      45.922  31.215  31.351  1.00  0.00     0.029 A 
ATOM     49  N   UNL A   1      44.742  29.590  30.395  1.00  0.00    -0.354 N 
ATOM     50  N   UNL A   1      44.315  26.887  29.331  1.00  0.00    -0.248 NA
ATOM     51  C   UNL A   1      45.146  24.786  28.733  1.00  0.00     0.031 C 
ATOM     52  C   UNL A   1      46.763  30.115  31.154  1.00  0.00     0.029 A 
ATOM     53  C   UNL A   1      46.023  29.094  30.579  1.00  0.00     0.049 A 
ATOM     54  H   UNL A   1      43.994  29.089  29.997  1.00  0.00     0.167 HD
ATOM     55  C   UNL A   1      45.663  26.817  29.665  1.00  0.00     0.074 A 
ATOM     56  C   UNL A   1      46.116  25.491  29.301  1.00  0.00     0.031 C 
ATOM     57  C   UNL A   1      46.455  27.767  30.221  1.00  0.00     0.037 A 
BRANCH  44  58
ATOM     58  C   UNL A   1      43.604  33.145  31.282  1.00  0.00     0.058 A 
ATOM     59  C   UNL A   1      43.365  33.488  32.622  1.00  0.00     0.135 A 
ATOM     60  C   UNL A   1      44.010  34.166  30.408  1.00  0.00     0.135 A 
ATOM     61  F   UNL A   1      42.959  32.555  33.497  1.00  0.00    -0.206 F 
ATOM     62  C   UNL A   1      43.507  34.796  33.074  1.00  0.00     0.059 A 
ATOM     63  C   UNL A   1      44.184  35.476  30.844  1.00  0.00     0.059 A 
ATOM     64  F   UNL A   1      44.249  33.893  29.115  1.00  0.00    -0.206 F 
ATOM     65  C   UNL A   1      43.919  35.783  32.178  1.00  0.00     0.060 A 
BRANCH  65  66
ATOM     66  S   UNL A   1      44.122  37.470  32.788  1.00  0.00     0.124 S 
ATOM     67  O   UNL A   1      45.504  37.446  33.256  1.00  0.00    -0.237 OA
ATOM     68  O   UNL A   1      43.873  38.267  31.591  1.00  0.00    -0.237 OA
ATOM     69  O   UNL A   1      43.107  37.579  33.832  1.00  0.00    -0.744 OA
ENDBRANCH  65  66
ENDBRANCH  44  58
BRANCH  45  70
ATOM     70  C   UNL A   1      42.553  23.858  27.735  1.00  0.00     0.058 A 
ATOM     71  C   UNL A   1      42.377  22.744  28.570  1.00  0.00     0.135 A 
ATOM     72  C   UNL A   1      42.601  23.635  26.350  1.00  0.00     0.135 A 
ATOM     73  F   UNL A   1      42.329  22.904  29.900  1.00  0.00    -0.206 F 
ATOM     74  C   UNL A   1      42.279  21.455  28.054  1.00  0.00     0.059 A 
ATOM     75  C   UNL A   1      42.478  22.359  25.810  1.00  0.00     0.059 A 
ATOM     76  F   UNL A   1      42.748  24.669  25.507  1.00  0.00    -0.206 F 
ATOM     77  C   UNL A   1      42.332  21.273  26.671  1.00  0.00     0.060 A 
BRANCH  77  78
ATOM     78  S   UNL A   1      42.171  19.600  26.011  1.00  0.00     0.124 S 
ATOM     79  O   UNL A   1      40.743  19.534  25.723  1.00  0.00    -0.237 OA
ATOM     80  O   UNL A   1      43.057  19.641  24.852  1.00  0.00    -0.237 OA
ATOM     81  O   UNL A   1      42.633  18.760  27.112  1.00  0.00    -0.744 OA
ENDBRANCH  77  78
ENDBRANCH  45  70
BRANCH  57  82
ATOM     82  C   UNL A   1      47.884  27.396  30.506  1.00  0.00     0.058 A 
ATOM     83  C   UNL A   1      48.247  26.697  31.666  1.00  0.00     0.135 A 
ATOM     84  C   UNL A   1      48.894  27.700  29.578  1.00  0.00     0.135 A 
ATOM     85  F   UNL A   1      47.321  26.387  32.587  1.00  0.00    -0.206 F 
ATOM     86  C   UNL A   1      49.567  26.332  31.910  1.00  0.00     0.059 A 
ATOM     87  C   UNL A   1      50.216  27.321  29.788  1.00  0.00     0.059 A 
ATOM     88  F   UNL A   1      48.597  28.359  28.446  1.00  0.00    -0.206 F 
ATOM     89  C   UNL A   1      50.545  26.647  30.964  1.00  0.00     0.060 A 
BRANCH  89  90
ATOM     90  S   UNL A   1      52.248  26.138  31.275  1.00  0.00     0.124 S 
ATOM     91  O   UNL A   1      52.735  27.234  32.107  1.00  0.00    -0.237 OA
ATOM     92  O   UNL A   1      52.074  24.857  31.953  1.00  0.00    -0.237 OA
ATOM     93  O   UNL A   1      52.829  26.059  29.938  1.00  0.00    -0.744 OA
ENDBRANCH  89  90
ENDBRANCH  57  82
ENDBRANCH  31  32
ENDBRANCH  23  26
ENDBRANCH  21  22
ENDBRANCH   1  21
TORSDOF 15
ENDMDL
