MODEL 1
REMARK VINA RESULT:     -12.1      0.000      0.000
REMARK SMILES O=C(Cc1ccc(NC(=O)Nc2ccc(Br)cc2)cc1)NCCCCNC(=O)c1ccc(-c2c3nc(c(-c4c(F)cc(S(=O)(=O)[O-])cc4F)c4ccc([nH]4)c(-c4c(F)cc(S(=O)(=O)[O-])cc4F)c4nc(c(-c5c(F)cc(S(=O)(=O)[O-])cc5F)c5ccc2[nH]5)C=C4)C=C3)cc1
REMARK SMILES IDX 23 1 22 2 21 3 1 4 2 5 3 7 4 8 5 9 20 10 6 11 19 12 7 13
REMARK SMILES IDX 8 14 9 15 10 17 11 18 12 20 13 21 18 22 14 23 17 24 15 25
REMARK SMILES IDX 16 26 24 27 25 28 26 29 27 30 28 32 29 33 30 34 94 35 31 36
REMARK SMILES IDX 93 37 32 38 33 39 34 40 87 41 35 42 92 43 86 44 88 45 36 46
REMARK SMILES IDX 91 47 85 48 84 49 37 51 71 52 50 53 70 54 51 55 54 56 69 57
REMARK SMILES IDX 89 58 52 59 53 60 68 62 90 63 55 64 38 65 39 66 48 67 40 68
REMARK SMILES IDX 41 69 47 70 49 71 42 72 43 73 44 74 45 75 46 76 72 77 73 78
REMARK SMILES IDX 82 79 74 80 75 81 81 82 83 83 76 84 77 85 78 86 79 87 80 88
REMARK SMILES IDX 56 89 57 90 66 91 58 92 59 93 65 94 67 95 60 96 61 97 62 98
REMARK SMILES IDX 63 99 64 100
REMARK H PARENT 21 6 8 16 11 19 26 31 88 50 54 61
REMARK Flexibility Score: inf
ROOT
ATOM      1  C   UNL A   1      40.750  21.963  26.508  1.00  0.00     0.023 C 
ENDROOT
BRANCH   1   2
ATOM      2  C   UNL A   1      39.436  22.720  26.663  1.00  0.00     0.116 C 
BRANCH   2   3
ATOM      3  N   UNL A   1      38.323  21.972  26.130  1.00  0.00    -0.356 N 
ATOM      4  O   UNL A   1      37.339  23.697  24.972  1.00  0.00    -0.275 OA
ATOM      5  C   UNL A   1      37.377  22.512  25.289  1.00  0.00     0.224 C 
ATOM      6  H   UNL A   1      38.236  21.024  26.382  1.00  0.00     0.163 HD
BRANCH   5   7
ATOM      7  C   UNL A   1      36.324  21.524  24.831  1.00  0.00     0.135 C 
BRANCH   7   8
ATOM      8  C   UNL A   1      34.913  21.930  25.185  1.00  0.00    -0.039 A 
ATOM      9  C   UNL A   1      33.893  21.856  24.230  1.00  0.00     0.006 A 
ATOM     10  C   UNL A   1      34.602  22.380  26.473  1.00  0.00     0.006 A 
ATOM     11  C   UNL A   1      32.569  22.092  24.599  1.00  0.00     0.026 A 
ATOM     12  C   UNL A   1      33.269  22.570  26.847  1.00  0.00     0.026 A 
ATOM     13  C   UNL A   1      32.245  22.298  25.937  1.00  0.00     0.042 A 
BRANCH  13  14
ATOM     14  N   UNL A   1      30.943  22.162  26.447  1.00  0.00    -0.308 N 
ATOM     15  C   UNL A   1      30.067  23.062  26.971  1.00  0.00     0.323 C 
ATOM     16  H   UNL A   1      30.597  21.241  26.419  1.00  0.00     0.171 HD
ATOM     17  O   UNL A   1      29.127  22.631  27.644  1.00  0.00    -0.248 OA
ATOM     18  N   UNL A   1      30.186  24.404  26.801  1.00  0.00    -0.308 N 
ATOM     19  H   UNL A   1      29.790  24.939  27.527  1.00  0.00     0.171 HD
BRANCH  18  20
ATOM     20  C   UNL A   1      30.774  25.166  25.776  1.00  0.00     0.042 A 
ATOM     21  C   UNL A   1      31.908  25.917  26.103  1.00  0.00     0.027 A 
ATOM     22  C   UNL A   1      30.327  25.134  24.450  1.00  0.00     0.027 A 
ATOM     23  C   UNL A   1      32.680  26.497  25.092  1.00  0.00     0.018 A 
ATOM     24  C   UNL A   1      31.085  25.736  23.440  1.00  0.00     0.018 A 
ATOM     25  C   UNL A   1      32.277  26.380  23.763  1.00  0.00     0.018 A 
ATOM     26  Br  UNL A   1      33.387  27.044  22.384  1.00  0.00    -0.051 Br
ENDBRANCH  18  20
ENDBRANCH  13  14
ENDBRANCH   7   8
ENDBRANCH   5   7
ENDBRANCH   2   3
ENDBRANCH   1   2
BRANCH   1  27
ATOM     27  C   UNL A   1      41.758  22.162  27.647  1.00  0.00     0.023 C 
BRANCH  27  28
ATOM     28  C   UNL A   1      42.949  23.061  27.327  1.00  0.00     0.116 C 
BRANCH  28  29
ATOM     29  N   UNL A   1      42.726  23.896  26.158  1.00  0.00    -0.352 N 
ATOM     30  C   UNL A   1      42.272  25.189  26.073  1.00  0.00     0.251 C 
ATOM     31  H   UNL A   1      42.931  23.468  25.294  1.00  0.00     0.163 HD
ATOM     32  O   UNL A   1      41.998  25.661  24.969  1.00  0.00    -0.269 OA
BRANCH  30  33
ATOM     33  C   UNL A   1      42.083  26.006  27.292  1.00  0.00     0.039 A 
ATOM     34  C   UNL A   1      43.021  26.998  27.589  1.00  0.00     0.014 A 
ATOM     35  C   UNL A   1      41.000  25.792  28.150  1.00  0.00     0.014 A 
ATOM     36  C   UNL A   1      42.836  27.819  28.704  1.00  0.00     0.010 A 
ATOM     37  C   UNL A   1      40.777  26.660  29.218  1.00  0.00     0.010 A 
ATOM     38  C   UNL A   1      41.691  27.686  29.506  1.00  0.00    -0.014 A 
BRANCH  38  39
ATOM     39  C   UNL A   1      41.430  28.616  30.637  1.00  0.00     0.031 A 
ATOM     40  C   UNL A   1      42.232  28.519  31.908  1.00  0.00     0.074 A 
ATOM     41  C   UNL A   1      40.427  29.513  30.545  1.00  0.00     0.049 A 
ATOM     42  N   UNL A   1      42.102  29.195  33.021  1.00  0.00    -0.248 NA
ATOM     43  C   UNL A   1      43.306  27.513  31.940  1.00  0.00     0.031 C 
ATOM     44  C   UNL A   1      39.547  29.678  29.386  1.00  0.00     0.029 A 
ATOM     45  N   UNL A   1      39.969  30.446  31.442  1.00  0.00    -0.354 N 
ATOM     46  C   UNL A   1      43.069  28.694  33.886  1.00  0.00     0.074 A 
ATOM     47  C   UNL A   1      43.740  27.618  33.189  1.00  0.00     0.031 C 
ATOM     48  C   UNL A   1      38.671  30.666  29.633  1.00  0.00     0.029 A 
ATOM     49  C   UNL A   1      38.895  31.174  30.983  1.00  0.00     0.049 A 
ATOM     50  H   UNL A   1      40.371  30.581  32.331  1.00  0.00     0.167 HD
ATOM     51  C   UNL A   1      43.388  29.110  35.136  1.00  0.00     0.037 A 
ATOM     52  C   UNL A   1      38.164  32.135  31.583  1.00  0.00     0.037 A 
ATOM     53  C   UNL A   1      42.726  30.191  35.820  1.00  0.00     0.049 A 
ATOM     54  C   UNL A   1      38.522  32.566  32.980  1.00  0.00     0.074 A 
ATOM     55  C   UNL A   1      43.004  30.716  37.071  1.00  0.00     0.029 A 
ATOM     56  N   UNL A   1      41.652  30.913  35.317  1.00  0.00    -0.354 N 
ATOM     57  N   UNL A   1      39.476  32.119  33.761  1.00  0.00    -0.248 NA
ATOM     58  C   UNL A   1      37.709  33.635  33.576  1.00  0.00     0.031 C 
ATOM     59  C   UNL A   1      42.067  31.716  37.346  1.00  0.00     0.029 A 
ATOM     60  C   UNL A   1      41.242  31.860  36.242  1.00  0.00     0.049 A 
ATOM     61  H   UNL A   1      41.242  30.772  34.433  1.00  0.00     0.167 HD
ATOM     62  C   UNL A   1      39.398  32.872  34.927  1.00  0.00     0.074 A 
ATOM     63  C   UNL A   1      38.311  33.811  34.745  1.00  0.00     0.031 C 
ATOM     64  C   UNL A   1      40.159  32.794  36.047  1.00  0.00     0.037 A 
BRANCH  51  65
ATOM     65  C   UNL A   1      44.504  28.394  35.848  1.00  0.00     0.058 A 
ATOM     66  C   UNL A   1      45.845  28.792  35.706  1.00  0.00     0.135 A 
ATOM     67  C   UNL A   1      44.232  27.321  36.713  1.00  0.00     0.135 A 
ATOM     68  F   UNL A   1      46.166  29.802  34.882  1.00  0.00    -0.206 F 
ATOM     69  C   UNL A   1      46.875  28.135  36.370  1.00  0.00     0.059 A 
ATOM     70  C   UNL A   1      45.243  26.670  37.414  1.00  0.00     0.059 A 
ATOM     71  F   UNL A   1      42.970  26.898  36.889  1.00  0.00    -0.206 F 
ATOM     72  C   UNL A   1      46.564  27.075  37.223  1.00  0.00     0.060 A 
BRANCH  72  73
ATOM     73  S   UNL A   1      47.914  26.237  38.081  1.00  0.00     0.124 S 
ATOM     74  O   UNL A   1      48.829  27.346  38.336  1.00  0.00    -0.237 OA
ATOM     75  O   UNL A   1      47.242  25.688  39.255  1.00  0.00    -0.237 OA
ATOM     76  O   UNL A   1      48.377  25.253  37.109  1.00  0.00    -0.744 OA
ENDBRANCH  72  73
ENDBRANCH  51  65
BRANCH  52  77
ATOM     77  C   UNL A   1      37.025  32.762  30.859  1.00  0.00     0.058 A 
ATOM     78  C   UNL A   1      35.698  32.427  31.164  1.00  0.00     0.135 A 
ATOM     79  C   UNL A   1      37.241  33.720  29.855  1.00  0.00     0.135 A 
ATOM     80  F   UNL A   1      35.439  31.511  32.110  1.00  0.00    -0.206 F 
ATOM     81  C   UNL A   1      34.626  33.005  30.492  1.00  0.00     0.059 A 
ATOM     82  C   UNL A   1      36.185  34.333  29.188  1.00  0.00     0.059 A 
ATOM     83  F   UNL A   1      38.491  34.089  29.534  1.00  0.00    -0.206 F 
ATOM     84  C   UNL A   1      34.880  33.961  29.507  1.00  0.00     0.060 A 
BRANCH  84  85
ATOM     85  S   UNL A   1      33.480  34.743  28.677  1.00  0.00     0.124 S 
ATOM     86  O   UNL A   1      33.106  33.721  27.707  1.00  0.00    -0.237 OA
ATOM     87  O   UNL A   1      32.546  34.948  29.780  1.00  0.00    -0.237 OA
ATOM     88  O   UNL A   1      34.058  35.961  28.120  1.00  0.00    -0.744 OA
ENDBRANCH  84  85
ENDBRANCH  52  77
BRANCH  64  89
ATOM     89  C   UNL A   1      39.872  33.774  37.154  1.00  0.00     0.058 A 
ATOM     90  C   UNL A   1      38.957  33.487  38.178  1.00  0.00     0.135 A 
ATOM     91  C   UNL A   1      40.565  34.994  37.218  1.00  0.00     0.135 A 
ATOM     92  F   UNL A   1      38.263  32.339  38.164  1.00  0.00    -0.206 F 
ATOM     93  C   UNL A   1      38.720  34.387  39.213  1.00  0.00     0.059 A 
ATOM     94  C   UNL A   1      40.367  35.895  38.260  1.00  0.00     0.059 A 
ATOM     95  F   UNL A   1      41.460  35.315  36.269  1.00  0.00    -0.206 F 
ATOM     96  C   UNL A   1      39.433  35.587  39.248  1.00  0.00     0.060 A 
BRANCH  96  97
ATOM     97  S   UNL A   1      39.139  36.729  40.615  1.00  0.00     0.124 S 
ATOM     98  O   UNL A   1      40.495  36.967  41.096  1.00  0.00    -0.237 OA
ATOM     99  O   UNL A   1      38.496  37.856  39.946  1.00  0.00    -0.237 OA
ATOM    100  O   UNL A   1      38.278  35.967  41.515  1.00  0.00    -0.744 OA
ENDBRANCH  96  97
ENDBRANCH  64  89
ENDBRANCH  38  39
ENDBRANCH  30  33
ENDBRANCH  28  29
ENDBRANCH  27  28
ENDBRANCH   1  27
TORSDOF 17
ENDMDL
MODEL 2
REMARK VINA RESULT:     -12.1      1.334      2.261
REMARK SMILES O=C(Cc1ccc(NC(=O)Nc2ccc(Br)cc2)cc1)NCCCCNC(=O)c1ccc(-c2c3nc(c(-c4c(F)cc(S(=O)(=O)[O-])cc4F)c4ccc([nH]4)c(-c4c(F)cc(S(=O)(=O)[O-])cc4F)c4nc(c(-c5c(F)cc(S(=O)(=O)[O-])cc5F)c5ccc2[nH]5)C=C4)C=C3)cc1
REMARK SMILES IDX 23 1 22 2 21 3 1 4 2 5 3 7 4 8 5 9 20 10 6 11 19 12 7 13
REMARK SMILES IDX 8 14 9 15 10 17 11 18 12 20 13 21 18 22 14 23 17 24 15 25
REMARK SMILES IDX 16 26 24 27 25 28 26 29 27 30 28 32 29 33 30 34 94 35 31 36
REMARK SMILES IDX 93 37 32 38 33 39 34 40 87 41 35 42 92 43 86 44 88 45 36 46
REMARK SMILES IDX 91 47 85 48 84 49 37 51 71 52 50 53 70 54 51 55 54 56 69 57
REMARK SMILES IDX 89 58 52 59 53 60 68 62 90 63 55 64 38 65 39 66 48 67 40 68
REMARK SMILES IDX 41 69 47 70 49 71 42 72 43 73 44 74 45 75 46 76 72 77 73 78
REMARK SMILES IDX 82 79 74 80 75 81 81 82 83 83 76 84 77 85 78 86 79 87 80 88
REMARK SMILES IDX 56 89 57 90 66 91 58 92 59 93 65 94 67 95 60 96 61 97 62 98
REMARK SMILES IDX 63 99 64 100
REMARK H PARENT 21 6 8 16 11 19 26 31 88 50 54 61
REMARK Flexibility Score: inf
ROOT
ATOM      1  C   UNL A   1      40.380  22.231  27.398  1.00  0.00     0.023 C 
ENDROOT
BRANCH   1   2
ATOM      2  C   UNL A   1      39.712  21.342  26.355  1.00  0.00     0.116 C 
BRANCH   2   3
ATOM      3  N   UNL A   1      38.839  22.099  25.490  1.00  0.00    -0.356 N 
ATOM      4  O   UNL A   1      37.369  20.400  25.001  1.00  0.00    -0.275 OA
ATOM      5  C   UNL A   1      37.707  21.576  24.907  1.00  0.00     0.224 C 
ATOM      6  H   UNL A   1      39.067  23.039  25.306  1.00  0.00     0.163 HD
BRANCH   5   7
ATOM      7  C   UNL A   1      36.931  22.571  24.069  1.00  0.00     0.135 C 
BRANCH   7   8
ATOM      8  C   UNL A   1      35.865  23.314  24.838  1.00  0.00    -0.039 A 
ATOM      9  C   UNL A   1      35.221  24.419  24.270  1.00  0.00     0.006 A 
ATOM     10  C   UNL A   1      35.499  22.907  26.125  1.00  0.00     0.006 A 
ATOM     11  C   UNL A   1      34.140  25.012  24.922  1.00  0.00     0.026 A 
ATOM     12  C   UNL A   1      34.387  23.475  26.752  1.00  0.00     0.026 A 
ATOM     13  C   UNL A   1      33.632  24.442  26.085  1.00  0.00     0.042 A 
BRANCH  13  14
ATOM     14  N   UNL A   1      32.350  24.725  26.588  1.00  0.00    -0.308 N 
ATOM     15  C   UNL A   1      31.106  24.566  26.062  1.00  0.00     0.323 C 
ATOM     16  H   UNL A   1      32.352  25.112  27.493  1.00  0.00     0.171 HD
ATOM     17  O   UNL A   1      30.176  25.197  26.571  1.00  0.00    -0.248 OA
ATOM     18  N   UNL A   1      30.842  23.761  25.000  1.00  0.00    -0.308 N 
ATOM     19  H   UNL A   1      30.060  24.036  24.468  1.00  0.00     0.171 HD
BRANCH  18  20
ATOM     20  C   UNL A   1      31.486  22.605  24.523  1.00  0.00     0.042 A 
ATOM     21  C   UNL A   1      31.696  21.565  25.435  1.00  0.00     0.027 A 
ATOM     22  C   UNL A   1      31.838  22.427  23.181  1.00  0.00     0.027 A 
ATOM     23  C   UNL A   1      32.103  20.307  24.980  1.00  0.00     0.018 A 
ATOM     24  C   UNL A   1      32.270  21.176  22.729  1.00  0.00     0.018 A 
ATOM     25  C   UNL A   1      32.362  20.113  23.624  1.00  0.00     0.018 A 
ATOM     26  Br  UNL A   1      32.779  18.383  22.986  1.00  0.00    -0.051 Br
ENDBRANCH  18  20
ENDBRANCH  13  14
ENDBRANCH   7   8
ENDBRANCH   5   7
ENDBRANCH   2   3
ENDBRANCH   1   2
BRANCH   1  27
ATOM     27  C   UNL A   1      41.896  22.046  27.542  1.00  0.00     0.023 C 
BRANCH  27  28
ATOM     28  C   UNL A   1      42.747  23.264  27.195  1.00  0.00     0.116 C 
BRANCH  28  29
ATOM     29  N   UNL A   1      42.224  24.012  26.064  1.00  0.00    -0.352 N 
ATOM     30  C   UNL A   1      41.588  25.228  26.031  1.00  0.00     0.251 C 
ATOM     31  H   UNL A   1      42.344  23.580  25.186  1.00  0.00     0.163 HD
ATOM     32  O   UNL A   1      41.076  25.614  24.979  1.00  0.00    -0.269 OA
BRANCH  30  33
ATOM     33  C   UNL A   1      41.488  26.062  27.249  1.00  0.00     0.039 A 
ATOM     34  C   UNL A   1      42.442  27.060  27.461  1.00  0.00     0.014 A 
ATOM     35  C   UNL A   1      40.472  25.859  28.187  1.00  0.00     0.014 A 
ATOM     36  C   UNL A   1      42.338  27.897  28.575  1.00  0.00     0.010 A 
ATOM     37  C   UNL A   1      40.326  26.743  29.257  1.00  0.00     0.010 A 
ATOM     38  C   UNL A   1      41.256  27.774  29.462  1.00  0.00    -0.014 A 
BRANCH  38  39
ATOM     39  C   UNL A   1      41.076  28.720  30.596  1.00  0.00     0.031 A 
ATOM     40  C   UNL A   1      41.936  28.609  31.827  1.00  0.00     0.074 A 
ATOM     41  C   UNL A   1      40.096  29.644  30.544  1.00  0.00     0.049 A 
ATOM     42  N   UNL A   1      41.880  29.297  32.939  1.00  0.00    -0.248 NA
ATOM     43  C   UNL A   1      42.982  27.573  31.816  1.00  0.00     0.031 C 
ATOM     44  C   UNL A   1      39.165  29.826  29.428  1.00  0.00     0.029 A 
ATOM     45  N   UNL A   1      39.709  30.597  31.454  1.00  0.00    -0.354 N 
ATOM     46  C   UNL A   1      42.874  28.775  33.761  1.00  0.00     0.074 A 
ATOM     47  C   UNL A   1      43.479  27.675  33.041  1.00  0.00     0.031 C 
ATOM     48  C   UNL A   1      38.332  30.840  29.709  1.00  0.00     0.029 A 
ATOM     49  C   UNL A   1      38.635  31.352  31.041  1.00  0.00     0.049 A 
ATOM     50  H   UNL A   1      40.157  30.727  32.321  1.00  0.00     0.167 HD
ATOM     51  C   UNL A   1      43.264  29.192  34.990  1.00  0.00     0.037 A 
ATOM     52  C   UNL A   1      37.961  32.338  31.667  1.00  0.00     0.037 A 
ATOM     53  C   UNL A   1      42.667  30.296  35.696  1.00  0.00     0.049 A 
ATOM     54  C   UNL A   1      38.399  32.769  33.041  1.00  0.00     0.074 A 
ATOM     55  C   UNL A   1      43.021  30.822  36.927  1.00  0.00     0.029 A 
ATOM     56  N   UNL A   1      41.592  31.044  35.238  1.00  0.00    -0.354 N 
ATOM     57  N   UNL A   1      39.377  32.301  33.779  1.00  0.00    -0.248 NA
ATOM     58  C   UNL A   1      37.647  33.866  33.666  1.00  0.00     0.031 C 
ATOM     59  C   UNL A   1      42.127  31.851  37.238  1.00  0.00     0.029 A 
ATOM     60  C   UNL A   1      41.253  32.010  36.174  1.00  0.00     0.049 A 
ATOM     61  H   UNL A   1      41.135  30.909  34.377  1.00  0.00     0.167 HD
ATOM     62  C   UNL A   1      39.378  33.065  34.941  1.00  0.00     0.074 A 
ATOM     63  C   UNL A   1      38.310  34.033  34.803  1.00  0.00     0.031 C 
ATOM     64  C   UNL A   1      40.190  32.974  36.023  1.00  0.00     0.037 A 
BRANCH  51  65
ATOM     65  C   UNL A   1      44.394  28.449  35.653  1.00  0.00     0.058 A 
ATOM     66  C   UNL A   1      44.159  27.352  36.500  1.00  0.00     0.135 A 
ATOM     67  C   UNL A   1      45.730  28.809  35.410  1.00  0.00     0.135 A 
ATOM     68  F   UNL A   1      42.902  26.971  36.780  1.00  0.00    -0.206 F 
ATOM     69  C   UNL A   1      45.203  26.661  37.106  1.00  0.00     0.059 A 
ATOM     70  C   UNL A   1      46.791  28.111  35.978  1.00  0.00     0.059 A 
ATOM     71  F   UNL A   1      46.014  29.847  34.608  1.00  0.00    -0.206 F 
ATOM     72  C   UNL A   1      46.517  27.047  36.838  1.00  0.00     0.060 A 
BRANCH  72  73
ATOM     73  S   UNL A   1      47.859  26.136  37.628  1.00  0.00     0.124 S 
ATOM     74  O   UNL A   1      47.595  24.775  37.169  1.00  0.00    -0.237 OA
ATOM     75  O   UNL A   1      49.044  26.775  37.063  1.00  0.00    -0.237 OA
ATOM     76  O   UNL A   1      47.640  26.371  39.051  1.00  0.00    -0.744 OA
ENDBRANCH  72  73
ENDBRANCH  51  65
BRANCH  52  77
ATOM     77  C   UNL A   1      36.807  32.992  30.993  1.00  0.00     0.058 A 
ATOM     78  C   UNL A   1      35.490  32.748  31.410  1.00  0.00     0.135 A 
ATOM     79  C   UNL A   1      36.999  33.886  29.927  1.00  0.00     0.135 A 
ATOM     80  F   UNL A   1      35.254  31.896  32.419  1.00  0.00    -0.206 F 
ATOM     81  C   UNL A   1      34.403  33.351  30.786  1.00  0.00     0.059 A 
ATOM     82  C   UNL A   1      35.930  34.524  29.306  1.00  0.00     0.059 A 
ATOM     83  F   UNL A   1      38.239  34.167  29.498  1.00  0.00    -0.206 F 
ATOM     84  C   UNL A   1      34.634  34.242  29.736  1.00  0.00     0.060 A 
BRANCH  84  85
ATOM     85  S   UNL A   1      33.220  35.060  28.966  1.00  0.00     0.124 S 
ATOM     86  O   UNL A   1      32.333  35.249  30.108  1.00  0.00    -0.237 OA
ATOM     87  O   UNL A   1      33.826  36.271  28.421  1.00  0.00    -0.237 OA
ATOM     88  O   UNL A   1      32.773  34.090  27.972  1.00  0.00    -0.744 OA
ENDBRANCH  84  85
ENDBRANCH  52  77
BRANCH  64  89
ATOM     89  C   UNL A   1      39.985  33.970  37.134  1.00  0.00     0.058 A 
ATOM     90  C   UNL A   1      40.548  35.254  37.091  1.00  0.00     0.135 A 
ATOM     91  C   UNL A   1      39.167  33.650  38.230  1.00  0.00     0.135 A 
ATOM     92  F   UNL A   1      41.343  35.610  36.071  1.00  0.00    -0.206 F 
ATOM     93  C   UNL A   1      40.329  36.177  38.109  1.00  0.00     0.059 A 
ATOM     94  C   UNL A   1      38.908  34.568  39.243  1.00  0.00     0.059 A 
ATOM     95  F   UNL A   1      38.593  32.438  38.317  1.00  0.00    -0.206 F 
ATOM     96  C   UNL A   1      39.504  35.827  39.180  1.00  0.00     0.060 A 
BRANCH  96  97
ATOM     97  S   UNL A   1      39.201  37.047  40.474  1.00  0.00     0.124 S 
ATOM     98  O   UNL A   1      40.559  37.366  40.902  1.00  0.00    -0.237 OA
ATOM     99  O   UNL A   1      38.501  38.103  39.749  1.00  0.00    -0.237 OA
ATOM    100  O   UNL A   1      38.391  36.319  41.447  1.00  0.00    -0.744 OA
ENDBRANCH  96  97
ENDBRANCH  64  89
ENDBRANCH  38  39
ENDBRANCH  30  33
ENDBRANCH  28  29
ENDBRANCH  27  28
ENDBRANCH   1  27
TORSDOF 17
ENDMDL
MODEL 3
REMARK VINA RESULT:     -12.1      1.661      2.782
REMARK SMILES O=C(Cc1ccc(NC(=O)Nc2ccc(Br)cc2)cc1)NCCCCNC(=O)c1ccc(-c2c3nc(c(-c4c(F)cc(S(=O)(=O)[O-])cc4F)c4ccc([nH]4)c(-c4c(F)cc(S(=O)(=O)[O-])cc4F)c4nc(c(-c5c(F)cc(S(=O)(=O)[O-])cc5F)c5ccc2[nH]5)C=C4)C=C3)cc1
REMARK SMILES IDX 23 1 22 2 21 3 1 4 2 5 3 7 4 8 5 9 20 10 6 11 19 12 7 13
REMARK SMILES IDX 8 14 9 15 10 17 11 18 12 20 13 21 18 22 14 23 17 24 15 25
REMARK SMILES IDX 16 26 24 27 25 28 26 29 27 30 28 32 29 33 30 34 94 35 31 36
REMARK SMILES IDX 93 37 32 38 33 39 34 40 87 41 35 42 92 43 86 44 88 45 36 46
REMARK SMILES IDX 91 47 85 48 84 49 37 51 71 52 50 53 70 54 51 55 54 56 69 57
REMARK SMILES IDX 89 58 52 59 53 60 68 62 90 63 55 64 38 65 39 66 48 67 40 68
REMARK SMILES IDX 41 69 47 70 49 71 42 72 43 73 44 74 45 75 46 76 72 77 73 78
REMARK SMILES IDX 82 79 74 80 75 81 81 82 83 83 76 84 77 85 78 86 79 87 80 88
REMARK SMILES IDX 56 89 57 90 66 91 58 92 59 93 65 94 67 95 60 96 61 97 62 98
REMARK SMILES IDX 63 99 64 100
REMARK H PARENT 21 6 8 16 11 19 26 31 88 50 54 61
REMARK Flexibility Score: inf
ROOT
ATOM      1  C   UNL A   1      38.121  22.584  25.815  1.00  0.00     0.023 C 
ENDROOT
BRANCH   1   2
ATOM      2  C   UNL A   1      37.480  21.562  24.882  1.00  0.00     0.116 C 
BRANCH   2   3
ATOM      3  N   UNL A   1      36.111  21.902  24.578  1.00  0.00    -0.356 N 
ATOM      4  O   UNL A   1      36.533  23.144  22.690  1.00  0.00    -0.275 OA
ATOM      5  C   UNL A   1      35.738  22.639  23.477  1.00  0.00     0.224 C 
ATOM      6  H   UNL A   1      35.406  21.591  25.191  1.00  0.00     0.163 HD
BRANCH   5   7
ATOM      7  C   UNL A   1      34.243  22.838  23.348  1.00  0.00     0.135 C 
BRANCH   7   8
ATOM      8  C   UNL A   1      33.851  24.223  22.890  1.00  0.00    -0.039 A 
ATOM      9  C   UNL A   1      33.176  24.405  21.678  1.00  0.00     0.006 A 
ATOM     10  C   UNL A   1      34.148  25.344  23.673  1.00  0.00     0.006 A 
ATOM     11  C   UNL A   1      32.689  25.664  21.329  1.00  0.00     0.026 A 
ATOM     12  C   UNL A   1      33.617  26.593  23.341  1.00  0.00     0.026 A 
ATOM     13  C   UNL A   1      32.778  26.720  22.232  1.00  0.00     0.042 A 
BRANCH  13  14
ATOM     14  N   UNL A   1      31.998  27.886  22.138  1.00  0.00    -0.308 N 
ATOM     15  C   UNL A   1      30.684  28.129  22.387  1.00  0.00     0.323 C 
ATOM     16  H   UNL A   1      32.499  28.677  21.834  1.00  0.00     0.171 HD
ATOM     17  O   UNL A   1      30.183  29.151  21.909  1.00  0.00    -0.248 OA
ATOM     18  N   UNL A   1      29.897  27.300  23.120  1.00  0.00    -0.308 N 
ATOM     19  H   UNL A   1      28.941  27.339  22.888  1.00  0.00     0.171 HD
BRANCH  18  20
ATOM     20  C   UNL A   1      30.203  26.394  24.152  1.00  0.00     0.042 A 
ATOM     21  C   UNL A   1      30.128  25.030  23.852  1.00  0.00     0.027 A 
ATOM     22  C   UNL A   1      30.654  26.799  25.413  1.00  0.00     0.027 A 
ATOM     23  C   UNL A   1      30.649  24.087  24.744  1.00  0.00     0.018 A 
ATOM     24  C   UNL A   1      31.153  25.855  26.316  1.00  0.00     0.018 A 
ATOM     25  C   UNL A   1      31.183  24.508  25.960  1.00  0.00     0.018 A 
ATOM     26  Br  UNL A   1      32.011  23.253  27.106  1.00  0.00    -0.051 Br
ENDBRANCH  18  20
ENDBRANCH  13  14
ENDBRANCH   7   8
ENDBRANCH   5   7
ENDBRANCH   2   3
ENDBRANCH   1   2
BRANCH   1  27
ATOM     27  C   UNL A   1      39.451  22.153  26.444  1.00  0.00     0.023 C 
BRANCH  27  28
ATOM     28  C   UNL A   1      40.294  23.274  27.045  1.00  0.00     0.116 C 
BRANCH  28  29
ATOM     29  N   UNL A   1      41.102  23.964  26.053  1.00  0.00    -0.352 N 
ATOM     30  C   UNL A   1      41.619  25.236  26.068  1.00  0.00     0.251 C 
ATOM     31  H   UNL A   1      41.311  23.438  25.246  1.00  0.00     0.163 HD
ATOM     32  O   UNL A   1      42.144  25.686  25.049  1.00  0.00    -0.269 OA
BRANCH  30  33
ATOM     33  C   UNL A   1      41.525  26.076  27.283  1.00  0.00     0.039 A 
ATOM     34  C   UNL A   1      42.415  27.142  27.433  1.00  0.00     0.014 A 
ATOM     35  C   UNL A   1      40.580  25.811  28.278  1.00  0.00     0.014 A 
ATOM     36  C   UNL A   1      42.311  27.984  28.544  1.00  0.00     0.010 A 
ATOM     37  C   UNL A   1      40.429  26.695  29.346  1.00  0.00     0.010 A 
ATOM     38  C   UNL A   1      41.292  27.793  29.491  1.00  0.00    -0.014 A 
BRANCH  38  39
ATOM     39  C   UNL A   1      41.106  28.738  30.625  1.00  0.00     0.031 A 
ATOM     40  C   UNL A   1      41.957  28.624  31.862  1.00  0.00     0.074 A 
ATOM     41  C   UNL A   1      40.128  29.665  30.567  1.00  0.00     0.049 A 
ATOM     42  N   UNL A   1      41.895  29.310  32.974  1.00  0.00    -0.248 NA
ATOM     43  C   UNL A   1      43.000  27.585  31.857  1.00  0.00     0.031 C 
ATOM     44  C   UNL A   1      39.206  29.850  29.445  1.00  0.00     0.029 A 
ATOM     45  N   UNL A   1      39.736  30.617  31.475  1.00  0.00    -0.354 N 
ATOM     46  C   UNL A   1      42.881  28.785  33.802  1.00  0.00     0.074 A 
ATOM     47  C   UNL A   1      43.488  27.685  33.085  1.00  0.00     0.031 C 
ATOM     48  C   UNL A   1      38.372  30.866  29.721  1.00  0.00     0.029 A 
ATOM     49  C   UNL A   1      38.667  31.376  31.056  1.00  0.00     0.049 A 
ATOM     50  H   UNL A   1      40.179  30.745  32.346  1.00  0.00     0.167 HD
ATOM     51  C   UNL A   1      43.263  29.198  35.035  1.00  0.00     0.037 A 
ATOM     52  C   UNL A   1      37.991  32.362  31.679  1.00  0.00     0.037 A 
ATOM     53  C   UNL A   1      42.664  30.304  35.738  1.00  0.00     0.049 A 
ATOM     54  C   UNL A   1      38.420  32.790  33.057  1.00  0.00     0.074 A 
ATOM     55  C   UNL A   1      43.010  30.827  36.972  1.00  0.00     0.029 A 
ATOM     56  N   UNL A   1      41.593  31.055  35.274  1.00  0.00    -0.354 N 
ATOM     57  N   UNL A   1      39.392  32.319  33.801  1.00  0.00    -0.248 NA
ATOM     58  C   UNL A   1      37.667  33.888  33.678  1.00  0.00     0.031 C 
ATOM     59  C   UNL A   1      42.116  31.857  37.278  1.00  0.00     0.029 A 
ATOM     60  C   UNL A   1      41.250  32.019  36.209  1.00  0.00     0.049 A 
ATOM     61  H   UNL A   1      41.142  30.922  34.409  1.00  0.00     0.167 HD
ATOM     62  C   UNL A   1      39.386  33.080  34.964  1.00  0.00     0.074 A 
ATOM     63  C   UNL A   1      38.322  34.052  34.819  1.00  0.00     0.031 C 
ATOM     64  C   UNL A   1      40.190  32.986  36.052  1.00  0.00     0.037 A 
BRANCH  51  65
ATOM     65  C   UNL A   1      44.386  28.452  35.705  1.00  0.00     0.058 A 
ATOM     66  C   UNL A   1      44.143  27.356  36.551  1.00  0.00     0.135 A 
ATOM     67  C   UNL A   1      45.725  28.807  35.469  1.00  0.00     0.135 A 
ATOM     68  F   UNL A   1      42.883  26.980  36.824  1.00  0.00    -0.206 F 
ATOM     69  C   UNL A   1      45.181  26.662  37.163  1.00  0.00     0.059 A 
ATOM     70  C   UNL A   1      46.781  28.106  36.044  1.00  0.00     0.059 A 
ATOM     71  F   UNL A   1      46.018  29.844  34.668  1.00  0.00    -0.206 F 
ATOM     72  C   UNL A   1      46.498  27.044  36.902  1.00  0.00     0.060 A 
BRANCH  72  73
ATOM     73  S   UNL A   1      47.833  26.128  37.701  1.00  0.00     0.124 S 
ATOM     74  O   UNL A   1      47.535  24.760  37.286  1.00  0.00    -0.237 OA
ATOM     75  O   UNL A   1      49.022  26.727  37.102  1.00  0.00    -0.237 OA
ATOM     76  O   UNL A   1      47.638  26.409  39.120  1.00  0.00    -0.744 OA
ENDBRANCH  72  73
ENDBRANCH  51  65
BRANCH  52  77
ATOM     77  C   UNL A   1      36.844  33.019  30.998  1.00  0.00     0.058 A 
ATOM     78  C   UNL A   1      37.047  33.921  29.943  1.00  0.00     0.135 A 
ATOM     79  C   UNL A   1      35.520  32.749  31.378  1.00  0.00     0.135 A 
ATOM     80  F   UNL A   1      38.293  34.219  29.547  1.00  0.00    -0.206 F 
ATOM     81  C   UNL A   1      35.982  34.544  29.299  1.00  0.00     0.059 A 
ATOM     82  C   UNL A   1      34.437  33.337  30.732  1.00  0.00     0.059 A 
ATOM     83  F   UNL A   1      35.268  31.882  32.372  1.00  0.00    -0.206 F 
ATOM     84  C   UNL A   1      34.679  34.242  29.699  1.00  0.00     0.060 A 
BRANCH  84  85
ATOM     85  S   UNL A   1      33.302  35.016  28.824  1.00  0.00     0.124 S 
ATOM     86  O   UNL A   1      33.000  34.015  27.808  1.00  0.00    -0.237 OA
ATOM     87  O   UNL A   1      32.312  35.169  29.886  1.00  0.00    -0.237 OA
ATOM     88  O   UNL A   1      33.878  36.263  28.330  1.00  0.00    -0.744 OA
ENDBRANCH  84  85
ENDBRANCH  52  77
BRANCH  64  89
ATOM     89  C   UNL A   1      39.979  33.981  37.162  1.00  0.00     0.058 A 
ATOM     90  C   UNL A   1      40.620  35.229  37.171  1.00  0.00     0.135 A 
ATOM     91  C   UNL A   1      39.080  33.699  38.205  1.00  0.00     0.135 A 
ATOM     92  F   UNL A   1      41.493  35.548  36.204  1.00  0.00    -0.206 F 
ATOM     93  C   UNL A   1      40.396  36.153  38.187  1.00  0.00     0.059 A 
ATOM     94  C   UNL A   1      38.817  34.620  39.213  1.00  0.00     0.059 A 
ATOM     95  F   UNL A   1      38.432  32.523  38.240  1.00  0.00    -0.206 F 
ATOM     96  C   UNL A   1      39.490  35.842  39.203  1.00  0.00     0.060 A 
BRANCH  96  97
ATOM     97  S   UNL A   1      39.184  37.065  40.494  1.00  0.00     0.124 S 
ATOM     98  O   UNL A   1      38.282  37.989  39.817  1.00  0.00    -0.237 OA
ATOM     99  O   UNL A   1      38.587  36.256  41.553  1.00  0.00    -0.237 OA
ATOM    100  O   UNL A   1      40.515  37.588  40.789  1.00  0.00    -0.744 OA
ENDBRANCH  96  97
ENDBRANCH  64  89
ENDBRANCH  38  39
ENDBRANCH  30  33
ENDBRANCH  28  29
ENDBRANCH  27  28
ENDBRANCH   1  27
TORSDOF 17
ENDMDL
