MODEL 1
REMARK VINA RESULT:     -10.9      0.000      0.000
REMARK SMILES CCN(CC(C)(C)O)C(=O)Nc1ccc(C(=O)NCCCCNC(=O)c2ccc(-c3c4nc(c(-c5c(F)cc(S(=O)(=O)[O-])cc5F)c5ccc([nH]5)c(-c5c(F)cc(S(=O)(=O)[O-])cc5F)c5nc(c(-c6c(F)cc(S(=O)(=O)[O-])cc6F)c6ccc3[nH]6)C=C5)C=C4)cc2)c(O)c1
REMARK SMILES IDX 19 1 18 2 16 3 17 4 15 6 12 7 13 8 94 9 14 10 92 11 11 12
REMARK SMILES IDX 9 13 10 14 3 16 2 17 1 18 4 19 5 20 6 21 7 22 8 23 93 25
REMARK SMILES IDX 20 27 21 28 22 29 23 30 24 31 25 33 26 34 27 35 91 36 28 37
REMARK SMILES IDX 90 38 29 39 30 40 31 41 84 42 32 43 89 44 83 45 85 46 33 47
REMARK SMILES IDX 88 48 82 49 81 50 34 52 68 53 47 54 67 55 48 56 51 57 66 58
REMARK SMILES IDX 86 59 49 60 50 61 65 63 87 64 52 65 35 66 36 67 45 68 37 69
REMARK SMILES IDX 38 70 44 71 46 72 39 73 40 74 41 75 42 76 43 77 69 78 70 79
REMARK SMILES IDX 79 80 71 81 72 82 78 83 80 84 73 85 74 86 75 87 76 88 77 89
REMARK SMILES IDX 53 90 54 91 63 92 55 93 56 94 62 95 64 96 57 97 58 98 59 99
REMARK SMILES IDX 60 100 61 101
REMARK H PARENT 18 5 11 15 8 24 93 26 23 32 85 51 51 62
REMARK Flexibility Score: inf
ROOT
ATOM      1  C   UNL A   1      31.376  28.603  25.262  1.00  0.00     0.116 C 
ENDROOT
BRANCH   1   2
ATOM      2  N   UNL A   1      30.491  28.106  24.227  1.00  0.00    -0.352 N 
ATOM      3  C   UNL A   1      29.991  26.840  24.112  1.00  0.00     0.255 C 
ATOM      4  O   UNL A   1      29.097  26.577  23.315  1.00  0.00    -0.269 OA
ATOM      5  H   UNL A   1      30.221  28.751  23.533  1.00  0.00     0.163 HD
BRANCH   3   6
ATOM      6  C   UNL A   1      30.684  25.760  24.818  1.00  0.00     0.081 A 
ATOM      7  C   UNL A   1      32.432  23.976  26.137  1.00  0.00     0.046 A 
ATOM      8  C   UNL A   1      32.759  24.601  24.957  1.00  0.00     0.027 A 
ATOM      9  C   UNL A   1      31.147  24.232  26.642  1.00  0.00     0.073 A 
ATOM     10  C   UNL A   1      31.930  25.487  24.294  1.00  0.00     0.020 A 
ATOM     11  C   UNL A   1      30.267  25.101  25.973  1.00  0.00     0.130 A 
BRANCH   7  12
ATOM     12  N   UNL A   1      33.251  23.065  26.817  1.00  0.00    -0.308 N 
ATOM     13  C   UNL A   1      34.103  22.034  26.655  1.00  0.00     0.321 C 
ATOM     14  O   UNL A   1      34.423  21.535  27.750  1.00  0.00    -0.248 OA
ATOM     15  H   UNL A   1      33.176  23.248  27.782  1.00  0.00     0.171 HD
BRANCH  13  16
ATOM     16  N   UNL A   1      34.653  21.538  25.506  1.00  0.00    -0.322 N 
BRANCH  16  17
ATOM     17  C   UNL A   1      35.753  22.338  24.938  1.00  0.00     0.118 C 
ATOM     18  C   UNL A   1      35.409  22.872  23.549  1.00  0.00     0.027 C 
ENDBRANCH  16  17
BRANCH  16  19
ATOM     19  C   UNL A   1      34.304  20.381  24.666  1.00  0.00     0.155 C 
BRANCH  19  20
ATOM     20  C   UNL A   1      32.774  20.252  24.293  1.00  0.00     0.077 C 
ATOM     21  C   UNL A   1      32.187  21.401  23.450  1.00  0.00     0.043 C 
ATOM     22  C   UNL A   1      32.495  18.883  23.631  1.00  0.00     0.043 C 
BRANCH  20  23
ATOM     23  O   UNL A   1      32.019  20.259  25.522  1.00  0.00    -0.389 OA
ATOM     24  H   UNL A   1      32.548  20.668  26.224  1.00  0.00     0.211 HD
ENDBRANCH  20  23
ENDBRANCH  19  20
ENDBRANCH  16  19
ENDBRANCH  13  16
ENDBRANCH   7  12
BRANCH  11  25
ATOM     25  O   UNL A   1      29.022  25.259  26.513  1.00  0.00    -0.507 OA
ATOM     26  H   UNL A   1      28.386  25.792  26.077  1.00  0.00     0.293 HD
ENDBRANCH  11  25
ENDBRANCH   3   6
ENDBRANCH   1   2
BRANCH   1  27
ATOM     27  C   UNL A   1      32.793  28.904  24.801  1.00  0.00     0.023 C 
BRANCH  27  28
ATOM     28  C   UNL A   1      33.917  28.532  25.762  1.00  0.00     0.023 C 
BRANCH  28  29
ATOM     29  C   UNL A   1      33.600  28.595  27.251  1.00  0.00     0.116 C 
BRANCH  29  30
ATOM     30  N   UNL A   1      33.582  29.941  27.799  1.00  0.00    -0.352 N 
ATOM     31  C   UNL A   1      34.604  30.650  28.380  1.00  0.00     0.251 C 
ATOM     32  H   UNL A   1      32.717  30.409  27.745  1.00  0.00     0.163 HD
ATOM     33  O   UNL A   1      34.400  31.769  28.839  1.00  0.00    -0.269 OA
BRANCH  31  34
ATOM     34  C   UNL A   1      35.930  30.017  28.498  1.00  0.00     0.039 A 
ATOM     35  C   UNL A   1      36.800  30.086  27.411  1.00  0.00     0.014 A 
ATOM     36  C   UNL A   1      36.343  29.461  29.712  1.00  0.00     0.014 A 
ATOM     37  C   UNL A   1      38.124  29.677  27.568  1.00  0.00     0.010 A 
ATOM     38  C   UNL A   1      37.685  29.148  29.893  1.00  0.00     0.010 A 
ATOM     39  C   UNL A   1      38.590  29.256  28.824  1.00  0.00    -0.014 A 
BRANCH  39  40
ATOM     40  C   UNL A   1      40.020  28.923  29.045  1.00  0.00     0.031 A 
ATOM     41  C   UNL A   1      40.959  29.981  29.558  1.00  0.00     0.074 A 
ATOM     42  C   UNL A   1      40.484  27.701  28.714  1.00  0.00     0.049 A 
ATOM     43  N   UNL A   1      42.254  29.923  29.724  1.00  0.00    -0.248 NA
ATOM     44  C   UNL A   1      40.368  31.287  29.895  1.00  0.00     0.031 C 
ATOM     45  C   UNL A   1      39.682  26.611  28.149  1.00  0.00     0.029 A 
ATOM     46  N   UNL A   1      41.748  27.171  28.789  1.00  0.00    -0.354 N 
ATOM     47  C   UNL A   1      42.634  31.187  30.159  1.00  0.00     0.074 A 
ATOM     48  C   UNL A   1      41.444  32.006  30.178  1.00  0.00     0.031 C 
ATOM     49  C   UNL A   1      40.468  25.541  27.951  1.00  0.00     0.029 A 
ATOM     50  C   UNL A   1      41.836  25.876  28.333  1.00  0.00     0.049 A 
ATOM     51  H   UNL A   1      42.520  27.672  29.137  1.00  0.00     0.167 HD
ATOM     52  C   UNL A   1      43.861  31.617  30.534  1.00  0.00     0.037 A 
ATOM     53  C   UNL A   1      42.900  25.057  28.226  1.00  0.00     0.037 A 
ATOM     54  C   UNL A   1      45.032  30.781  30.556  1.00  0.00     0.049 A 
ATOM     55  C   UNL A   1      44.250  25.552  28.673  1.00  0.00     0.074 A 
ATOM     56  C   UNL A   1      46.305  31.100  30.992  1.00  0.00     0.029 A 
ATOM     57  N   UNL A   1      45.070  29.462  30.129  1.00  0.00    -0.354 N 
ATOM     58  N   UNL A   1      44.578  26.730  29.150  1.00  0.00    -0.248 NA
ATOM     59  C   UNL A   1      45.373  24.609  28.574  1.00  0.00     0.031 C 
ATOM     60  C   UNL A   1      47.125  29.985  30.790  1.00  0.00     0.029 A 
ATOM     61  C   UNL A   1      46.351  28.958  30.275  1.00  0.00     0.049 A 
ATOM     62  H   UNL A   1      44.302  28.960  29.776  1.00  0.00     0.167 HD
ATOM     63  C   UNL A   1      45.937  26.659  29.436  1.00  0.00     0.074 A 
ATOM     64  C   UNL A   1      46.367  25.321  29.088  1.00  0.00     0.031 C 
ATOM     65  C   UNL A   1      46.755  27.615  29.939  1.00  0.00     0.037 A 
BRANCH  52  66
ATOM     66  C   UNL A   1      43.999  33.050  30.966  1.00  0.00     0.058 A 
ATOM     67  C   UNL A   1      43.900  33.426  32.315  1.00  0.00     0.135 A 
ATOM     68  C   UNL A   1      44.283  34.054  30.026  1.00  0.00     0.135 A 
ATOM     69  F   UNL A   1      43.611  32.509  33.253  1.00  0.00    -0.206 F 
ATOM     70  C   UNL A   1      44.055  34.748  32.715  1.00  0.00     0.059 A 
ATOM     71  C   UNL A   1      44.471  35.380  30.406  1.00  0.00     0.059 A 
ATOM     72  F   UNL A   1      44.384  33.750  28.721  1.00  0.00    -0.206 F 
ATOM     73  C   UNL A   1      44.345  35.717  31.753  1.00  0.00     0.060 A 
BRANCH  73  74
ATOM     74  S   UNL A   1      44.571  37.425  32.294  1.00  0.00     0.124 S 
ATOM     75  O   UNL A   1      45.962  37.407  32.737  1.00  0.00    -0.237 OA
ATOM     76  O   UNL A   1      44.305  38.176  31.072  1.00  0.00    -0.237 OA
ATOM     77  O   UNL A   1      43.579  37.581  33.353  1.00  0.00    -0.744 OA
ENDBRANCH  73  74
ENDBRANCH  52  66
BRANCH  53  78
ATOM     78  C   UNL A   1      42.735  23.680  27.686  1.00  0.00     0.058 A 
ATOM     79  C   UNL A   1      42.771  23.435  26.305  1.00  0.00     0.135 A 
ATOM     80  C   UNL A   1      42.530  22.583  28.537  1.00  0.00     0.135 A 
ATOM     81  F   UNL A   1      42.960  24.451  25.450  1.00  0.00    -0.206 F 
ATOM     82  C   UNL A   1      42.585  22.158  25.784  1.00  0.00     0.059 A 
ATOM     83  C   UNL A   1      42.366  21.292  28.042  1.00  0.00     0.059 A 
ATOM     84  F   UNL A   1      42.506  22.758  29.868  1.00  0.00    -0.206 F 
ATOM     85  C   UNL A   1      42.381  21.092  26.662  1.00  0.00     0.060 A 
BRANCH  85  86
ATOM     86  S   UNL A   1      42.168  19.434  25.979  1.00  0.00     0.124 S 
ATOM     87  O   UNL A   1      40.734  19.404  25.722  1.00  0.00    -0.237 OA
ATOM     88  O   UNL A   1      43.030  19.474  24.801  1.00  0.00    -0.237 OA
ATOM     89  O   UNL A   1      42.634  18.566  27.058  1.00  0.00    -0.744 OA
ENDBRANCH  85  86
ENDBRANCH  53  78
BRANCH  65  90
ATOM     90  C   UNL A   1      48.190  27.243  30.186  1.00  0.00     0.058 A 
ATOM     91  C   UNL A   1      49.199  27.539  29.258  1.00  0.00     0.135 A 
ATOM     92  C   UNL A   1      48.567  26.643  31.399  1.00  0.00     0.135 A 
ATOM     93  F   UNL A   1      48.890  28.106  28.080  1.00  0.00    -0.206 F 
ATOM     94  C   UNL A   1      50.532  27.237  29.516  1.00  0.00     0.059 A 
ATOM     95  C   UNL A   1      49.896  26.359  31.689  1.00  0.00     0.059 A 
ATOM     96  F   UNL A   1      47.640  26.351  32.325  1.00  0.00    -0.206 F 
ATOM     97  C   UNL A   1      50.872  26.650  30.736  1.00  0.00     0.060 A 
BRANCH  97  98
ATOM     98  S   UNL A   1      52.610  26.306  31.077  1.00  0.00     0.124 S 
ATOM     99  O   UNL A   1      53.028  27.536  31.742  1.00  0.00    -0.237 OA
ATOM    100  O   UNL A   1      52.534  25.121  31.926  1.00  0.00    -0.237 OA
ATOM    101  O   UNL A   1      53.179  26.084  29.751  1.00  0.00    -0.744 OA
ENDBRANCH  97  98
ENDBRANCH  65  90
ENDBRANCH  39  40
ENDBRANCH  31  34
ENDBRANCH  29  30
ENDBRANCH  28  29
ENDBRANCH  27  28
ENDBRANCH   1  27
TORSDOF 21
ENDMDL
MODEL 2
REMARK VINA RESULT:     -10.5      2.841      9.096
REMARK SMILES CCN(CC(C)(C)O)C(=O)Nc1ccc(C(=O)NCCCCNC(=O)c2ccc(-c3c4nc(c(-c5c(F)cc(S(=O)(=O)[O-])cc5F)c5ccc([nH]5)c(-c5c(F)cc(S(=O)(=O)[O-])cc5F)c5nc(c(-c6c(F)cc(S(=O)(=O)[O-])cc6F)c6ccc3[nH]6)C=C5)C=C4)cc2)c(O)c1
REMARK SMILES IDX 19 1 18 2 16 3 17 4 15 6 12 7 13 8 94 9 14 10 92 11 11 12
REMARK SMILES IDX 9 13 10 14 3 16 2 17 1 18 4 19 5 20 6 21 7 22 8 23 93 25
REMARK SMILES IDX 20 27 21 28 22 29 23 30 24 31 25 33 26 34 27 35 91 36 28 37
REMARK SMILES IDX 90 38 29 39 30 40 31 41 84 42 32 43 89 44 83 45 85 46 33 47
REMARK SMILES IDX 88 48 82 49 81 50 34 52 68 53 47 54 67 55 48 56 51 57 66 58
REMARK SMILES IDX 86 59 49 60 50 61 65 63 87 64 52 65 35 66 36 67 45 68 37 69
REMARK SMILES IDX 38 70 44 71 46 72 39 73 40 74 41 75 42 76 43 77 69 78 70 79
REMARK SMILES IDX 79 80 71 81 72 82 78 83 80 84 73 85 74 86 75 87 76 88 77 89
REMARK SMILES IDX 53 90 54 91 63 92 55 93 56 94 62 95 64 96 57 97 58 98 59 99
REMARK SMILES IDX 60 100 61 101
REMARK H PARENT 18 5 11 15 8 24 93 26 23 32 85 51 51 62
REMARK Flexibility Score: inf
ROOT
ATOM      1  C   UNL A   1      34.874  21.211  26.017  1.00  0.00     0.116 C 
ENDROOT
BRANCH   1   2
ATOM      2  N   UNL A   1      33.924  20.136  25.812  1.00  0.00    -0.352 N 
ATOM      3  C   UNL A   1      32.732  20.208  25.149  1.00  0.00     0.255 C 
ATOM      4  O   UNL A   1      32.098  19.199  24.862  1.00  0.00    -0.269 OA
ATOM      5  H   UNL A   1      34.164  19.259  26.191  1.00  0.00     0.163 HD
BRANCH   3   6
ATOM      6  C   UNL A   1      32.126  21.529  24.964  1.00  0.00     0.081 A 
ATOM      7  C   UNL A   1      30.692  23.850  24.236  1.00  0.00     0.046 A 
ATOM      8  C   UNL A   1      31.283  23.023  23.312  1.00  0.00     0.027 A 
ATOM      9  C   UNL A   1      30.876  23.511  25.586  1.00  0.00     0.073 A 
ATOM     10  C   UNL A   1      31.982  21.874  23.637  1.00  0.00     0.020 A 
ATOM     11  C   UNL A   1      31.611  22.368  25.950  1.00  0.00     0.130 A 
BRANCH   7  12
ATOM     12  N   UNL A   1      29.991  25.026  23.930  1.00  0.00    -0.308 N 
ATOM     13  C   UNL A   1      30.085  26.369  23.883  1.00  0.00     0.321 C 
ATOM     14  O   UNL A   1      28.983  26.890  23.630  1.00  0.00    -0.248 OA
ATOM     15  H   UNL A   1      29.086  24.774  23.636  1.00  0.00     0.171 HD
BRANCH  13  16
ATOM     16  N   UNL A   1      31.186  27.166  24.029  1.00  0.00    -0.322 N 
BRANCH  16  17
ATOM     17  C   UNL A   1      31.470  27.599  25.409  1.00  0.00     0.118 C 
ATOM     18  C   UNL A   1      32.500  26.698  26.087  1.00  0.00     0.027 C 
ENDBRANCH  16  17
BRANCH  16  19
ATOM     19  C   UNL A   1      32.116  27.751  23.050  1.00  0.00     0.155 C 
BRANCH  19  20
ATOM     20  C   UNL A   1      32.937  26.711  22.190  1.00  0.00     0.077 C 
ATOM     21  C   UNL A   1      33.744  25.666  22.986  1.00  0.00     0.043 C 
ATOM     22  C   UNL A   1      32.019  26.026  21.152  1.00  0.00     0.043 C 
BRANCH  20  23
ATOM     23  O   UNL A   1      33.917  27.446  21.429  1.00  0.00    -0.389 OA
ATOM     24  H   UNL A   1      34.209  28.218  21.937  1.00  0.00     0.211 HD
ENDBRANCH  20  23
ENDBRANCH  19  20
ENDBRANCH  16  19
ENDBRANCH  13  16
ENDBRANCH   7  12
BRANCH  11  25
ATOM     25  O   UNL A   1      31.776  22.137  27.286  1.00  0.00    -0.507 OA
ATOM     26  H   UNL A   1      32.414  21.517  27.579  1.00  0.00     0.293 HD
ENDBRANCH  11  25
ENDBRANCH   3   6
ENDBRANCH   1   2
BRANCH   1  27
ATOM     27  C   UNL A   1      35.759  21.519  24.821  1.00  0.00     0.023 C 
BRANCH  27  28
ATOM     28  C   UNL A   1      36.023  22.992  24.528  1.00  0.00     0.023 C 
BRANCH  28  29
ATOM     29  C   UNL A   1      37.186  23.644  25.265  1.00  0.00     0.116 C 
BRANCH  29  30
ATOM     30  N   UNL A   1      38.188  22.706  25.743  1.00  0.00    -0.352 N 
ATOM     31  C   UNL A   1      39.317  22.953  26.485  1.00  0.00     0.251 C 
ATOM     32  H   UNL A   1      38.036  21.764  25.500  1.00  0.00     0.163 HD
ATOM     33  O   UNL A   1      40.089  22.041  26.763  1.00  0.00    -0.269 OA
BRANCH  31  34
ATOM     34  C   UNL A   1      39.614  24.340  26.886  1.00  0.00     0.039 A 
ATOM     35  C   UNL A   1      39.387  24.714  28.209  1.00  0.00     0.014 A 
ATOM     36  C   UNL A   1      40.215  25.224  25.985  1.00  0.00     0.014 A 
ATOM     37  C   UNL A   1      39.848  25.951  28.659  1.00  0.00     0.010 A 
ATOM     38  C   UNL A   1      40.760  26.411  26.460  1.00  0.00     0.010 A 
ATOM     39  C   UNL A   1      40.585  26.785  27.802  1.00  0.00    -0.014 A 
BRANCH  39  40
ATOM     40  C   UNL A   1      41.183  28.054  28.287  1.00  0.00     0.031 A 
ATOM     41  C   UNL A   1      42.675  28.240  28.235  1.00  0.00     0.074 A 
ATOM     42  C   UNL A   1      40.396  29.000  28.840  1.00  0.00     0.049 A 
ATOM     43  N   UNL A   1      43.399  29.226  28.696  1.00  0.00    -0.248 NA
ATOM     44  C   UNL A   1      43.459  27.159  27.615  1.00  0.00     0.031 C 
ATOM     45  C   UNL A   1      38.942  28.907  29.002  1.00  0.00     0.029 A 
ATOM     46  N   UNL A   1      40.708  30.221  29.383  1.00  0.00    -0.354 N 
ATOM     47  C   UNL A   1      44.720  28.873  28.445  1.00  0.00     0.074 A 
ATOM     48  C   UNL A   1      44.701  27.559  27.842  1.00  0.00     0.031 C 
ATOM     49  C   UNL A   1      38.489  30.030  29.583  1.00  0.00     0.029 A 
ATOM     50  C   UNL A   1      39.620  30.906  29.873  1.00  0.00     0.049 A 
ATOM     51  H   UNL A   1      41.627  30.574  29.419  1.00  0.00     0.167 HD
ATOM     52  C   UNL A   1      45.844  29.591  28.672  1.00  0.00     0.037 A 
ATOM     53  C   UNL A   1      39.545  32.099  30.494  1.00  0.00     0.037 A 
ATOM     54  C   UNL A   1      45.849  30.917  29.229  1.00  0.00     0.049 A 
ATOM     55  C   UNL A   1      40.808  32.889  30.713  1.00  0.00     0.074 A 
ATOM     56  C   UNL A   1      46.928  31.760  29.428  1.00  0.00     0.029 A 
ATOM     57  N   UNL A   1      44.723  31.594  29.671  1.00  0.00    -0.354 N 
ATOM     58  N   UNL A   1      42.043  32.570  30.402  1.00  0.00    -0.248 NA
ATOM     59  C   UNL A   1      40.671  34.202  31.358  1.00  0.00     0.031 C 
ATOM     60  C   UNL A   1      46.459  32.932  30.029  1.00  0.00     0.029 A 
ATOM     61  C   UNL A   1      45.083  32.839  30.159  1.00  0.00     0.049 A 
ATOM     62  H   UNL A   1      43.804  31.242  29.642  1.00  0.00     0.167 HD
ATOM     63  C   UNL A   1      42.823  33.653  30.788  1.00  0.00     0.074 A 
ATOM     64  C   UNL A   1      41.922  34.641  31.343  1.00  0.00     0.031 C 
ATOM     65  C   UNL A   1      44.166  33.816  30.692  1.00  0.00     0.037 A 
BRANCH  52  66
ATOM     66  C   UNL A   1      47.160  28.966  28.305  1.00  0.00     0.058 A 
ATOM     67  C   UNL A   1      47.911  28.227  29.233  1.00  0.00     0.135 A 
ATOM     68  C   UNL A   1      47.655  29.066  26.994  1.00  0.00     0.135 A 
ATOM     69  F   UNL A   1      47.494  28.117  30.505  1.00  0.00    -0.206 F 
ATOM     70  C   UNL A   1      49.115  27.628  28.883  1.00  0.00     0.059 A 
ATOM     71  C   UNL A   1      48.844  28.449  26.613  1.00  0.00     0.059 A 
ATOM     72  F   UNL A   1      46.980  29.764  26.067  1.00  0.00    -0.206 F 
ATOM     73  C   UNL A   1      49.571  27.741  27.569  1.00  0.00     0.060 A 
BRANCH  73  74
ATOM     74  S   UNL A   1      51.123  26.932  27.124  1.00  0.00     0.124 S 
ATOM     75  O   UNL A   1      51.326  27.420  25.764  1.00  0.00    -0.237 OA
ATOM     76  O   UNL A   1      52.044  27.453  28.129  1.00  0.00    -0.237 OA
ATOM     77  O   UNL A   1      50.810  25.511  27.240  1.00  0.00    -0.744 OA
ENDBRANCH  73  74
ENDBRANCH  52  66
BRANCH  53  78
ATOM     78  C   UNL A   1      38.229  32.630  30.942  1.00  0.00     0.058 A 
ATOM     79  C   UNL A   1      37.376  33.297  30.049  1.00  0.00     0.135 A 
ATOM     80  C   UNL A   1      37.800  32.489  32.270  1.00  0.00     0.135 A 
ATOM     81  F   UNL A   1      37.742  33.462  28.769  1.00  0.00    -0.206 F 
ATOM     82  C   UNL A   1      36.158  33.828  30.462  1.00  0.00     0.059 A 
ATOM     83  C   UNL A   1      36.574  32.988  32.701  1.00  0.00     0.059 A 
ATOM     84  F   UNL A   1      38.568  31.842  33.161  1.00  0.00    -0.206 F 
ATOM     85  C   UNL A   1      35.765  33.669  31.792  1.00  0.00     0.060 A 
BRANCH  85  86
ATOM     86  S   UNL A   1      34.170  34.336  32.312  1.00  0.00     0.124 S 
ATOM     87  O   UNL A   1      34.579  35.417  33.200  1.00  0.00    -0.237 OA
ATOM     88  O   UNL A   1      33.577  34.741  31.041  1.00  0.00    -0.237 OA
ATOM     89  O   UNL A   1      33.526  33.196  32.959  1.00  0.00    -0.744 OA
ENDBRANCH  85  86
ENDBRANCH  53  78
BRANCH  65  90
ATOM     90  C   UNL A   1      44.743  35.123  31.158  1.00  0.00     0.058 A 
ATOM     91  C   UNL A   1      44.837  36.233  30.306  1.00  0.00     0.135 A 
ATOM     92  C   UNL A   1      45.142  35.284  32.495  1.00  0.00     0.135 A 
ATOM     93  F   UNL A   1      44.474  36.129  29.017  1.00  0.00    -0.206 F 
ATOM     94  C   UNL A   1      45.325  37.455  30.759  1.00  0.00     0.059 A 
ATOM     95  C   UNL A   1      45.605  36.503  32.976  1.00  0.00     0.059 A 
ATOM     96  F   UNL A   1      45.060  34.255  33.353  1.00  0.00    -0.206 F 
ATOM     97  C   UNL A   1      45.703  37.581  32.096  1.00  0.00     0.060 A 
BRANCH  97  98
ATOM     98  S   UNL A   1      46.290  39.184  32.682  1.00  0.00     0.124 S 
ATOM     99  O   UNL A   1      45.051  39.799  33.147  1.00  0.00    -0.237 OA
ATOM    100  O   UNL A   1      47.241  38.807  33.724  1.00  0.00    -0.237 OA
ATOM    101  O   UNL A   1      46.881  39.786  31.491  1.00  0.00    -0.744 OA
ENDBRANCH  97  98
ENDBRANCH  65  90
ENDBRANCH  39  40
ENDBRANCH  31  34
ENDBRANCH  29  30
ENDBRANCH  28  29
ENDBRANCH  27  28
ENDBRANCH   1  27
TORSDOF 21
ENDMDL
MODEL 3
REMARK VINA RESULT:     -10.4      4.794     10.522
REMARK SMILES CCN(CC(C)(C)O)C(=O)Nc1ccc(C(=O)NCCCCNC(=O)c2ccc(-c3c4nc(c(-c5c(F)cc(S(=O)(=O)[O-])cc5F)c5ccc([nH]5)c(-c5c(F)cc(S(=O)(=O)[O-])cc5F)c5nc(c(-c6c(F)cc(S(=O)(=O)[O-])cc6F)c6ccc3[nH]6)C=C5)C=C4)cc2)c(O)c1
REMARK SMILES IDX 19 1 18 2 16 3 17 4 15 6 12 7 13 8 94 9 14 10 92 11 11 12
REMARK SMILES IDX 9 13 10 14 3 16 2 17 1 18 4 19 5 20 6 21 7 22 8 23 93 25
REMARK SMILES IDX 20 27 21 28 22 29 23 30 24 31 25 33 26 34 27 35 91 36 28 37
REMARK SMILES IDX 90 38 29 39 30 40 31 41 84 42 32 43 89 44 83 45 85 46 33 47
REMARK SMILES IDX 88 48 82 49 81 50 34 52 68 53 47 54 67 55 48 56 51 57 66 58
REMARK SMILES IDX 86 59 49 60 50 61 65 63 87 64 52 65 35 66 36 67 45 68 37 69
REMARK SMILES IDX 38 70 44 71 46 72 39 73 40 74 41 75 42 76 43 77 69 78 70 79
REMARK SMILES IDX 79 80 71 81 72 82 78 83 80 84 73 85 74 86 75 87 76 88 77 89
REMARK SMILES IDX 53 90 54 91 63 92 55 93 56 94 62 95 64 96 57 97 58 98 59 99
REMARK SMILES IDX 60 100 61 101
REMARK H PARENT 18 5 11 15 8 24 93 26 23 32 85 51 51 62
REMARK Flexibility Score: inf
ROOT
ATOM      1  C   UNL A   1      38.156  23.317  26.142  1.00  0.00     0.116 C 
ENDROOT
BRANCH   1   2
ATOM      2  N   UNL A   1      37.546  22.028  25.880  1.00  0.00    -0.352 N 
ATOM      3  C   UNL A   1      36.310  21.797  25.347  1.00  0.00     0.255 C 
ATOM      4  O   UNL A   1      35.970  20.677  24.984  1.00  0.00    -0.269 OA
ATOM      5  H   UNL A   1      38.082  21.234  26.110  1.00  0.00     0.163 HD
BRANCH   3   6
ATOM      6  C   UNL A   1      35.323  22.878  25.405  1.00  0.00     0.081 A 
ATOM      7  C   UNL A   1      33.244  24.762  25.081  1.00  0.00     0.046 A 
ATOM      8  C   UNL A   1      34.084  24.398  24.055  1.00  0.00     0.027 A 
ATOM      9  C   UNL A   1      33.502  24.181  26.333  1.00  0.00     0.073 A 
ATOM     10  C   UNL A   1      35.102  23.471  24.180  1.00  0.00     0.020 A 
ATOM     11  C   UNL A   1      34.551  23.261  26.501  1.00  0.00     0.130 A 
BRANCH   7  12
ATOM     12  N   UNL A   1      32.216  25.710  24.979  1.00  0.00    -0.308 N 
ATOM     13  C   UNL A   1      31.952  27.029  24.921  1.00  0.00     0.321 C 
ATOM     14  O   UNL A   1      30.727  27.248  24.971  1.00  0.00    -0.248 OA
ATOM     15  H   UNL A   1      31.359  25.226  24.932  1.00  0.00     0.171 HD
BRANCH  13  16
ATOM     16  N   UNL A   1      32.815  28.080  24.778  1.00  0.00    -0.322 N 
BRANCH  16  17
ATOM     17  C   UNL A   1      32.632  28.883  23.556  1.00  0.00     0.118 C 
ATOM     18  C   UNL A   1      33.864  28.835  22.654  1.00  0.00     0.027 C 
ENDBRANCH  16  17
BRANCH  16  19
ATOM     19  C   UNL A   1      33.963  28.527  25.582  1.00  0.00     0.155 C 
BRANCH  19  20
ATOM     20  C   UNL A   1      33.600  29.295  26.914  1.00  0.00     0.077 C 
ATOM     21  C   UNL A   1      34.793  29.839  27.726  1.00  0.00     0.043 C 
ATOM     22  C   UNL A   1      32.571  30.412  26.629  1.00  0.00     0.043 C 
BRANCH  20  23
ATOM     23  O   UNL A   1      32.939  28.361  27.793  1.00  0.00    -0.389 OA
ATOM     24  H   UNL A   1      33.435  28.292  28.624  1.00  0.00     0.211 HD
ENDBRANCH  20  23
ENDBRANCH  19  20
ENDBRANCH  16  19
ENDBRANCH  13  16
ENDBRANCH   7  12
BRANCH  11  25
ATOM     25  O   UNL A   1      34.756  22.777  27.762  1.00  0.00    -0.507 OA
ATOM     26  H   UNL A   1      34.785  23.366  28.490  1.00  0.00     0.293 HD
ENDBRANCH  11  25
ENDBRANCH   3   6
ENDBRANCH   1   2
BRANCH   1  27
ATOM     27  C   UNL A   1      39.303  23.290  27.139  1.00  0.00     0.023 C 
BRANCH  27  28
ATOM     28  C   UNL A   1      40.538  22.492  26.737  1.00  0.00     0.023 C 
BRANCH  28  29
ATOM     29  C   UNL A   1      41.875  23.219  26.788  1.00  0.00     0.116 C 
BRANCH  29  30
ATOM     30  N   UNL A   1      42.078  24.171  25.709  1.00  0.00    -0.352 N 
ATOM     31  C   UNL A   1      42.174  25.539  25.771  1.00  0.00     0.251 C 
ATOM     32  H   UNL A   1      42.158  23.779  24.809  1.00  0.00     0.163 HD
ATOM     33  O   UNL A   1      42.297  26.200  24.745  1.00  0.00    -0.269 OA
BRANCH  31  34
ATOM     34  C   UNL A   1      42.064  26.200  27.084  1.00  0.00     0.039 A 
ATOM     35  C   UNL A   1      43.086  27.059  27.484  1.00  0.00     0.014 A 
ATOM     36  C   UNL A   1      40.907  26.054  27.855  1.00  0.00     0.014 A 
ATOM     37  C   UNL A   1      42.909  27.848  28.621  1.00  0.00     0.010 A 
ATOM     38  C   UNL A   1      40.694  26.911  28.928  1.00  0.00     0.010 A 
ATOM     39  C   UNL A   1      41.691  27.819  29.320  1.00  0.00    -0.014 A 
BRANCH  39  40
ATOM     40  C   UNL A   1      41.436  28.730  30.464  1.00  0.00     0.031 A 
ATOM     41  C   UNL A   1      42.267  28.607  31.712  1.00  0.00     0.074 A 
ATOM     42  C   UNL A   1      40.415  29.609  30.409  1.00  0.00     0.049 A 
ATOM     43  N   UNL A   1      42.141  29.235  32.851  1.00  0.00    -0.248 NA
ATOM     44  C   UNL A   1      43.362  27.622  31.688  1.00  0.00     0.031 C 
ATOM     45  C   UNL A   1      39.499  29.777  29.275  1.00  0.00     0.029 A 
ATOM     46  N   UNL A   1      39.961  30.517  31.333  1.00  0.00    -0.354 N 
ATOM     47  C   UNL A   1      43.121  28.706  33.683  1.00  0.00     0.074 A 
ATOM     48  C   UNL A   1      43.796  27.668  32.939  1.00  0.00     0.031 C 
ATOM     49  C   UNL A   1      38.612  30.743  29.564  1.00  0.00     0.029 A 
ATOM     50  C   UNL A   1      38.865  31.235  30.915  1.00  0.00     0.049 A 
ATOM     51  H   UNL A   1      40.383  30.643  32.213  1.00  0.00     0.167 HD
ATOM     52  C   UNL A   1      43.444  29.071  34.945  1.00  0.00     0.037 A 
ATOM     53  C   UNL A   1      38.141  32.175  31.552  1.00  0.00     0.037 A 
ATOM     54  C   UNL A   1      42.798  30.138  35.663  1.00  0.00     0.049 A 
ATOM     55  C   UNL A   1      38.537  32.581  32.947  1.00  0.00     0.074 A 
ATOM     56  C   UNL A   1      43.102  30.636  36.916  1.00  0.00     0.029 A 
ATOM     57  N   UNL A   1      41.721  30.871  35.188  1.00  0.00    -0.354 N 
ATOM     58  N   UNL A   1      39.513  32.119  33.692  1.00  0.00    -0.248 NA
ATOM     59  C   UNL A   1      37.741  33.638  33.586  1.00  0.00     0.031 C 
ATOM     60  C   UNL A   1      42.182  31.645  37.218  1.00  0.00     0.029 A 
ATOM     61  C   UNL A   1      41.337  31.807  36.132  1.00  0.00     0.049 A 
ATOM     62  H   UNL A   1      41.294  30.744  34.311  1.00  0.00     0.167 HD
ATOM     63  C   UNL A   1      39.466  32.848  34.874  1.00  0.00     0.074 A 
ATOM     64  C   UNL A   1      38.374  33.789  34.741  1.00  0.00     0.031 C 
ATOM     65  C   UNL A   1      40.256  32.748  35.972  1.00  0.00     0.037 A 
BRANCH  52  66
ATOM     66  C   UNL A   1      44.556  28.325  35.627  1.00  0.00     0.058 A 
ATOM     67  C   UNL A   1      44.309  27.188  36.413  1.00  0.00     0.135 A 
ATOM     68  C   UNL A   1      45.892  28.722  35.454  1.00  0.00     0.135 A 
ATOM     69  F   UNL A   1      43.048  26.775  36.627  1.00  0.00    -0.206 F 
ATOM     70  C   UNL A   1      45.342  26.483  37.020  1.00  0.00     0.059 A 
ATOM     71  C   UNL A   1      46.945  28.015  36.029  1.00  0.00     0.059 A 
ATOM     72  F   UNL A   1      46.186  29.805  34.717  1.00  0.00    -0.206 F 
ATOM     73  C   UNL A   1      46.658  26.903  36.819  1.00  0.00     0.060 A 
BRANCH  73  74
ATOM     74  S   UNL A   1      47.989  25.959  37.591  1.00  0.00     0.124 S 
ATOM     75  O   UNL A   1      47.475  25.788  38.947  1.00  0.00    -0.237 OA
ATOM     76  O   UNL A   1      48.031  24.753  36.773  1.00  0.00    -0.237 OA
ATOM     77  O   UNL A   1      49.146  26.840  37.466  1.00  0.00    -0.744 OA
ENDBRANCH  73  74
ENDBRANCH  52  66
BRANCH  53  78
ATOM     78  C   UNL A   1      36.975  32.809  30.877  1.00  0.00     0.058 A 
ATOM     79  C   UNL A   1      37.151  33.870  29.975  1.00  0.00     0.135 A 
ATOM     80  C   UNL A   1      35.664  32.375  31.125  1.00  0.00     0.135 A 
ATOM     81  F   UNL A   1      38.385  34.325  29.708  1.00  0.00    -0.206 F 
ATOM     82  C   UNL A   1      36.070  34.495  29.363  1.00  0.00     0.059 A 
ATOM     83  C   UNL A   1      34.567  32.968  30.505  1.00  0.00     0.059 A 
ATOM     84  F   UNL A   1      35.441  31.352  31.964  1.00  0.00    -0.206 F 
ATOM     85  C   UNL A   1      34.780  34.037  29.635  1.00  0.00     0.060 A 
BRANCH  85  86
ATOM     86  S   UNL A   1      33.383  34.835  28.815  1.00  0.00     0.124 S 
ATOM     87  O   UNL A   1      32.966  33.802  27.874  1.00  0.00    -0.237 OA
ATOM     88  O   UNL A   1      32.476  35.090  29.930  1.00  0.00    -0.237 OA
ATOM     89  O   UNL A   1      33.981  36.027  28.220  1.00  0.00    -0.744 OA
ENDBRANCH  85  86
ENDBRANCH  53  78
BRANCH  65  90
ATOM     90  C   UNL A   1      39.999  33.705  37.103  1.00  0.00     0.058 A 
ATOM     91  C   UNL A   1      40.622  34.960  37.163  1.00  0.00     0.135 A 
ATOM     92  C   UNL A   1      39.064  33.385  38.101  1.00  0.00     0.135 A 
ATOM     93  F   UNL A   1      41.527  35.311  36.235  1.00  0.00    -0.206 F 
ATOM     94  C   UNL A   1      40.340  35.860  38.185  1.00  0.00     0.059 A 
ATOM     95  C   UNL A   1      38.747  34.281  39.116  1.00  0.00     0.059 A 
ATOM     96  F   UNL A   1      38.432  32.201  38.082  1.00  0.00    -0.206 F 
ATOM     97  C   UNL A   1      39.398  35.514  39.155  1.00  0.00     0.060 A 
BRANCH  97  98
ATOM     98  S   UNL A   1      39.009  36.709  40.449  1.00  0.00     0.124 S 
ATOM     99  O   UNL A   1      38.021  35.978  41.237  1.00  0.00    -0.237 OA
ATOM    100  O   UNL A   1      40.305  36.912  41.088  1.00  0.00    -0.237 OA
ATOM    101  O   UNL A   1      38.496  37.858  39.708  1.00  0.00    -0.744 OA
ENDBRANCH  97  98
ENDBRANCH  65  90
ENDBRANCH  39  40
ENDBRANCH  31  34
ENDBRANCH  29  30
ENDBRANCH  28  29
ENDBRANCH  27  28
ENDBRANCH   1  27
TORSDOF 21
ENDMDL
