MODEL 1
REMARK VINA RESULT:     -11.9      0.000      0.000
REMARK SMILES CC(C)(C)OC(=O)N1CCN(C(=O)c2ccc3c(c2)OCO3)[C@H](C(=O)NCCCCNC(=O)c2ccc(-c3c4nc(c(-c5c(F)cc(S(=O)(=O)[O-])cc5F)c5ccc([nH]5)c(-c5c(F)cc(S(=O)(=O)[O-])cc5F)c5nc(c(-c6c(F)cc(S(=O)(=O)[O-])cc6F)c6ccc3[nH]6)C=C5)C=C4)cc2)C1
REMARK SMILES IDX 28 1 27 2 26 3 24 4 25 5 23 7 8 8 9 9 100 10 10 11 11 12
REMARK SMILES IDX 6 13 7 14 5 15 2 16 1 17 3 18 4 19 12 20 13 21 14 22 15 23
REMARK SMILES IDX 19 24 16 25 18 26 17 27 20 28 22 29 21 30 29 31 30 32 31 33
REMARK SMILES IDX 32 34 33 36 34 37 35 38 99 39 36 40 98 41 37 42 38 43 39 44
REMARK SMILES IDX 92 45 40 46 97 47 91 48 93 49 41 50 96 51 90 52 89 53 42 55
REMARK SMILES IDX 76 56 55 57 75 58 56 59 59 60 74 61 94 62 57 63 58 64 73 66
REMARK SMILES IDX 95 67 60 68 43 69 44 70 53 71 45 72 46 73 52 74 54 75 47 76
REMARK SMILES IDX 48 77 49 78 50 79 51 80 77 81 78 82 87 83 79 84 80 85 86 86
REMARK SMILES IDX 88 87 81 88 82 89 83 90 84 91 85 92 61 93 62 94 71 95 63 96
REMARK SMILES IDX 64 97 70 98 72 99 65 100 66 101 67 102 68 103 69 104
REMARK H PARENT 26 6 31 35 93 54 59 65
REMARK Flexibility Score: inf
ROOT
ATOM      1  C   UNL A   1      33.658  28.556  26.833  1.00  0.00     0.023 C 
ENDROOT
BRANCH   1   2
ATOM      2  C   UNL A   1      32.294  28.759  26.177  1.00  0.00     0.116 C 
BRANCH   2   3
ATOM      3  N   UNL A   1      31.317  27.754  26.557  1.00  0.00    -0.354 N 
ATOM      4  C   UNL A   1      30.866  26.605  25.985  1.00  0.00     0.244 C 
ATOM      5  O   UNL A   1      30.212  25.869  26.738  1.00  0.00    -0.273 OA
ATOM      6  H   UNL A   1      30.885  27.946  27.421  1.00  0.00     0.163 HD
BRANCH   4   7
ATOM      7  C   UNL A   1      31.015  26.196  24.491  1.00  0.00     0.194 C 
ATOM      8  N   UNL A   1      32.699  25.321  22.810  1.00  0.00    -0.304 N 
ATOM      9  C   UNL A   1      32.097  26.106  21.746  1.00  0.00     0.144 C 
ATOM     10  C   UNL A   1      32.469  25.824  24.160  1.00  0.00     0.158 C 
ATOM     11  C   UNL A   1      30.643  26.466  22.044  1.00  0.00     0.142 C 
ATOM     12  N   UNL A   1      30.409  27.022  23.392  1.00  0.00    -0.323 N 
BRANCH   8  13
ATOM     13  C   UNL A   1      33.763  24.486  22.523  1.00  0.00     0.410 C 
ATOM     14  O   UNL A   1      33.829  23.797  21.511  1.00  0.00    -0.224 OA
BRANCH  13  15
ATOM     15  O   UNL A   1      34.718  24.540  23.484  1.00  0.00    -0.444 OA
BRANCH  15  16
ATOM     16  C   UNL A   1      35.175  23.366  24.203  1.00  0.00     0.106 C 
ATOM     17  C   UNL A   1      35.469  23.875  25.623  1.00  0.00     0.056 C 
ATOM     18  C   UNL A   1      36.475  22.860  23.573  1.00  0.00     0.056 C 
ATOM     19  C   UNL A   1      34.119  22.260  24.295  1.00  0.00     0.056 C 
ENDBRANCH  15  16
ENDBRANCH  13  15
ENDBRANCH   8  13
BRANCH  12  20
ATOM     20  C   UNL A   1      29.175  27.687  23.495  1.00  0.00     0.254 C 
ATOM     21  O   UNL A   1      28.130  27.113  23.804  1.00  0.00    -0.269 OA
BRANCH  20  22
ATOM     22  C   UNL A   1      29.051  29.109  23.128  1.00  0.00     0.044 A 
ATOM     23  C   UNL A   1      29.686  30.102  23.901  1.00  0.00     0.018 A 
ATOM     24  C   UNL A   1      28.371  29.439  21.948  1.00  0.00     0.064 A 
ATOM     25  C   UNL A   1      29.573  31.448  23.542  1.00  0.00     0.051 A 
ATOM     26  C   UNL A   1      28.276  30.774  21.627  1.00  0.00     0.166 A 
ATOM     27  C   UNL A   1      28.849  31.751  22.408  1.00  0.00     0.165 A 
ATOM     28  O   UNL A   1      27.633  31.289  20.543  1.00  0.00    -0.454 OA
ATOM     29  O   UNL A   1      28.625  33.001  21.923  1.00  0.00    -0.454 OA
ATOM     30  C   UNL A   1      27.823  32.703  20.761  1.00  0.00     0.468 C 
ENDBRANCH  20  22
ENDBRANCH  12  20
ENDBRANCH   4   7
ENDBRANCH   2   3
ENDBRANCH   1   2
BRANCH   1  31
ATOM     31  C   UNL A   1      34.238  29.813  27.492  1.00  0.00     0.023 C 
BRANCH  31  32
ATOM     32  C   UNL A   1      35.536  29.603  28.270  1.00  0.00     0.116 C 
BRANCH  32  33
ATOM     33  N   UNL A   1      35.521  30.193  29.597  1.00  0.00    -0.352 N 
ATOM     34  C   UNL A   1      36.580  30.402  30.447  1.00  0.00     0.251 C 
ATOM     35  H   UNL A   1      34.639  30.479  29.930  1.00  0.00     0.163 HD
ATOM     36  O   UNL A   1      36.381  30.821  31.583  1.00  0.00    -0.269 OA
BRANCH  34  37
ATOM     37  C   UNL A   1      37.949  30.071  30.000  1.00  0.00     0.039 A 
ATOM     38  C   UNL A   1      38.843  29.528  30.927  1.00  0.00     0.014 A 
ATOM     39  C   UNL A   1      38.347  30.283  28.677  1.00  0.00     0.014 A 
ATOM     40  C   UNL A   1      40.121  29.149  30.513  1.00  0.00     0.010 A 
ATOM     41  C   UNL A   1      39.597  29.844  28.252  1.00  0.00     0.010 A 
ATOM     42  C   UNL A   1      40.499  29.282  29.167  1.00  0.00    -0.014 A 
BRANCH  42  43
ATOM     43  C   UNL A   1      41.847  28.868  28.708  1.00  0.00     0.031 A 
ATOM     44  C   UNL A   1      42.958  29.879  28.635  1.00  0.00     0.074 A 
ATOM     45  C   UNL A   1      42.056  27.597  28.312  1.00  0.00     0.049 A 
ATOM     46  N   UNL A   1      44.191  29.726  28.226  1.00  0.00    -0.248 NA
ATOM     47  C   UNL A   1      42.631  31.253  29.052  1.00  0.00     0.031 C 
ATOM     48  C   UNL A   1      41.043  26.540  28.287  1.00  0.00     0.029 A 
ATOM     49  N   UNL A   1      43.191  26.979  27.853  1.00  0.00    -0.354 N 
ATOM     50  C   UNL A   1      44.780  30.981  28.321  1.00  0.00     0.074 A 
ATOM     51  C   UNL A   1      43.755  31.896  28.772  1.00  0.00     0.031 C 
ATOM     52  C   UNL A   1      41.609  25.398  27.864  1.00  0.00     0.029 A 
ATOM     53  C   UNL A   1      43.016  25.646  27.565  1.00  0.00     0.049 A 
ATOM     54  H   UNL A   1      44.051  27.445  27.740  1.00  0.00     0.167 HD
ATOM     55  C   UNL A   1      46.066  31.335  28.080  1.00  0.00     0.037 A 
ATOM     56  C   UNL A   1      43.895  24.728  27.120  1.00  0.00     0.037 A 
ATOM     57  C   UNL A   1      47.087  30.412  27.663  1.00  0.00     0.049 A 
ATOM     58  C   UNL A   1      45.325  25.136  26.891  1.00  0.00     0.074 A 
ATOM     59  C   UNL A   1      48.431  30.656  27.436  1.00  0.00     0.029 A 
ATOM     60  N   UNL A   1      46.879  29.062  27.420  1.00  0.00    -0.354 N 
ATOM     61  N   UNL A   1      45.878  26.317  27.036  1.00  0.00    -0.248 NA
ATOM     62  C   UNL A   1      46.253  24.085  26.455  1.00  0.00     0.031 C 
ATOM     63  C   UNL A   1      49.030  29.458  27.031  1.00  0.00     0.029 A 
ATOM     64  C   UNL A   1      48.068  28.460  27.041  1.00  0.00     0.049 A 
ATOM     65  H   UNL A   1      46.014  28.600  27.504  1.00  0.00     0.167 HD
ATOM     66  C   UNL A   1      47.225  26.144  26.737  1.00  0.00     0.074 A 
ATOM     67  C   UNL A   1      47.403  24.743  26.412  1.00  0.00     0.031 C 
ATOM     68  C   UNL A   1      48.225  27.061  26.736  1.00  0.00     0.037 A 
BRANCH  55  69
ATOM     69  C   UNL A   1      46.430  32.780  28.277  1.00  0.00     0.058 A 
ATOM     70  C   UNL A   1      46.906  33.257  29.510  1.00  0.00     0.135 A 
ATOM     71  C   UNL A   1      46.305  33.701  27.225  1.00  0.00     0.135 A 
ATOM     72  F   UNL A   1      47.028  32.421  30.555  1.00  0.00    -0.206 F 
ATOM     73  C   UNL A   1      47.204  34.600  29.706  1.00  0.00     0.059 A 
ATOM     74  C   UNL A   1      46.625  35.046  27.390  1.00  0.00     0.059 A 
ATOM     75  F   UNL A   1      45.856  33.301  26.025  1.00  0.00    -0.206 F 
ATOM     76  C   UNL A   1      47.055  35.489  28.641  1.00  0.00     0.060 A 
BRANCH  76  77
ATOM     77  S   UNL A   1      47.426  37.235  28.914  1.00  0.00     0.124 S 
ATOM     78  O   UNL A   1      48.012  37.609  27.630  1.00  0.00    -0.237 OA
ATOM     79  O   UNL A   1      46.109  37.796  29.198  1.00  0.00    -0.237 OA
ATOM     80  O   UNL A   1      48.350  37.212  30.043  1.00  0.00    -0.744 OA
ENDBRANCH  76  77
ENDBRANCH  55  69
BRANCH  56  81
ATOM     81  C   UNL A   1      43.460  23.322  26.914  1.00  0.00     0.058 A 
ATOM     82  C   UNL A   1      43.332  22.445  28.001  1.00  0.00     0.135 A 
ATOM     83  C   UNL A   1      43.149  22.832  25.636  1.00  0.00     0.135 A 
ATOM     84  F   UNL A   1      43.620  22.868  29.241  1.00  0.00    -0.206 F 
ATOM     85  C   UNL A   1      42.928  21.125  27.829  1.00  0.00     0.059 A 
ATOM     86  C   UNL A   1      42.723  21.522  25.442  1.00  0.00     0.059 A 
ATOM     87  F   UNL A   1      43.237  23.637  24.567  1.00  0.00    -0.206 F 
ATOM     88  C   UNL A   1      42.625  20.672  26.544  1.00  0.00     0.060 A 
BRANCH  88  89
ATOM     89  S   UNL A   1      42.054  18.972  26.337  1.00  0.00     0.124 S 
ATOM     90  O   UNL A   1      42.113  18.474  27.706  1.00  0.00    -0.237 OA
ATOM     91  O   UNL A   1      40.717  19.160  25.782  1.00  0.00    -0.237 OA
ATOM     92  O   UNL A   1      43.031  18.402  25.414  1.00  0.00    -0.744 OA
ENDBRANCH  88  89
ENDBRANCH  56  81
BRANCH  68  93
ATOM     93  C   UNL A   1      49.606  26.568  26.414  1.00  0.00     0.058 A 
ATOM     94  C   UNL A   1      50.146  26.674  25.123  1.00  0.00     0.135 A 
ATOM     95  C   UNL A   1      50.413  26.015  27.421  1.00  0.00     0.135 A 
ATOM     96  F   UNL A   1      49.411  27.189  24.125  1.00  0.00    -0.206 F 
ATOM     97  C   UNL A   1      51.430  26.225  24.835  1.00  0.00     0.059 A 
ATOM     98  C   UNL A   1      51.708  25.581  27.162  1.00  0.00     0.059 A 
ATOM     99  F   UNL A   1      49.946  25.902  28.676  1.00  0.00    -0.206 F 
ATOM    100  C   UNL A   1      52.203  25.677  25.862  1.00  0.00     0.060 A 
BRANCH 100 101
ATOM    101  S   UNL A   1      53.877  25.118  25.484  1.00  0.00     0.124 S 
ATOM    102  O   UNL A   1      53.615  23.867  24.779  1.00  0.00    -0.237 OA
ATOM    103  O   UNL A   1      54.398  26.209  24.667  1.00  0.00    -0.237 OA
ATOM    104  O   UNL A   1      54.493  24.981  26.801  1.00  0.00    -0.744 OA
ENDBRANCH 100 101
ENDBRANCH  68  93
ENDBRANCH  42  43
ENDBRANCH  34  37
ENDBRANCH  32  33
ENDBRANCH  31  32
ENDBRANCH   1  31
TORSDOF 19
ENDMDL
MODEL 2
REMARK VINA RESULT:     -11.7      0.996      8.008
REMARK SMILES CC(C)(C)OC(=O)N1CCN(C(=O)c2ccc3c(c2)OCO3)[C@H](C(=O)NCCCCNC(=O)c2ccc(-c3c4nc(c(-c5c(F)cc(S(=O)(=O)[O-])cc5F)c5ccc([nH]5)c(-c5c(F)cc(S(=O)(=O)[O-])cc5F)c5nc(c(-c6c(F)cc(S(=O)(=O)[O-])cc6F)c6ccc3[nH]6)C=C5)C=C4)cc2)C1
REMARK SMILES IDX 28 1 27 2 26 3 24 4 25 5 23 7 8 8 9 9 100 10 10 11 11 12
REMARK SMILES IDX 6 13 7 14 5 15 2 16 1 17 3 18 4 19 12 20 13 21 14 22 15 23
REMARK SMILES IDX 19 24 16 25 18 26 17 27 20 28 22 29 21 30 29 31 30 32 31 33
REMARK SMILES IDX 32 34 33 36 34 37 35 38 99 39 36 40 98 41 37 42 38 43 39 44
REMARK SMILES IDX 92 45 40 46 97 47 91 48 93 49 41 50 96 51 90 52 89 53 42 55
REMARK SMILES IDX 76 56 55 57 75 58 56 59 59 60 74 61 94 62 57 63 58 64 73 66
REMARK SMILES IDX 95 67 60 68 43 69 44 70 53 71 45 72 46 73 52 74 54 75 47 76
REMARK SMILES IDX 48 77 49 78 50 79 51 80 77 81 78 82 87 83 79 84 80 85 86 86
REMARK SMILES IDX 88 87 81 88 82 89 83 90 84 91 85 92 61 93 62 94 71 95 63 96
REMARK SMILES IDX 64 97 70 98 72 99 65 100 66 101 67 102 68 103 69 104
REMARK H PARENT 26 6 31 35 93 54 59 65
REMARK Flexibility Score: inf
ROOT
ATOM      1  C   UNL A   1      34.413  29.245  25.836  1.00  0.00     0.023 C 
ENDROOT
BRANCH   1   2
ATOM      2  C   UNL A   1      33.128  28.841  25.117  1.00  0.00     0.116 C 
BRANCH   2   3
ATOM      3  N   UNL A   1      32.114  28.303  26.007  1.00  0.00    -0.354 N 
ATOM      4  C   UNL A   1      31.572  27.069  26.192  1.00  0.00     0.244 C 
ATOM      5  O   UNL A   1      30.913  26.940  27.233  1.00  0.00    -0.273 OA
ATOM      6  H   UNL A   1      31.735  28.982  26.611  1.00  0.00     0.163 HD
BRANCH   4   7
ATOM      7  C   UNL A   1      31.627  25.877  25.193  1.00  0.00     0.194 C 
ATOM      8  N   UNL A   1      33.217  24.186  24.175  1.00  0.00    -0.304 N 
ATOM      9  C   UNL A   1      32.503  24.222  22.910  1.00  0.00     0.144 C 
ATOM     10  C   UNL A   1      33.067  25.374  25.009  1.00  0.00     0.158 C 
ATOM     11  C   UNL A   1      31.061  24.697  23.075  1.00  0.00     0.142 C 
ATOM     12  N   UNL A   1      30.904  25.927  23.877  1.00  0.00    -0.323 N 
BRANCH   8  13
ATOM     13  C   UNL A   1      34.294  23.331  24.326  1.00  0.00     0.410 C 
ATOM     14  O   UNL A   1      35.417  23.706  24.644  1.00  0.00    -0.224 OA
BRANCH  13  15
ATOM     15  O   UNL A   1      33.947  22.041  24.095  1.00  0.00    -0.444 OA
BRANCH  15  16
ATOM     16  C   UNL A   1      34.239  20.971  25.030  1.00  0.00     0.106 C 
ATOM     17  C   UNL A   1      33.363  19.799  24.561  1.00  0.00     0.056 C 
ATOM     18  C   UNL A   1      33.802  21.392  26.436  1.00  0.00     0.056 C 
ATOM     19  C   UNL A   1      35.704  20.520  25.001  1.00  0.00     0.056 C 
ENDBRANCH  15  16
ENDBRANCH  13  15
ENDBRANCH   8  13
BRANCH  12  20
ATOM     20  C   UNL A   1      29.652  26.539  23.688  1.00  0.00     0.254 C 
ATOM     21  O   UNL A   1      28.586  25.951  23.875  1.00  0.00    -0.269 OA
BRANCH  20  22
ATOM     22  C   UNL A   1      29.554  27.906  23.147  1.00  0.00     0.044 A 
ATOM     23  C   UNL A   1      30.636  28.473  22.446  1.00  0.00     0.018 A 
ATOM     24  C   UNL A   1      28.334  28.586  23.265  1.00  0.00     0.064 A 
ATOM     25  C   UNL A   1      30.533  29.767  21.926  1.00  0.00     0.051 A 
ATOM     26  C   UNL A   1      28.269  29.860  22.746  1.00  0.00     0.166 A 
ATOM     27  C   UNL A   1      29.341  30.438  22.107  1.00  0.00     0.165 A 
ATOM     28  O   UNL A   1      27.187  30.683  22.791  1.00  0.00    -0.454 OA
ATOM     29  O   UNL A   1      29.072  31.701  21.684  1.00  0.00    -0.454 OA
ATOM     30  C   UNL A   1      27.717  31.864  22.153  1.00  0.00     0.468 C 
ENDBRANCH  20  22
ENDBRANCH  12  20
ENDBRANCH   4   7
ENDBRANCH   2   3
ENDBRANCH   1   2
BRANCH   1  31
ATOM     31  C   UNL A   1      34.239  29.530  27.333  1.00  0.00     0.023 C 
BRANCH  31  32
ATOM     32  C   UNL A   1      35.500  29.367  28.180  1.00  0.00     0.116 C 
BRANCH  32  33
ATOM     33  N   UNL A   1      35.533  30.234  29.345  1.00  0.00    -0.352 N 
ATOM     34  C   UNL A   1      36.622  30.606  30.097  1.00  0.00     0.251 C 
ATOM     35  H   UNL A   1      34.667  30.603  29.632  1.00  0.00     0.163 HD
ATOM     36  O   UNL A   1      36.464  31.268  31.119  1.00  0.00    -0.269 OA
BRANCH  34  37
ATOM     37  C   UNL A   1      37.972  30.160  29.695  1.00  0.00     0.039 A 
ATOM     38  C   UNL A   1      38.290  30.134  28.334  1.00  0.00     0.014 A 
ATOM     39  C   UNL A   1      38.921  29.780  30.648  1.00  0.00     0.014 A 
ATOM     40  C   UNL A   1      39.578  29.776  27.933  1.00  0.00     0.010 A 
ATOM     41  C   UNL A   1      40.222  29.489  30.251  1.00  0.00     0.010 A 
ATOM     42  C   UNL A   1      40.560  29.474  28.890  1.00  0.00    -0.014 A 
BRANCH  42  43
ATOM     43  C   UNL A   1      41.939  29.110  28.480  1.00  0.00     0.031 A 
ATOM     44  C   UNL A   1      42.251  27.695  28.077  1.00  0.00     0.074 A 
ATOM     45  C   UNL A   1      42.914  30.039  28.518  1.00  0.00     0.049 A 
ATOM     46  N   UNL A   1      43.396  27.169  27.725  1.00  0.00    -0.248 NA
ATOM     47  C   UNL A   1      41.133  26.737  28.099  1.00  0.00     0.031 C 
ATOM     48  C   UNL A   1      42.743  31.430  28.943  1.00  0.00     0.029 A 
ATOM     49  N   UNL A   1      44.244  29.951  28.197  1.00  0.00    -0.354 N 
ATOM     50  C   UNL A   1      43.140  25.822  27.500  1.00  0.00     0.074 A 
ATOM     51  C   UNL A   1      41.745  25.599  27.810  1.00  0.00     0.031 C 
ATOM     52  C   UNL A   1      43.917  32.072  28.828  1.00  0.00     0.029 A 
ATOM     53  C   UNL A   1      44.927  31.135  28.346  1.00  0.00     0.049 A 
ATOM     54  H   UNL A   1      44.671  29.119  27.888  1.00  0.00     0.167 HD
ATOM     55  C   UNL A   1      43.984  24.862  27.050  1.00  0.00     0.037 A 
ATOM     56  C   UNL A   1      46.220  31.431  28.110  1.00  0.00     0.037 A 
ATOM     57  C   UNL A   1      45.362  25.098  26.713  1.00  0.00     0.049 A 
ATOM     58  C   UNL A   1      47.131  30.358  27.579  1.00  0.00     0.074 A 
ATOM     59  C   UNL A   1      46.292  24.207  26.205  1.00  0.00     0.029 A 
ATOM     60  N   UNL A   1      46.007  26.320  26.840  1.00  0.00    -0.354 N 
ATOM     61  N   UNL A   1      46.858  29.100  27.322  1.00  0.00    -0.248 NA
ATOM     62  C   UNL A   1      48.517  30.747  27.291  1.00  0.00     0.031 C 
ATOM     63  C   UNL A   1      47.506  24.886  26.049  1.00  0.00     0.029 A 
ATOM     64  C   UNL A   1      47.323  26.207  26.425  1.00  0.00     0.049 A 
ATOM     65  H   UNL A   1      45.590  27.147  27.177  1.00  0.00     0.167 HD
ATOM     66  C   UNL A   1      48.033  28.555  26.815  1.00  0.00     0.074 A 
ATOM     67  C   UNL A   1      49.013  29.622  26.793  1.00  0.00     0.031 C 
ATOM     68  C   UNL A   1      48.277  27.287  26.399  1.00  0.00     0.037 A 
BRANCH  55  69
ATOM     69  C   UNL A   1      43.426  23.475  26.889  1.00  0.00     0.058 A 
ATOM     70  C   UNL A   1      43.317  22.596  27.979  1.00  0.00     0.135 A 
ATOM     71  C   UNL A   1      42.994  23.016  25.634  1.00  0.00     0.135 A 
ATOM     72  F   UNL A   1      43.732  22.977  29.199  1.00  0.00    -0.206 F 
ATOM     73  C   UNL A   1      42.840  21.299  27.826  1.00  0.00     0.059 A 
ATOM     74  C   UNL A   1      42.487  21.732  25.462  1.00  0.00     0.059 A 
ATOM     75  F   UNL A   1      43.074  23.814  24.559  1.00  0.00    -0.206 F 
ATOM     76  C   UNL A   1      42.433  20.873  26.561  1.00  0.00     0.060 A 
BRANCH  76  77
ATOM     77  S   UNL A   1      41.834  19.181  26.370  1.00  0.00     0.124 S 
ATOM     78  O   UNL A   1      41.952  18.677  27.735  1.00  0.00    -0.237 OA
ATOM     79  O   UNL A   1      40.473  19.381  25.883  1.00  0.00    -0.237 OA
ATOM     80  O   UNL A   1      42.762  18.601  25.404  1.00  0.00    -0.744 OA
ENDBRANCH  76  77
ENDBRANCH  55  69
BRANCH  56  81
ATOM     81  C   UNL A   1      46.716  32.816  28.322  1.00  0.00     0.058 A 
ATOM     82  C   UNL A   1      46.642  33.769  27.295  1.00  0.00     0.135 A 
ATOM     83  C   UNL A   1      47.254  33.220  29.554  1.00  0.00     0.135 A 
ATOM     84  F   UNL A   1      46.137  33.428  26.100  1.00  0.00    -0.206 F 
ATOM     85  C   UNL A   1      47.102  35.069  27.473  1.00  0.00     0.059 A 
ATOM     86  C   UNL A   1      47.701  34.521  29.763  1.00  0.00     0.059 A 
ATOM     87  F   UNL A   1      47.327  32.351  30.573  1.00  0.00    -0.206 F 
ATOM     88  C   UNL A   1      47.630  35.436  28.712  1.00  0.00     0.060 A 
BRANCH  88  89
ATOM     89  S   UNL A   1      48.178  37.140  28.949  1.00  0.00     0.124 S 
ATOM     90  O   UNL A   1      46.913  37.864  28.911  1.00  0.00    -0.237 OA
ATOM     91  O   UNL A   1      48.837  37.075  30.250  1.00  0.00    -0.237 OA
ATOM     92  O   UNL A   1      49.070  37.364  27.816  1.00  0.00    -0.744 OA
ENDBRANCH  88  89
ENDBRANCH  56  81
BRANCH  68  93
ATOM     93  C   UNL A   1      49.643  26.998  25.847  1.00  0.00     0.058 A 
ATOM     94  C   UNL A   1      49.963  27.243  24.503  1.00  0.00     0.135 A 
ATOM     95  C   UNL A   1      50.655  26.503  26.684  1.00  0.00     0.135 A 
ATOM     96  F   UNL A   1      49.028  27.711  23.661  1.00  0.00    -0.206 F 
ATOM     97  C   UNL A   1      51.234  26.984  24.001  1.00  0.00     0.059 A 
ATOM     98  C   UNL A   1      51.939  26.258  26.210  1.00  0.00     0.059 A 
ATOM     99  F   UNL A   1      50.402  26.261  27.981  1.00  0.00    -0.206 F 
ATOM    100  C   UNL A   1      52.215  26.488  24.863  1.00  0.00     0.060 A 
BRANCH 100 101
ATOM    101  S   UNL A   1      53.868  26.175  24.208  1.00  0.00     0.124 S 
ATOM    102  O   UNL A   1      54.588  27.364  24.653  1.00  0.00    -0.237 OA
ATOM    103  O   UNL A   1      54.237  24.927  24.868  1.00  0.00    -0.237 OA
ATOM    104  O   UNL A   1      53.648  26.074  22.769  1.00  0.00    -0.744 OA
ENDBRANCH 100 101
ENDBRANCH  68  93
ENDBRANCH  42  43
ENDBRANCH  34  37
ENDBRANCH  32  33
ENDBRANCH  31  32
ENDBRANCH   1  31
TORSDOF 19
ENDMDL
MODEL 3
REMARK VINA RESULT:     -11.4      5.909      7.944
REMARK SMILES CC(C)(C)OC(=O)N1CCN(C(=O)c2ccc3c(c2)OCO3)[C@H](C(=O)NCCCCNC(=O)c2ccc(-c3c4nc(c(-c5c(F)cc(S(=O)(=O)[O-])cc5F)c5ccc([nH]5)c(-c5c(F)cc(S(=O)(=O)[O-])cc5F)c5nc(c(-c6c(F)cc(S(=O)(=O)[O-])cc6F)c6ccc3[nH]6)C=C5)C=C4)cc2)C1
REMARK SMILES IDX 28 1 27 2 26 3 24 4 25 5 23 7 8 8 9 9 100 10 10 11 11 12
REMARK SMILES IDX 6 13 7 14 5 15 2 16 1 17 3 18 4 19 12 20 13 21 14 22 15 23
REMARK SMILES IDX 19 24 16 25 18 26 17 27 20 28 22 29 21 30 29 31 30 32 31 33
REMARK SMILES IDX 32 34 33 36 34 37 35 38 99 39 36 40 98 41 37 42 38 43 39 44
REMARK SMILES IDX 92 45 40 46 97 47 91 48 93 49 41 50 96 51 90 52 89 53 42 55
REMARK SMILES IDX 76 56 55 57 75 58 56 59 59 60 74 61 94 62 57 63 58 64 73 66
REMARK SMILES IDX 95 67 60 68 43 69 44 70 53 71 45 72 46 73 52 74 54 75 47 76
REMARK SMILES IDX 48 77 49 78 50 79 51 80 77 81 78 82 87 83 79 84 80 85 86 86
REMARK SMILES IDX 88 87 81 88 82 89 83 90 84 91 85 92 61 93 62 94 71 95 63 96
REMARK SMILES IDX 64 97 70 98 72 99 65 100 66 101 67 102 68 103 69 104
REMARK H PARENT 26 6 31 35 93 54 59 65
REMARK Flexibility Score: inf
ROOT
ATOM      1  C   UNL A   1      33.062  30.448  26.863  1.00  0.00     0.023 C 
ENDROOT
BRANCH   1   2
ATOM      2  C   UNL A   1      32.261  29.647  25.839  1.00  0.00     0.116 C 
BRANCH   2   3
ATOM      3  N   UNL A   1      31.403  28.640  26.439  1.00  0.00    -0.354 N 
ATOM      4  C   UNL A   1      31.035  27.378  26.090  1.00  0.00     0.244 C 
ATOM      5  O   UNL A   1      30.492  26.725  26.992  1.00  0.00    -0.273 OA
ATOM      6  H   UNL A   1      30.999  28.937  27.286  1.00  0.00     0.163 HD
BRANCH   4   7
ATOM      7  C   UNL A   1      31.147  26.741  24.674  1.00  0.00     0.194 C 
ATOM      8  N   UNL A   1      32.811  25.699  23.071  1.00  0.00    -0.304 N 
ATOM      9  C   UNL A   1      32.117  26.266  21.927  1.00  0.00     0.144 C 
ATOM     10  C   UNL A   1      32.607  26.402  24.333  1.00  0.00     0.158 C 
ATOM     11  C   UNL A   1      30.657  26.587  22.239  1.00  0.00     0.142 C 
ATOM     12  N   UNL A   1      30.445  27.341  23.490  1.00  0.00    -0.323 N 
BRANCH   8  13
ATOM     13  C   UNL A   1      33.914  24.889  22.867  1.00  0.00     0.410 C 
ATOM     14  O   UNL A   1      34.085  24.223  21.852  1.00  0.00    -0.224 OA
BRANCH  13  15
ATOM     15  O   UNL A   1      34.776  24.942  23.911  1.00  0.00    -0.444 OA
BRANCH  15  16
ATOM     16  C   UNL A   1      35.274  23.753  24.578  1.00  0.00     0.106 C 
ATOM     17  C   UNL A   1      36.088  23.019  23.502  1.00  0.00     0.056 C 
ATOM     18  C   UNL A   1      34.092  22.875  24.999  1.00  0.00     0.056 C 
ATOM     19  C   UNL A   1      36.201  24.062  25.759  1.00  0.00     0.056 C 
ENDBRANCH  15  16
ENDBRANCH  13  15
ENDBRANCH   8  13
BRANCH  12  20
ATOM     20  C   UNL A   1      29.176  27.944  23.549  1.00  0.00     0.254 C 
ATOM     21  O   UNL A   1      28.159  27.331  23.875  1.00  0.00    -0.269 OA
BRANCH  20  22
ATOM     22  C   UNL A   1      28.983  29.339  23.114  1.00  0.00     0.044 A 
ATOM     23  C   UNL A   1      29.468  30.404  23.898  1.00  0.00     0.018 A 
ATOM     24  C   UNL A   1      28.392  29.574  21.864  1.00  0.00     0.064 A 
ATOM     25  C   UNL A   1      29.290  31.724  23.475  1.00  0.00     0.051 A 
ATOM     26  C   UNL A   1      28.229  30.886  21.481  1.00  0.00     0.166 A 
ATOM     27  C   UNL A   1      28.653  31.931  22.268  1.00  0.00     0.165 A 
ATOM     28  O   UNL A   1      27.653  31.311  20.323  1.00  0.00    -0.454 OA
ATOM     29  O   UNL A   1      28.384  33.142  21.713  1.00  0.00    -0.454 OA
ATOM     30  C   UNL A   1      27.717  32.742  20.498  1.00  0.00     0.468 C 
ENDBRANCH  20  22
ENDBRANCH  12  20
ENDBRANCH   4   7
ENDBRANCH   2   3
ENDBRANCH   1   2
BRANCH   1  31
ATOM     31  C   UNL A   1      32.429  31.789  27.255  1.00  0.00     0.023 C 
BRANCH  31  32
ATOM     32  C   UNL A   1      33.370  32.992  27.218  1.00  0.00     0.116 C 
BRANCH  32  33
ATOM     33  N   UNL A   1      32.903  34.121  28.004  1.00  0.00    -0.352 N 
ATOM     34  C   UNL A   1      33.374  34.567  29.215  1.00  0.00     0.251 C 
ATOM     35  H   UNL A   1      32.154  34.632  27.619  1.00  0.00     0.163 HD
ATOM     36  O   UNL A   1      32.798  35.480  29.798  1.00  0.00    -0.269 OA
BRANCH  34  37
ATOM     37  C   UNL A   1      34.544  33.905  29.830  1.00  0.00     0.039 A 
ATOM     38  C   UNL A   1      35.821  34.373  29.511  1.00  0.00     0.014 A 
ATOM     39  C   UNL A   1      34.384  32.841  30.721  1.00  0.00     0.014 A 
ATOM     40  C   UNL A   1      36.938  33.805  30.127  1.00  0.00     0.010 A 
ATOM     41  C   UNL A   1      35.492  32.321  31.384  1.00  0.00     0.010 A 
ATOM     42  C   UNL A   1      36.779  32.791  31.086  1.00  0.00    -0.014 A 
BRANCH  42  43
ATOM     43  C   UNL A   1      37.955  32.190  31.762  1.00  0.00     0.031 A 
ATOM     44  C   UNL A   1      38.400  32.715  33.099  1.00  0.00     0.074 A 
ATOM     45  C   UNL A   1      38.646  31.208  31.151  1.00  0.00     0.049 A 
ATOM     46  N   UNL A   1      39.421  32.353  33.832  1.00  0.00    -0.248 NA
ATOM     47  C   UNL A   1      37.608  33.814  33.677  1.00  0.00     0.031 C 
ATOM     48  C   UNL A   1      38.342  30.652  29.831  1.00  0.00     0.029 A 
ATOM     49  N   UNL A   1      39.750  30.504  31.561  1.00  0.00    -0.354 N 
ATOM     50  C   UNL A   1      39.404  33.185  34.944  1.00  0.00     0.074 A 
ATOM     51  C   UNL A   1      38.305  34.109  34.763  1.00  0.00     0.031 C 
ATOM     52  C   UNL A   1      39.219  29.675  29.552  1.00  0.00     0.029 A 
ATOM     53  C   UNL A   1      40.161  29.551  30.660  1.00  0.00     0.049 A 
ATOM     54  H   UNL A   1      40.205  30.666  32.418  1.00  0.00     0.167 HD
ATOM     55  C   UNL A   1      40.212  33.166  36.031  1.00  0.00     0.037 A 
ATOM     56  C   UNL A   1      41.178  28.669  30.727  1.00  0.00     0.037 A 
ATOM     57  C   UNL A   1      41.282  32.223  36.219  1.00  0.00     0.049 A 
ATOM     58  C   UNL A   1      42.042  28.643  31.958  1.00  0.00     0.074 A 
ATOM     59  C   UNL A   1      42.133  32.086  37.303  1.00  0.00     0.029 A 
ATOM     60  N   UNL A   1      41.643  31.246  35.302  1.00  0.00    -0.354 N 
ATOM     61  N   UNL A   1      41.979  29.405  33.025  1.00  0.00    -0.248 NA
ATOM     62  C   UNL A   1      43.104  27.630  32.002  1.00  0.00     0.031 C 
ATOM     63  C   UNL A   1      43.023  31.041  37.029  1.00  0.00     0.029 A 
ATOM     64  C   UNL A   1      42.705  30.505  35.791  1.00  0.00     0.049 A 
ATOM     65  H   UNL A   1      41.208  31.102  34.430  1.00  0.00     0.167 HD
ATOM     66  C   UNL A   1      42.974  28.942  33.880  1.00  0.00     0.074 A 
ATOM     67  C   UNL A   1      43.617  27.831  33.209  1.00  0.00     0.031 C 
ATOM     68  C   UNL A   1      43.321  29.394  35.112  1.00  0.00     0.037 A 
BRANCH  55  69
ATOM     69  C   UNL A   1      39.954  34.191  37.100  1.00  0.00     0.058 A 
ATOM     70  C   UNL A   1      39.171  33.894  38.229  1.00  0.00     0.135 A 
ATOM     71  C   UNL A   1      40.492  35.484  37.000  1.00  0.00     0.135 A 
ATOM     72  F   UNL A   1      38.618  32.678  38.366  1.00  0.00    -0.206 F 
ATOM     73  C   UNL A   1      38.897  34.852  39.198  1.00  0.00     0.059 A 
ATOM     74  C   UNL A   1      40.254  36.451  37.972  1.00  0.00     0.059 A 
ATOM     75  F   UNL A   1      41.247  35.822  35.944  1.00  0.00    -0.206 F 
ATOM     76  C   UNL A   1      39.437  36.131  39.058  1.00  0.00     0.060 A 
BRANCH  76  77
ATOM     77  S   UNL A   1      39.057  37.373  40.312  1.00  0.00     0.124 S 
ATOM     78  O   UNL A   1      38.447  36.553  41.354  1.00  0.00    -0.237 OA
ATOM     79  O   UNL A   1      40.374  37.918  40.624  1.00  0.00    -0.237 OA
ATOM     80  O   UNL A   1      38.152  38.286  39.621  1.00  0.00    -0.744 OA
ENDBRANCH  76  77
ENDBRANCH  55  69
BRANCH  56  81
ATOM     81  C   UNL A   1      41.399  27.704  29.619  1.00  0.00     0.058 A 
ATOM     82  C   UNL A   1      40.502  26.649  29.397  1.00  0.00     0.135 A 
ATOM     83  C   UNL A   1      42.496  27.825  28.752  1.00  0.00     0.135 A 
ATOM     84  F   UNL A   1      39.440  26.493  30.202  1.00  0.00    -0.206 F 
ATOM     85  C   UNL A   1      40.692  25.734  28.367  1.00  0.00     0.059 A 
ATOM     86  C   UNL A   1      42.696  26.935  27.701  1.00  0.00     0.059 A 
ATOM     87  F   UNL A   1      43.372  28.829  28.911  1.00  0.00    -0.206 F 
ATOM     88  C   UNL A   1      41.794  25.886  27.523  1.00  0.00     0.060 A 
BRANCH  88  89
ATOM     89  S   UNL A   1      42.005  24.723  26.158  1.00  0.00     0.124 S 
ATOM     90  O   UNL A   1      41.900  25.607  25.002  1.00  0.00    -0.237 OA
ATOM     91  O   UNL A   1      43.330  24.173  26.423  1.00  0.00    -0.237 OA
ATOM     92  O   UNL A   1      40.899  23.789  26.342  1.00  0.00    -0.744 OA
ENDBRANCH  88  89
ENDBRANCH  56  81
BRANCH  68  93
ATOM     93  C   UNL A   1      44.416  28.658  35.827  1.00  0.00     0.058 A 
ATOM     94  C   UNL A   1      44.144  27.580  36.684  1.00  0.00     0.135 A 
ATOM     95  C   UNL A   1      45.759  29.013  35.623  1.00  0.00     0.135 A 
ATOM     96  F   UNL A   1      42.875  27.206  36.917  1.00  0.00    -0.206 F 
ATOM     97  C   UNL A   1      45.165  26.896  37.335  1.00  0.00     0.059 A 
ATOM     98  C   UNL A   1      46.797  28.328  36.245  1.00  0.00     0.059 A 
ATOM     99  F   UNL A   1      46.072  30.030  34.803  1.00  0.00    -0.206 F 
ATOM    100  C   UNL A   1      46.489  27.280  37.111  1.00  0.00     0.060 A 
BRANCH 100 101
ATOM    101  S   UNL A   1      47.809  26.371  37.942  1.00  0.00     0.124 S 
ATOM    102  O   UNL A   1      47.665  26.840  39.317  1.00  0.00    -0.237 OA
ATOM    103  O   UNL A   1      47.434  24.981  37.704  1.00  0.00    -0.237 OA
ATOM    104  O   UNL A   1      49.014  26.816  37.249  1.00  0.00    -0.744 OA
ENDBRANCH 100 101
ENDBRANCH  68  93
ENDBRANCH  42  43
ENDBRANCH  34  37
ENDBRANCH  32  33
ENDBRANCH  31  32
ENDBRANCH   1  31
TORSDOF 19
ENDMDL
