MODEL 1
REMARK VINA RESULT:     -10.2      0.000      0.000
REMARK SMILES CC[NH+](CC)CC[N@H+]1CC[C@@H](C(=O)NCCCCNC(=O)c2ccc(-c3c4nc(c(-c5c(F)cc(S(=O)(=O)[O-])cc5F)c5ccc([nH]5)c(-c5c(F)cc(S(=O)(=O)[O-])cc5F)c5nc(c(-c6c(F)cc(S(=O)(=O)[O-])cc6F)c6ccc3[nH]6)C=C5)C=C4)cc2)[C@@H]1C
REMARK SMILES IDX 16 1 15 2 14 3 12 4 13 5 11 7 8 8 9 9 88 10 10 12 89 13 7 14
REMARK SMILES IDX 6 15 3 16 2 18 1 19 4 20 5 21 17 22 18 23 19 24 20 25 21 27
REMARK SMILES IDX 22 28 23 29 87 30 24 31 86 32 25 33 26 34 27 35 80 36 28 37
REMARK SMILES IDX 85 38 79 39 81 40 29 41 84 42 78 43 77 44 30 46 64 47 43 48
REMARK SMILES IDX 63 49 44 50 47 51 62 52 82 53 45 54 46 55 61 57 83 58 48 59
REMARK SMILES IDX 31 60 32 61 41 62 33 63 34 64 40 65 42 66 35 67 36 68 37 69
REMARK SMILES IDX 38 70 39 71 65 72 66 73 75 74 67 75 68 76 74 77 76 78 69 79
REMARK SMILES IDX 70 80 71 81 72 82 73 83 49 84 50 85 59 86 51 87 52 88 58 89
REMARK SMILES IDX 60 90 53 91 54 92 55 93 56 94 57 95
REMARK H PARENT 14 6 8 11 3 17 19 26 81 45 47 56
REMARK Flexibility Score: inf
ROOT
ATOM      1  C   UNL A   1      31.659  29.595  25.515  1.00  0.00     0.023 C 
ENDROOT
BRANCH   1   2
ATOM      2  C   UNL A   1      31.156  28.856  24.278  1.00  0.00     0.116 C 
BRANCH   2   3
ATOM      3  N   UNL A   1      32.191  28.445  23.363  1.00  0.00    -0.356 N 
ATOM      4  C   UNL A   1      32.895  27.279  23.329  1.00  0.00     0.229 C 
ATOM      5  O   UNL A   1      33.614  27.088  22.342  1.00  0.00    -0.275 OA
ATOM      6  H   UNL A   1      32.423  29.099  22.665  1.00  0.00     0.163 HD
BRANCH   4   7
ATOM      7  C   UNL A   1      32.807  26.203  24.411  1.00  0.00     0.142 C 
ATOM      8  N   UNL A   1      32.709  23.793  24.595  1.00  0.00    -0.327 N 
ATOM      9  C   UNL A   1      33.710  24.311  25.507  1.00  0.00     0.263 C 
ATOM     10  C   UNL A   1      31.949  24.963  24.096  1.00  0.00     0.193 C 
ATOM     11  H   UNL A   1      32.076  23.170  25.097  1.00  0.00     0.348 HD
ATOM     12  C   UNL A   1      34.134  25.637  24.901  1.00  0.00     0.081 C 
ATOM     13  C   UNL A   1      30.621  25.037  24.863  1.00  0.00     0.076 C 
BRANCH   8  14
ATOM     14  C   UNL A   1      33.158  22.802  23.597  1.00  0.00     0.324 C 
BRANCH  14  15
ATOM     15  C   UNL A   1      33.065  21.232  23.736  1.00  0.00     0.324 C 
BRANCH  15  16
ATOM     16  N   UNL A   1      33.673  20.444  24.804  1.00  0.00    -0.331 N 
ATOM     17  H   UNL A   1      32.902  20.770  25.386  1.00  0.00     0.348 HD
BRANCH  16  18
ATOM     18  C   UNL A   1      33.373  19.034  24.992  1.00  0.00     0.258 C 
ATOM     19  C   UNL A   1      32.499  18.376  23.922  1.00  0.00     0.071 C 
ENDBRANCH  16  18
BRANCH  16  20
ATOM     20  C   UNL A   1      34.870  20.948  25.460  1.00  0.00     0.258 C 
ATOM     21  C   UNL A   1      36.190  20.374  24.979  1.00  0.00     0.071 C 
ENDBRANCH  16  20
ENDBRANCH  15  16
ENDBRANCH  14  15
ENDBRANCH   8  14
ENDBRANCH   4   7
ENDBRANCH   2   3
ENDBRANCH   1   2
BRANCH   1  22
ATOM     22  C   UNL A   1      32.051  28.691  26.678  1.00  0.00     0.023 C 
BRANCH  22  23
ATOM     23  C   UNL A   1      33.401  29.002  27.321  1.00  0.00     0.116 C 
BRANCH  23  24
ATOM     24  N   UNL A   1      33.491  30.335  27.907  1.00  0.00    -0.352 N 
ATOM     25  C   UNL A   1      34.564  30.938  28.531  1.00  0.00     0.251 C 
ATOM     26  H   UNL A   1      32.673  30.879  27.849  1.00  0.00     0.163 HD
ATOM     27  O   UNL A   1      34.445  32.046  29.037  1.00  0.00    -0.269 OA
BRANCH  25  28
ATOM     28  C   UNL A   1      35.845  30.202  28.631  1.00  0.00     0.039 A 
ATOM     29  C   UNL A   1      36.681  30.147  27.514  1.00  0.00     0.014 A 
ATOM     30  C   UNL A   1      36.259  29.659  29.850  1.00  0.00     0.014 A 
ATOM     31  C   UNL A   1      37.982  29.659  27.652  1.00  0.00     0.010 A 
ATOM     32  C   UNL A   1      37.580  29.251  30.004  1.00  0.00     0.010 A 
ATOM     33  C   UNL A   1      38.465  29.274  28.914  1.00  0.00    -0.014 A 
BRANCH  33  34
ATOM     34  C   UNL A   1      39.902  28.962  29.133  1.00  0.00     0.031 A 
ATOM     35  C   UNL A   1      40.847  30.024  29.623  1.00  0.00     0.074 A 
ATOM     36  C   UNL A   1      40.375  27.746  28.789  1.00  0.00     0.049 A 
ATOM     37  N   UNL A   1      42.145  29.970  29.768  1.00  0.00    -0.248 NA
ATOM     38  C   UNL A   1      40.259  31.329  29.967  1.00  0.00     0.031 C 
ATOM     39  C   UNL A   1      39.576  26.649  28.235  1.00  0.00     0.029 A 
ATOM     40  N   UNL A   1      41.649  27.231  28.834  1.00  0.00    -0.354 N 
ATOM     41  C   UNL A   1      42.533  31.233  30.198  1.00  0.00     0.074 A 
ATOM     42  C   UNL A   1      41.336  32.046  30.249  1.00  0.00     0.031 C 
ATOM     43  C   UNL A   1      40.371  25.590  28.010  1.00  0.00     0.029 A 
ATOM     44  C   UNL A   1      41.743  25.941  28.363  1.00  0.00     0.049 A 
ATOM     45  H   UNL A   1      42.422  27.738  29.172  1.00  0.00     0.167 HD
ATOM     46  C   UNL A   1      43.768  31.668  30.539  1.00  0.00     0.037 A 
ATOM     47  C   UNL A   1      42.813  25.135  28.219  1.00  0.00     0.037 A 
ATOM     48  C   UNL A   1      44.949  30.846  30.524  1.00  0.00     0.049 A 
ATOM     49  C   UNL A   1      44.171  25.638  28.623  1.00  0.00     0.074 A 
ATOM     50  C   UNL A   1      46.231  31.173  30.934  1.00  0.00     0.029 A 
ATOM     51  N   UNL A   1      44.998  29.534  30.074  1.00  0.00    -0.354 N 
ATOM     52  N   UNL A   1      44.504  26.812  29.101  1.00  0.00    -0.248 NA
ATOM     53  C   UNL A   1      45.299  24.708  28.468  1.00  0.00     0.031 C 
ATOM     54  C   UNL A   1      47.060  30.072  30.698  1.00  0.00     0.029 A 
ATOM     55  C   UNL A   1      46.290  29.045  30.177  1.00  0.00     0.049 A 
ATOM     56  H   UNL A   1      44.226  29.026  29.732  1.00  0.00     0.167 HD
ATOM     57  C   UNL A   1      45.876  26.756  29.320  1.00  0.00     0.074 A 
ATOM     58  C   UNL A   1      46.308  25.428  28.939  1.00  0.00     0.031 C 
ATOM     59  C   UNL A   1      46.704  27.721  29.793  1.00  0.00     0.037 A 
BRANCH  46  60
ATOM     60  C   UNL A   1      43.908  33.099  30.975  1.00  0.00     0.058 A 
ATOM     61  C   UNL A   1      43.989  34.146  30.043  1.00  0.00     0.135 A 
ATOM     62  C   UNL A   1      43.912  33.434  32.339  1.00  0.00     0.135 A 
ATOM     63  F   UNL A   1      44.005  33.879  28.728  1.00  0.00    -0.206 F 
ATOM     64  C   UNL A   1      44.091  35.473  30.447  1.00  0.00     0.059 A 
ATOM     65  C   UNL A   1      43.987  34.757  32.765  1.00  0.00     0.059 A 
ATOM     66  F   UNL A   1      43.838  32.471  33.272  1.00  0.00    -0.206 F 
ATOM     67  C   UNL A   1      44.089  35.769  31.811  1.00  0.00     0.060 A 
BRANCH  67  68
ATOM     68  S   UNL A   1      44.204  37.496  32.319  1.00  0.00     0.124 S 
ATOM     69  O   UNL A   1      43.231  37.545  33.407  1.00  0.00    -0.237 OA
ATOM     70  O   UNL A   1      45.604  37.613  32.716  1.00  0.00    -0.237 OA
ATOM     71  O   UNL A   1      43.835  38.231  31.114  1.00  0.00    -0.744 OA
ENDBRANCH  67  68
ENDBRANCH  46  60
BRANCH  47  72
ATOM     72  C   UNL A   1      42.643  23.762  27.673  1.00  0.00     0.058 A 
ATOM     73  C   UNL A   1      42.492  22.661  28.528  1.00  0.00     0.135 A 
ATOM     74  C   UNL A   1      42.625  23.524  26.290  1.00  0.00     0.135 A 
ATOM     75  F   UNL A   1      42.509  22.839  29.858  1.00  0.00    -0.206 F 
ATOM     76  C   UNL A   1      42.347  21.369  28.035  1.00  0.00     0.059 A 
ATOM     77  C   UNL A   1      42.459  22.243  25.772  1.00  0.00     0.059 A 
ATOM     78  F   UNL A   1      42.749  24.546  25.430  1.00  0.00    -0.206 F 
ATOM     79  C   UNL A   1      42.333  21.170  26.654  1.00  0.00     0.060 A 
BRANCH  79  80
ATOM     80  S   UNL A   1      42.101  19.494  26.020  1.00  0.00     0.124 S 
ATOM     81  O   UNL A   1      40.672  19.484  25.734  1.00  0.00    -0.237 OA
ATOM     82  O   UNL A   1      42.986  19.479  24.858  1.00  0.00    -0.237 OA
ATOM     83  O   UNL A   1      42.531  18.655  27.134  1.00  0.00    -0.744 OA
ENDBRANCH  79  80
ENDBRANCH  47  72
BRANCH  59  84
ATOM     84  C   UNL A   1      48.158  27.371  29.939  1.00  0.00     0.058 A 
ATOM     85  C   UNL A   1      49.093  27.697  28.945  1.00  0.00     0.135 A 
ATOM     86  C   UNL A   1      48.628  26.752  31.109  1.00  0.00     0.135 A 
ATOM     87  F   UNL A   1      48.691  28.281  27.805  1.00  0.00    -0.206 F 
ATOM     88  C   UNL A   1      50.445  27.406  29.098  1.00  0.00     0.059 A 
ATOM     89  C   UNL A   1      49.979  26.475  31.293  1.00  0.00     0.059 A 
ATOM     90  F   UNL A   1      47.775  26.429  32.093  1.00  0.00    -0.206 F 
ATOM     91  C   UNL A   1      50.878  26.796  30.276  1.00  0.00     0.060 A 
BRANCH  91  92
ATOM     92  S   UNL A   1      52.640  26.461  30.481  1.00  0.00     0.124 S 
ATOM     93  O   UNL A   1      52.619  25.355  31.434  1.00  0.00    -0.237 OA
ATOM     94  O   UNL A   1      53.055  26.120  29.123  1.00  0.00    -0.237 OA
ATOM     95  O   UNL A   1      53.169  27.722  30.992  1.00  0.00    -0.744 OA
ENDBRANCH  91  92
ENDBRANCH  59  84
ENDBRANCH  33  34
ENDBRANCH  25  28
ENDBRANCH  23  24
ENDBRANCH  22  23
ENDBRANCH   1  22
TORSDOF 19
ENDMDL
MODEL 2
REMARK VINA RESULT:     -10.0      2.578      3.634
REMARK SMILES CC[NH+](CC)CC[N@H+]1CC[C@@H](C(=O)NCCCCNC(=O)c2ccc(-c3c4nc(c(-c5c(F)cc(S(=O)(=O)[O-])cc5F)c5ccc([nH]5)c(-c5c(F)cc(S(=O)(=O)[O-])cc5F)c5nc(c(-c6c(F)cc(S(=O)(=O)[O-])cc6F)c6ccc3[nH]6)C=C5)C=C4)cc2)[C@@H]1C
REMARK SMILES IDX 16 1 15 2 14 3 12 4 13 5 11 7 8 8 9 9 88 10 10 12 89 13 7 14
REMARK SMILES IDX 6 15 3 16 2 18 1 19 4 20 5 21 17 22 18 23 19 24 20 25 21 27
REMARK SMILES IDX 22 28 23 29 87 30 24 31 86 32 25 33 26 34 27 35 80 36 28 37
REMARK SMILES IDX 85 38 79 39 81 40 29 41 84 42 78 43 77 44 30 46 64 47 43 48
REMARK SMILES IDX 63 49 44 50 47 51 62 52 82 53 45 54 46 55 61 57 83 58 48 59
REMARK SMILES IDX 31 60 32 61 41 62 33 63 34 64 40 65 42 66 35 67 36 68 37 69
REMARK SMILES IDX 38 70 39 71 65 72 66 73 75 74 67 75 68 76 74 77 76 78 69 79
REMARK SMILES IDX 70 80 71 81 72 82 73 83 49 84 50 85 59 86 51 87 52 88 58 89
REMARK SMILES IDX 60 90 53 91 54 92 55 93 56 94 57 95
REMARK H PARENT 14 6 8 11 3 17 19 26 81 45 47 56
REMARK Flexibility Score: inf
ROOT
ATOM      1  C   UNL A   1      34.159  30.272  27.435  1.00  0.00     0.023 C 
ENDROOT
BRANCH   1   2
ATOM      2  C   UNL A   1      33.083  30.109  26.365  1.00  0.00     0.116 C 
BRANCH   2   3
ATOM      3  N   UNL A   1      33.540  29.497  25.143  1.00  0.00    -0.356 N 
ATOM      4  C   UNL A   1      32.891  28.625  24.323  1.00  0.00     0.229 C 
ATOM      5  O   UNL A   1      33.427  28.370  23.238  1.00  0.00    -0.275 OA
ATOM      6  H   UNL A   1      34.451  29.743  24.862  1.00  0.00     0.163 HD
BRANCH   4   7
ATOM      7  C   UNL A   1      31.540  27.992  24.657  1.00  0.00     0.142 C 
ATOM      8  N   UNL A   1      30.201  26.083  24.013  1.00  0.00    -0.327 N 
ATOM      9  C   UNL A   1      30.267  26.166  25.459  1.00  0.00     0.263 C 
ATOM     10  C   UNL A   1      30.760  27.353  23.492  1.00  0.00     0.193 C 
ATOM     11  H   UNL A   1      29.229  25.997  23.717  1.00  0.00     0.348 HD
ATOM     12  C   UNL A   1      31.552  26.923  25.743  1.00  0.00     0.081 C 
ATOM     13  C   UNL A   1      29.591  28.261  23.084  1.00  0.00     0.076 C 
BRANCH   8  14
ATOM     14  C   UNL A   1      30.673  24.831  23.390  1.00  0.00     0.324 C 
BRANCH  14  15
ATOM     15  C   UNL A   1      32.156  24.509  22.955  1.00  0.00     0.324 C 
BRANCH  15  16
ATOM     16  N   UNL A   1      33.145  23.822  23.780  1.00  0.00    -0.331 N 
ATOM     17  H   UNL A   1      33.770  23.912  22.979  1.00  0.00     0.348 HD
BRANCH  16  18
ATOM     18  C   UNL A   1      34.023  24.537  24.692  1.00  0.00     0.258 C 
ATOM     19  C   UNL A   1      35.473  24.050  24.764  1.00  0.00     0.071 C 
ENDBRANCH  16  18
BRANCH  16  20
ATOM     20  C   UNL A   1      33.018  22.387  23.988  1.00  0.00     0.258 C 
ATOM     21  C   UNL A   1      32.161  21.955  25.165  1.00  0.00     0.071 C 
ENDBRANCH  16  20
ENDBRANCH  15  16
ENDBRANCH  14  15
ENDBRANCH   8  14
ENDBRANCH   4   7
ENDBRANCH   2   3
ENDBRANCH   1   2
BRANCH   1  22
ATOM     22  C   UNL A   1      34.589  31.712  27.688  1.00  0.00     0.023 C 
BRANCH  22  23
ATOM     23  C   UNL A   1      35.696  31.890  28.726  1.00  0.00     0.116 C 
BRANCH  23  24
ATOM     24  N   UNL A   1      35.540  31.060  29.914  1.00  0.00    -0.352 N 
ATOM     25  C   UNL A   1      36.482  30.288  30.563  1.00  0.00     0.251 C 
ATOM     26  H   UNL A   1      34.638  31.050  30.308  1.00  0.00     0.163 HD
ATOM     27  O   UNL A   1      36.162  29.588  31.514  1.00  0.00    -0.269 OA
BRANCH  25  28
ATOM     28  C   UNL A   1      37.874  30.273  30.057  1.00  0.00     0.039 A 
ATOM     29  C   UNL A   1      38.915  30.573  30.937  1.00  0.00     0.014 A 
ATOM     30  C   UNL A   1      38.149  29.867  28.748  1.00  0.00     0.014 A 
ATOM     31  C   UNL A   1      40.235  30.346  30.543  1.00  0.00     0.010 A 
ATOM     32  C   UNL A   1      39.459  29.564  28.388  1.00  0.00     0.010 A 
ATOM     33  C   UNL A   1      40.513  29.772  29.291  1.00  0.00    -0.014 A 
BRANCH  33  34
ATOM     34  C   UNL A   1      41.882  29.315  28.933  1.00  0.00     0.031 A 
ATOM     35  C   UNL A   1      43.019  30.297  28.860  1.00  0.00     0.074 A 
ATOM     36  C   UNL A   1      42.078  28.029  28.572  1.00  0.00     0.049 A 
ATOM     37  N   UNL A   1      44.249  30.105  28.461  1.00  0.00    -0.248 NA
ATOM     38  C   UNL A   1      42.726  31.684  29.257  1.00  0.00     0.031 C 
ATOM     39  C   UNL A   1      41.043  26.992  28.533  1.00  0.00     0.029 A 
ATOM     40  N   UNL A   1      43.211  27.377  28.149  1.00  0.00    -0.354 N 
ATOM     41  C   UNL A   1      44.872  31.345  28.539  1.00  0.00     0.074 A 
ATOM     42  C   UNL A   1      43.870  32.291  28.982  1.00  0.00     0.031 C 
ATOM     43  C   UNL A   1      41.590  25.835  28.127  1.00  0.00     0.029 A 
ATOM     44  C   UNL A   1      43.004  26.052  27.839  1.00  0.00     0.049 A 
ATOM     45  H   UNL A   1      44.089  27.816  28.075  1.00  0.00     0.167 HD
ATOM     46  C   UNL A   1      46.163  31.660  28.286  1.00  0.00     0.037 A 
ATOM     47  C   UNL A   1      43.852  25.119  27.363  1.00  0.00     0.037 A 
ATOM     48  C   UNL A   1      47.165  30.709  27.883  1.00  0.00     0.049 A 
ATOM     49  C   UNL A   1      45.286  25.492  27.108  1.00  0.00     0.074 A 
ATOM     50  C   UNL A   1      48.520  30.918  27.686  1.00  0.00     0.029 A 
ATOM     51  N   UNL A   1      46.925  29.369  27.613  1.00  0.00    -0.354 N 
ATOM     52  N   UNL A   1      45.874  26.654  27.263  1.00  0.00    -0.248 NA
ATOM     53  C   UNL A   1      46.174  24.430  26.614  1.00  0.00     0.031 C 
ATOM     54  C   UNL A   1      49.091  29.713  27.261  1.00  0.00     0.029 A 
ATOM     55  C   UNL A   1      48.101  28.745  27.231  1.00  0.00     0.049 A 
ATOM     56  H   UNL A   1      46.048  28.928  27.683  1.00  0.00     0.167 HD
ATOM     57  C   UNL A   1      47.202  26.458  26.901  1.00  0.00     0.074 A 
ATOM     58  C   UNL A   1      47.336  25.063  26.537  1.00  0.00     0.031 C 
ATOM     59  C   UNL A   1      48.218  27.355  26.872  1.00  0.00     0.037 A 
BRANCH  46  60
ATOM     60  C   UNL A   1      46.576  33.095  28.451  1.00  0.00     0.058 A 
ATOM     61  C   UNL A   1      47.057  33.584  29.676  1.00  0.00     0.135 A 
ATOM     62  C   UNL A   1      46.539  33.980  27.361  1.00  0.00     0.135 A 
ATOM     63  F   UNL A   1      47.099  32.783  30.753  1.00  0.00    -0.206 F 
ATOM     64  C   UNL A   1      47.465  34.905  29.822  1.00  0.00     0.059 A 
ATOM     65  C   UNL A   1      46.966  35.300  27.478  1.00  0.00     0.059 A 
ATOM     66  F   UNL A   1      46.087  33.565  26.168  1.00  0.00    -0.206 F 
ATOM     67  C   UNL A   1      47.417  35.756  28.717  1.00  0.00     0.060 A 
BRANCH  67  68
ATOM     68  S   UNL A   1      47.966  37.464  28.918  1.00  0.00     0.124 S 
ATOM     69  O   UNL A   1      48.878  37.343  30.052  1.00  0.00    -0.237 OA
ATOM     70  O   UNL A   1      48.592  37.745  27.630  1.00  0.00    -0.237 OA
ATOM     71  O   UNL A   1      46.729  38.191  29.182  1.00  0.00    -0.744 OA
ENDBRANCH  67  68
ENDBRANCH  46  60
BRANCH  47  72
ATOM     72  C   UNL A   1      43.371  23.736  27.104  1.00  0.00     0.058 A 
ATOM     73  C   UNL A   1      43.177  22.832  28.157  1.00  0.00     0.135 A 
ATOM     74  C   UNL A   1      43.091  23.293  25.802  1.00  0.00     0.135 A 
ATOM     75  F   UNL A   1      43.436  23.209  29.419  1.00  0.00    -0.206 F 
ATOM     76  C   UNL A   1      42.741  21.531  27.932  1.00  0.00     0.059 A 
ATOM     77  C   UNL A   1      42.632  22.003  25.552  1.00  0.00     0.059 A 
ATOM     78  F   UNL A   1      43.244  24.126  24.760  1.00  0.00    -0.206 F 
ATOM     79  C   UNL A   1      42.472  21.126  26.623  1.00  0.00     0.060 A 
BRANCH  79  80
ATOM     80  S   UNL A   1      41.865  19.447  26.341  1.00  0.00     0.124 S 
ATOM     81  O   UNL A   1      40.432  19.675  26.196  1.00  0.00    -0.237 OA
ATOM     82  O   UNL A   1      42.578  19.062  25.127  1.00  0.00    -0.237 OA
ATOM     83  O   UNL A   1      42.275  18.738  27.549  1.00  0.00    -0.744 OA
ENDBRANCH  79  80
ENDBRANCH  47  72
BRANCH  59  84
ATOM     84  C   UNL A   1      49.569  26.853  26.445  1.00  0.00     0.058 A 
ATOM     85  C   UNL A   1      50.439  26.230  27.352  1.00  0.00     0.135 A 
ATOM     86  C   UNL A   1      49.974  26.949  25.104  1.00  0.00     0.135 A 
ATOM     87  F   UNL A   1      50.102  26.123  28.647  1.00  0.00    -0.206 F 
ATOM     88  C   UNL A   1      51.674  25.733  26.948  1.00  0.00     0.059 A 
ATOM     89  C   UNL A   1      51.193  26.436  24.673  1.00  0.00     0.059 A 
ATOM     90  F   UNL A   1      49.174  27.528  24.196  1.00  0.00    -0.206 F 
ATOM     91  C   UNL A   1      52.041  25.839  25.605  1.00  0.00     0.060 A 
BRANCH  91  92
ATOM     92  S   UNL A   1      53.628  25.154  25.084  1.00  0.00     0.124 S 
ATOM     93  O   UNL A   1      53.389  23.721  25.225  1.00  0.00    -0.237 OA
ATOM     94  O   UNL A   1      53.747  25.645  23.714  1.00  0.00    -0.237 OA
ATOM     95  O   UNL A   1      54.575  25.730  26.033  1.00  0.00    -0.744 OA
ENDBRANCH  91  92
ENDBRANCH  59  84
ENDBRANCH  33  34
ENDBRANCH  25  28
ENDBRANCH  23  24
ENDBRANCH  22  23
ENDBRANCH   1  22
TORSDOF 19
ENDMDL
MODEL 3
REMARK VINA RESULT:     -10.0      3.111      9.587
REMARK SMILES CC[NH+](CC)CC[N@H+]1CC[C@@H](C(=O)NCCCCNC(=O)c2ccc(-c3c4nc(c(-c5c(F)cc(S(=O)(=O)[O-])cc5F)c5ccc([nH]5)c(-c5c(F)cc(S(=O)(=O)[O-])cc5F)c5nc(c(-c6c(F)cc(S(=O)(=O)[O-])cc6F)c6ccc3[nH]6)C=C5)C=C4)cc2)[C@@H]1C
REMARK SMILES IDX 16 1 15 2 14 3 12 4 13 5 11 7 8 8 9 9 88 10 10 12 89 13 7 14
REMARK SMILES IDX 6 15 3 16 2 18 1 19 4 20 5 21 17 22 18 23 19 24 20 25 21 27
REMARK SMILES IDX 22 28 23 29 87 30 24 31 86 32 25 33 26 34 27 35 80 36 28 37
REMARK SMILES IDX 85 38 79 39 81 40 29 41 84 42 78 43 77 44 30 46 64 47 43 48
REMARK SMILES IDX 63 49 44 50 47 51 62 52 82 53 45 54 46 55 61 57 83 58 48 59
REMARK SMILES IDX 31 60 32 61 41 62 33 63 34 64 40 65 42 66 35 67 36 68 37 69
REMARK SMILES IDX 38 70 39 71 65 72 66 73 75 74 67 75 68 76 74 77 76 78 69 79
REMARK SMILES IDX 70 80 71 81 72 82 73 83 49 84 50 85 59 86 51 87 52 88 58 89
REMARK SMILES IDX 60 90 53 91 54 92 55 93 56 94 57 95
REMARK H PARENT 14 6 8 11 3 17 19 26 81 45 47 56
REMARK Flexibility Score: inf
ROOT
ATOM      1  C   UNL A   1      35.847  21.460  24.368  1.00  0.00     0.023 C 
ENDROOT
BRANCH   1   2
ATOM      2  C   UNL A   1      34.914  21.477  25.575  1.00  0.00     0.116 C 
BRANCH   2   3
ATOM      3  N   UNL A   1      34.015  20.354  25.655  1.00  0.00    -0.356 N 
ATOM      4  C   UNL A   1      32.701  20.278  25.307  1.00  0.00     0.229 C 
ATOM      5  O   UNL A   1      32.185  19.155  25.307  1.00  0.00    -0.275 OA
ATOM      6  H   UNL A   1      34.406  19.524  26.013  1.00  0.00     0.163 HD
BRANCH   4   7
ATOM      7  C   UNL A   1      31.864  21.486  24.885  1.00  0.00     0.142 C 
ATOM      8  N   UNL A   1      31.935  23.900  25.016  1.00  0.00    -0.327 N 
ATOM      9  C   UNL A   1      31.625  23.494  23.659  1.00  0.00     0.263 C 
ATOM     10  C   UNL A   1      31.827  22.683  25.854  1.00  0.00     0.193 C 
ATOM     11  H   UNL A   1      31.253  24.589  25.333  1.00  0.00     0.348 HD
ATOM     12  C   UNL A   1      32.205  22.097  23.532  1.00  0.00     0.081 C 
ATOM     13  C   UNL A   1      30.478  22.722  26.587  1.00  0.00     0.076 C 
BRANCH   8  14
ATOM     14  C   UNL A   1      33.127  24.749  25.207  1.00  0.00     0.324 C 
BRANCH  14  15
ATOM     15  C   UNL A   1      33.958  25.457  24.066  1.00  0.00     0.324 C 
BRANCH  15  16
ATOM     16  N   UNL A   1      33.739  26.818  23.586  1.00  0.00    -0.331 N 
ATOM     17  H   UNL A   1      34.749  26.858  23.455  1.00  0.00     0.348 HD
BRANCH  16  18
ATOM     18  C   UNL A   1      33.430  27.107  22.194  1.00  0.00     0.258 C 
ATOM     19  C   UNL A   1      32.886  25.944  21.362  1.00  0.00     0.071 C 
ENDBRANCH  16  18
BRANCH  16  20
ATOM     20  C   UNL A   1      33.451  27.869  24.549  1.00  0.00     0.258 C 
ATOM     21  C   UNL A   1      32.420  28.901  24.126  1.00  0.00     0.071 C 
ENDBRANCH  16  20
ENDBRANCH  15  16
ENDBRANCH  14  15
ENDBRANCH   8  14
ENDBRANCH   4   7
ENDBRANCH   2   3
ENDBRANCH   1   2
BRANCH   1  22
ATOM     22  C   UNL A   1      36.468  22.809  24.027  1.00  0.00     0.023 C 
BRANCH  22  23
ATOM     23  C   UNL A   1      37.326  23.431  25.128  1.00  0.00     0.116 C 
BRANCH  23  24
ATOM     24  N   UNL A   1      38.464  22.613  25.532  1.00  0.00    -0.352 N 
ATOM     25  C   UNL A   1      39.538  22.954  26.328  1.00  0.00     0.251 C 
ATOM     26  H   UNL A   1      38.465  21.690  25.189  1.00  0.00     0.163 HD
ATOM     27  O   UNL A   1      40.453  22.161  26.509  1.00  0.00    -0.269 OA
BRANCH  25  28
ATOM     28  C   UNL A   1      39.599  24.312  26.914  1.00  0.00     0.039 A 
ATOM     29  C   UNL A   1      39.052  24.525  28.181  1.00  0.00     0.014 A 
ATOM     30  C   UNL A   1      40.279  25.340  26.256  1.00  0.00     0.014 A 
ATOM     31  C   UNL A   1      39.297  25.731  28.841  1.00  0.00     0.010 A 
ATOM     32  C   UNL A   1      40.590  26.506  26.948  1.00  0.00     0.010 A 
ATOM     33  C   UNL A   1      40.128  26.703  28.259  1.00  0.00    -0.014 A 
BRANCH  33  34
ATOM     34  C   UNL A   1      40.585  27.893  29.024  1.00  0.00     0.031 A 
ATOM     35  C   UNL A   1      41.913  27.883  29.729  1.00  0.00     0.074 A 
ATOM     36  C   UNL A   1      39.753  28.947  29.167  1.00  0.00     0.049 A 
ATOM     37  N   UNL A   1      42.428  28.779  30.530  1.00  0.00    -0.248 NA
ATOM     38  C   UNL A   1      42.759  26.694  29.534  1.00  0.00     0.031 C 
ATOM     39  C   UNL A   1      38.410  29.052  28.592  1.00  0.00     0.029 A 
ATOM     40  N   UNL A   1      39.906  30.124  29.860  1.00  0.00    -0.354 N 
ATOM     41  C   UNL A   1      43.645  28.258  30.950  1.00  0.00     0.074 A 
ATOM     42  C   UNL A   1      43.772  26.947  30.350  1.00  0.00     0.031 C 
ATOM     43  C   UNL A   1      37.870  30.232  28.939  1.00  0.00     0.029 A 
ATOM     44  C   UNL A   1      38.809  30.952  29.794  1.00  0.00     0.049 A 
ATOM     45  H   UNL A   1      40.724  30.354  30.357  1.00  0.00     0.167 HD
ATOM     46  C   UNL A   1      44.580  28.829  31.745  1.00  0.00     0.037 A 
ATOM     47  C   UNL A   1      38.577  32.149  30.367  1.00  0.00     0.037 A 
ATOM     48  C   UNL A   1      44.468  30.148  32.308  1.00  0.00     0.049 A 
ATOM     49  C   UNL A   1      39.640  32.769  31.230  1.00  0.00     0.074 A 
ATOM     50  C   UNL A   1      45.402  30.846  33.056  1.00  0.00     0.029 A 
ATOM     51  N   UNL A   1      43.357  30.970  32.190  1.00  0.00    -0.354 N 
ATOM     52  N   UNL A   1      40.818  32.293  31.552  1.00  0.00    -0.248 NA
ATOM     53  C   UNL A   1      39.345  34.087  31.809  1.00  0.00     0.031 C 
ATOM     54  C   UNL A   1      44.840  32.075  33.420  1.00  0.00     0.029 A 
ATOM     55  C   UNL A   1      43.572  32.159  32.868  1.00  0.00     0.049 A 
ATOM     56  H   UNL A   1      42.536  30.742  31.696  1.00  0.00     0.167 HD
ATOM     57  C   UNL A   1      41.410  33.260  32.357  1.00  0.00     0.074 A 
ATOM     58  C   UNL A   1      40.469  34.355  32.458  1.00  0.00     0.031 C 
ATOM     59  C   UNL A   1      42.625  33.240  32.959  1.00  0.00     0.037 A 
BRANCH  46  60
ATOM     60  C   UNL A   1      45.821  28.035  32.044  1.00  0.00     0.058 A 
ATOM     61  C   UNL A   1      45.886  27.161  33.140  1.00  0.00     0.135 A 
ATOM     62  C   UNL A   1      46.939  28.111  31.198  1.00  0.00     0.135 A 
ATOM     63  F   UNL A   1      44.850  27.063  33.988  1.00  0.00    -0.206 F 
ATOM     64  C   UNL A   1      47.025  26.406  33.401  1.00  0.00     0.059 A 
ATOM     65  C   UNL A   1      48.079  27.345  31.425  1.00  0.00     0.059 A 
ATOM     66  F   UNL A   1      46.930  28.932  30.136  1.00  0.00    -0.206 F 
ATOM     67  C   UNL A   1      48.117  26.504  32.537  1.00  0.00     0.060 A 
BRANCH  67  68
ATOM     68  S   UNL A   1      49.580  25.504  32.879  1.00  0.00     0.124 S 
ATOM     69  O   UNL A   1      49.042  24.509  33.802  1.00  0.00    -0.237 OA
ATOM     70  O   UNL A   1      49.938  25.009  31.553  1.00  0.00    -0.237 OA
ATOM     71  O   UNL A   1      50.516  26.459  33.462  1.00  0.00    -0.744 OA
ENDBRANCH  67  68
ENDBRANCH  46  60
BRANCH  47  72
ATOM     72  C   UNL A   1      37.284  32.849  30.135  1.00  0.00     0.058 A 
ATOM     73  C   UNL A   1      36.163  32.569  30.928  1.00  0.00     0.135 A 
ATOM     74  C   UNL A   1      37.147  33.811  29.123  1.00  0.00     0.135 A 
ATOM     75  F   UNL A   1      36.244  31.652  31.905  1.00  0.00    -0.206 F 
ATOM     76  C   UNL A   1      34.943  33.203  30.716  1.00  0.00     0.059 A 
ATOM     77  C   UNL A   1      35.943  34.475  28.906  1.00  0.00     0.059 A 
ATOM     78  F   UNL A   1      38.196  34.127  28.349  1.00  0.00    -0.206 F 
ATOM     79  C   UNL A   1      34.843  34.155  29.700  1.00  0.00     0.060 A 
BRANCH  79  80
ATOM     80  S   UNL A   1      33.268  35.005  29.458  1.00  0.00     0.124 S 
ATOM     81  O   UNL A   1      32.620  34.146  28.474  1.00  0.00    -0.237 OA
ATOM     82  O   UNL A   1      32.696  34.983  30.801  1.00  0.00    -0.237 OA
ATOM     83  O   UNL A   1      33.671  36.324  28.981  1.00  0.00    -0.744 OA
ENDBRANCH  79  80
ENDBRANCH  47  72
BRANCH  59  84
ATOM     84  C   UNL A   1      43.013  34.444  33.769  1.00  0.00     0.058 A 
ATOM     85  C   UNL A   1      42.622  34.583  35.109  1.00  0.00     0.135 A 
ATOM     86  C   UNL A   1      43.829  35.444  33.215  1.00  0.00     0.135 A 
ATOM     87  F   UNL A   1      41.834  33.659  35.682  1.00  0.00    -0.206 F 
ATOM     88  C   UNL A   1      43.013  35.680  35.870  1.00  0.00     0.059 A 
ATOM     89  C   UNL A   1      44.252  36.537  33.964  1.00  0.00     0.059 A 
ATOM     90  F   UNL A   1      44.238  35.354  31.940  1.00  0.00    -0.206 F 
ATOM     91  C   UNL A   1      43.829  36.652  35.288  1.00  0.00     0.060 A 
BRANCH  91  92
ATOM     92  S   UNL A   1      44.364  38.051  36.296  1.00  0.00     0.124 S 
ATOM     93  O   UNL A   1      43.595  37.842  37.519  1.00  0.00    -0.237 OA
ATOM     94  O   UNL A   1      45.803  37.828  36.405  1.00  0.00    -0.237 OA
ATOM     95  O   UNL A   1      43.975  39.211  35.499  1.00  0.00    -0.744 OA
ENDBRANCH  91  92
ENDBRANCH  59  84
ENDBRANCH  33  34
ENDBRANCH  25  28
ENDBRANCH  23  24
ENDBRANCH  22  23
ENDBRANCH   1  22
TORSDOF 19
ENDMDL
