MODEL 1
REMARK VINA RESULT:     -10.9      0.000      0.000
REMARK SMILES O=C(NCCCCNC(=O)c1ccc2nc(C3CCCCC3)[nH]c2c1)c1ccc(-c2c3nc(c(-c4c(F)cc(S(=O)(=O)[O-])cc4F)c4ccc([nH]4)c(-c4c(F)cc(S(=O)(=O)[O-])cc4F)c4nc(c(-c5c(F)cc(S(=O)(=O)[O-])cc5F)c5ccc2[nH]5)C=C4)C=C3)cc1
REMARK SMILES IDX 4 1 3 2 1 3 2 4 26 6 27 7 91 8 28 9 90 10 29 11 30 12 31 13
REMARK SMILES IDX 84 14 32 15 89 16 83 17 85 18 33 19 88 20 82 21 81 22 34 24
REMARK SMILES IDX 68 25 47 26 67 27 48 28 51 29 66 30 86 31 49 32 50 33 65 35
REMARK SMILES IDX 87 36 52 37 35 38 36 39 45 40 37 41 38 42 44 43 46 44 39 45
REMARK SMILES IDX 40 46 41 47 42 48 43 49 69 50 70 51 79 52 71 53 72 54 78 55
REMARK SMILES IDX 80 56 73 57 74 58 75 59 76 60 77 61 53 62 54 63 63 64 55 65
REMARK SMILES IDX 56 66 62 67 64 68 57 69 58 70 59 71 60 72 61 73 5 74 6 75
REMARK SMILES IDX 7 76 8 77 9 78 10 80 11 81 12 82 25 83 13 84 24 85 14 86
REMARK SMILES IDX 23 87 15 88 16 89 17 91 18 92 22 93 19 94 21 95 20 96
REMARK H PARENT 3 5 85 23 51 34 8 79 23 90
REMARK Flexibility Score: inf
ROOT
ATOM      1  C   UNL A   1      34.506  32.459  28.864  1.00  0.00     0.116 C 
ENDROOT
BRANCH   1   2
ATOM      2  N   UNL A   1      33.896  31.278  28.276  1.00  0.00    -0.352 N 
ATOM      3  O   UNL A   1      33.808  29.267  27.271  1.00  0.00    -0.269 OA
ATOM      4  C   UNL A   1      34.478  30.100  27.875  1.00  0.00     0.251 C 
ATOM      5  H   UNL A   1      32.922  31.330  28.144  1.00  0.00     0.163 HD
BRANCH   4   6
ATOM      6  C   UNL A   1      35.910  29.850  28.143  1.00  0.00     0.039 A 
ATOM      7  C   UNL A   1      36.882  30.088  27.167  1.00  0.00     0.014 A 
ATOM      8  C   UNL A   1      36.282  29.378  29.405  1.00  0.00     0.014 A 
ATOM      9  C   UNL A   1      38.209  29.738  27.409  1.00  0.00     0.010 A 
ATOM     10  C   UNL A   1      37.622  29.088  29.667  1.00  0.00     0.010 A 
ATOM     11  C   UNL A   1      38.591  29.237  28.662  1.00  0.00    -0.014 A 
BRANCH  11  12
ATOM     12  C   UNL A   1      40.010  28.900  28.936  1.00  0.00     0.031 A 
ATOM     13  C   UNL A   1      40.947  29.933  29.495  1.00  0.00     0.074 A 
ATOM     14  C   UNL A   1      40.458  27.664  28.648  1.00  0.00     0.049 A 
ATOM     15  N   UNL A   1      42.234  29.847  29.712  1.00  0.00    -0.248 NA
ATOM     16  C   UNL A   1      40.362  31.235  29.846  1.00  0.00     0.031 C 
ATOM     17  C   UNL A   1      39.641  26.580  28.099  1.00  0.00     0.029 A 
ATOM     18  N   UNL A   1      41.710  27.116  28.761  1.00  0.00    -0.354 N 
ATOM     19  C   UNL A   1      42.622  31.090  30.198  1.00  0.00     0.074 A 
ATOM     20  C   UNL A   1      41.433  31.917  30.231  1.00  0.00     0.031 C 
ATOM     21  C   UNL A   1      40.412  25.496  27.924  1.00  0.00     0.029 A 
ATOM     22  C   UNL A   1      41.785  25.824  28.299  1.00  0.00     0.049 A 
ATOM     23  H   UNL A   1      42.481  27.601  29.136  1.00  0.00     0.167 HD
ATOM     24  C   UNL A   1      43.855  31.500  30.582  1.00  0.00     0.037 A 
ATOM     25  C   UNL A   1      42.843  25.003  28.160  1.00  0.00     0.037 A 
ATOM     26  C   UNL A   1      45.028  30.666  30.557  1.00  0.00     0.049 A 
ATOM     27  C   UNL A   1      44.202  25.480  28.578  1.00  0.00     0.074 A 
ATOM     28  C   UNL A   1      46.315  30.977  30.959  1.00  0.00     0.029 A 
ATOM     29  N   UNL A   1      45.059  29.357  30.098  1.00  0.00    -0.354 N 
ATOM     30  N   UNL A   1      44.548  26.649  29.063  1.00  0.00    -0.248 NA
ATOM     31  C   UNL A   1      45.316  24.533  28.431  1.00  0.00     0.031 C 
ATOM     32  C   UNL A   1      47.131  29.867  30.709  1.00  0.00     0.029 A 
ATOM     33  C   UNL A   1      46.345  28.851  30.189  1.00  0.00     0.049 A 
ATOM     34  H   UNL A   1      44.280  28.860  29.756  1.00  0.00     0.167 HD
ATOM     35  C   UNL A   1      45.915  26.573  29.299  1.00  0.00     0.074 A 
ATOM     36  C   UNL A   1      46.334  25.242  28.905  1.00  0.00     0.031 C 
ATOM     37  C   UNL A   1      46.744  27.520  29.801  1.00  0.00     0.037 A 
BRANCH  24  38
ATOM     38  C   UNL A   1      43.998  32.928  31.032  1.00  0.00     0.058 A 
ATOM     39  C   UNL A   1      43.716  33.321  32.350  1.00  0.00     0.135 A 
ATOM     40  C   UNL A   1      44.420  33.918  30.129  1.00  0.00     0.135 A 
ATOM     41  F   UNL A   1      43.297  32.418  33.249  1.00  0.00    -0.206 F 
ATOM     42  C   UNL A   1      43.807  34.652  32.747  1.00  0.00     0.059 A 
ATOM     43  C   UNL A   1      44.540  35.251  30.510  1.00  0.00     0.059 A 
ATOM     44  F   UNL A   1      44.707  33.596  28.858  1.00  0.00    -0.206 F 
ATOM     45  C   UNL A   1      44.207  35.612  31.815  1.00  0.00     0.060 A 
BRANCH  45  46
ATOM     46  S   UNL A   1      44.277  37.342  32.327  1.00  0.00     0.124 S 
ATOM     47  O   UNL A   1      43.327  37.353  33.435  1.00  0.00    -0.237 OA
ATOM     48  O   UNL A   1      45.680  37.506  32.697  1.00  0.00    -0.237 OA
ATOM     49  O   UNL A   1      43.858  38.067  31.131  1.00  0.00    -0.744 OA
ENDBRANCH  45  46
ENDBRANCH  24  38
BRANCH  25  50
ATOM     50  C   UNL A   1      42.629  23.649  27.591  1.00  0.00     0.058 A 
ATOM     51  C   UNL A   1      42.779  23.411  26.219  1.00  0.00     0.135 A 
ATOM     52  C   UNL A   1      42.366  22.551  28.425  1.00  0.00     0.135 A 
ATOM     53  F   UNL A   1      43.027  24.432  25.384  1.00  0.00    -0.206 F 
ATOM     54  C   UNL A   1      42.690  22.127  25.691  1.00  0.00     0.059 A 
ATOM     55  C   UNL A   1      42.293  21.256  27.925  1.00  0.00     0.059 A 
ATOM     56  F   UNL A   1      42.232  22.728  29.749  1.00  0.00    -0.206 F 
ATOM     57  C   UNL A   1      42.458  21.054  26.554  1.00  0.00     0.060 A 
BRANCH  57  58
ATOM     58  S   UNL A   1      42.455  19.379  25.876  1.00  0.00     0.124 S 
ATOM     59  O   UNL A   1      43.305  19.538  24.701  1.00  0.00    -0.237 OA
ATOM     60  O   UNL A   1      43.022  18.602  26.974  1.00  0.00    -0.237 OA
ATOM     61  O   UNL A   1      41.042  19.130  25.607  1.00  0.00    -0.744 OA
ENDBRANCH  57  58
ENDBRANCH  25  50
BRANCH  37  62
ATOM     62  C   UNL A   1      48.187  27.150  29.990  1.00  0.00     0.058 A 
ATOM     63  C   UNL A   1      49.151  27.428  29.010  1.00  0.00     0.135 A 
ATOM     64  C   UNL A   1      48.621  26.593  31.203  1.00  0.00     0.135 A 
ATOM     65  F   UNL A   1      48.784  27.952  27.830  1.00  0.00    -0.206 F 
ATOM     66  C   UNL A   1      50.500  27.165  29.226  1.00  0.00     0.059 A 
ATOM     67  C   UNL A   1      49.967  26.340  31.449  1.00  0.00     0.059 A 
ATOM     68  F   UNL A   1      47.736  26.315  32.174  1.00  0.00    -0.206 F 
ATOM     69  C   UNL A   1      50.899  26.628  30.452  1.00  0.00     0.060 A 
BRANCH  69  70
ATOM     70  S   UNL A   1      52.660  26.358  30.751  1.00  0.00     0.124 S 
ATOM     71  O   UNL A   1      52.636  25.170  31.598  1.00  0.00    -0.237 OA
ATOM     72  O   UNL A   1      53.181  26.164  29.402  1.00  0.00    -0.237 OA
ATOM     73  O   UNL A   1      53.084  27.591  31.409  1.00  0.00    -0.744 OA
ENDBRANCH  69  70
ENDBRANCH  37  62
ENDBRANCH  11  12
ENDBRANCH   4   6
ENDBRANCH   1   2
BRANCH   1  74
ATOM     74  C   UNL A   1      34.391  33.691  27.973  1.00  0.00     0.023 C 
BRANCH  74  75
ATOM     75  C   UNL A   1      33.627  34.872  28.574  1.00  0.00     0.023 C 
BRANCH  75  76
ATOM     76  C   UNL A   1      34.067  35.291  29.974  1.00  0.00     0.116 C 
BRANCH  76  77
ATOM     77  N   UNL A   1      32.957  35.367  30.910  1.00  0.00    -0.352 N 
ATOM     78  C   UNL A   1      32.877  34.894  32.195  1.00  0.00     0.251 C 
ATOM     79  H   UNL A   1      32.150  35.821  30.575  1.00  0.00     0.163 HD
ATOM     80  O   UNL A   1      31.819  34.924  32.816  1.00  0.00    -0.269 OA
BRANCH  78  81
ATOM     81  C   UNL A   1      34.075  34.307  32.824  1.00  0.00     0.042 A 
ATOM     82  C   UNL A   1      34.861  35.064  33.703  1.00  0.00     0.016 A 
ATOM     83  C   UNL A   1      34.388  32.979  32.505  1.00  0.00     0.042 A 
ATOM     84  C   UNL A   1      36.043  34.531  34.234  1.00  0.00     0.031 A 
ATOM     85  C   UNL A   1      35.573  32.483  33.051  1.00  0.00     0.066 A 
ATOM     86  C   UNL A   1      36.405  33.222  33.884  1.00  0.00     0.089 A 
ATOM     87  N   UNL A   1      36.198  31.272  32.936  1.00  0.00    -0.342 N 
ATOM     88  N   UNL A   1      37.512  32.491  34.238  1.00  0.00    -0.233 NA
ATOM     89  C   UNL A   1      37.376  31.324  33.643  1.00  0.00     0.110 A 
ATOM     90  H   UNL A   1      35.862  30.495  32.432  1.00  0.00     0.168 HD
BRANCH  89  91
ATOM     91  C   UNL A   1      38.336  30.175  33.711  1.00  0.00     0.055 C 
ATOM     92  C   UNL A   1      37.836  28.999  32.860  1.00  0.00     0.011 C 
ATOM     93  C   UNL A   1      39.757  30.601  33.311  1.00  0.00     0.011 C 
ATOM     94  C   UNL A   1      38.821  27.832  32.874  1.00  0.00     0.001 C 
ATOM     95  C   UNL A   1      40.727  29.421  33.319  1.00  0.00     0.001 C 
ATOM     96  C   UNL A   1      40.218  28.275  32.450  1.00  0.00     0.000 C 
ENDBRANCH  89  91
ENDBRANCH  78  81
ENDBRANCH  76  77
ENDBRANCH  75  76
ENDBRANCH  74  75
ENDBRANCH   1  74
TORSDOF 15
ENDMDL
MODEL 2
REMARK VINA RESULT:     -10.9      4.931     11.373
REMARK SMILES O=C(NCCCCNC(=O)c1ccc2nc(C3CCCCC3)[nH]c2c1)c1ccc(-c2c3nc(c(-c4c(F)cc(S(=O)(=O)[O-])cc4F)c4ccc([nH]4)c(-c4c(F)cc(S(=O)(=O)[O-])cc4F)c4nc(c(-c5c(F)cc(S(=O)(=O)[O-])cc5F)c5ccc2[nH]5)C=C4)C=C3)cc1
REMARK SMILES IDX 4 1 3 2 1 3 2 4 26 6 27 7 91 8 28 9 90 10 29 11 30 12 31 13
REMARK SMILES IDX 84 14 32 15 89 16 83 17 85 18 33 19 88 20 82 21 81 22 34 24
REMARK SMILES IDX 68 25 47 26 67 27 48 28 51 29 66 30 86 31 49 32 50 33 65 35
REMARK SMILES IDX 87 36 52 37 35 38 36 39 45 40 37 41 38 42 44 43 46 44 39 45
REMARK SMILES IDX 40 46 41 47 42 48 43 49 69 50 70 51 79 52 71 53 72 54 78 55
REMARK SMILES IDX 80 56 73 57 74 58 75 59 76 60 77 61 53 62 54 63 63 64 55 65
REMARK SMILES IDX 56 66 62 67 64 68 57 69 58 70 59 71 60 72 61 73 5 74 6 75
REMARK SMILES IDX 7 76 8 77 9 78 10 80 11 81 12 82 25 83 13 84 24 85 14 86
REMARK SMILES IDX 23 87 15 88 16 89 17 91 18 92 22 93 19 94 21 95 20 96
REMARK H PARENT 3 5 85 23 51 34 8 79 23 90
REMARK Flexibility Score: inf
ROOT
ATOM      1  C   UNL A   1      36.656  23.873  25.260  1.00  0.00     0.116 C 
ENDROOT
BRANCH   1   2
ATOM      2  N   UNL A   1      37.707  22.876  25.388  1.00  0.00    -0.352 N 
ATOM      3  O   UNL A   1      39.749  22.058  25.858  1.00  0.00    -0.269 OA
ATOM      4  C   UNL A   1      38.945  22.979  25.973  1.00  0.00     0.251 C 
ATOM      5  H   UNL A   1      37.501  21.997  24.996  1.00  0.00     0.163 HD
BRANCH   4   6
ATOM      6  C   UNL A   1      39.319  24.204  26.711  1.00  0.00     0.039 A 
ATOM      7  C   UNL A   1      40.107  25.195  26.118  1.00  0.00     0.014 A 
ATOM      8  C   UNL A   1      38.857  24.364  28.020  1.00  0.00     0.014 A 
ATOM      9  C   UNL A   1      40.536  26.285  26.872  1.00  0.00     0.010 A 
ATOM     10  C   UNL A   1      39.235  25.489  28.755  1.00  0.00     0.010 A 
ATOM     11  C   UNL A   1      40.102  26.443  28.197  1.00  0.00    -0.014 A 
BRANCH  11  12
ATOM     12  C   UNL A   1      40.525  27.623  28.991  1.00  0.00     0.031 A 
ATOM     13  C   UNL A   1      41.832  27.617  29.731  1.00  0.00     0.074 A 
ATOM     14  C   UNL A   1      39.708  28.689  29.068  1.00  0.00     0.049 A 
ATOM     15  N   UNL A   1      42.324  28.515  30.545  1.00  0.00    -0.248 NA
ATOM     16  C   UNL A   1      42.696  26.442  29.539  1.00  0.00     0.031 C 
ATOM     17  C   UNL A   1      38.413  28.808  28.395  1.00  0.00     0.029 A 
ATOM     18  N   UNL A   1      39.836  29.869  29.756  1.00  0.00    -0.354 N 
ATOM     19  C   UNL A   1      43.539  28.007  30.986  1.00  0.00     0.074 A 
ATOM     20  C   UNL A   1      43.705  26.712  30.358  1.00  0.00     0.031 C 
ATOM     21  C   UNL A   1      37.866  29.993  28.703  1.00  0.00     0.029 A 
ATOM     22  C   UNL A   1      38.746  30.695  29.633  1.00  0.00     0.049 A 
ATOM     23  H   UNL A   1      40.632  30.100  30.288  1.00  0.00     0.167 HD
ATOM     24  C   UNL A   1      44.433  28.569  31.834  1.00  0.00     0.037 A 
ATOM     25  C   UNL A   1      38.466  31.871  30.225  1.00  0.00     0.037 A 
ATOM     26  C   UNL A   1      44.265  29.863  32.443  1.00  0.00     0.049 A 
ATOM     27  C   UNL A   1      39.463  32.472  31.171  1.00  0.00     0.074 A 
ATOM     28  C   UNL A   1      45.130  30.536  33.289  1.00  0.00     0.029 A 
ATOM     29  N   UNL A   1      43.154  30.677  32.279  1.00  0.00    -0.354 N 
ATOM     30  N   UNL A   1      40.622  31.992  31.556  1.00  0.00    -0.248 NA
ATOM     31  C   UNL A   1      39.119  33.771  31.766  1.00  0.00     0.031 C 
ATOM     32  C   UNL A   1      44.525  31.742  33.663  1.00  0.00     0.029 A 
ATOM     33  C   UNL A   1      43.301  31.838  33.020  1.00  0.00     0.049 A 
ATOM     34  H   UNL A   1      42.373  30.461  31.718  1.00  0.00     0.167 HD
ATOM     35  C   UNL A   1      41.156  32.938  32.422  1.00  0.00     0.074 A 
ATOM     36  C   UNL A   1      40.194  34.019  32.504  1.00  0.00     0.031 C 
ATOM     37  C   UNL A   1      42.338  32.911  33.084  1.00  0.00     0.037 A 
BRANCH  24  38
ATOM     38  C   UNL A   1      45.659  27.768  32.175  1.00  0.00     0.058 A 
ATOM     39  C   UNL A   1      45.686  26.881  33.263  1.00  0.00     0.135 A 
ATOM     40  C   UNL A   1      46.827  27.893  31.404  1.00  0.00     0.135 A 
ATOM     41  F   UNL A   1      44.602  26.733  34.040  1.00  0.00    -0.206 F 
ATOM     42  C   UNL A   1      46.838  26.177  33.600  1.00  0.00     0.059 A 
ATOM     43  C   UNL A   1      47.984  27.183  31.709  1.00  0.00     0.059 A 
ATOM     44  F   UNL A   1      46.855  28.724  30.351  1.00  0.00    -0.206 F 
ATOM     45  C   UNL A   1      47.986  26.345  32.824  1.00  0.00     0.060 A 
BRANCH  45  46
ATOM     46  S   UNL A   1      49.490  25.464  33.296  1.00  0.00     0.124 S 
ATOM     47  O   UNL A   1      48.959  24.458  34.211  1.00  0.00    -0.237 OA
ATOM     48  O   UNL A   1      49.976  24.958  32.016  1.00  0.00    -0.237 OA
ATOM     49  O   UNL A   1      50.313  26.501  33.911  1.00  0.00    -0.744 OA
ENDBRANCH  45  46
ENDBRANCH  24  38
BRANCH  25  50
ATOM     50  C   UNL A   1      37.174  32.536  29.923  1.00  0.00     0.058 A 
ATOM     51  C   UNL A   1      36.019  32.234  30.656  1.00  0.00     0.135 A 
ATOM     52  C   UNL A   1      37.095  33.555  28.961  1.00  0.00     0.135 A 
ATOM     53  F   UNL A   1      36.047  31.264  31.583  1.00  0.00    -0.206 F 
ATOM     54  C   UNL A   1      34.830  32.929  30.457  1.00  0.00     0.059 A 
ATOM     55  C   UNL A   1      35.925  34.278  28.758  1.00  0.00     0.059 A 
ATOM     56  F   UNL A   1      38.181  33.892  28.247  1.00  0.00    -0.206 F 
ATOM     57  C   UNL A   1      34.797  33.957  29.513  1.00  0.00     0.060 A 
BRANCH  57  58
ATOM     58  S   UNL A   1      33.282  34.927  29.341  1.00  0.00     0.124 S 
ATOM     59  O   UNL A   1      32.733  34.856  30.690  1.00  0.00    -0.237 OA
ATOM     60  O   UNL A   1      33.797  36.229  28.928  1.00  0.00    -0.237 OA
ATOM     61  O   UNL A   1      32.537  34.205  28.314  1.00  0.00    -0.744 OA
ENDBRANCH  57  58
ENDBRANCH  25  50
BRANCH  37  62
ATOM     62  C   UNL A   1      42.686  34.099  33.934  1.00  0.00     0.058 A 
ATOM     63  C   UNL A   1      42.357  34.149  35.296  1.00  0.00     0.135 A 
ATOM     64  C   UNL A   1      43.434  35.158  33.396  1.00  0.00     0.135 A 
ATOM     65  F   UNL A   1      41.635  33.165  35.854  1.00  0.00    -0.206 F 
ATOM     66  C   UNL A   1      42.759  35.211  36.099  1.00  0.00     0.059 A 
ATOM     67  C   UNL A   1      43.863  36.221  34.184  1.00  0.00     0.059 A 
ATOM     68  F   UNL A   1      43.777  35.151  32.098  1.00  0.00    -0.206 F 
ATOM     69  C   UNL A   1      43.519  36.239  35.535  1.00  0.00     0.060 A 
BRANCH  69  70
ATOM     70  S   UNL A   1      44.098  37.577  36.602  1.00  0.00     0.124 S 
ATOM     71  O   UNL A   1      45.438  37.118  36.949  1.00  0.00    -0.237 OA
ATOM     72  O   UNL A   1      44.034  38.735  35.716  1.00  0.00    -0.237 OA
ATOM     73  O   UNL A   1      43.130  37.580  37.696  1.00  0.00    -0.744 OA
ENDBRANCH  69  70
ENDBRANCH  37  62
ENDBRANCH  11  12
ENDBRANCH   4   6
ENDBRANCH   1   2
BRANCH   1  74
ATOM     74  C   UNL A   1      35.340  23.429  25.889  1.00  0.00     0.023 C 
BRANCH  74  75
ATOM     75  C   UNL A   1      35.324  22.008  26.453  1.00  0.00     0.023 C 
BRANCH  75  76
ATOM     76  C   UNL A   1      34.020  21.584  27.122  1.00  0.00     0.116 C 
BRANCH  76  77
ATOM     77  N   UNL A   1      33.429  20.409  26.503  1.00  0.00    -0.352 N 
ATOM     78  C   UNL A   1      32.566  20.335  25.440  1.00  0.00     0.251 C 
ATOM     79  H   UNL A   1      33.685  19.545  26.902  1.00  0.00     0.163 HD
ATOM     80  O   UNL A   1      32.052  19.269  25.115  1.00  0.00    -0.269 OA
BRANCH  78  81
ATOM     81  C   UNL A   1      32.221  21.566  24.703  1.00  0.00     0.042 A 
ATOM     82  C   UNL A   1      32.834  21.855  23.476  1.00  0.00     0.016 A 
ATOM     83  C   UNL A   1      31.271  22.420  25.278  1.00  0.00     0.042 A 
ATOM     84  C   UNL A   1      32.566  23.064  22.819  1.00  0.00     0.031 A 
ATOM     85  C   UNL A   1      31.032  23.614  24.597  1.00  0.00     0.066 A 
ATOM     86  C   UNL A   1      31.660  23.959  23.405  1.00  0.00     0.089 A 
ATOM     87  N   UNL A   1      30.215  24.677  24.869  1.00  0.00    -0.342 N 
ATOM     88  N   UNL A   1      31.257  25.202  22.985  1.00  0.00    -0.233 NA
ATOM     89  C   UNL A   1      30.397  25.625  23.891  1.00  0.00     0.110 A 
ATOM     90  H   UNL A   1      29.601  24.750  25.635  1.00  0.00     0.168 HD
BRANCH  89  91
ATOM     91  C   UNL A   1      29.680  26.941  23.888  1.00  0.00     0.055 C 
ATOM     92  C   UNL A   1      30.279  27.883  22.833  1.00  0.00     0.011 C 
ATOM     93  C   UNL A   1      28.167  26.760  23.693  1.00  0.00     0.011 C 
ATOM     94  C   UNL A   1      29.534  29.214  22.775  1.00  0.00     0.001 C 
ATOM     95  C   UNL A   1      27.439  28.101  23.626  1.00  0.00     0.001 C 
ATOM     96  C   UNL A   1      28.038  29.010  22.557  1.00  0.00     0.000 C 
ENDBRANCH  89  91
ENDBRANCH  78  81
ENDBRANCH  76  77
ENDBRANCH  75  76
ENDBRANCH  74  75
ENDBRANCH   1  74
TORSDOF 15
ENDMDL
MODEL 3
REMARK VINA RESULT:     -10.9      3.836      6.554
REMARK SMILES O=C(NCCCCNC(=O)c1ccc2nc(C3CCCCC3)[nH]c2c1)c1ccc(-c2c3nc(c(-c4c(F)cc(S(=O)(=O)[O-])cc4F)c4ccc([nH]4)c(-c4c(F)cc(S(=O)(=O)[O-])cc4F)c4nc(c(-c5c(F)cc(S(=O)(=O)[O-])cc5F)c5ccc2[nH]5)C=C4)C=C3)cc1
REMARK SMILES IDX 4 1 3 2 1 3 2 4 26 6 27 7 91 8 28 9 90 10 29 11 30 12 31 13
REMARK SMILES IDX 84 14 32 15 89 16 83 17 85 18 33 19 88 20 82 21 81 22 34 24
REMARK SMILES IDX 68 25 47 26 67 27 48 28 51 29 66 30 86 31 49 32 50 33 65 35
REMARK SMILES IDX 87 36 52 37 35 38 36 39 45 40 37 41 38 42 44 43 46 44 39 45
REMARK SMILES IDX 40 46 41 47 42 48 43 49 69 50 70 51 79 52 71 53 72 54 78 55
REMARK SMILES IDX 80 56 73 57 74 58 75 59 76 60 77 61 53 62 54 63 63 64 55 65
REMARK SMILES IDX 56 66 62 67 64 68 57 69 58 70 59 71 60 72 61 73 5 74 6 75
REMARK SMILES IDX 7 76 8 77 9 78 10 80 11 81 12 82 25 83 13 84 24 85 14 86
REMARK SMILES IDX 23 87 15 88 16 89 17 91 18 92 22 93 19 94 21 95 20 96
REMARK H PARENT 3 5 85 23 51 34 8 79 23 90
REMARK Flexibility Score: inf
ROOT
ATOM      1  C   UNL A   1      33.763  28.280  26.920  1.00  0.00     0.116 C 
ENDROOT
BRANCH   1   2
ATOM      2  N   UNL A   1      33.576  29.656  27.352  1.00  0.00    -0.352 N 
ATOM      3  O   UNL A   1      34.041  31.579  28.423  1.00  0.00    -0.269 OA
ATOM      4  C   UNL A   1      34.437  30.486  28.027  1.00  0.00     0.251 C 
ATOM      5  H   UNL A   1      32.703  30.051  27.127  1.00  0.00     0.163 HD
BRANCH   4   6
ATOM      6  C   UNL A   1      35.823  30.054  28.303  1.00  0.00     0.039 A 
ATOM      7  C   UNL A   1      36.198  29.581  29.564  1.00  0.00     0.014 A 
ATOM      8  C   UNL A   1      36.761  30.114  27.268  1.00  0.00     0.014 A 
ATOM      9  C   UNL A   1      37.534  29.286  29.826  1.00  0.00     0.010 A 
ATOM     10  C   UNL A   1      38.088  29.757  27.515  1.00  0.00     0.010 A 
ATOM     11  C   UNL A   1      38.490  29.370  28.804  1.00  0.00    -0.014 A 
BRANCH  11  12
ATOM     12  C   UNL A   1      39.908  29.019  29.069  1.00  0.00     0.031 A 
ATOM     13  C   UNL A   1      40.859  30.045  29.617  1.00  0.00     0.074 A 
ATOM     14  C   UNL A   1      40.341  27.778  28.783  1.00  0.00     0.049 A 
ATOM     15  N   UNL A   1      42.146  29.948  29.826  1.00  0.00    -0.248 NA
ATOM     16  C   UNL A   1      40.290  31.355  29.967  1.00  0.00     0.031 C 
ATOM     17  C   UNL A   1      39.510  26.699  28.245  1.00  0.00     0.029 A 
ATOM     18  N   UNL A   1      41.589  27.217  28.890  1.00  0.00    -0.354 N 
ATOM     19  C   UNL A   1      42.550  31.188  30.303  1.00  0.00     0.074 A 
ATOM     20  C   UNL A   1      41.370  32.028  30.341  1.00  0.00     0.031 C 
ATOM     21  C   UNL A   1      40.269  25.607  28.069  1.00  0.00     0.029 A 
ATOM     22  C   UNL A   1      41.647  25.923  28.433  1.00  0.00     0.049 A 
ATOM     23  H   UNL A   1      42.367  27.696  29.258  1.00  0.00     0.167 HD
ATOM     24  C   UNL A   1      43.790  31.588  30.677  1.00  0.00     0.037 A 
ATOM     25  C   UNL A   1      42.696  25.091  28.290  1.00  0.00     0.037 A 
ATOM     26  C   UNL A   1      44.954  30.742  30.647  1.00  0.00     0.049 A 
ATOM     27  C   UNL A   1      44.063  25.556  28.696  1.00  0.00     0.074 A 
ATOM     28  C   UNL A   1      46.248  31.042  31.039  1.00  0.00     0.029 A 
ATOM     29  N   UNL A   1      44.969  29.430  30.193  1.00  0.00    -0.354 N 
ATOM     30  N   UNL A   1      44.424  26.723  29.174  1.00  0.00    -0.248 NA
ATOM     31  C   UNL A   1      45.166  24.597  28.546  1.00  0.00     0.031 C 
ATOM     32  C   UNL A   1      47.050  29.922  30.788  1.00  0.00     0.029 A 
ATOM     33  C   UNL A   1      46.251  28.912  30.278  1.00  0.00     0.049 A 
ATOM     34  H   UNL A   1      44.183  28.940  29.859  1.00  0.00     0.167 HD
ATOM     35  C   UNL A   1      45.792  26.634  29.400  1.00  0.00     0.074 A 
ATOM     36  C   UNL A   1      46.194  25.298  29.010  1.00  0.00     0.031 C 
ATOM     37  C   UNL A   1      46.634  27.575  29.893  1.00  0.00     0.037 A 
BRANCH  24  38
ATOM     38  C   UNL A   1      43.951  33.016  31.119  1.00  0.00     0.058 A 
ATOM     39  C   UNL A   1      43.756  33.404  32.455  1.00  0.00     0.135 A 
ATOM     40  C   UNL A   1      44.301  34.012  30.192  1.00  0.00     0.135 A 
ATOM     41  F   UNL A   1      43.408  32.495  33.378  1.00  0.00    -0.206 F 
ATOM     42  C   UNL A   1      43.862  34.735  32.848  1.00  0.00     0.059 A 
ATOM     43  C   UNL A   1      44.434  35.345  30.568  1.00  0.00     0.059 A 
ATOM     44  F   UNL A   1      44.503  33.695  28.904  1.00  0.00    -0.206 F 
ATOM     45  C   UNL A   1      44.189  35.700  31.894  1.00  0.00     0.060 A 
BRANCH  45  46
ATOM     46  S   UNL A   1      44.278  37.430  32.404  1.00  0.00     0.124 S 
ATOM     47  O   UNL A   1      43.851  38.111  31.185  1.00  0.00    -0.237 OA
ATOM     48  O   UNL A   1      43.336  37.480  33.518  1.00  0.00    -0.237 OA
ATOM     49  O   UNL A   1      45.681  37.606  32.764  1.00  0.00    -0.744 OA
ENDBRANCH  45  46
ENDBRANCH  24  38
BRANCH  25  50
ATOM     50  C   UNL A   1      42.464  23.737  27.729  1.00  0.00     0.058 A 
ATOM     51  C   UNL A   1      42.453  23.522  26.345  1.00  0.00     0.135 A 
ATOM     52  C   UNL A   1      42.347  22.618  28.569  1.00  0.00     0.135 A 
ATOM     53  F   UNL A   1      42.557  24.562  25.503  1.00  0.00    -0.206 F 
ATOM     54  C   UNL A   1      42.347  22.242  25.810  1.00  0.00     0.059 A 
ATOM     55  C   UNL A   1      42.262  21.328  28.060  1.00  0.00     0.059 A 
ATOM     56  F   UNL A   1      42.372  22.774  29.903  1.00  0.00    -0.206 F 
ATOM     57  C   UNL A   1      42.264  21.150  26.676  1.00  0.00     0.060 A 
BRANCH  57  58
ATOM     58  S   UNL A   1      42.241  19.485  25.975  1.00  0.00     0.124 S 
ATOM     59  O   UNL A   1      42.731  18.689  27.094  1.00  0.00    -0.237 OA
ATOM     60  O   UNL A   1      40.831  19.313  25.637  1.00  0.00    -0.237 OA
ATOM     61  O   UNL A   1      43.141  19.591  24.830  1.00  0.00    -0.744 OA
ENDBRANCH  57  58
ENDBRANCH  25  50
BRANCH  37  62
ATOM     62  C   UNL A   1      48.074  27.192  30.073  1.00  0.00     0.058 A 
ATOM     63  C   UNL A   1      49.038  27.478  29.096  1.00  0.00     0.135 A 
ATOM     64  C   UNL A   1      48.506  26.612  31.277  1.00  0.00     0.135 A 
ATOM     65  F   UNL A   1      48.673  28.023  27.925  1.00  0.00    -0.206 F 
ATOM     66  C   UNL A   1      50.385  27.202  29.306  1.00  0.00     0.059 A 
ATOM     67  C   UNL A   1      49.850  26.345  31.516  1.00  0.00     0.059 A 
ATOM     68  F   UNL A   1      47.620  26.326  32.245  1.00  0.00    -0.206 F 
ATOM     69  C   UNL A   1      50.783  26.642  30.522  1.00  0.00     0.060 A 
BRANCH  69  70
ATOM     70  S   UNL A   1      52.542  26.354  30.813  1.00  0.00     0.124 S 
ATOM     71  O   UNL A   1      52.923  27.565  31.532  1.00  0.00    -0.237 OA
ATOM     72  O   UNL A   1      52.533  25.125  31.600  1.00  0.00    -0.237 OA
ATOM     73  O   UNL A   1      53.091  26.224  29.466  1.00  0.00    -0.744 OA
ENDBRANCH  69  70
ENDBRANCH  37  62
ENDBRANCH  11  12
ENDBRANCH   4   6
ENDBRANCH   1   2
BRANCH   1  74
ATOM     74  C   UNL A   1      32.453  27.505  26.828  1.00  0.00     0.023 C 
BRANCH  74  75
ATOM     75  C   UNL A   1      31.474  27.990  25.758  1.00  0.00     0.023 C 
BRANCH  75  76
ATOM     76  C   UNL A   1      31.237  27.023  24.602  1.00  0.00     0.116 C 
BRANCH  76  77
ATOM     77  N   UNL A   1      32.120  27.273  23.474  1.00  0.00    -0.352 N 
ATOM     78  C   UNL A   1      33.210  26.554  23.056  1.00  0.00     0.251 C 
ATOM     79  H   UNL A   1      31.906  28.069  22.935  1.00  0.00     0.163 HD
ATOM     80  O   UNL A   1      33.934  26.968  22.156  1.00  0.00    -0.269 OA
BRANCH  78  81
ATOM     81  C   UNL A   1      33.537  25.281  23.726  1.00  0.00     0.042 A 
ATOM     82  C   UNL A   1      34.457  25.250  24.783  1.00  0.00     0.016 A 
ATOM     83  C   UNL A   1      32.900  24.123  23.262  1.00  0.00     0.042 A 
ATOM     84  C   UNL A   1      34.829  24.030  25.363  1.00  0.00     0.031 A 
ATOM     85  C   UNL A   1      33.296  22.927  23.862  1.00  0.00     0.066 A 
ATOM     86  C   UNL A   1      34.244  22.851  24.877  1.00  0.00     0.089 A 
ATOM     87  N   UNL A   1      32.923  21.628  23.650  1.00  0.00    -0.342 N 
ATOM     88  N   UNL A   1      34.457  21.547  25.247  1.00  0.00    -0.233 NA
ATOM     89  C   UNL A   1      33.663  20.823  24.484  1.00  0.00     0.110 A 
ATOM     90  H   UNL A   1      32.241  21.322  23.010  1.00  0.00     0.168 HD
BRANCH  89  91
ATOM     91  C   UNL A   1      33.536  19.330  24.499  1.00  0.00     0.055 C 
ATOM     92  C   UNL A   1      32.724  18.843  23.290  1.00  0.00     0.011 C 
ATOM     93  C   UNL A   1      34.910  18.646  24.572  1.00  0.00     0.011 C 
ATOM     94  C   UNL A   1      32.621  17.320  23.254  1.00  0.00     0.001 C 
ATOM     95  C   UNL A   1      34.790  17.125  24.524  1.00  0.00     0.001 C 
ATOM     96  C   UNL A   1      33.998  16.665  23.304  1.00  0.00     0.000 C 
ENDBRANCH  89  91
ENDBRANCH  78  81
ENDBRANCH  76  77
ENDBRANCH  75  76
ENDBRANCH  74  75
ENDBRANCH   1  74
TORSDOF 15
ENDMDL
