MODEL 1
REMARK VINA RESULT:     -11.0      0.000      0.000
REMARK SMILES CC[C@H]1CC[C@](C[C@@H](O)C(F)(F)F)(C(=O)NCCCCNC(=O)c2ccc(-c3c4nc(c(-c5c(F)cc(S(=O)(=O)[O-])cc5F)c5ccc([nH]5)c(-c5c(F)cc(S(=O)(=O)[O-])cc5F)c5nc(c(-c6c(F)cc(S(=O)(=O)[O-])cc6F)c6ccc3[nH]6)C=C5)C=C4)cc2)CC1
REMARK SMILES IDX 18 1 17 2 16 3 14 4 15 5 6 7 3 8 91 9 4 10 90 11 5 12 2 13
REMARK SMILES IDX 1 14 7 15 8 16 9 17 10 19 11 20 12 21 13 22 19 23 20 24
REMARK SMILES IDX 21 25 22 26 23 28 24 29 25 30 89 31 26 32 88 33 27 34 28 35
REMARK SMILES IDX 29 36 82 37 30 38 87 39 81 40 83 41 31 42 86 43 80 44 79 45
REMARK SMILES IDX 32 47 66 48 45 49 65 50 46 51 49 52 64 53 84 54 47 55 48 56
REMARK SMILES IDX 63 58 85 59 50 60 33 61 34 62 43 63 35 64 36 65 42 66 44 67
REMARK SMILES IDX 37 68 38 69 39 70 40 71 41 72 67 73 68 74 77 75 69 76 70 77
REMARK SMILES IDX 76 78 78 79 71 80 72 81 73 82 74 83 75 84 51 85 52 86 61 87
REMARK SMILES IDX 53 88 54 89 60 90 62 91 55 92 56 93 57 94 58 95 59 96
REMARK H PARENT 16 6 9 18 21 27 83 46 49 57
REMARK Flexibility Score: inf
ROOT
ATOM      1  C   UNL A   1      31.726  27.640  26.458  1.00  0.00     0.023 C 
ENDROOT
BRANCH   1   2
ATOM      2  C   UNL A   1      31.002  26.546  25.685  1.00  0.00     0.116 C 
BRANCH   2   3
ATOM      3  N   UNL A   1      30.806  25.334  26.458  1.00  0.00    -0.356 N 
ATOM      4  C   UNL A   1      31.529  24.197  26.611  1.00  0.00     0.226 C 
ATOM      5  O   UNL A   1      31.176  23.477  27.553  1.00  0.00    -0.274 OA
ATOM      6  H   UNL A   1      29.972  25.338  26.983  1.00  0.00     0.163 HD
BRANCH   4   7
ATOM      7  C   UNL A   1      32.774  23.820  25.762  1.00  0.00     0.052 C 
ATOM      8  C   UNL A   1      35.808  23.358  25.932  1.00  0.00    -0.011 C 
ATOM      9  C   UNL A   1      35.221  24.690  25.455  1.00  0.00     0.005 C 
ATOM     10  C   UNL A   1      34.820  22.220  25.681  1.00  0.00     0.005 C 
ATOM     11  C   UNL A   1      33.836  24.947  26.052  1.00  0.00     0.017 C 
ATOM     12  C   UNL A   1      33.423  22.499  26.233  1.00  0.00     0.017 C 
BRANCH   8  13
ATOM     13  C   UNL A   1      37.160  23.096  25.242  1.00  0.00    -0.000 C 
ATOM     14  C   UNL A   1      37.023  22.448  23.871  1.00  0.00     0.004 C 
ENDBRANCH   8  13
BRANCH   7  15
ATOM     15  C   UNL A   1      32.467  23.890  24.228  1.00  0.00     0.058 C 
BRANCH  15  16
ATOM     16  C   UNL A   1      31.514  22.867  23.590  1.00  0.00     0.220 C 
BRANCH  16  17
ATOM     17  O   UNL A   1      30.426  23.513  22.912  1.00  0.00    -0.384 OA
ATOM     18  H   UNL A   1      30.773  24.047  22.180  1.00  0.00     0.211 HD
ENDBRANCH  16  17
BRANCH  16  19
ATOM     19  C   UNL A   1      32.285  21.933  22.631  1.00  0.00     0.414 C 
ATOM     20  F   UNL A   1      33.153  21.158  23.328  1.00  0.00    -0.168 F 
ATOM     21  F   UNL A   1      31.454  21.099  21.970  1.00  0.00    -0.168 F 
ATOM     22  F   UNL A   1      33.003  22.626  21.720  1.00  0.00    -0.168 F 
ENDBRANCH  16  19
ENDBRANCH  15  16
ENDBRANCH   7  15
ENDBRANCH   4   7
ENDBRANCH   2   3
ENDBRANCH   1   2
BRANCH   1  23
ATOM     23  C   UNL A   1      32.525  28.607  25.588  1.00  0.00     0.023 C 
BRANCH  23  24
ATOM     24  C   UNL A   1      33.833  29.111  26.193  1.00  0.00     0.116 C 
BRANCH  24  25
ATOM     25  N   UNL A   1      33.759  30.467  26.724  1.00  0.00    -0.352 N 
ATOM     26  C   UNL A   1      34.636  31.084  27.589  1.00  0.00     0.251 C 
ATOM     27  H   UNL A   1      32.990  31.007  26.430  1.00  0.00     0.163 HD
ATOM     28  O   UNL A   1      34.431  32.217  28.002  1.00  0.00    -0.269 OA
BRANCH  26  29
ATOM     29  C   UNL A   1      35.807  30.311  28.044  1.00  0.00     0.039 A 
ATOM     30  C   UNL A   1      36.997  30.404  27.319  1.00  0.00     0.014 A 
ATOM     31  C   UNL A   1      35.756  29.637  29.266  1.00  0.00     0.014 A 
ATOM     32  C   UNL A   1      38.173  29.899  27.874  1.00  0.00     0.010 A 
ATOM     33  C   UNL A   1      36.939  29.194  29.843  1.00  0.00     0.010 A 
ATOM     34  C   UNL A   1      38.160  29.343  29.164  1.00  0.00    -0.014 A 
BRANCH  34  35
ATOM     35  C   UNL A   1      39.409  28.936  29.852  1.00  0.00     0.031 A 
ATOM     36  C   UNL A   1      39.915  29.747  31.009  1.00  0.00     0.074 A 
ATOM     37  C   UNL A   1      40.148  27.924  29.355  1.00  0.00     0.049 A 
ATOM     38  N   UNL A   1      41.067  29.681  31.623  1.00  0.00    -0.248 NA
ATOM     39  C   UNL A   1      39.018  30.797  31.513  1.00  0.00     0.031 C 
ATOM     40  C   UNL A   1      39.790  27.098  28.201  1.00  0.00     0.029 A 
ATOM     41  N   UNL A   1      41.372  27.439  29.742  1.00  0.00    -0.354 N 
ATOM     42  C   UNL A   1      41.050  30.705  32.560  1.00  0.00     0.074 A 
ATOM     43  C   UNL A   1      39.788  31.398  32.408  1.00  0.00     0.031 C 
ATOM     44  C   UNL A   1      40.769  26.208  27.975  1.00  0.00     0.029 A 
ATOM     45  C   UNL A   1      41.841  26.425  28.942  1.00  0.00     0.049 A 
ATOM     46  H   UNL A   1      41.868  27.784  30.520  1.00  0.00     0.167 HD
ATOM     47  C   UNL A   1      41.996  31.033  33.472  1.00  0.00     0.037 A 
ATOM     48  C   UNL A   1      43.010  25.756  28.972  1.00  0.00     0.037 A 
ATOM     49  C   UNL A   1      43.233  30.319  33.642  1.00  0.00     0.049 A 
ATOM     50  C   UNL A   1      44.025  26.098  30.026  1.00  0.00     0.074 A 
ATOM     51  C   UNL A   1      44.233  30.534  34.572  1.00  0.00     0.029 A 
ATOM     52  N   UNL A   1      43.635  29.244  32.861  1.00  0.00    -0.354 N 
ATOM     53  N   UNL A   1      43.977  27.042  30.935  1.00  0.00    -0.248 NA
ATOM     54  C   UNL A   1      45.248  25.283  30.064  1.00  0.00     0.031 C 
ATOM     55  C   UNL A   1      45.250  29.600  34.343  1.00  0.00     0.029 A 
ATOM     56  C   UNL A   1      44.869  28.785  33.289  1.00  0.00     0.049 A 
ATOM     57  H   UNL A   1      43.120  28.864  32.114  1.00  0.00     0.167 HD
ATOM     58  C   UNL A   1      45.152  26.924  31.668  1.00  0.00     0.074 A 
ATOM     59  C   UNL A   1      45.889  25.813  31.098  1.00  0.00     0.031 C 
ATOM     60  C   UNL A   1      45.581  27.669  32.716  1.00  0.00     0.037 A 
BRANCH  47  61
ATOM     61  C   UNL A   1      41.715  32.224  34.343  1.00  0.00     0.058 A 
ATOM     62  C   UNL A   1      40.983  32.105  35.535  1.00  0.00     0.135 A 
ATOM     63  C   UNL A   1      42.150  33.504  33.965  1.00  0.00     0.135 A 
ATOM     64  F   UNL A   1      40.528  30.905  35.933  1.00  0.00    -0.206 F 
ATOM     65  C   UNL A   1      40.645  33.220  36.296  1.00  0.00     0.059 A 
ATOM     66  C   UNL A   1      41.845  34.630  34.723  1.00  0.00     0.059 A 
ATOM     67  F   UNL A   1      42.854  33.672  32.835  1.00  0.00    -0.206 F 
ATOM     68  C   UNL A   1      41.070  34.481  35.872  1.00  0.00     0.060 A 
BRANCH  68  69
ATOM     69  S   UNL A   1      40.586  35.928  36.835  1.00  0.00     0.124 S 
ATOM     70  O   UNL A   1      39.747  36.643  35.878  1.00  0.00    -0.237 OA
ATOM     71  O   UNL A   1      39.886  35.336  37.971  1.00  0.00    -0.237 OA
ATOM     72  O   UNL A   1      41.861  36.562  37.152  1.00  0.00    -0.744 OA
ENDBRANCH  68  69
ENDBRANCH  47  61
BRANCH  48  73
ATOM     73  C   UNL A   1      43.261  24.680  27.980  1.00  0.00     0.058 A 
ATOM     74  C   UNL A   1      43.930  24.955  26.778  1.00  0.00     0.135 A 
ATOM     75  C   UNL A   1      42.899  23.350  28.239  1.00  0.00     0.135 A 
ATOM     76  F   UNL A   1      44.291  26.214  26.485  1.00  0.00    -0.206 F 
ATOM     77  C   UNL A   1      44.237  23.949  25.868  1.00  0.00     0.059 A 
ATOM     78  C   UNL A   1      43.209  22.323  27.352  1.00  0.00     0.059 A 
ATOM     79  F   UNL A   1      42.274  23.034  29.383  1.00  0.00    -0.206 F 
ATOM     80  C   UNL A   1      43.878  22.633  26.169  1.00  0.00     0.060 A 
BRANCH  80  81
ATOM     81  S   UNL A   1      44.365  21.319  25.028  1.00  0.00     0.124 S 
ATOM     82  O   UNL A   1      43.358  20.302  25.303  1.00  0.00    -0.237 OA
ATOM     83  O   UNL A   1      44.265  21.984  23.731  1.00  0.00    -0.237 OA
ATOM     84  O   UNL A   1      45.724  20.997  25.451  1.00  0.00    -0.744 OA
ENDBRANCH  80  81
ENDBRANCH  48  73
BRANCH  60  85
ATOM     85  C   UNL A   1      46.890  27.289  33.344  1.00  0.00     0.058 A 
ATOM     86  C   UNL A   1      46.961  26.344  34.378  1.00  0.00     0.135 A 
ATOM     87  C   UNL A   1      48.092  27.824  32.855  1.00  0.00     0.135 A 
ATOM     88  F   UNL A   1      45.839  25.809  34.884  1.00  0.00    -0.206 F 
ATOM     89  C   UNL A   1      48.183  25.944  34.912  1.00  0.00     0.059 A 
ATOM     90  C   UNL A   1      49.325  27.426  33.361  1.00  0.00     0.059 A 
ATOM     91  F   UNL A   1      48.075  28.727  31.862  1.00  0.00    -0.206 F 
ATOM     92  C   UNL A   1      49.359  26.490  34.394  1.00  0.00     0.060 A 
BRANCH  92  93
ATOM     93  S   UNL A   1      50.943  25.924  35.053  1.00  0.00     0.124 S 
ATOM     94  O   UNL A   1      51.031  24.581  34.490  1.00  0.00    -0.237 OA
ATOM     95  O   UNL A   1      51.879  26.903  34.508  1.00  0.00    -0.237 OA
ATOM     96  O   UNL A   1      50.750  25.989  36.498  1.00  0.00    -0.744 OA
ENDBRANCH  92  93
ENDBRANCH  60  85
ENDBRANCH  34  35
ENDBRANCH  26  29
ENDBRANCH  24  25
ENDBRANCH  23  24
ENDBRANCH   1  23
TORSDOF 19
ENDMDL
MODEL 2
REMARK VINA RESULT:     -10.9      3.761      9.827
REMARK SMILES CC[C@H]1CC[C@](C[C@@H](O)C(F)(F)F)(C(=O)NCCCCNC(=O)c2ccc(-c3c4nc(c(-c5c(F)cc(S(=O)(=O)[O-])cc5F)c5ccc([nH]5)c(-c5c(F)cc(S(=O)(=O)[O-])cc5F)c5nc(c(-c6c(F)cc(S(=O)(=O)[O-])cc6F)c6ccc3[nH]6)C=C5)C=C4)cc2)CC1
REMARK SMILES IDX 18 1 17 2 16 3 14 4 15 5 6 7 3 8 91 9 4 10 90 11 5 12 2 13
REMARK SMILES IDX 1 14 7 15 8 16 9 17 10 19 11 20 12 21 13 22 19 23 20 24
REMARK SMILES IDX 21 25 22 26 23 28 24 29 25 30 89 31 26 32 88 33 27 34 28 35
REMARK SMILES IDX 29 36 82 37 30 38 87 39 81 40 83 41 31 42 86 43 80 44 79 45
REMARK SMILES IDX 32 47 66 48 45 49 65 50 46 51 49 52 64 53 84 54 47 55 48 56
REMARK SMILES IDX 63 58 85 59 50 60 33 61 34 62 43 63 35 64 36 65 42 66 44 67
REMARK SMILES IDX 37 68 38 69 39 70 40 71 41 72 67 73 68 74 77 75 69 76 70 77
REMARK SMILES IDX 76 78 78 79 71 80 72 81 73 82 74 83 75 84 51 85 52 86 61 87
REMARK SMILES IDX 53 88 54 89 60 90 62 91 55 92 56 93 57 94 58 95 59 96
REMARK H PARENT 16 6 9 18 21 27 83 46 49 57
REMARK Flexibility Score: inf
ROOT
ATOM      1  C   UNL A   1      35.795  23.200  25.987  1.00  0.00     0.023 C 
ENDROOT
BRANCH   1   2
ATOM      2  C   UNL A   1      35.076  24.371  25.332  1.00  0.00     0.116 C 
BRANCH   2   3
ATOM      3  N   UNL A   1      34.671  24.101  23.964  1.00  0.00    -0.356 N 
ATOM      4  C   UNL A   1      33.814  24.710  23.107  1.00  0.00     0.226 C 
ATOM      5  O   UNL A   1      33.911  24.348  21.929  1.00  0.00    -0.274 OA
ATOM      6  H   UNL A   1      35.112  23.310  23.577  1.00  0.00     0.163 HD
BRANCH   4   7
ATOM      7  C   UNL A   1      32.832  25.848  23.499  1.00  0.00     0.052 C 
ATOM      8  C   UNL A   1      29.902  26.745  23.263  1.00  0.00    -0.011 C 
ATOM      9  C   UNL A   1      30.986  27.278  22.322  1.00  0.00     0.005 C 
ATOM     10  C   UNL A   1      30.518  26.303  24.589  1.00  0.00     0.005 C 
ATOM     11  C   UNL A   1      32.134  26.281  22.155  1.00  0.00     0.017 C 
ATOM     12  C   UNL A   1      31.697  25.346  24.420  1.00  0.00     0.017 C 
BRANCH   8  13
ATOM     13  C   UNL A   1      28.810  27.811  23.474  1.00  0.00    -0.000 C 
ATOM     14  C   UNL A   1      28.976  29.032  22.578  1.00  0.00     0.004 C 
ENDBRANCH   8  13
BRANCH   7  15
ATOM     15  C   UNL A   1      33.594  27.110  24.025  1.00  0.00     0.058 C 
BRANCH  15  16
ATOM     16  C   UNL A   1      33.160  27.774  25.340  1.00  0.00     0.220 C 
BRANCH  16  17
ATOM     17  O   UNL A   1      34.208  27.740  26.319  1.00  0.00    -0.384 OA
ATOM     18  H   UNL A   1      35.067  27.677  25.872  1.00  0.00     0.211 HD
ENDBRANCH  16  17
BRANCH  16  19
ATOM     19  C   UNL A   1      32.690  29.224  25.086  1.00  0.00     0.414 C 
ATOM     20  F   UNL A   1      32.899  29.564  23.790  1.00  0.00    -0.168 F 
ATOM     21  F   UNL A   1      31.369  29.371  25.324  1.00  0.00    -0.168 F 
ATOM     22  F   UNL A   1      33.359  30.113  25.851  1.00  0.00    -0.168 F 
ENDBRANCH  16  19
ENDBRANCH  15  16
ENDBRANCH   7  15
ENDBRANCH   4   7
ENDBRANCH   2   3
ENDBRANCH   1   2
BRANCH   1  23
ATOM     23  C   UNL A   1      37.262  23.057  25.592  1.00  0.00     0.023 C 
BRANCH  23  24
ATOM     24  C   UNL A   1      38.202  24.124  26.148  1.00  0.00     0.116 C 
BRANCH  24  25
ATOM     25  N   UNL A   1      39.609  23.742  26.134  1.00  0.00    -0.352 N 
ATOM     26  C   UNL A   1      40.663  24.383  26.749  1.00  0.00     0.251 C 
ATOM     27  H   UNL A   1      39.834  22.930  25.624  1.00  0.00     0.163 HD
ATOM     28  O   UNL A   1      41.812  23.985  26.617  1.00  0.00    -0.269 OA
BRANCH  26  29
ATOM     29  C   UNL A   1      40.365  25.596  27.531  1.00  0.00     0.039 A 
ATOM     30  C   UNL A   1      39.395  25.530  28.533  1.00  0.00     0.014 A 
ATOM     31  C   UNL A   1      41.160  26.733  27.369  1.00  0.00     0.014 A 
ATOM     32  C   UNL A   1      39.288  26.578  29.448  1.00  0.00     0.010 A 
ATOM     33  C   UNL A   1      41.095  27.744  28.320  1.00  0.00     0.010 A 
ATOM     34  C   UNL A   1      40.176  27.663  29.380  1.00  0.00    -0.014 A 
BRANCH  34  35
ATOM     35  C   UNL A   1      40.199  28.720  30.421  1.00  0.00     0.031 A 
ATOM     36  C   UNL A   1      41.100  28.569  31.611  1.00  0.00     0.074 A 
ATOM     37  C   UNL A   1      39.320  29.741  30.357  1.00  0.00     0.049 A 
ATOM     38  N   UNL A   1      41.137  29.269  32.714  1.00  0.00    -0.248 NA
ATOM     39  C   UNL A   1      42.058  27.454  31.567  1.00  0.00     0.031 C 
ATOM     40  C   UNL A   1      38.356  29.966  29.279  1.00  0.00     0.029 A 
ATOM     41  N   UNL A   1      39.077  30.765  31.238  1.00  0.00    -0.354 N 
ATOM     42  C   UNL A   1      42.094  28.657  33.513  1.00  0.00     0.074 A 
ATOM     43  C   UNL A   1      42.587  27.510  32.781  1.00  0.00     0.031 C 
ATOM     44  C   UNL A   1      37.627  31.058  29.561  1.00  0.00     0.029 A 
ATOM     45  C   UNL A   1      38.046  31.589  30.854  1.00  0.00     0.049 A 
ATOM     46  H   UNL A   1      39.592  30.897  32.067  1.00  0.00     0.167 HD
ATOM     47  C   UNL A   1      42.530  29.025  34.741  1.00  0.00     0.037 A 
ATOM     48  C   UNL A   1      37.487  32.642  31.482  1.00  0.00     0.037 A 
ATOM     49  C   UNL A   1      42.061  30.186  35.448  1.00  0.00     0.049 A 
ATOM     50  C   UNL A   1      38.022  33.067  32.820  1.00  0.00     0.074 A 
ATOM     51  C   UNL A   1      42.478  30.678  36.671  1.00  0.00     0.029 A 
ATOM     52  N   UNL A   1      41.070  31.042  34.988  1.00  0.00    -0.354 N 
ATOM     53  N   UNL A   1      38.958  32.505  33.546  1.00  0.00    -0.248 NA
ATOM     54  C   UNL A   1      37.431  34.270  33.423  1.00  0.00     0.031 C 
ATOM     55  C   UNL A   1      41.725  31.823  36.960  1.00  0.00     0.029 A 
ATOM     56  C   UNL A   1      40.861  32.060  35.903  1.00  0.00     0.049 A 
ATOM     57  H   UNL A   1      40.587  30.941  34.136  1.00  0.00     0.167 HD
ATOM     58  C   UNL A   1      39.085  33.295  34.682  1.00  0.00     0.074 A 
ATOM     59  C   UNL A   1      38.132  34.378  34.545  1.00  0.00     0.031 C 
ATOM     60  C   UNL A   1      39.916  33.137  35.742  1.00  0.00     0.037 A 
BRANCH  47  61
ATOM     61  C   UNL A   1      43.561  28.144  35.386  1.00  0.00     0.058 A 
ATOM     62  C   UNL A   1      43.199  26.980  36.083  1.00  0.00     0.135 A 
ATOM     63  C   UNL A   1      44.922  28.485  35.340  1.00  0.00     0.135 A 
ATOM     64  F   UNL A   1      41.909  26.618  36.173  1.00  0.00    -0.206 F 
ATOM     65  C   UNL A   1      44.144  26.212  36.757  1.00  0.00     0.059 A 
ATOM     66  C   UNL A   1      45.887  27.718  35.985  1.00  0.00     0.059 A 
ATOM     67  F   UNL A   1      45.321  29.587  34.687  1.00  0.00    -0.206 F 
ATOM     68  C   UNL A   1      45.485  26.599  36.713  1.00  0.00     0.060 A 
BRANCH  68  69
ATOM     69  S   UNL A   1      46.699  25.628  37.630  1.00  0.00     0.124 S 
ATOM     70  O   UNL A   1      46.337  25.944  39.009  1.00  0.00    -0.237 OA
ATOM     71  O   UNL A   1      46.410  24.265  37.197  1.00  0.00    -0.237 OA
ATOM     72  O   UNL A   1      47.975  26.169  37.174  1.00  0.00    -0.744 OA
ENDBRANCH  68  69
ENDBRANCH  47  61
BRANCH  48  73
ATOM     73  C   UNL A   1      36.373  33.374  30.828  1.00  0.00     0.058 A 
ATOM     74  C   UNL A   1      35.067  33.291  31.334  1.00  0.00     0.135 A 
ATOM     75  C   UNL A   1      36.600  34.219  29.731  1.00  0.00     0.135 A 
ATOM     76  F   UNL A   1      34.802  32.492  32.378  1.00  0.00    -0.206 F 
ATOM     77  C   UNL A   1      34.024  34.025  30.778  1.00  0.00     0.059 A 
ATOM     78  C   UNL A   1      35.576  34.975  29.169  1.00  0.00     0.059 A 
ATOM     79  F   UNL A   1      37.836  34.345  29.225  1.00  0.00    -0.206 F 
ATOM     80  C   UNL A   1      34.291  34.871  29.700  1.00  0.00     0.060 A 
BRANCH  80  81
ATOM     81  S   UNL A   1      32.951  35.892  29.046  1.00  0.00     0.124 S 
ATOM     82  O   UNL A   1      33.689  36.988  28.432  1.00  0.00    -0.237 OA
ATOM     83  O   UNL A   1      32.284  34.975  28.126  1.00  0.00    -0.237 OA
ATOM     84  O   UNL A   1      32.181  36.235  30.238  1.00  0.00    -0.744 OA
ENDBRANCH  80  81
ENDBRANCH  48  73
BRANCH  60  85
ATOM     85  C   UNL A   1      39.862  34.175  36.824  1.00  0.00     0.058 A 
ATOM     86  C   UNL A   1      40.553  35.390  36.709  1.00  0.00     0.135 A 
ATOM     87  C   UNL A   1      39.050  33.980  37.953  1.00  0.00     0.135 A 
ATOM     88  F   UNL A   1      41.347  35.620  35.651  1.00  0.00    -0.206 F 
ATOM     89  C   UNL A   1      40.446  36.379  37.683  1.00  0.00     0.059 A 
ATOM     90  C   UNL A   1      38.915  34.962  38.929  1.00  0.00     0.059 A 
ATOM     91  F   UNL A   1      38.365  32.836  38.103  1.00  0.00    -0.206 F 
ATOM     92  C   UNL A   1      39.622  36.156  38.788  1.00  0.00     0.060 A 
BRANCH  92  93
ATOM     93  S   UNL A   1      39.444  37.466  40.019  1.00  0.00     0.124 S 
ATOM     94  O   UNL A   1      38.495  38.358  39.361  1.00  0.00    -0.237 OA
ATOM     95  O   UNL A   1      38.935  36.742  41.179  1.00  0.00    -0.237 OA
ATOM     96  O   UNL A   1      40.802  37.984  40.159  1.00  0.00    -0.744 OA
ENDBRANCH  92  93
ENDBRANCH  60  85
ENDBRANCH  34  35
ENDBRANCH  26  29
ENDBRANCH  24  25
ENDBRANCH  23  24
ENDBRANCH   1  23
TORSDOF 19
ENDMDL
MODEL 3
REMARK VINA RESULT:     -10.8      4.630      5.779
REMARK SMILES CC[C@H]1CC[C@](C[C@@H](O)C(F)(F)F)(C(=O)NCCCCNC(=O)c2ccc(-c3c4nc(c(-c5c(F)cc(S(=O)(=O)[O-])cc5F)c5ccc([nH]5)c(-c5c(F)cc(S(=O)(=O)[O-])cc5F)c5nc(c(-c6c(F)cc(S(=O)(=O)[O-])cc6F)c6ccc3[nH]6)C=C5)C=C4)cc2)CC1
REMARK SMILES IDX 18 1 17 2 16 3 14 4 15 5 6 7 3 8 91 9 4 10 90 11 5 12 2 13
REMARK SMILES IDX 1 14 7 15 8 16 9 17 10 19 11 20 12 21 13 22 19 23 20 24
REMARK SMILES IDX 21 25 22 26 23 28 24 29 25 30 89 31 26 32 88 33 27 34 28 35
REMARK SMILES IDX 29 36 82 37 30 38 87 39 81 40 83 41 31 42 86 43 80 44 79 45
REMARK SMILES IDX 32 47 66 48 45 49 65 50 46 51 49 52 64 53 84 54 47 55 48 56
REMARK SMILES IDX 63 58 85 59 50 60 33 61 34 62 43 63 35 64 36 65 42 66 44 67
REMARK SMILES IDX 37 68 38 69 39 70 40 71 41 72 67 73 68 74 77 75 69 76 70 77
REMARK SMILES IDX 76 78 78 79 71 80 72 81 73 82 74 83 75 84 51 85 52 86 61 87
REMARK SMILES IDX 53 88 54 89 60 90 62 91 55 92 56 93 57 94 58 95 59 96
REMARK H PARENT 16 6 9 18 21 27 83 46 49 57
REMARK Flexibility Score: inf
ROOT
ATOM      1  C   UNL A   1      33.076  30.477  26.968  1.00  0.00     0.023 C 
ENDROOT
BRANCH   1   2
ATOM      2  C   UNL A   1      32.165  29.571  26.151  1.00  0.00     0.116 C 
BRANCH   2   3
ATOM      3  N   UNL A   1      32.463  29.591  24.731  1.00  0.00    -0.356 N 
ATOM      4  C   UNL A   1      32.542  28.626  23.780  1.00  0.00     0.226 C 
ATOM      5  O   UNL A   1      32.571  29.043  22.616  1.00  0.00    -0.274 OA
ATOM      6  H   UNL A   1      32.644  30.495  24.384  1.00  0.00     0.163 HD
BRANCH   4   7
ATOM      7  C   UNL A   1      32.507  27.100  24.065  1.00  0.00     0.052 C 
ATOM      8  C   UNL A   1      32.035  25.033  26.291  1.00  0.00    -0.011 C 
ATOM      9  C   UNL A   1      33.446  25.465  25.877  1.00  0.00     0.005 C 
ATOM     10  C   UNL A   1      31.058  25.225  25.132  1.00  0.00     0.005 C 
ATOM     11  C   UNL A   1      33.460  26.882  25.300  1.00  0.00     0.017 C 
ATOM     12  C   UNL A   1      31.109  26.625  24.523  1.00  0.00     0.017 C 
BRANCH   8  13
ATOM     13  C   UNL A   1      32.050  23.573  26.783  1.00  0.00    -0.000 C 
ATOM     14  C   UNL A   1      30.945  22.720  26.175  1.00  0.00     0.004 C 
ENDBRANCH   8  13
BRANCH   7  15
ATOM     15  C   UNL A   1      33.124  26.279  22.883  1.00  0.00     0.058 C 
BRANCH  15  16
ATOM     16  C   UNL A   1      32.307  25.158  22.221  1.00  0.00     0.220 C 
BRANCH  16  17
ATOM     17  O   UNL A   1      32.047  25.443  20.839  1.00  0.00    -0.384 OA
ATOM     18  H   UNL A   1      32.867  25.352  20.330  1.00  0.00     0.211 HD
ENDBRANCH  16  17
BRANCH  16  19
ATOM     19  C   UNL A   1      33.026  23.800  22.379  1.00  0.00     0.414 C 
ATOM     20  F   UNL A   1      33.237  23.236  21.163  1.00  0.00    -0.168 F 
ATOM     21  F   UNL A   1      34.236  23.939  22.963  1.00  0.00    -0.168 F 
ATOM     22  F   UNL A   1      32.301  22.927  23.110  1.00  0.00    -0.168 F 
ENDBRANCH  16  19
ENDBRANCH  15  16
ENDBRANCH   7  15
ENDBRANCH   4   7
ENDBRANCH   2   3
ENDBRANCH   1   2
BRANCH   1  23
ATOM     23  C   UNL A   1      34.391  29.831  27.397  1.00  0.00     0.023 C 
BRANCH  23  24
ATOM     24  C   UNL A   1      35.470  30.795  27.884  1.00  0.00     0.116 C 
BRANCH  24  25
ATOM     25  N   UNL A   1      35.415  31.076  29.314  1.00  0.00    -0.352 N 
ATOM     26  C   UNL A   1      36.327  30.713  30.281  1.00  0.00     0.251 C 
ATOM     27  H   UNL A   1      34.633  31.587  29.625  1.00  0.00     0.163 HD
ATOM     28  O   UNL A   1      36.136  30.969  31.461  1.00  0.00    -0.269 OA
BRANCH  26  29
ATOM     29  C   UNL A   1      37.517  29.956  29.851  1.00  0.00     0.039 A 
ATOM     30  C   UNL A   1      37.963  30.094  28.535  1.00  0.00     0.014 A 
ATOM     31  C   UNL A   1      38.263  29.249  30.797  1.00  0.00     0.014 A 
ATOM     32  C   UNL A   1      39.221  29.603  28.188  1.00  0.00     0.010 A 
ATOM     33  C   UNL A   1      39.541  28.819  30.464  1.00  0.00     0.010 A 
ATOM     34  C   UNL A   1      40.041  29.014  29.165  1.00  0.00    -0.014 A 
BRANCH  34  35
ATOM     35  C   UNL A   1      41.440  28.618  28.876  1.00  0.00     0.031 A 
ATOM     36  C   UNL A   1      42.514  29.666  28.838  1.00  0.00     0.074 A 
ATOM     37  C   UNL A   1      41.718  27.347  28.522  1.00  0.00     0.049 A 
ATOM     38  N   UNL A   1      43.750  29.569  28.424  1.00  0.00    -0.248 NA
ATOM     39  C   UNL A   1      42.128  31.012  29.288  1.00  0.00     0.031 C 
ATOM     40  C   UNL A   1      40.749  26.250  28.468  1.00  0.00     0.029 A 
ATOM     41  N   UNL A   1      42.894  26.771  28.112  1.00  0.00    -0.354 N 
ATOM     42  C   UNL A   1      44.280  30.848  28.527  1.00  0.00     0.074 A 
ATOM     43  C   UNL A   1      43.220  31.709  29.008  1.00  0.00     0.031 C 
ATOM     44  C   UNL A   1      41.370  25.136  28.050  1.00  0.00     0.029 A 
ATOM     45  C   UNL A   1      42.769  25.446  27.772  1.00  0.00     0.049 A 
ATOM     46  H   UNL A   1      43.747  27.261  28.066  1.00  0.00     0.167 HD
ATOM     47  C   UNL A   1      45.539  31.266  28.255  1.00  0.00     0.037 A 
ATOM     48  C   UNL A   1      43.674  24.581  27.274  1.00  0.00     0.037 A 
ATOM     49  C   UNL A   1      46.597  30.399  27.810  1.00  0.00     0.049 A 
ATOM     50  C   UNL A   1      45.081  25.050  27.030  1.00  0.00     0.074 A 
ATOM     51  C   UNL A   1      47.920  30.711  27.560  1.00  0.00     0.029 A 
ATOM     52  N   UNL A   1      46.448  29.043  27.553  1.00  0.00    -0.354 N 
ATOM     53  N   UNL A   1      45.580  26.254  27.173  1.00  0.00    -0.248 NA
ATOM     54  C   UNL A   1      46.047  24.046  26.564  1.00  0.00     0.031 C 
ATOM     55  C   UNL A   1      48.570  29.546  27.135  1.00  0.00     0.029 A 
ATOM     56  C   UNL A   1      47.657  28.503  27.148  1.00  0.00     0.049 A 
ATOM     57  H   UNL A   1      45.608  28.539  27.646  1.00  0.00     0.167 HD
ATOM     58  C   UNL A   1      46.924  26.151  26.834  1.00  0.00     0.074 A 
ATOM     59  C   UNL A   1      47.160  24.764  26.484  1.00  0.00     0.031 C 
ATOM     60  C   UNL A   1      47.875  27.117  26.815  1.00  0.00     0.037 A 
BRANCH  47  61
ATOM     61  C   UNL A   1      45.820  32.731  28.428  1.00  0.00     0.058 A 
ATOM     62  C   UNL A   1      45.679  33.636  27.364  1.00  0.00     0.135 A 
ATOM     63  C   UNL A   1      46.270  33.231  29.660  1.00  0.00     0.135 A 
ATOM     64  F   UNL A   1      45.269  33.206  26.160  1.00  0.00    -0.206 F 
ATOM     65  C   UNL A   1      46.025  34.977  27.499  1.00  0.00     0.059 A 
ATOM     66  C   UNL A   1      46.598  34.573  29.825  1.00  0.00     0.059 A 
ATOM     67  F   UNL A   1      46.421  32.409  30.709  1.00  0.00    -0.206 F 
ATOM     68  C   UNL A   1      46.497  35.433  28.732  1.00  0.00     0.060 A 
BRANCH  68  69
ATOM     69  S   UNL A   1      46.992  37.161  28.887  1.00  0.00     0.124 S 
ATOM     70  O   UNL A   1      46.260  37.770  27.780  1.00  0.00    -0.237 OA
ATOM     71  O   UNL A   1      46.520  37.509  30.223  1.00  0.00    -0.237 OA
ATOM     72  O   UNL A   1      48.441  37.111  28.732  1.00  0.00    -0.744 OA
ENDBRANCH  68  69
ENDBRANCH  47  61
BRANCH  48  73
ATOM     73  C   UNL A   1      43.270  23.178  27.000  1.00  0.00     0.058 A 
ATOM     74  C   UNL A   1      43.169  22.706  25.684  1.00  0.00     0.135 A 
ATOM     75  C   UNL A   1      43.043  22.268  28.044  1.00  0.00     0.135 A 
ATOM     76  F   UNL A   1      43.372  23.542  24.654  1.00  0.00    -0.206 F 
ATOM     77  C   UNL A   1      42.860  21.378  25.408  1.00  0.00     0.059 A 
ATOM     78  C   UNL A   1      42.750  20.931  27.794  1.00  0.00     0.059 A 
ATOM     79  F   UNL A   1      43.147  22.669  29.319  1.00  0.00    -0.206 F 
ATOM     80  C   UNL A   1      42.660  20.495  26.472  1.00  0.00     0.060 A 
BRANCH  80  81
ATOM     81  S   UNL A   1      42.356  18.752  26.107  1.00  0.00     0.124 S 
ATOM     82  O   UNL A   1      42.628  18.129  27.397  1.00  0.00    -0.237 OA
ATOM     83  O   UNL A   1      40.958  18.764  25.686  1.00  0.00    -0.237 OA
ATOM     84  O   UNL A   1      43.316  18.461  25.047  1.00  0.00    -0.744 OA
ENDBRANCH  80  81
ENDBRANCH  48  73
BRANCH  60  85
ATOM     85  C   UNL A   1      49.269  26.709  26.438  1.00  0.00     0.058 A 
ATOM     86  C   UNL A   1      50.142  26.131  27.372  1.00  0.00     0.135 A 
ATOM     87  C   UNL A   1      49.708  26.829  25.110  1.00  0.00     0.135 A 
ATOM     88  F   UNL A   1      49.770  26.001  28.656  1.00  0.00    -0.206 F 
ATOM     89  C   UNL A   1      51.409  25.691  27.003  1.00  0.00     0.059 A 
ATOM     90  C   UNL A   1      50.964  26.379  24.716  1.00  0.00     0.059 A 
ATOM     91  F   UNL A   1      48.905  27.369  24.180  1.00  0.00    -0.206 F 
ATOM     92  C   UNL A   1      51.810  25.818  25.671  1.00  0.00     0.060 A 
BRANCH  92  93
ATOM     93  S   UNL A   1      53.434  25.192  25.188  1.00  0.00     0.124 S 
ATOM     94  O   UNL A   1      53.539  25.678  23.817  1.00  0.00    -0.237 OA
ATOM     95  O   UNL A   1      54.319  25.831  26.157  1.00  0.00    -0.237 OA
ATOM     96  O   UNL A   1      53.296  23.746  25.335  1.00  0.00    -0.744 OA
ENDBRANCH  92  93
ENDBRANCH  60  85
ENDBRANCH  34  35
ENDBRANCH  26  29
ENDBRANCH  24  25
ENDBRANCH  23  24
ENDBRANCH   1  23
TORSDOF 19
ENDMDL
