MODEL 1
REMARK VINA RESULT:     -13.1      0.000      0.000
REMARK SMILES CC(C)Oc1ccc([C@@H]2CC(=O)Nc3c(C(=O)NCCCCNC(=O)c4ccc(-c5c6nc(c(-c7c(F)cc(S(=O)(=O)[O-])cc7F)c7ccc([nH]7)c(-c7c(F)cc(S(=O)(=O)[O-])cc7F)c7nc(c(-c8c(F)cc(S(=O)(=O)[O-])cc8F)c8ccc5[nH]8)C=C7)C=C6)cc4)nsc32)cc1
REMARK SMILES IDX 20 1 19 2 18 3 16 4 17 5 15 7 9 8 10 9 94 10 11 11 14 12
REMARK SMILES IDX 93 13 12 14 13 15 92 16 8 18 5 19 6 20 96 21 7 22 95 23 4 24
REMARK SMILES IDX 2 25 1 26 3 27 21 28 22 29 23 30 24 31 25 33 26 34 27 35
REMARK SMILES IDX 91 36 28 37 90 38 29 39 30 40 31 41 84 42 32 43 89 44 83 45
REMARK SMILES IDX 85 46 33 47 88 48 82 49 81 50 34 52 68 53 47 54 67 55 48 56
REMARK SMILES IDX 51 57 66 58 86 59 49 60 50 61 65 63 87 64 52 65 35 66 36 67
REMARK SMILES IDX 45 68 37 69 38 70 44 71 46 72 39 73 40 74 41 75 42 76 43 77
REMARK SMILES IDX 69 78 70 79 79 80 71 81 72 82 78 83 80 84 73 85 74 86 75 87
REMARK SMILES IDX 76 88 77 89 53 90 54 91 63 92 55 93 56 94 62 95 64 96 57 97
REMARK SMILES IDX 58 98 59 99 60 100 61 101
REMARK H PARENT 18 6 13 17 23 32 85 51 51 62
REMARK Flexibility Score: inf
ROOT
ATOM      1  C   UNL A   1      35.633  21.478  26.074  1.00  0.00     0.023 C 
ENDROOT
BRANCH   1   2
ATOM      2  C   UNL A   1      35.419  20.379  25.039  1.00  0.00     0.116 C 
BRANCH   2   3
ATOM      3  N   UNL A   1      34.111  19.757  24.953  1.00  0.00    -0.351 N 
ATOM      4  C   UNL A   1      32.872  20.325  24.660  1.00  0.00     0.273 C 
ATOM      5  O   UNL A   1      31.911  19.555  24.617  1.00  0.00    -0.267 OA
ATOM      6  H   UNL A   1      34.097  18.789  25.130  1.00  0.00     0.163 HD
BRANCH   4   7
ATOM      7  C   UNL A   1      32.711  21.795  24.498  1.00  0.00     0.165 A 
ATOM      8  C   UNL A   1      30.757  24.948  25.059  1.00  0.00     0.073 C 
ATOM      9  C   UNL A   1      29.935  24.519  26.295  1.00  0.00     0.114 C 
ATOM     10  C   UNL A   1      31.739  23.902  24.658  1.00  0.00     0.058 A 
ATOM     11  C   UNL A   1      30.274  23.193  26.946  1.00  0.00     0.225 C 
ATOM     12  C   UNL A   1      31.976  22.726  25.323  1.00  0.00     0.089 A 
ATOM     13  S   UNL A   1      32.679  23.922  23.248  1.00  0.00    -0.038 S 
ATOM     14  O   UNL A   1      29.551  22.707  27.815  1.00  0.00    -0.275 OA
ATOM     15  N   UNL A   1      31.385  22.512  26.548  1.00  0.00    -0.323 N 
ATOM     16  N   UNL A   1      33.231  22.368  23.397  1.00  0.00    -0.185 NA
ATOM     17  H   UNL A   1      31.779  21.844  27.156  1.00  0.00     0.170 HD
BRANCH   8  18
ATOM     18  C   UNL A   1      31.351  26.320  25.322  1.00  0.00    -0.039 A 
ATOM     19  C   UNL A   1      32.798  28.696  25.681  1.00  0.00     0.119 A 
ATOM     20  C   UNL A   1      32.660  27.795  26.736  1.00  0.00     0.047 A 
ATOM     21  C   UNL A   1      32.221  28.407  24.449  1.00  0.00     0.047 A 
ATOM     22  C   UNL A   1      31.937  26.613  26.563  1.00  0.00     0.008 A 
ATOM     23  C   UNL A   1      31.471  27.247  24.279  1.00  0.00     0.008 A 
BRANCH  19  24
ATOM     24  O   UNL A   1      33.602  29.777  25.896  1.00  0.00    -0.491 OA
BRANCH  24  25
ATOM     25  C   UNL A   1      34.125  29.971  27.223  1.00  0.00     0.167 C 
ATOM     26  C   UNL A   1      35.593  29.577  27.366  1.00  0.00     0.052 C 
ATOM     27  C   UNL A   1      33.818  31.349  27.805  1.00  0.00     0.052 C 
ENDBRANCH  24  25
ENDBRANCH  19  24
ENDBRANCH   8  18
ENDBRANCH   4   7
ENDBRANCH   2   3
ENDBRANCH   1   2
BRANCH   1  28
ATOM     28  C   UNL A   1      36.058  22.862  25.582  1.00  0.00     0.023 C 
BRANCH  28  29
ATOM     29  C   UNL A   1      37.410  23.375  26.070  1.00  0.00     0.116 C 
BRANCH  29  30
ATOM     30  N   UNL A   1      38.423  22.344  26.265  1.00  0.00    -0.352 N 
ATOM     31  C   UNL A   1      39.782  22.542  26.487  1.00  0.00     0.251 C 
ATOM     32  H   UNL A   1      38.113  21.411  26.237  1.00  0.00     0.163 HD
ATOM     33  O   UNL A   1      40.585  21.650  26.289  1.00  0.00    -0.269 OA
BRANCH  31  34
ATOM     34  C   UNL A   1      40.232  23.874  26.954  1.00  0.00     0.039 A 
ATOM     35  C   UNL A   1      39.623  25.045  26.491  1.00  0.00     0.014 A 
ATOM     36  C   UNL A   1      41.255  23.937  27.898  1.00  0.00     0.014 A 
ATOM     37  C   UNL A   1      39.976  26.264  27.069  1.00  0.00     0.010 A 
ATOM     38  C   UNL A   1      41.525  25.125  28.543  1.00  0.00     0.010 A 
ATOM     39  C   UNL A   1      40.905  26.298  28.122  1.00  0.00    -0.014 A 
BRANCH  39  40
ATOM     40  C   UNL A   1      41.102  27.530  28.894  1.00  0.00     0.031 A 
ATOM     41  C   UNL A   1      42.198  28.407  28.386  1.00  0.00     0.074 A 
ATOM     42  C   UNL A   1      40.233  27.985  29.825  1.00  0.00     0.049 A 
ATOM     43  N   UNL A   1      43.310  28.713  28.968  1.00  0.00    -0.248 NA
ATOM     44  C   UNL A   1      42.108  28.896  26.999  1.00  0.00     0.031 C 
ATOM     45  C   UNL A   1      38.938  27.411  30.199  1.00  0.00     0.029 A 
ATOM     46  N   UNL A   1      40.272  29.135  30.557  1.00  0.00    -0.354 N 
ATOM     47  C   UNL A   1      43.955  29.618  28.125  1.00  0.00     0.074 A 
ATOM     48  C   UNL A   1      43.273  29.531  26.861  1.00  0.00     0.031 C 
ATOM     49  C   UNL A   1      38.223  28.322  30.896  1.00  0.00     0.029 A 
ATOM     50  C   UNL A   1      39.063  29.476  31.159  1.00  0.00     0.049 A 
ATOM     51  H   UNL A   1      41.086  29.680  30.651  1.00  0.00     0.167 HD
ATOM     52  C   UNL A   1      44.837  30.538  28.612  1.00  0.00     0.037 A 
ATOM     53  C   UNL A   1      38.762  30.631  31.806  1.00  0.00     0.037 A 
ATOM     54  C   UNL A   1      45.241  30.193  29.954  1.00  0.00     0.049 A 
ATOM     55  C   UNL A   1      40.049  31.263  32.188  1.00  0.00     0.074 A 
ATOM     56  C   UNL A   1      45.861  29.108  30.543  1.00  0.00     0.029 A 
ATOM     57  N   UNL A   1      44.671  30.904  30.981  1.00  0.00    -0.354 N 
ATOM     58  N   UNL A   1      40.869  30.771  33.074  1.00  0.00    -0.248 NA
ATOM     59  C   UNL A   1      40.627  32.242  31.283  1.00  0.00     0.031 C 
ATOM     60  C   UNL A   1      45.237  28.972  31.818  1.00  0.00     0.029 A 
ATOM     61  C   UNL A   1      44.324  30.018  31.966  1.00  0.00     0.049 A 
ATOM     62  H   UNL A   1      44.536  31.879  31.006  1.00  0.00     0.167 HD
ATOM     63  C   UNL A   1      42.132  31.026  32.562  1.00  0.00     0.074 A 
ATOM     64  C   UNL A   1      41.924  32.036  31.530  1.00  0.00     0.031 C 
ATOM     65  C   UNL A   1      43.177  30.187  32.830  1.00  0.00     0.037 A 
BRANCH  52  66
ATOM     66  C   UNL A   1      45.037  31.940  28.062  1.00  0.00     0.058 A 
ATOM     67  C   UNL A   1      46.316  32.311  27.586  1.00  0.00     0.135 A 
ATOM     68  C   UNL A   1      44.136  33.011  28.247  1.00  0.00     0.135 A 
ATOM     69  F   UNL A   1      47.258  31.382  27.355  1.00  0.00    -0.206 F 
ATOM     70  C   UNL A   1      46.701  33.642  27.416  1.00  0.00     0.059 A 
ATOM     71  C   UNL A   1      44.482  34.342  28.032  1.00  0.00     0.059 A 
ATOM     72  F   UNL A   1      42.903  32.841  28.736  1.00  0.00    -0.206 F 
ATOM     73  C   UNL A   1      45.780  34.652  27.663  1.00  0.00     0.060 A 
BRANCH  73  74
ATOM     74  S   UNL A   1      46.300  36.372  27.551  1.00  0.00     0.124 S 
ATOM     75  O   UNL A   1      45.074  37.070  27.924  1.00  0.00    -0.237 OA
ATOM     76  O   UNL A   1      47.388  36.425  28.521  1.00  0.00    -0.237 OA
ATOM     77  O   UNL A   1      46.706  36.509  26.155  1.00  0.00    -0.744 OA
ENDBRANCH  73  74
ENDBRANCH  52  66
BRANCH  53  78
ATOM     78  C   UNL A   1      37.469  31.363  31.897  1.00  0.00     0.058 A 
ATOM     79  C   UNL A   1      36.956  31.769  33.143  1.00  0.00     0.135 A 
ATOM     80  C   UNL A   1      36.868  31.944  30.763  1.00  0.00     0.135 A 
ATOM     81  F   UNL A   1      37.468  31.272  34.280  1.00  0.00    -0.206 F 
ATOM     82  C   UNL A   1      35.963  32.747  33.262  1.00  0.00     0.059 A 
ATOM     83  C   UNL A   1      35.869  32.913  30.855  1.00  0.00     0.059 A 
ATOM     84  F   UNL A   1      37.305  31.659  29.527  1.00  0.00    -0.206 F 
ATOM     85  C   UNL A   1      35.445  33.336  32.110  1.00  0.00     0.060 A 
BRANCH  85  86
ATOM     86  S   UNL A   1      34.326  34.749  32.263  1.00  0.00     0.124 S 
ATOM     87  O   UNL A   1      34.191  35.180  30.876  1.00  0.00    -0.237 OA
ATOM     88  O   UNL A   1      33.142  34.141  32.861  1.00  0.00    -0.237 OA
ATOM     89  O   UNL A   1      35.057  35.666  33.135  1.00  0.00    -0.744 OA
ENDBRANCH  85  86
ENDBRANCH  53  78
BRANCH  65  90
ATOM     90  C   UNL A   1      43.042  29.225  33.981  1.00  0.00     0.058 A 
ATOM     91  C   UNL A   1      43.273  29.539  35.333  1.00  0.00     0.135 A 
ATOM     92  C   UNL A   1      42.541  27.944  33.700  1.00  0.00     0.135 A 
ATOM     93  F   UNL A   1      43.648  30.771  35.705  1.00  0.00    -0.206 F 
ATOM     94  C   UNL A   1      43.068  28.602  36.349  1.00  0.00     0.059 A 
ATOM     95  C   UNL A   1      42.293  27.009  34.699  1.00  0.00     0.059 A 
ATOM     96  F   UNL A   1      42.242  27.601  32.436  1.00  0.00    -0.206 F 
ATOM     97  C   UNL A   1      42.579  27.337  36.022  1.00  0.00     0.060 A 
BRANCH  97  98
ATOM     98  S   UNL A   1      42.265  26.143  37.338  1.00  0.00     0.124 S 
ATOM     99  O   UNL A   1      40.856  26.376  37.634  1.00  0.00    -0.237 OA
ATOM    100  O   UNL A   1      42.577  24.870  36.694  1.00  0.00    -0.237 OA
ATOM    101  O   UNL A   1      43.198  26.541  38.390  1.00  0.00    -0.744 OA
ENDBRANCH  97  98
ENDBRANCH  65  90
ENDBRANCH  39  40
ENDBRANCH  31  34
ENDBRANCH  29  30
ENDBRANCH  28  29
ENDBRANCH   1  28
TORSDOF 17
ENDMDL
MODEL 2
REMARK VINA RESULT:     -12.8      1.575      2.384
REMARK SMILES CC(C)Oc1ccc([C@@H]2CC(=O)Nc3c(C(=O)NCCCCNC(=O)c4ccc(-c5c6nc(c(-c7c(F)cc(S(=O)(=O)[O-])cc7F)c7ccc([nH]7)c(-c7c(F)cc(S(=O)(=O)[O-])cc7F)c7nc(c(-c8c(F)cc(S(=O)(=O)[O-])cc8F)c8ccc5[nH]8)C=C7)C=C6)cc4)nsc32)cc1
REMARK SMILES IDX 20 1 19 2 18 3 16 4 17 5 15 7 9 8 10 9 94 10 11 11 14 12
REMARK SMILES IDX 93 13 12 14 13 15 92 16 8 18 5 19 6 20 96 21 7 22 95 23 4 24
REMARK SMILES IDX 2 25 1 26 3 27 21 28 22 29 23 30 24 31 25 33 26 34 27 35
REMARK SMILES IDX 91 36 28 37 90 38 29 39 30 40 31 41 84 42 32 43 89 44 83 45
REMARK SMILES IDX 85 46 33 47 88 48 82 49 81 50 34 52 68 53 47 54 67 55 48 56
REMARK SMILES IDX 51 57 66 58 86 59 49 60 50 61 65 63 87 64 52 65 35 66 36 67
REMARK SMILES IDX 45 68 37 69 38 70 44 71 46 72 39 73 40 74 41 75 42 76 43 77
REMARK SMILES IDX 69 78 70 79 79 80 71 81 72 82 78 83 80 84 73 85 74 86 75 87
REMARK SMILES IDX 76 88 77 89 53 90 54 91 63 92 55 93 56 94 62 95 64 96 57 97
REMARK SMILES IDX 58 98 59 99 60 100 61 101
REMARK H PARENT 18 6 13 17 23 32 85 51 51 62
REMARK Flexibility Score: inf
ROOT
ATOM      1  C   UNL A   1      35.805  21.759  24.321  1.00  0.00     0.023 C 
ENDROOT
BRANCH   1   2
ATOM      2  C   UNL A   1      35.171  21.269  25.618  1.00  0.00     0.116 C 
BRANCH   2   3
ATOM      3  N   UNL A   1      34.060  20.340  25.535  1.00  0.00    -0.351 N 
ATOM      4  C   UNL A   1      32.712  20.583  25.271  1.00  0.00     0.273 C 
ATOM      5  O   UNL A   1      31.976  19.597  25.223  1.00  0.00    -0.267 OA
ATOM      6  H   UNL A   1      34.292  19.396  25.688  1.00  0.00     0.163 HD
BRANCH   4   7
ATOM      7  C   UNL A   1      32.185  21.969  25.146  1.00  0.00     0.165 A 
ATOM      8  C   UNL A   1      32.244  25.352  23.528  1.00  0.00     0.073 C 
ATOM      9  C   UNL A   1      32.898  24.975  22.179  1.00  0.00     0.114 C 
ATOM     10  C   UNL A   1      31.983  24.152  24.370  1.00  0.00     0.058 A 
ATOM     11  C   UNL A   1      33.104  23.504  21.878  1.00  0.00     0.225 C 
ATOM     12  C   UNL A   1      32.203  22.849  24.001  1.00  0.00     0.089 A 
ATOM     13  S   UNL A   1      31.459  24.173  25.982  1.00  0.00    -0.038 S 
ATOM     14  O   UNL A   1      33.775  23.140  20.914  1.00  0.00    -0.275 OA
ATOM     15  N   UNL A   1      32.559  22.565  22.702  1.00  0.00    -0.323 N 
ATOM     16  N   UNL A   1      31.694  22.557  26.253  1.00  0.00    -0.185 NA
ATOM     17  H   UNL A   1      32.414  21.654  22.357  1.00  0.00     0.170 HD
BRANCH   8  18
ATOM     18  C   UNL A   1      31.030  26.221  23.254  1.00  0.00    -0.039 A 
ATOM     19  C   UNL A   1      28.923  28.062  23.049  1.00  0.00     0.119 A 
ATOM     20  C   UNL A   1      28.789  26.932  23.855  1.00  0.00     0.047 A 
ATOM     21  C   UNL A   1      30.108  28.275  22.354  1.00  0.00     0.047 A 
ATOM     22  C   UNL A   1      29.834  26.011  23.957  1.00  0.00     0.008 A 
ATOM     23  C   UNL A   1      31.142  27.344  22.424  1.00  0.00     0.008 A 
BRANCH  19  24
ATOM     24  O   UNL A   1      27.900  28.965  23.081  1.00  0.00    -0.491 OA
BRANCH  24  25
ATOM     25  C   UNL A   1      28.205  30.335  22.764  1.00  0.00     0.167 C 
ATOM     26  C   UNL A   1      27.984  30.688  21.295  1.00  0.00     0.052 C 
ATOM     27  C   UNL A   1      27.566  31.339  23.720  1.00  0.00     0.052 C 
ENDBRANCH  24  25
ENDBRANCH  19  24
ENDBRANCH   8  18
ENDBRANCH   4   7
ENDBRANCH   2   3
ENDBRANCH   1   2
BRANCH   1  28
ATOM     28  C   UNL A   1      36.968  22.748  24.412  1.00  0.00     0.023 C 
BRANCH  28  29
ATOM     29  C   UNL A   1      37.543  23.000  25.802  1.00  0.00     0.116 C 
BRANCH  29  30
ATOM     30  N   UNL A   1      38.587  22.066  26.212  1.00  0.00    -0.352 N 
ATOM     31  C   UNL A   1      39.888  22.383  26.586  1.00  0.00     0.251 C 
ATOM     32  H   UNL A   1      38.345  21.113  26.225  1.00  0.00     0.163 HD
ATOM     33  O   UNL A   1      40.767  21.542  26.569  1.00  0.00    -0.269 OA
BRANCH  31  34
ATOM     34  C   UNL A   1      40.185  23.778  26.990  1.00  0.00     0.039 A 
ATOM     35  C   UNL A   1      39.197  24.766  26.951  1.00  0.00     0.014 A 
ATOM     36  C   UNL A   1      41.466  24.077  27.450  1.00  0.00     0.014 A 
ATOM     37  C   UNL A   1      39.479  26.025  27.481  1.00  0.00     0.010 A 
ATOM     38  C   UNL A   1      41.710  25.284  28.071  1.00  0.00     0.010 A 
ATOM     39  C   UNL A   1      40.729  26.272  28.074  1.00  0.00    -0.014 A 
BRANCH  39  40
ATOM     40  C   UNL A   1      40.950  27.500  28.843  1.00  0.00     0.031 A 
ATOM     41  C   UNL A   1      42.064  28.355  28.335  1.00  0.00     0.074 A 
ATOM     42  C   UNL A   1      40.091  27.974  29.773  1.00  0.00     0.049 A 
ATOM     43  N   UNL A   1      43.182  28.638  28.917  1.00  0.00    -0.248 NA
ATOM     44  C   UNL A   1      41.985  28.844  26.948  1.00  0.00     0.031 C 
ATOM     45  C   UNL A   1      38.783  27.427  30.148  1.00  0.00     0.029 A 
ATOM     46  N   UNL A   1      40.152  29.124  30.504  1.00  0.00    -0.354 N 
ATOM     47  C   UNL A   1      43.845  29.529  28.073  1.00  0.00     0.074 A 
ATOM     48  C   UNL A   1      43.163  29.454  26.809  1.00  0.00     0.031 C 
ATOM     49  C   UNL A   1      38.087  28.354  30.843  1.00  0.00     0.029 A 
ATOM     50  C   UNL A   1      38.950  29.491  31.106  1.00  0.00     0.049 A 
ATOM     51  H   UNL A   1      40.977  29.653  30.598  1.00  0.00     0.167 HD
ATOM     52  C   UNL A   1      44.746  30.431  28.560  1.00  0.00     0.037 A 
ATOM     53  C   UNL A   1      38.673  30.653  31.750  1.00  0.00     0.037 A 
ATOM     54  C   UNL A   1      45.142  30.080  29.902  1.00  0.00     0.049 A 
ATOM     55  C   UNL A   1      39.972  31.258  32.133  1.00  0.00     0.074 A 
ATOM     56  C   UNL A   1      45.740  28.984  30.493  1.00  0.00     0.029 A 
ATOM     57  N   UNL A   1      44.587  30.804  30.929  1.00  0.00    -0.354 N 
ATOM     58  N   UNL A   1      40.782  30.751  33.019  1.00  0.00    -0.248 NA
ATOM     59  C   UNL A   1      40.571  32.225  31.227  1.00  0.00     0.031 C 
ATOM     60  C   UNL A   1      45.113  28.862  31.768  1.00  0.00     0.029 A 
ATOM     61  C   UNL A   1      44.221  29.926  31.914  1.00  0.00     0.049 A 
ATOM     62  H   UNL A   1      44.471  31.782  30.952  1.00  0.00     0.167 HD
ATOM     63  C   UNL A   1      42.050  30.979  32.508  1.00  0.00     0.074 A 
ATOM     64  C   UNL A   1      41.862  31.993  31.474  1.00  0.00     0.031 C 
ATOM     65  C   UNL A   1      43.077  30.120  32.777  1.00  0.00     0.037 A 
BRANCH  52  66
ATOM     66  C   UNL A   1      44.975  31.828  28.008  1.00  0.00     0.058 A 
ATOM     67  C   UNL A   1      46.248  32.157  27.487  1.00  0.00     0.135 A 
ATOM     68  C   UNL A   1      44.119  32.929  28.230  1.00  0.00     0.135 A 
ATOM     69  F   UNL A   1      47.148  31.197  27.218  1.00  0.00    -0.206 F 
ATOM     70  C   UNL A   1      46.672  33.475  27.308  1.00  0.00     0.059 A 
ATOM     71  C   UNL A   1      44.504  34.249  28.007  1.00  0.00     0.059 A 
ATOM     72  F   UNL A   1      42.900  32.800  28.763  1.00  0.00    -0.206 F 
ATOM     73  C   UNL A   1      45.797  34.515  27.593  1.00  0.00     0.060 A 
BRANCH  73  74
ATOM     74  S   UNL A   1      46.372  36.217  27.468  1.00  0.00     0.124 S 
ATOM     75  O   UNL A   1      47.650  36.041  26.787  1.00  0.00    -0.237 OA
ATOM     76  O   UNL A   1      45.309  36.840  26.687  1.00  0.00    -0.237 OA
ATOM     77  O   UNL A   1      46.452  36.646  28.862  1.00  0.00    -0.744 OA
ENDBRANCH  73  74
ENDBRANCH  52  66
BRANCH  53  78
ATOM     78  C   UNL A   1      37.395  31.411  31.840  1.00  0.00     0.058 A 
ATOM     79  C   UNL A   1      36.843  31.749  33.090  1.00  0.00     0.135 A 
ATOM     80  C   UNL A   1      36.853  32.079  30.724  1.00  0.00     0.135 A 
ATOM     81  F   UNL A   1      37.298  31.168  34.211  1.00  0.00    -0.206 F 
ATOM     82  C   UNL A   1      35.870  32.744  33.235  1.00  0.00     0.059 A 
ATOM     83  C   UNL A   1      35.874  33.066  30.842  1.00  0.00     0.059 A 
ATOM     84  F   UNL A   1      37.331  31.862  29.490  1.00  0.00    -0.206 F 
ATOM     85  C   UNL A   1      35.412  33.418  32.104  1.00  0.00     0.060 A 
BRANCH  85  86
ATOM     86  S   UNL A   1      34.321  34.848  32.306  1.00  0.00     0.124 S 
ATOM     87  O   UNL A   1      35.096  35.695  33.206  1.00  0.00    -0.237 OA
ATOM     88  O   UNL A   1      34.185  35.328  30.935  1.00  0.00    -0.237 OA
ATOM     89  O   UNL A   1      33.109  34.268  32.881  1.00  0.00    -0.744 OA
ENDBRANCH  85  86
ENDBRANCH  53  78
BRANCH  65  90
ATOM     90  C   UNL A   1      42.923  29.162  33.930  1.00  0.00     0.058 A 
ATOM     91  C   UNL A   1      43.142  29.478  35.283  1.00  0.00     0.135 A 
ATOM     92  C   UNL A   1      42.413  27.884  33.647  1.00  0.00     0.135 A 
ATOM     93  F   UNL A   1      43.524  30.707  35.655  1.00  0.00    -0.206 F 
ATOM     94  C   UNL A   1      42.919  28.546  36.300  1.00  0.00     0.059 A 
ATOM     95  C   UNL A   1      42.147  26.955  34.646  1.00  0.00     0.059 A 
ATOM     96  F   UNL A   1      42.124  27.541  32.381  1.00  0.00    -0.206 F 
ATOM     97  C   UNL A   1      42.422  27.285  35.971  1.00  0.00     0.060 A 
BRANCH  97  98
ATOM     98  S   UNL A   1      42.084  26.097  37.287  1.00  0.00     0.124 S 
ATOM     99  O   UNL A   1      40.676  26.347  37.572  1.00  0.00    -0.237 OA
ATOM    100  O   UNL A   1      42.385  24.819  36.647  1.00  0.00    -0.237 OA
ATOM    101  O   UNL A   1      43.014  26.486  38.345  1.00  0.00    -0.744 OA
ENDBRANCH  97  98
ENDBRANCH  65  90
ENDBRANCH  39  40
ENDBRANCH  31  34
ENDBRANCH  29  30
ENDBRANCH  28  29
ENDBRANCH   1  28
TORSDOF 17
ENDMDL
MODEL 3
REMARK VINA RESULT:     -12.7      2.908      9.590
REMARK SMILES CC(C)Oc1ccc([C@@H]2CC(=O)Nc3c(C(=O)NCCCCNC(=O)c4ccc(-c5c6nc(c(-c7c(F)cc(S(=O)(=O)[O-])cc7F)c7ccc([nH]7)c(-c7c(F)cc(S(=O)(=O)[O-])cc7F)c7nc(c(-c8c(F)cc(S(=O)(=O)[O-])cc8F)c8ccc5[nH]8)C=C7)C=C6)cc4)nsc32)cc1
REMARK SMILES IDX 20 1 19 2 18 3 16 4 17 5 15 7 9 8 10 9 94 10 11 11 14 12
REMARK SMILES IDX 93 13 12 14 13 15 92 16 8 18 5 19 6 20 96 21 7 22 95 23 4 24
REMARK SMILES IDX 2 25 1 26 3 27 21 28 22 29 23 30 24 31 25 33 26 34 27 35
REMARK SMILES IDX 91 36 28 37 90 38 29 39 30 40 31 41 84 42 32 43 89 44 83 45
REMARK SMILES IDX 85 46 33 47 88 48 82 49 81 50 34 52 68 53 47 54 67 55 48 56
REMARK SMILES IDX 51 57 66 58 86 59 49 60 50 61 65 63 87 64 52 65 35 66 36 67
REMARK SMILES IDX 45 68 37 69 38 70 44 71 46 72 39 73 40 74 41 75 42 76 43 77
REMARK SMILES IDX 69 78 70 79 79 80 71 81 72 82 78 83 80 84 73 85 74 86 75 87
REMARK SMILES IDX 76 88 77 89 53 90 54 91 63 92 55 93 56 94 62 95 64 96 57 97
REMARK SMILES IDX 58 98 59 99 60 100 61 101
REMARK H PARENT 18 6 13 17 23 32 85 51 51 62
REMARK Flexibility Score: inf
ROOT
ATOM      1  C   UNL A   1      32.632  29.759  25.659  1.00  0.00     0.023 C 
ENDROOT
BRANCH   1   2
ATOM      2  C   UNL A   1      31.435  28.872  25.336  1.00  0.00     0.116 C 
BRANCH   2   3
ATOM      3  N   UNL A   1      30.862  28.945  24.005  1.00  0.00    -0.351 N 
ATOM      4  C   UNL A   1      30.821  27.981  22.998  1.00  0.00     0.273 C 
ATOM      5  O   UNL A   1      30.233  28.295  21.962  1.00  0.00    -0.267 OA
ATOM      6  H   UNL A   1      30.439  29.805  23.779  1.00  0.00     0.163 HD
BRANCH   4   7
ATOM      7  C   UNL A   1      31.528  26.680  23.141  1.00  0.00     0.165 A 
ATOM      8  C   UNL A   1      32.479  23.688  25.194  1.00  0.00     0.073 C 
ATOM      9  C   UNL A   1      31.325  23.711  26.222  1.00  0.00     0.114 C 
ATOM     10  C   UNL A   1      32.305  24.732  24.146  1.00  0.00     0.058 A 
ATOM     11  C   UNL A   1      30.192  24.690  25.994  1.00  0.00     0.225 C 
ATOM     12  C   UNL A   1      31.230  25.575  24.022  1.00  0.00     0.089 A 
ATOM     13  S   UNL A   1      33.451  25.144  22.966  1.00  0.00    -0.038 S 
ATOM     14  O   UNL A   1      29.339  24.889  26.858  1.00  0.00    -0.275 OA
ATOM     15  N   UNL A   1      30.127  25.385  24.823  1.00  0.00    -0.323 N 
ATOM     16  N   UNL A   1      32.660  26.499  22.436  1.00  0.00    -0.185 NA
ATOM     17  H   UNL A   1      29.262  25.762  24.539  1.00  0.00     0.170 HD
BRANCH   8  18
ATOM     18  C   UNL A   1      32.636  22.272  24.670  1.00  0.00    -0.039 A 
ATOM     19  C   UNL A   1      32.550  19.593  23.843  1.00  0.00     0.119 A 
ATOM     20  C   UNL A   1      33.063  19.921  25.097  1.00  0.00     0.047 A 
ATOM     21  C   UNL A   1      32.075  20.599  23.008  1.00  0.00     0.047 A 
ATOM     22  C   UNL A   1      33.112  21.254  25.511  1.00  0.00     0.008 A 
ATOM     23  C   UNL A   1      32.151  21.933  23.401  1.00  0.00     0.008 A 
BRANCH  19  24
ATOM     24  O   UNL A   1      32.443  18.265  23.550  1.00  0.00    -0.491 OA
BRANCH  24  25
ATOM     25  C   UNL A   1      33.290  17.349  24.267  1.00  0.00     0.167 C 
ATOM     26  C   UNL A   1      32.532  16.438  25.230  1.00  0.00     0.052 C 
ATOM     27  C   UNL A   1      34.265  16.589  23.371  1.00  0.00     0.052 C 
ENDBRANCH  24  25
ENDBRANCH  19  24
ENDBRANCH   8  18
ENDBRANCH   4   7
ENDBRANCH   2   3
ENDBRANCH   1   2
BRANCH   1  28
ATOM     28  C   UNL A   1      32.760  30.313  27.079  1.00  0.00     0.023 C 
BRANCH  28  29
ATOM     29  C   UNL A   1      33.998  31.155  27.375  1.00  0.00     0.116 C 
BRANCH  29  30
ATOM     30  N   UNL A   1      33.937  31.920  28.616  1.00  0.00    -0.352 N 
ATOM     31  C   UNL A   1      34.844  31.872  29.669  1.00  0.00     0.251 C 
ATOM     32  H   UNL A   1      33.175  32.534  28.719  1.00  0.00     0.163 HD
ATOM     33  O   UNL A   1      34.535  32.263  30.780  1.00  0.00    -0.269 OA
BRANCH  31  34
ATOM     34  C   UNL A   1      36.192  31.315  29.413  1.00  0.00     0.039 A 
ATOM     35  C   UNL A   1      37.297  32.153  29.233  1.00  0.00     0.014 A 
ATOM     36  C   UNL A   1      36.347  29.930  29.394  1.00  0.00     0.014 A 
ATOM     37  C   UNL A   1      38.568  31.586  29.145  1.00  0.00     0.010 A 
ATOM     38  C   UNL A   1      37.610  29.377  29.416  1.00  0.00     0.010 A 
ATOM     39  C   UNL A   1      38.726  30.196  29.272  1.00  0.00    -0.014 A 
BRANCH  39  40
ATOM     40  C   UNL A   1      40.065  29.616  29.424  1.00  0.00     0.031 A 
ATOM     41  C   UNL A   1      40.480  29.384  30.839  1.00  0.00     0.074 A 
ATOM     42  C   UNL A   1      40.781  29.093  28.403  1.00  0.00     0.049 A 
ATOM     43  N   UNL A   1      41.434  29.957  31.495  1.00  0.00    -0.248 NA
ATOM     44  C   UNL A   1      39.642  28.503  31.672  1.00  0.00     0.031 C 
ATOM     45  C   UNL A   1      40.370  28.939  27.005  1.00  0.00     0.029 A 
ATOM     46  N   UNL A   1      41.997  28.475  28.425  1.00  0.00    -0.354 N 
ATOM     47  C   UNL A   1      41.469  29.343  32.747  1.00  0.00     0.074 A 
ATOM     48  C   UNL A   1      40.232  28.617  32.863  1.00  0.00     0.031 C 
ATOM     49  C   UNL A   1      41.201  28.076  26.381  1.00  0.00     0.029 A 
ATOM     50  C   UNL A   1      42.293  27.744  27.277  1.00  0.00     0.049 A 
ATOM     51  H   UNL A   1      42.614  28.539  29.190  1.00  0.00     0.167 HD
ATOM     52  C   UNL A   1      42.618  29.287  33.479  1.00  0.00     0.037 A 
ATOM     53  C   UNL A   1      43.344  26.906  27.083  1.00  0.00     0.037 A 
ATOM     54  C   UNL A   1      43.595  30.216  32.963  1.00  0.00     0.049 A 
ATOM     55  C   UNL A   1      44.374  27.261  28.090  1.00  0.00     0.074 A 
ATOM     56  C   UNL A   1      43.642  31.583  32.770  1.00  0.00     0.029 A 
ATOM     57  N   UNL A   1      44.617  29.695  32.209  1.00  0.00    -0.354 N 
ATOM     58  N   UNL A   1      45.038  28.382  28.092  1.00  0.00    -0.248 NA
ATOM     59  C   UNL A   1      44.381  26.533  29.348  1.00  0.00     0.031 C 
ATOM     60  C   UNL A   1      44.374  31.761  31.560  1.00  0.00     0.029 A 
ATOM     61  C   UNL A   1      44.792  30.505  31.119  1.00  0.00     0.049 A 
ATOM     62  H   UNL A   1      45.133  28.881  32.415  1.00  0.00     0.167 HD
ATOM     63  C   UNL A   1      45.157  28.717  29.431  1.00  0.00     0.074 A 
ATOM     64  C   UNL A   1      44.847  27.489  30.156  1.00  0.00     0.031 C 
ATOM     65  C   UNL A   1      45.216  30.025  29.822  1.00  0.00     0.037 A 
BRANCH  52  66
ATOM     66  C   UNL A   1      43.022  28.144  34.395  1.00  0.00     0.058 A 
ATOM     67  C   UNL A   1      43.281  28.419  35.759  1.00  0.00     0.135 A 
ATOM     68  C   UNL A   1      43.447  26.872  33.952  1.00  0.00     0.135 A 
ATOM     69  F   UNL A   1      42.911  29.589  36.304  1.00  0.00    -0.206 F 
ATOM     70  C   UNL A   1      44.001  27.549  36.580  1.00  0.00     0.059 A 
ATOM     71  C   UNL A   1      44.119  25.968  34.770  1.00  0.00     0.059 A 
ATOM     72  F   UNL A   1      43.323  26.472  32.683  1.00  0.00    -0.206 F 
ATOM     73  C   UNL A   1      44.434  26.333  36.067  1.00  0.00     0.060 A 
BRANCH  73  74
ATOM     74  S   UNL A   1      45.454  25.255  37.086  1.00  0.00     0.124 S 
ATOM     75  O   UNL A   1      45.600  24.091  36.219  1.00  0.00    -0.237 OA
ATOM     76  O   UNL A   1      46.653  26.065  37.279  1.00  0.00    -0.237 OA
ATOM     77  O   UNL A   1      44.640  25.056  38.282  1.00  0.00    -0.744 OA
ENDBRANCH  73  74
ENDBRANCH  52  66
BRANCH  53  78
ATOM     78  C   UNL A   1      43.432  25.660  26.273  1.00  0.00     0.058 A 
ATOM     79  C   UNL A   1      44.485  25.467  25.359  1.00  0.00     0.135 A 
ATOM     80  C   UNL A   1      42.672  24.518  26.591  1.00  0.00     0.135 A 
ATOM     81  F   UNL A   1      45.267  26.496  25.000  1.00  0.00    -0.206 F 
ATOM     82  C   UNL A   1      44.816  24.205  24.854  1.00  0.00     0.059 A 
ATOM     83  C   UNL A   1      42.974  23.251  26.090  1.00  0.00     0.059 A 
ATOM     84  F   UNL A   1      41.669  24.579  27.479  1.00  0.00    -0.206 F 
ATOM     85  C   UNL A   1      44.070  23.096  25.249  1.00  0.00     0.060 A 
BRANCH  85  86
ATOM     86  S   UNL A   1      44.624  21.440  24.774  1.00  0.00     0.124 S 
ATOM     87  O   UNL A   1      45.937  21.369  25.404  1.00  0.00    -0.237 OA
ATOM     88  O   UNL A   1      43.590  20.591  25.354  1.00  0.00    -0.237 OA
ATOM     89  O   UNL A   1      44.633  21.494  23.313  1.00  0.00    -0.744 OA
ENDBRANCH  85  86
ENDBRANCH  53  78
BRANCH  65  90
ATOM     90  C   UNL A   1      45.543  31.066  28.783  1.00  0.00     0.058 A 
ATOM     91  C   UNL A   1      44.631  31.601  27.855  1.00  0.00     0.135 A 
ATOM     92  C   UNL A   1      46.829  31.630  28.812  1.00  0.00     0.135 A 
ATOM     93  F   UNL A   1      43.353  31.200  27.829  1.00  0.00    -0.206 F 
ATOM     94  C   UNL A   1      45.001  32.609  26.961  1.00  0.00     0.059 A 
ATOM     95  C   UNL A   1      47.206  32.659  27.958  1.00  0.00     0.059 A 
ATOM     96  F   UNL A   1      47.729  31.206  29.715  1.00  0.00    -0.206 F 
ATOM     97  C   UNL A   1      46.293  33.132  27.019  1.00  0.00     0.060 A 
BRANCH  97  98
ATOM     98  S   UNL A   1      46.757  34.469  25.900  1.00  0.00     0.124 S 
ATOM     99  O   UNL A   1      46.788  35.621  26.794  1.00  0.00    -0.237 OA
ATOM    100  O   UNL A   1      48.052  34.025  25.392  1.00  0.00    -0.237 OA
ATOM    101  O   UNL A   1      45.681  34.476  24.911  1.00  0.00    -0.744 OA
ENDBRANCH  97  98
ENDBRANCH  65  90
ENDBRANCH  39  40
ENDBRANCH  31  34
ENDBRANCH  29  30
ENDBRANCH  28  29
ENDBRANCH   1  28
TORSDOF 17
ENDMDL
