MODEL 1
REMARK VINA RESULT:     -10.5      0.000      0.000
REMARK SMILES C[NH+](C)CC[NH2+][C@@H](C(=O)NCCCCNC(=O)c1ccc(-c2c3nc(c(-c4c(F)cc(S(=O)(=O)[O-])cc4F)c4ccc([nH]4)c(-c4c(F)cc(S(=O)(=O)[O-])cc4F)c4nc(c(-c5c(F)cc(S(=O)(=O)[O-])cc5F)c5ccc2[nH]5)C=C4)C=C3)cc1)c1cccc(C2CC2)c1
REMARK SMILES IDX 12 1 11 2 10 3 8 4 9 5 7 7 6 8 5 11 4 12 2 13 1 14 3 15
REMARK SMILES IDX 84 17 85 18 92 19 86 20 88 21 87 22 89 23 90 24 91 25 13 26
REMARK SMILES IDX 14 27 15 28 16 29 17 31 18 32 19 33 83 34 20 35 82 36 21 37
REMARK SMILES IDX 22 38 23 39 76 40 24 41 81 42 75 43 77 44 25 45 80 46 74 47
REMARK SMILES IDX 73 48 26 50 60 51 39 52 59 53 40 54 43 55 58 56 78 57 41 58
REMARK SMILES IDX 42 59 57 61 79 62 44 63 27 64 28 65 37 66 29 67 30 68 36 69
REMARK SMILES IDX 38 70 31 71 32 72 33 73 34 74 35 75 61 76 62 77 71 78 63 79
REMARK SMILES IDX 64 80 70 81 72 82 65 83 66 84 67 85 68 86 69 87 45 88 46 89
REMARK SMILES IDX 55 90 47 91 48 92 54 93 56 94 49 95 50 96 51 97 52 98 53 99
REMARK H PARENT 10 6 6 9 6 10 2 16 15 30 77 49 43 60
REMARK Flexibility Score: inf
ROOT
ATOM      1  C   UNL A   1      33.397  28.325  24.697  1.00  0.00     0.023 C 
ENDROOT
BRANCH   1   2
ATOM      2  C   UNL A   1      33.798  27.020  23.985  1.00  0.00     0.116 C 
BRANCH   2   3
ATOM      3  N   UNL A   1      33.060  26.849  22.745  1.00  0.00    -0.351 N 
ATOM      4  C   UNL A   1      31.848  26.268  22.484  1.00  0.00     0.283 C 
ATOM      5  O   UNL A   1      31.667  25.934  21.307  1.00  0.00    -0.268 OA
ATOM      6  H   UNL A   1      33.513  27.215  21.951  1.00  0.00     0.163 HD
BRANCH   4   7
ATOM      7  C   UNL A   1      30.758  26.042  23.602  1.00  0.00     0.304 C 
BRANCH   7   8
ATOM      8  N   UNL A   1      30.117  24.694  23.525  1.00  0.00    -0.328 N 
ATOM      9  H   UNL A   1      29.268  24.709  24.090  1.00  0.00     0.347 HD
ATOM     10  H   UNL A   1      29.929  24.514  22.539  1.00  0.00     0.347 HD
BRANCH   8  11
ATOM     11  C   UNL A   1      30.962  23.612  23.996  1.00  0.00     0.323 C 
BRANCH  11  12
ATOM     12  C   UNL A   1      31.714  23.826  25.328  1.00  0.00     0.323 C 
BRANCH  12  13
ATOM     13  N   UNL A   1      33.188  23.817  25.330  1.00  0.00    -0.335 N 
ATOM     14  C   UNL A   1      33.783  23.189  26.499  1.00  0.00     0.332 C 
ATOM     15  C   UNL A   1      33.794  23.314  24.098  1.00  0.00     0.332 C 
ATOM     16  H   UNL A   1      33.415  24.809  25.380  1.00  0.00     0.347 HD
ENDBRANCH  12  13
ENDBRANCH  11  12
ENDBRANCH   8  11
ENDBRANCH   7   8
BRANCH   7  17
ATOM     17  C   UNL A   1      29.640  27.090  23.447  1.00  0.00     0.019 A 
ATOM     18  C   UNL A   1      28.319  26.773  23.820  1.00  0.00     0.010 A 
ATOM     19  C   UNL A   1      29.890  28.369  22.917  1.00  0.00     0.014 A 
ATOM     20  C   UNL A   1      27.291  27.693  23.677  1.00  0.00     0.001 A 
ATOM     21  C   UNL A   1      28.860  29.321  22.745  1.00  0.00    -0.044 A 
ATOM     22  C   UNL A   1      27.563  28.947  23.144  1.00  0.00     0.004 A 
BRANCH  21  23
ATOM     23  C   UNL A   1      29.054  30.697  22.141  1.00  0.00     0.019 C 
ATOM     24  C   UNL A   1      28.232  31.259  21.013  1.00  0.00     0.009 C 
ATOM     25  C   UNL A   1      28.006  31.752  22.412  1.00  0.00     0.009 C 
ENDBRANCH  21  23
ENDBRANCH   7  17
ENDBRANCH   4   7
ENDBRANCH   2   3
ENDBRANCH   1   2
BRANCH   1  26
ATOM     26  C   UNL A   1      32.725  28.154  26.052  1.00  0.00     0.023 C 
BRANCH  26  27
ATOM     27  C   UNL A   1      33.622  28.499  27.219  1.00  0.00     0.116 C 
BRANCH  27  28
ATOM     28  N   UNL A   1      33.529  29.905  27.596  1.00  0.00    -0.352 N 
ATOM     29  C   UNL A   1      34.475  30.702  28.199  1.00  0.00     0.251 C 
ATOM     30  H   UNL A   1      32.673  30.344  27.390  1.00  0.00     0.163 HD
ATOM     31  O   UNL A   1      34.185  31.821  28.588  1.00  0.00    -0.269 OA
BRANCH  29  32
ATOM     32  C   UNL A   1      35.833  30.156  28.390  1.00  0.00     0.039 A 
ATOM     33  C   UNL A   1      36.734  30.178  27.324  1.00  0.00     0.014 A 
ATOM     34  C   UNL A   1      36.226  29.696  29.649  1.00  0.00     0.014 A 
ATOM     35  C   UNL A   1      38.058  29.799  27.546  1.00  0.00     0.010 A 
ATOM     36  C   UNL A   1      37.564  29.431  29.891  1.00  0.00     0.010 A 
ATOM     37  C   UNL A   1      38.489  29.461  28.839  1.00  0.00    -0.014 A 
BRANCH  37  38
ATOM     38  C   UNL A   1      39.895  29.092  29.120  1.00  0.00     0.031 A 
ATOM     39  C   UNL A   1      40.816  30.116  29.729  1.00  0.00     0.074 A 
ATOM     40  C   UNL A   1      40.358  27.881  28.754  1.00  0.00     0.049 A 
ATOM     41  N   UNL A   1      42.100  30.040  29.957  1.00  0.00    -0.248 NA
ATOM     42  C   UNL A   1      40.221  31.417  30.085  1.00  0.00     0.031 C 
ATOM     43  C   UNL A   1      39.572  26.835  28.095  1.00  0.00     0.029 A 
ATOM     44  N   UNL A   1      41.607  27.330  28.873  1.00  0.00    -0.354 N 
ATOM     45  C   UNL A   1      42.467  31.287  30.450  1.00  0.00     0.074 A 
ATOM     46  C   UNL A   1      41.288  32.120  30.429  1.00  0.00     0.031 C 
ATOM     47  C   UNL A   1      40.349  25.756  27.901  1.00  0.00     0.029 A 
ATOM     48  C   UNL A   1      41.694  26.048  28.386  1.00  0.00     0.049 A 
ATOM     49  H   UNL A   1      42.371  27.807  29.271  1.00  0.00     0.167 HD
ATOM     50  C   UNL A   1      43.675  31.691  30.909  1.00  0.00     0.037 A 
ATOM     51  C   UNL A   1      42.744  25.205  28.339  1.00  0.00     0.037 A 
ATOM     52  C   UNL A   1      44.826  30.833  30.980  1.00  0.00     0.049 A 
ATOM     53  C   UNL A   1      44.064  25.660  28.896  1.00  0.00     0.074 A 
ATOM     54  C   UNL A   1      46.074  31.109  31.505  1.00  0.00     0.029 A 
ATOM     55  N   UNL A   1      44.862  29.524  30.520  1.00  0.00    -0.354 N 
ATOM     56  N   UNL A   1      44.380  26.821  29.423  1.00  0.00    -0.248 NA
ATOM     57  C   UNL A   1      45.169  24.693  28.863  1.00  0.00     0.031 C 
ATOM     58  C   UNL A   1      46.878  29.977  31.333  1.00  0.00     0.029 A 
ATOM     59  C   UNL A   1      46.118  28.983  30.737  1.00  0.00     0.049 A 
ATOM     60  H   UNL A   1      44.108  29.051  30.101  1.00  0.00     0.167 HD
ATOM     61  C   UNL A   1      45.711  26.714  29.807  1.00  0.00     0.074 A 
ATOM     62  C   UNL A   1      46.138  25.372  29.461  1.00  0.00     0.031 C 
ATOM     63  C   UNL A   1      46.511  27.640  30.393  1.00  0.00     0.037 A 
BRANCH  50  64
ATOM     64  C   UNL A   1      43.799  33.111  31.383  1.00  0.00     0.058 A 
ATOM     65  C   UNL A   1      43.516  33.474  32.710  1.00  0.00     0.135 A 
ATOM     66  C   UNL A   1      44.215  34.123  30.504  1.00  0.00     0.135 A 
ATOM     67  F   UNL A   1      43.094  32.550  33.588  1.00  0.00    -0.206 F 
ATOM     68  C   UNL A   1      43.609  34.793  33.140  1.00  0.00     0.059 A 
ATOM     69  C   UNL A   1      44.342  35.446  30.920  1.00  0.00     0.059 A 
ATOM     70  F   UNL A   1      44.493  33.833  29.222  1.00  0.00    -0.206 F 
ATOM     71  C   UNL A   1      44.021  35.772  32.236  1.00  0.00     0.060 A 
BRANCH  71  72
ATOM     72  S   UNL A   1      44.136  37.480  32.809  1.00  0.00     0.124 S 
ATOM     73  O   UNL A   1      45.556  37.582  33.135  1.00  0.00    -0.237 OA
ATOM     74  O   UNL A   1      43.701  38.235  31.637  1.00  0.00    -0.237 OA
ATOM     75  O   UNL A   1      43.225  37.519  33.949  1.00  0.00    -0.744 OA
ENDBRANCH  71  72
ENDBRANCH  50  64
BRANCH  51  76
ATOM     76  C   UNL A   1      42.576  23.835  27.785  1.00  0.00     0.058 A 
ATOM     77  C   UNL A   1      42.616  23.613  26.401  1.00  0.00     0.135 A 
ATOM     78  C   UNL A   1      42.391  22.723  28.621  1.00  0.00     0.135 A 
ATOM     79  F   UNL A   1      42.789  24.645  25.562  1.00  0.00    -0.206 F 
ATOM     80  C   UNL A   1      42.462  22.341  25.861  1.00  0.00     0.059 A 
ATOM     81  C   UNL A   1      42.256  21.437  28.105  1.00  0.00     0.059 A 
ATOM     82  F   UNL A   1      42.365  22.879  29.953  1.00  0.00    -0.206 F 
ATOM     83  C   UNL A   1      42.283  21.257  26.723  1.00  0.00     0.060 A 
BRANCH  83  84
ATOM     84  S   UNL A   1      42.130  19.603  26.013  1.00  0.00     0.124 S 
ATOM     85  O   UNL A   1      43.054  19.680  24.888  1.00  0.00    -0.237 OA
ATOM     86  O   UNL A   1      42.546  18.753  27.125  1.00  0.00    -0.237 OA
ATOM     87  O   UNL A   1      40.714  19.519  25.666  1.00  0.00    -0.744 OA
ENDBRANCH  83  84
ENDBRANCH  51  76
BRANCH  63  88
ATOM     88  C   UNL A   1      47.914  27.224  30.727  1.00  0.00     0.058 A 
ATOM     89  C   UNL A   1      48.223  26.590  31.939  1.00  0.00     0.135 A 
ATOM     90  C   UNL A   1      48.949  27.410  29.796  1.00  0.00     0.135 A 
ATOM     91  F   UNL A   1      47.268  26.395  32.862  1.00  0.00    -0.206 F 
ATOM     92  C   UNL A   1      49.517  26.169  32.226  1.00  0.00     0.059 A 
ATOM     93  C   UNL A   1      50.244  26.975  30.052  1.00  0.00     0.059 A 
ATOM     94  F   UNL A   1      48.699  28.002  28.617  1.00  0.00    -0.206 F 
ATOM     95  C   UNL A   1      50.520  26.365  31.274  1.00  0.00     0.060 A 
BRANCH  95  96
ATOM     96  S   UNL A   1      52.188  25.779  31.642  1.00  0.00     0.124 S 
ATOM     97  O   UNL A   1      52.593  26.696  32.702  1.00  0.00    -0.237 OA
ATOM     98  O   UNL A   1      51.952  24.399  32.054  1.00  0.00    -0.237 OA
ATOM     99  O   UNL A   1      52.889  25.936  30.372  1.00  0.00    -0.744 OA
ENDBRANCH  95  96
ENDBRANCH  63  88
ENDBRANCH  37  38
ENDBRANCH  29  32
ENDBRANCH  27  28
ENDBRANCH  26  27
ENDBRANCH   1  26
TORSDOF 20
ENDMDL
MODEL 2
REMARK VINA RESULT:     -10.5      5.007     10.320
REMARK SMILES C[NH+](C)CC[NH2+][C@@H](C(=O)NCCCCNC(=O)c1ccc(-c2c3nc(c(-c4c(F)cc(S(=O)(=O)[O-])cc4F)c4ccc([nH]4)c(-c4c(F)cc(S(=O)(=O)[O-])cc4F)c4nc(c(-c5c(F)cc(S(=O)(=O)[O-])cc5F)c5ccc2[nH]5)C=C4)C=C3)cc1)c1cccc(C2CC2)c1
REMARK SMILES IDX 12 1 11 2 10 3 8 4 9 5 7 7 6 8 5 11 4 12 2 13 1 14 3 15
REMARK SMILES IDX 84 17 85 18 92 19 86 20 88 21 87 22 89 23 90 24 91 25 13 26
REMARK SMILES IDX 14 27 15 28 16 29 17 31 18 32 19 33 83 34 20 35 82 36 21 37
REMARK SMILES IDX 22 38 23 39 76 40 24 41 81 42 75 43 77 44 25 45 80 46 74 47
REMARK SMILES IDX 73 48 26 50 60 51 39 52 59 53 40 54 43 55 58 56 78 57 41 58
REMARK SMILES IDX 42 59 57 61 79 62 44 63 27 64 28 65 37 66 29 67 30 68 36 69
REMARK SMILES IDX 38 70 31 71 32 72 33 73 34 74 35 75 61 76 62 77 71 78 63 79
REMARK SMILES IDX 64 80 70 81 72 82 65 83 66 84 67 85 68 86 69 87 45 88 46 89
REMARK SMILES IDX 55 90 47 91 48 92 54 93 56 94 49 95 50 96 51 97 52 98 53 99
REMARK H PARENT 10 6 6 9 6 10 2 16 15 30 77 49 43 60
REMARK Flexibility Score: inf
ROOT
ATOM      1  C   UNL A   1      36.381  23.062  25.765  1.00  0.00     0.023 C 
ENDROOT
BRANCH   1   2
ATOM      2  C   UNL A   1      35.936  22.056  24.689  1.00  0.00     0.116 C 
BRANCH   2   3
ATOM      3  N   UNL A   1      35.532  22.734  23.469  1.00  0.00    -0.351 N 
ATOM      4  C   UNL A   1      34.358  23.346  23.118  1.00  0.00     0.283 C 
ATOM      5  O   UNL A   1      34.182  23.487  21.901  1.00  0.00    -0.268 OA
ATOM      6  H   UNL A   1      36.225  22.756  22.770  1.00  0.00     0.163 HD
BRANCH   4   7
ATOM      7  C   UNL A   1      33.308  23.840  24.186  1.00  0.00     0.304 C 
BRANCH   7   8
ATOM      8  N   UNL A   1      31.902  23.483  23.826  1.00  0.00    -0.328 N 
ATOM      9  H   UNL A   1      31.292  24.246  24.119  1.00  0.00     0.347 HD
ATOM     10  H   UNL A   1      31.885  23.331  22.817  1.00  0.00     0.347 HD
BRANCH   8  11
ATOM     11  C   UNL A   1      31.429  22.256  24.443  1.00  0.00     0.323 C 
BRANCH  11  12
ATOM     12  C   UNL A   1      32.261  21.682  25.611  1.00  0.00     0.323 C 
BRANCH  12  13
ATOM     13  N   UNL A   1      31.968  22.126  26.986  1.00  0.00    -0.335 N 
ATOM     14  C   UNL A   1      33.142  22.272  27.832  1.00  0.00     0.332 C 
ATOM     15  C   UNL A   1      31.108  23.305  27.074  1.00  0.00     0.332 C 
ATOM     16  H   UNL A   1      31.430  21.346  27.360  1.00  0.00     0.347 HD
ENDBRANCH  12  13
ENDBRANCH  11  12
ENDBRANCH   8  11
ENDBRANCH   7   8
BRANCH   7  17
ATOM     17  C   UNL A   1      33.375  25.375  24.300  1.00  0.00     0.019 A 
ATOM     18  C   UNL A   1      33.661  26.155  23.162  1.00  0.00     0.010 A 
ATOM     19  C   UNL A   1      33.178  26.036  25.526  1.00  0.00     0.014 A 
ATOM     20  C   UNL A   1      33.741  27.537  23.240  1.00  0.00     0.001 A 
ATOM     21  C   UNL A   1      33.269  27.442  25.638  1.00  0.00    -0.044 A 
ATOM     22  C   UNL A   1      33.549  28.167  24.464  1.00  0.00     0.004 A 
BRANCH  21  23
ATOM     23  C   UNL A   1      33.111  28.212  26.934  1.00  0.00     0.019 C 
ATOM     24  C   UNL A   1      32.275  29.453  27.095  1.00  0.00     0.009 C 
ATOM     25  C   UNL A   1      31.780  28.148  27.647  1.00  0.00     0.009 C 
ENDBRANCH  21  23
ENDBRANCH   7  17
ENDBRANCH   4   7
ENDBRANCH   2   3
ENDBRANCH   1   2
BRANCH   1  26
ATOM     26  C   UNL A   1      37.631  23.866  25.436  1.00  0.00     0.023 C 
BRANCH  26  27
ATOM     27  C   UNL A   1      38.557  24.053  26.616  1.00  0.00     0.116 C 
BRANCH  27  28
ATOM     28  N   UNL A   1      39.963  23.986  26.236  1.00  0.00    -0.352 N 
ATOM     29  C   UNL A   1      40.990  24.840  26.568  1.00  0.00     0.251 C 
ATOM     30  H   UNL A   1      40.212  23.225  25.664  1.00  0.00     0.163 HD
ATOM     31  O   UNL A   1      42.084  24.729  26.040  1.00  0.00    -0.269 OA
BRANCH  29  32
ATOM     32  C   UNL A   1      40.722  25.909  27.551  1.00  0.00     0.039 A 
ATOM     33  C   UNL A   1      39.755  25.705  28.535  1.00  0.00     0.014 A 
ATOM     34  C   UNL A   1      41.489  27.077  27.532  1.00  0.00     0.014 A 
ATOM     35  C   UNL A   1      39.606  26.652  29.548  1.00  0.00     0.010 A 
ATOM     36  C   UNL A   1      41.418  27.955  28.600  1.00  0.00     0.010 A 
ATOM     37  C   UNL A   1      40.464  27.763  29.608  1.00  0.00    -0.014 A 
BRANCH  37  38
ATOM     38  C   UNL A   1      40.363  28.768  30.691  1.00  0.00     0.031 A 
ATOM     39  C   UNL A   1      41.254  28.641  31.897  1.00  0.00     0.074 A 
ATOM     40  C   UNL A   1      39.422  29.730  30.628  1.00  0.00     0.049 A 
ATOM     41  N   UNL A   1      41.258  29.342  33.000  1.00  0.00    -0.248 NA
ATOM     42  C   UNL A   1      42.244  27.548  31.880  1.00  0.00     0.031 C 
ATOM     43  C   UNL A   1      38.459  29.907  29.538  1.00  0.00     0.029 A 
ATOM     44  N   UNL A   1      39.114  30.735  31.507  1.00  0.00    -0.354 N 
ATOM     45  C   UNL A   1      42.221  28.757  33.813  1.00  0.00     0.074 A 
ATOM     46  C   UNL A   1      42.737  27.608  33.107  1.00  0.00     0.031 C 
ATOM     47  C   UNL A   1      37.691  30.979  29.798  1.00  0.00     0.029 A 
ATOM     48  C   UNL A   1      38.082  31.541  31.087  1.00  0.00     0.049 A 
ATOM     49  H   UNL A   1      39.588  30.870  32.360  1.00  0.00     0.167 HD
ATOM     50  C   UNL A   1      42.658  29.162  35.028  1.00  0.00     0.037 A 
ATOM     51  C   UNL A   1      37.519  32.612  31.678  1.00  0.00     0.037 A 
ATOM     52  C   UNL A   1      42.179  30.342  35.693  1.00  0.00     0.049 A 
ATOM     53  C   UNL A   1      38.052  33.069  33.008  1.00  0.00     0.074 A 
ATOM     54  C   UNL A   1      42.610  30.894  36.885  1.00  0.00     0.029 A 
ATOM     55  N   UNL A   1      41.165  31.159  35.214  1.00  0.00    -0.354 N 
ATOM     56  N   UNL A   1      39.012  32.546  33.735  1.00  0.00    -0.248 NA
ATOM     57  C   UNL A   1      37.436  34.266  33.595  1.00  0.00     0.031 C 
ATOM     58  C   UNL A   1      41.833  32.029  37.144  1.00  0.00     0.029 A 
ATOM     59  C   UNL A   1      40.947  32.205  36.094  1.00  0.00     0.049 A 
ATOM     60  H   UNL A   1      40.673  31.016  34.374  1.00  0.00     0.167 HD
ATOM     61  C   UNL A   1      39.132  33.364  34.852  1.00  0.00     0.074 A 
ATOM     62  C   UNL A   1      38.153  34.423  34.699  1.00  0.00     0.031 C 
ATOM     63  C   UNL A   1      39.973  33.252  35.910  1.00  0.00     0.037 A 
BRANCH  50  64
ATOM     64  C   UNL A   1      43.716  28.331  35.699  1.00  0.00     0.058 A 
ATOM     65  C   UNL A   1      43.389  27.308  36.603  1.00  0.00     0.135 A 
ATOM     66  C   UNL A   1      45.076  28.554  35.428  1.00  0.00     0.135 A 
ATOM     67  F   UNL A   1      42.106  27.065  36.914  1.00  0.00    -0.206 F 
ATOM     68  C   UNL A   1      44.372  26.557  37.239  1.00  0.00     0.059 A 
ATOM     69  C   UNL A   1      46.075  27.797  36.032  1.00  0.00     0.059 A 
ATOM     70  F   UNL A   1      45.445  29.524  34.575  1.00  0.00    -0.206 F 
ATOM     71  C   UNL A   1      45.713  26.812  36.949  1.00  0.00     0.060 A 
BRANCH  71  72
ATOM     72  S   UNL A   1      46.977  25.829  37.783  1.00  0.00     0.124 S 
ATOM     73  O   UNL A   1      48.195  26.331  37.156  1.00  0.00    -0.237 OA
ATOM     74  O   UNL A   1      46.788  26.198  39.183  1.00  0.00    -0.237 OA
ATOM     75  O   UNL A   1      46.616  24.455  37.446  1.00  0.00    -0.744 OA
ENDBRANCH  71  72
ENDBRANCH  50  64
BRANCH  51  76
ATOM     76  C   UNL A   1      36.420  33.347  30.998  1.00  0.00     0.058 A 
ATOM     77  C   UNL A   1      35.103  33.266  31.474  1.00  0.00     0.135 A 
ATOM     78  C   UNL A   1      36.662  34.155  29.876  1.00  0.00     0.135 A 
ATOM     79  F   UNL A   1      34.822  32.505  32.542  1.00  0.00    -0.206 F 
ATOM     80  C   UNL A   1      34.060  33.946  30.853  1.00  0.00     0.059 A 
ATOM     81  C   UNL A   1      35.639  34.862  29.251  1.00  0.00     0.059 A 
ATOM     82  F   UNL A   1      37.908  34.282  29.394  1.00  0.00    -0.206 F 
ATOM     83  C   UNL A   1      34.338  34.743  29.741  1.00  0.00     0.060 A 
BRANCH  83  84
ATOM     84  S   UNL A   1      32.984  35.658  28.971  1.00  0.00     0.124 S 
ATOM     85  O   UNL A   1      32.202  36.058  30.134  1.00  0.00    -0.237 OA
ATOM     86  O   UNL A   1      33.694  36.729  28.278  1.00  0.00    -0.237 OA
ATOM     87  O   UNL A   1      32.363  34.663  28.101  1.00  0.00    -0.744 OA
ENDBRANCH  83  84
ENDBRANCH  51  76
BRANCH  63  88
ATOM     88  C   UNL A   1      39.898  34.317  36.965  1.00  0.00     0.058 A 
ATOM     89  C   UNL A   1      40.627  35.510  36.858  1.00  0.00     0.135 A 
ATOM     90  C   UNL A   1      39.037  34.165  38.064  1.00  0.00     0.135 A 
ATOM     91  F   UNL A   1      41.466  35.699  35.828  1.00  0.00    -0.206 F 
ATOM     92  C   UNL A   1      40.521  36.511  37.817  1.00  0.00     0.059 A 
ATOM     93  C   UNL A   1      38.897  35.164  39.021  1.00  0.00     0.059 A 
ATOM     94  F   UNL A   1      38.309  33.046  38.204  1.00  0.00    -0.206 F 
ATOM     95  C   UNL A   1      39.651  36.329  38.894  1.00  0.00     0.060 A 
BRANCH  95  96
ATOM     96  S   UNL A   1      39.492  37.652  40.112  1.00  0.00     0.124 S 
ATOM     97  O   UNL A   1      38.422  38.457  39.532  1.00  0.00    -0.237 OA
ATOM     98  O   UNL A   1      39.146  36.920  41.327  1.00  0.00    -0.237 OA
ATOM     99  O   UNL A   1      40.814  38.270  40.116  1.00  0.00    -0.744 OA
ENDBRANCH  95  96
ENDBRANCH  63  88
ENDBRANCH  37  38
ENDBRANCH  29  32
ENDBRANCH  27  28
ENDBRANCH  26  27
ENDBRANCH   1  26
TORSDOF 20
ENDMDL
MODEL 3
REMARK VINA RESULT:     -10.5      2.890      4.792
REMARK SMILES C[NH+](C)CC[NH2+][C@@H](C(=O)NCCCCNC(=O)c1ccc(-c2c3nc(c(-c4c(F)cc(S(=O)(=O)[O-])cc4F)c4ccc([nH]4)c(-c4c(F)cc(S(=O)(=O)[O-])cc4F)c4nc(c(-c5c(F)cc(S(=O)(=O)[O-])cc5F)c5ccc2[nH]5)C=C4)C=C3)cc1)c1cccc(C2CC2)c1
REMARK SMILES IDX 12 1 11 2 10 3 8 4 9 5 7 7 6 8 5 11 4 12 2 13 1 14 3 15
REMARK SMILES IDX 84 17 85 18 92 19 86 20 88 21 87 22 89 23 90 24 91 25 13 26
REMARK SMILES IDX 14 27 15 28 16 29 17 31 18 32 19 33 83 34 20 35 82 36 21 37
REMARK SMILES IDX 22 38 23 39 76 40 24 41 81 42 75 43 77 44 25 45 80 46 74 47
REMARK SMILES IDX 73 48 26 50 60 51 39 52 59 53 40 54 43 55 58 56 78 57 41 58
REMARK SMILES IDX 42 59 57 61 79 62 44 63 27 64 28 65 37 66 29 67 30 68 36 69
REMARK SMILES IDX 38 70 31 71 32 72 33 73 34 74 35 75 61 76 62 77 71 78 63 79
REMARK SMILES IDX 64 80 70 81 72 82 65 83 66 84 67 85 68 86 69 87 45 88 46 89
REMARK SMILES IDX 55 90 47 91 48 92 54 93 56 94 49 95 50 96 51 97 52 98 53 99
REMARK H PARENT 10 6 6 9 6 10 2 16 15 30 77 49 43 60
REMARK Flexibility Score: inf
ROOT
ATOM      1  C   UNL A   1      35.198  29.612  27.450  1.00  0.00     0.023 C 
ENDROOT
BRANCH   1   2
ATOM      2  C   UNL A   1      34.139  28.873  26.611  1.00  0.00     0.116 C 
BRANCH   2   3
ATOM      3  N   UNL A   1      33.037  28.414  27.439  1.00  0.00    -0.351 N 
ATOM      4  C   UNL A   1      31.914  27.692  27.134  1.00  0.00     0.283 C 
ATOM      5  O   UNL A   1      30.989  27.789  27.950  1.00  0.00    -0.268 OA
ATOM      6  H   UNL A   1      33.109  28.669  28.386  1.00  0.00     0.163 HD
BRANCH   4   7
ATOM      7  C   UNL A   1      31.808  26.797  25.839  1.00  0.00     0.304 C 
BRANCH   7   8
ATOM      8  N   UNL A   1      30.399  26.430  25.501  1.00  0.00    -0.328 N 
ATOM      9  H   UNL A   1      30.193  25.525  25.923  1.00  0.00     0.347 HD
ATOM     10  H   UNL A   1      29.805  27.176  25.862  1.00  0.00     0.347 HD
BRANCH   8  11
ATOM     11  C   UNL A   1      30.140  26.340  24.075  1.00  0.00     0.323 C 
BRANCH  11  12
ATOM     12  C   UNL A   1      29.284  27.457  23.436  1.00  0.00     0.323 C 
BRANCH  12  13
ATOM     13  N   UNL A   1      29.832  28.822  23.354  1.00  0.00    -0.335 N 
ATOM     14  C   UNL A   1      31.067  28.928  22.592  1.00  0.00     0.332 C 
ATOM     15  C   UNL A   1      28.869  29.840  22.937  1.00  0.00     0.332 C 
ATOM     16  H   UNL A   1      30.066  29.025  24.325  1.00  0.00     0.347 HD
ENDBRANCH  12  13
ENDBRANCH  11  12
ENDBRANCH   8  11
ENDBRANCH   7   8
BRANCH   7  17
ATOM     17  C   UNL A   1      32.582  25.483  26.059  1.00  0.00     0.019 A 
ATOM     18  C   UNL A   1      31.975  24.413  26.745  1.00  0.00     0.010 A 
ATOM     19  C   UNL A   1      33.905  25.318  25.609  1.00  0.00     0.014 A 
ATOM     20  C   UNL A   1      32.655  23.225  26.969  1.00  0.00     0.001 A 
ATOM     21  C   UNL A   1      34.627  24.125  25.837  1.00  0.00    -0.044 A 
ATOM     22  C   UNL A   1      33.963  23.089  26.521  1.00  0.00     0.004 A 
BRANCH  21  23
ATOM     23  C   UNL A   1      36.066  23.899  25.418  1.00  0.00     0.019 C 
ATOM     24  C   UNL A   1      36.679  22.549  25.158  1.00  0.00     0.009 C 
ATOM     25  C   UNL A   1      36.336  23.443  24.002  1.00  0.00     0.009 C 
ENDBRANCH  21  23
ENDBRANCH   7  17
ENDBRANCH   4   7
ENDBRANCH   2   3
ENDBRANCH   1   2
BRANCH   1  26
ATOM     26  C   UNL A   1      34.929  31.090  27.692  1.00  0.00     0.023 C 
BRANCH  26  27
ATOM     27  C   UNL A   1      35.903  31.731  28.656  1.00  0.00     0.116 C 
BRANCH  27  28
ATOM     28  N   UNL A   1      35.668  31.325  30.037  1.00  0.00    -0.352 N 
ATOM     29  C   UNL A   1      36.509  30.657  30.896  1.00  0.00     0.251 C 
ATOM     30  H   UNL A   1      34.785  31.561  30.404  1.00  0.00     0.163 HD
ATOM     31  O   UNL A   1      36.103  30.255  31.974  1.00  0.00    -0.269 OA
BRANCH  29  32
ATOM     32  C   UNL A   1      37.901  30.414  30.467  1.00  0.00     0.039 A 
ATOM     33  C   UNL A   1      38.867  30.110  31.426  1.00  0.00     0.014 A 
ATOM     34  C   UNL A   1      38.218  30.415  29.107  1.00  0.00     0.014 A 
ATOM     35  C   UNL A   1      40.145  29.737  31.009  1.00  0.00     0.010 A 
ATOM     36  C   UNL A   1      39.450  29.935  28.694  1.00  0.00     0.010 A 
ATOM     37  C   UNL A   1      40.431  29.609  29.640  1.00  0.00    -0.014 A 
BRANCH  37  38
ATOM     38  C   UNL A   1      41.764  29.177  29.159  1.00  0.00     0.031 A 
ATOM     39  C   UNL A   1      42.878  30.186  29.079  1.00  0.00     0.074 A 
ATOM     40  C   UNL A   1      41.944  27.917  28.720  1.00  0.00     0.049 A 
ATOM     41  N   UNL A   1      44.083  30.050  28.592  1.00  0.00    -0.248 NA
ATOM     42  C   UNL A   1      42.582  31.544  29.572  1.00  0.00     0.031 C 
ATOM     43  C   UNL A   1      40.915  26.873  28.688  1.00  0.00     0.029 A 
ATOM     44  N   UNL A   1      43.054  27.301  28.205  1.00  0.00    -0.354 N 
ATOM     45  C   UNL A   1      44.671  31.306  28.690  1.00  0.00     0.074 A 
ATOM     46  C   UNL A   1      43.674  32.205  29.223  1.00  0.00     0.031 C 
ATOM     47  C   UNL A   1      41.454  25.738  28.212  1.00  0.00     0.029 A 
ATOM     48  C   UNL A   1      42.852  25.983  27.873  1.00  0.00     0.049 A 
ATOM     49  H   UNL A   1      43.918  27.760  28.085  1.00  0.00     0.167 HD
ATOM     50  C   UNL A   1      45.939  31.669  28.391  1.00  0.00     0.037 A 
ATOM     51  C   UNL A   1      43.703  25.077  27.353  1.00  0.00     0.037 A 
ATOM     52  C   UNL A   1      46.939  30.750  27.918  1.00  0.00     0.049 A 
ATOM     53  C   UNL A   1      45.120  25.492  27.072  1.00  0.00     0.074 A 
ATOM     54  C   UNL A   1      48.277  30.990  27.664  1.00  0.00     0.029 A 
ATOM     55  N   UNL A   1      46.708  29.411  27.637  1.00  0.00    -0.354 N 
ATOM     56  N   UNL A   1      45.682  26.667  27.233  1.00  0.00    -0.248 NA
ATOM     57  C   UNL A   1      46.024  24.460  26.545  1.00  0.00     0.031 C 
ATOM     58  C   UNL A   1      48.849  29.801  27.199  1.00  0.00     0.029 A 
ATOM     59  C   UNL A   1      47.877  28.813  27.201  1.00  0.00     0.049 A 
ATOM     60  H   UNL A   1      45.842  28.955  27.734  1.00  0.00     0.167 HD
ATOM     61  C   UNL A   1      47.010  26.509  26.855  1.00  0.00     0.074 A 
ATOM     62  C   UNL A   1      47.169  25.122  26.464  1.00  0.00     0.031 C 
ATOM     63  C   UNL A   1      48.009  27.426  26.830  1.00  0.00     0.037 A 
BRANCH  50  64
ATOM     64  C   UNL A   1      46.315  33.111  28.586  1.00  0.00     0.058 A 
ATOM     65  C   UNL A   1      46.801  33.587  29.815  1.00  0.00     0.135 A 
ATOM     66  C   UNL A   1      46.196  34.029  27.531  1.00  0.00     0.135 A 
ATOM     67  F   UNL A   1      46.915  32.758  30.864  1.00  0.00    -0.206 F 
ATOM     68  C   UNL A   1      47.125  34.927  30.000  1.00  0.00     0.059 A 
ATOM     69  C   UNL A   1      46.541  35.369  27.685  1.00  0.00     0.059 A 
ATOM     70  F   UNL A   1      45.731  33.628  26.336  1.00  0.00    -0.206 F 
ATOM     71  C   UNL A   1      46.989  35.810  28.929  1.00  0.00     0.060 A 
BRANCH  71  72
ATOM     72  S   UNL A   1      47.413  37.546  29.184  1.00  0.00     0.124 S 
ATOM     73  O   UNL A   1      48.419  37.755  28.147  1.00  0.00    -0.237 OA
ATOM     74  O   UNL A   1      46.134  38.217  28.968  1.00  0.00    -0.237 OA
ATOM     75  O   UNL A   1      47.909  37.576  30.557  1.00  0.00    -0.744 OA
ENDBRANCH  71  72
ENDBRANCH  50  64
BRANCH  51  76
ATOM     76  C   UNL A   1      43.249  23.682  27.109  1.00  0.00     0.058 A 
ATOM     77  C   UNL A   1      43.219  22.746  28.154  1.00  0.00     0.135 A 
ATOM     78  C   UNL A   1      42.820  23.261  25.841  1.00  0.00     0.135 A 
ATOM     79  F   UNL A   1      43.620  23.101  29.384  1.00  0.00    -0.206 F 
ATOM     80  C   UNL A   1      42.796  21.437  27.949  1.00  0.00     0.059 A 
ATOM     81  C   UNL A   1      42.373  21.962  25.616  1.00  0.00     0.059 A 
ATOM     82  F   UNL A   1      42.810  24.123  24.813  1.00  0.00    -0.206 F 
ATOM     83  C   UNL A   1      42.374  21.054  26.675  1.00  0.00     0.060 A 
BRANCH  83  84
ATOM     84  S   UNL A   1      41.784  19.364  26.429  1.00  0.00     0.124 S 
ATOM     85  O   UNL A   1      42.020  18.778  27.743  1.00  0.00    -0.237 OA
ATOM     86  O   UNL A   1      40.386  19.577  26.065  1.00  0.00    -0.237 OA
ATOM     87  O   UNL A   1      42.635  18.867  25.352  1.00  0.00    -0.744 OA
ENDBRANCH  83  84
ENDBRANCH  51  76
BRANCH  63  88
ATOM     88  C   UNL A   1      49.367  26.953  26.401  1.00  0.00     0.058 A 
ATOM     89  C   UNL A   1      50.280  26.412  27.317  1.00  0.00     0.135 A 
ATOM     90  C   UNL A   1      49.733  26.986  25.045  1.00  0.00     0.135 A 
ATOM     91  F   UNL A   1      49.978  26.363  28.624  1.00  0.00    -0.206 F 
ATOM     92  C   UNL A   1      51.521  25.936  26.908  1.00  0.00     0.059 A 
ATOM     93  C   UNL A   1      50.958  26.493  24.610  1.00  0.00     0.059 A 
ATOM     94  F   UNL A   1      48.888  27.484  24.128  1.00  0.00    -0.206 F 
ATOM     95  C   UNL A   1      51.849  25.979  25.551  1.00  0.00     0.060 A 
BRANCH  95  96
ATOM     96  S   UNL A   1      53.447  25.323  25.025  1.00  0.00     0.124 S 
ATOM     97  O   UNL A   1      53.291  23.902  25.322  1.00  0.00    -0.237 OA
ATOM     98  O   UNL A   1      53.480  25.674  23.609  1.00  0.00    -0.237 OA
ATOM     99  O   UNL A   1      54.401  26.040  25.864  1.00  0.00    -0.744 OA
ENDBRANCH  95  96
ENDBRANCH  63  88
ENDBRANCH  37  38
ENDBRANCH  29  32
ENDBRANCH  27  28
ENDBRANCH  26  27
ENDBRANCH   1  26
TORSDOF 20
ENDMDL
