MODEL 1
REMARK VINA RESULT:     -12.5      0.000      0.000
REMARK SMILES CCc1ccccc1NC(=O)c1cc(S(=O)(=O)N2CCC[C@H](C(=O)NCCCCNC(=O)c3ccc(-c4c5nc(c(-c6c(F)cc(S(=O)(=O)[O-])cc6F)c6ccc([nH]6)c(-c6c(F)cc(S(=O)(=O)[O-])cc6F)c6nc(c(-c7c(F)cc(S(=O)(=O)[O-])cc7F)c7ccc4[nH]7)C=C6)C=C5)cc3)C2)ccc1F
REMARK SMILES IDX 26 1 25 2 23 3 24 4 22 6 18 7 19 8 99 9 20 10 21 11 15 12
REMARK SMILES IDX 16 13 17 14 14 15 12 16 13 17 102 18 101 19 103 20 100 21
REMARK SMILES IDX 10 22 9 23 11 25 8 26 3 27 4 28 5 29 7 30 6 31 2 32 1 33
REMARK SMILES IDX 27 34 28 35 29 36 30 37 31 38 32 40 33 41 34 42 98 43 35 44
REMARK SMILES IDX 97 45 36 46 37 47 38 48 91 49 39 50 96 51 90 52 92 53 40 54
REMARK SMILES IDX 95 55 89 56 88 57 41 59 75 60 54 61 74 62 55 63 58 64 73 65
REMARK SMILES IDX 93 66 56 67 57 68 72 70 94 71 59 72 42 73 43 74 52 75 44 76
REMARK SMILES IDX 45 77 51 78 53 79 46 80 47 81 48 82 49 83 50 84 76 85 77 86
REMARK SMILES IDX 86 87 78 88 79 89 85 90 87 91 80 92 81 93 82 94 83 95 84 96
REMARK SMILES IDX 60 97 61 98 70 99 62 100 63 101 69 102 71 103 64 104 65 105
REMARK SMILES IDX 66 106 67 107 68 108
REMARK H PARENT 25 5 9 24 30 39 92 58 58 69
REMARK Flexibility Score: inf
ROOT
ATOM      1  C   UNL A   1      34.742  31.609  27.656  1.00  0.00     0.116 C 
ENDROOT
BRANCH   1   2
ATOM      2  N   UNL A   1      33.314  31.391  27.584  1.00  0.00    -0.356 N 
ATOM      3  C   UNL A   1      32.557  30.585  26.802  1.00  0.00     0.224 C 
ATOM      4  O   UNL A   1      31.335  30.611  27.000  1.00  0.00    -0.275 OA
ATOM      5  H   UNL A   1      32.793  31.931  28.221  1.00  0.00     0.163 HD
BRANCH   3   6
ATOM      6  C   UNL A   1      33.105  29.679  25.700  1.00  0.00     0.093 C 
ATOM      7  N   UNL A   1      31.848  27.539  25.181  1.00  0.00    -0.197 NA
ATOM      8  C   UNL A   1      32.952  26.700  25.686  1.00  0.00     0.102 C 
ATOM      9  C   UNL A   1      32.057  28.973  24.860  1.00  0.00     0.116 C 
ATOM     10  C   UNL A   1      33.927  27.437  26.586  1.00  0.00     0.018 C 
ATOM     11  C   UNL A   1      34.298  28.820  26.097  1.00  0.00     0.016 C 
BRANCH   7  12
ATOM     12  S   UNL A   1      30.631  26.749  24.290  1.00  0.00     0.243 S 
ATOM     13  O   UNL A   1      29.891  27.746  23.559  1.00  0.00    -0.207 OA
ATOM     14  O   UNL A   1      29.980  25.808  25.183  1.00  0.00    -0.207 OA
BRANCH  12  15
ATOM     15  C   UNL A   1      31.472  25.756  23.070  1.00  0.00     0.083 A 
ATOM     16  C   UNL A   1      32.206  23.556  22.421  1.00  0.00     0.077 A 
ATOM     17  C   UNL A   1      31.495  24.377  23.300  1.00  0.00     0.038 A 
ATOM     18  C   UNL A   1      32.792  24.084  21.272  1.00  0.00     0.136 A 
ATOM     19  C   UNL A   1      32.775  25.456  21.049  1.00  0.00     0.041 A 
ATOM     20  F   UNL A   1      33.438  23.300  20.398  1.00  0.00    -0.206 F 
ATOM     21  C   UNL A   1      32.133  26.296  21.960  1.00  0.00     0.025 A 
BRANCH  16  22
ATOM     22  C   UNL A   1      32.398  22.152  22.790  1.00  0.00     0.258 C 
ATOM     23  N   UNL A   1      33.470  21.751  23.558  1.00  0.00    -0.322 N 
ATOM     24  H   UNL A   1      33.544  20.775  23.668  1.00  0.00     0.170 HD
ATOM     25  O   UNL A   1      31.582  21.328  22.381  1.00  0.00    -0.269 OA
BRANCH  23  26
ATOM     26  C   UNL A   1      34.484  22.483  24.219  1.00  0.00     0.044 A 
ATOM     27  C   UNL A   1      34.356  22.757  25.595  1.00  0.00    -0.025 A 
ATOM     28  C   UNL A   1      35.435  23.352  26.282  1.00  0.00     0.006 A 
ATOM     29  C   UNL A   1      36.600  23.720  25.617  1.00  0.00     0.000 A 
ATOM     30  C   UNL A   1      35.623  22.959  23.553  1.00  0.00     0.026 A 
ATOM     31  C   UNL A   1      36.682  23.551  24.244  1.00  0.00     0.002 A 
BRANCH  27  32
ATOM     32  C   UNL A   1      33.093  22.502  26.389  1.00  0.00     0.034 C 
ATOM     33  C   UNL A   1      33.414  22.420  27.877  1.00  0.00     0.009 C 
ENDBRANCH  27  32
ENDBRANCH  23  26
ENDBRANCH  16  22
ENDBRANCH  12  15
ENDBRANCH   7  12
ENDBRANCH   3   6
ENDBRANCH   1   2
BRANCH   1  34
ATOM     34  C   UNL A   1      35.078  32.998  28.190  1.00  0.00     0.023 C 
BRANCH  34  35
ATOM     35  C   UNL A   1      36.516  33.156  28.661  1.00  0.00     0.023 C 
BRANCH  35  36
ATOM     36  C   UNL A   1      36.712  32.972  30.159  1.00  0.00     0.116 C 
BRANCH  36  37
ATOM     37  N   UNL A   1      36.159  31.731  30.688  1.00  0.00    -0.352 N 
ATOM     38  C   UNL A   1      36.774  30.497  30.728  1.00  0.00     0.251 C 
ATOM     39  H   UNL A   1      35.248  31.778  31.057  1.00  0.00     0.163 HD
ATOM     40  O   UNL A   1      36.177  29.501  31.118  1.00  0.00    -0.269 OA
BRANCH  38  41
ATOM     41  C   UNL A   1      38.161  30.407  30.235  1.00  0.00     0.039 A 
ATOM     42  C   UNL A   1      39.208  30.365  31.157  1.00  0.00     0.014 A 
ATOM     43  C   UNL A   1      38.395  30.198  28.873  1.00  0.00     0.014 A 
ATOM     44  C   UNL A   1      40.487  30.020  30.718  1.00  0.00     0.010 A 
ATOM     45  C   UNL A   1      39.644  29.757  28.459  1.00  0.00     0.010 A 
ATOM     46  C   UNL A   1      40.703  29.663  29.376  1.00  0.00    -0.014 A 
BRANCH  46  47
ATOM     47  C   UNL A   1      42.029  29.189  28.905  1.00  0.00     0.031 A 
ATOM     48  C   UNL A   1      43.166  30.166  28.777  1.00  0.00     0.074 A 
ATOM     49  C   UNL A   1      42.187  27.909  28.515  1.00  0.00     0.049 A 
ATOM     50  N   UNL A   1      44.371  29.975  28.308  1.00  0.00    -0.248 NA
ATOM     51  C   UNL A   1      42.897  31.552  29.192  1.00  0.00     0.031 C 
ATOM     52  C   UNL A   1      41.140  26.885  28.516  1.00  0.00     0.029 A 
ATOM     53  N   UNL A   1      43.289  27.251  28.025  1.00  0.00    -0.354 N 
ATOM     54  C   UNL A   1      44.995  31.215  28.358  1.00  0.00     0.074 A 
ATOM     55  C   UNL A   1      44.012  32.165  28.830  1.00  0.00     0.031 C 
ATOM     56  C   UNL A   1      41.654  25.727  28.070  1.00  0.00     0.029 A 
ATOM     57  C   UNL A   1      43.056  25.931  27.719  1.00  0.00     0.049 A 
ATOM     58  H   UNL A   1      44.164  27.685  27.904  1.00  0.00     0.167 HD
ATOM     59  C   UNL A   1      46.280  31.531  28.072  1.00  0.00     0.037 A 
ATOM     60  C   UNL A   1      43.878  24.993  27.210  1.00  0.00     0.037 A 
ATOM     61  C   UNL A   1      47.260  30.575  27.630  1.00  0.00     0.049 A 
ATOM     62  C   UNL A   1      45.309  25.354  26.925  1.00  0.00     0.074 A 
ATOM     63  C   UNL A   1      48.602  30.775  27.370  1.00  0.00     0.029 A 
ATOM     64  N   UNL A   1      46.998  29.234  27.383  1.00  0.00    -0.354 N 
ATOM     65  N   UNL A   1      45.906  26.516  27.051  1.00  0.00    -0.248 NA
ATOM     66  C   UNL A   1      46.185  24.277  26.442  1.00  0.00     0.031 C 
ATOM     67  C   UNL A   1      49.147  29.564  26.929  1.00  0.00     0.029 A 
ATOM     68  C   UNL A   1      48.153  28.598  26.959  1.00  0.00     0.049 A 
ATOM     69  H   UNL A   1      46.122  28.800  27.492  1.00  0.00     0.167 HD
ATOM     70  C   UNL A   1      47.230  26.308  26.680  1.00  0.00     0.074 A 
ATOM     71  C   UNL A   1      47.351  24.903  26.342  1.00  0.00     0.031 C 
ATOM     72  C   UNL A   1      48.253  27.197  26.627  1.00  0.00     0.037 A 
BRANCH  59  73
ATOM     73  C   UNL A   1      46.687  32.969  28.243  1.00  0.00     0.058 A 
ATOM     74  C   UNL A   1      46.584  33.893  27.190  1.00  0.00     0.135 A 
ATOM     75  C   UNL A   1      47.199  33.428  29.468  1.00  0.00     0.135 A 
ATOM     76  F   UNL A   1      46.117  33.504  25.992  1.00  0.00    -0.206 F 
ATOM     77  C   UNL A   1      47.022  35.206  27.326  1.00  0.00     0.059 A 
ATOM     78  C   UNL A   1      47.612  34.747  29.637  1.00  0.00     0.059 A 
ATOM     79  F   UNL A   1      47.317  32.591  30.509  1.00  0.00    -0.206 F 
ATOM     80  C   UNL A   1      47.540  35.621  28.553  1.00  0.00     0.060 A 
BRANCH  80  81
ATOM     81  S   UNL A   1      48.128  37.321  28.707  1.00  0.00     0.124 S 
ATOM     82  O   UNL A   1      49.462  37.118  29.262  1.00  0.00    -0.237 OA
ATOM     83  O   UNL A   1      48.081  37.796  27.328  1.00  0.00    -0.237 OA
ATOM     84  O   UNL A   1      47.158  37.934  29.611  1.00  0.00    -0.744 OA
ENDBRANCH  80  81
ENDBRANCH  59  73
BRANCH  60  85
ATOM     85  C   UNL A   1      43.364  23.617  26.966  1.00  0.00     0.058 A 
ATOM     86  C   UNL A   1      43.120  23.157  25.663  1.00  0.00     0.135 A 
ATOM     87  C   UNL A   1      43.148  22.723  28.026  1.00  0.00     0.135 A 
ATOM     88  F   UNL A   1      43.306  23.975  24.617  1.00  0.00    -0.206 F 
ATOM     89  C   UNL A   1      42.673  21.862  25.420  1.00  0.00     0.059 A 
ATOM     90  C   UNL A   1      42.724  21.417  27.806  1.00  0.00     0.059 A 
ATOM     91  F   UNL A   1      43.384  23.110  29.290  1.00  0.00    -0.206 F 
ATOM     92  C   UNL A   1      42.486  20.996  26.499  1.00  0.00     0.060 A 
BRANCH  92  93
ATOM     93  S   UNL A   1      41.979  19.294  26.166  1.00  0.00     0.124 S 
ATOM     94  O   UNL A   1      42.372  18.622  27.398  1.00  0.00    -0.237 OA
ATOM     95  O   UNL A   1      40.543  19.439  25.945  1.00  0.00    -0.237 OA
ATOM     96  O   UNL A   1      42.753  18.941  24.979  1.00  0.00    -0.744 OA
ENDBRANCH  92  93
ENDBRANCH  60  85
BRANCH  72  97
ATOM     97  C   UNL A   1      49.601  26.678  26.210  1.00  0.00     0.058 A 
ATOM     98  C   UNL A   1      50.096  26.877  24.912  1.00  0.00     0.135 A 
ATOM     99  C   UNL A   1      50.429  26.027  27.138  1.00  0.00     0.135 A 
ATOM    100  F   UNL A   1      49.341  27.487  23.986  1.00  0.00    -0.206 F 
ATOM    101  C   UNL A   1      51.362  26.430  24.543  1.00  0.00     0.059 A 
ATOM    102  C   UNL A   1      51.708  25.597  26.798  1.00  0.00     0.059 A 
ATOM    103  F   UNL A   1      50.006  25.822  28.395  1.00  0.00    -0.206 F 
ATOM    104  C   UNL A   1      52.160  25.794  25.495  1.00  0.00     0.060 A 
BRANCH 104 105
ATOM    105  S   UNL A   1      53.815  25.253  25.013  1.00  0.00     0.124 S 
ATOM    106  O   UNL A   1      54.616  25.719  26.141  1.00  0.00    -0.237 OA
ATOM    107  O   UNL A   1      53.652  23.806  24.905  1.00  0.00    -0.237 OA
ATOM    108  O   UNL A   1      54.044  25.948  23.750  1.00  0.00    -0.744 OA
ENDBRANCH 104 105
ENDBRANCH  72  97
ENDBRANCH  46  47
ENDBRANCH  38  41
ENDBRANCH  36  37
ENDBRANCH  35  36
ENDBRANCH  34  35
ENDBRANCH   1  34
TORSDOF 19
ENDMDL
MODEL 2
REMARK VINA RESULT:     -12.0      0.858      7.838
REMARK SMILES CCc1ccccc1NC(=O)c1cc(S(=O)(=O)N2CCC[C@H](C(=O)NCCCCNC(=O)c3ccc(-c4c5nc(c(-c6c(F)cc(S(=O)(=O)[O-])cc6F)c6ccc([nH]6)c(-c6c(F)cc(S(=O)(=O)[O-])cc6F)c6nc(c(-c7c(F)cc(S(=O)(=O)[O-])cc7F)c7ccc4[nH]7)C=C6)C=C5)cc3)C2)ccc1F
REMARK SMILES IDX 26 1 25 2 23 3 24 4 22 6 18 7 19 8 99 9 20 10 21 11 15 12
REMARK SMILES IDX 16 13 17 14 14 15 12 16 13 17 102 18 101 19 103 20 100 21
REMARK SMILES IDX 10 22 9 23 11 25 8 26 3 27 4 28 5 29 7 30 6 31 2 32 1 33
REMARK SMILES IDX 27 34 28 35 29 36 30 37 31 38 32 40 33 41 34 42 98 43 35 44
REMARK SMILES IDX 97 45 36 46 37 47 38 48 91 49 39 50 96 51 90 52 92 53 40 54
REMARK SMILES IDX 95 55 89 56 88 57 41 59 75 60 54 61 74 62 55 63 58 64 73 65
REMARK SMILES IDX 93 66 56 67 57 68 72 70 94 71 59 72 42 73 43 74 52 75 44 76
REMARK SMILES IDX 45 77 51 78 53 79 46 80 47 81 48 82 49 83 50 84 76 85 77 86
REMARK SMILES IDX 86 87 78 88 79 89 85 90 87 91 80 92 81 93 82 94 83 95 84 96
REMARK SMILES IDX 60 97 61 98 70 99 62 100 63 101 69 102 71 103 64 104 65 105
REMARK SMILES IDX 66 106 67 107 68 108
REMARK H PARENT 25 5 9 24 30 39 92 58 58 69
REMARK Flexibility Score: inf
ROOT
ATOM      1  C   UNL A   1      34.907  30.274  27.925  1.00  0.00     0.116 C 
ENDROOT
BRANCH   1   2
ATOM      2  N   UNL A   1      34.943  29.556  26.670  1.00  0.00    -0.356 N 
ATOM      3  C   UNL A   1      33.968  28.993  25.917  1.00  0.00     0.224 C 
ATOM      4  O   UNL A   1      34.325  28.456  24.861  1.00  0.00    -0.275 OA
ATOM      5  H   UNL A   1      35.846  29.456  26.291  1.00  0.00     0.163 HD
BRANCH   3   6
ATOM      6  C   UNL A   1      32.487  28.962  26.295  1.00  0.00     0.093 C 
ATOM      7  N   UNL A   1      30.930  27.535  24.894  1.00  0.00    -0.197 NA
ATOM      8  C   UNL A   1      30.224  28.720  24.367  1.00  0.00     0.102 C 
ATOM      9  C   UNL A   1      31.795  27.627  26.096  1.00  0.00     0.116 C 
ATOM     10  C   UNL A   1      30.996  30.017  24.520  1.00  0.00     0.018 C 
ATOM     11  C   UNL A   1      31.679  30.178  25.861  1.00  0.00     0.016 C 
BRANCH   7  12
ATOM     12  S   UNL A   1      30.195  26.023  24.622  1.00  0.00     0.243 S 
ATOM     13  O   UNL A   1      28.901  26.252  24.032  1.00  0.00    -0.207 OA
ATOM     14  O   UNL A   1      30.363  25.235  25.830  1.00  0.00    -0.207 OA
BRANCH  12  15
ATOM     15  C   UNL A   1      31.176  25.210  23.374  1.00  0.00     0.083 A 
ATOM     16  C   UNL A   1      32.195  23.157  22.634  1.00  0.00     0.077 A 
ATOM     17  C   UNL A   1      31.372  23.834  23.536  1.00  0.00     0.038 A 
ATOM     18  C   UNL A   1      32.729  23.814  21.526  1.00  0.00     0.136 A 
ATOM     19  C   UNL A   1      32.540  25.182  21.371  1.00  0.00     0.041 A 
ATOM     20  F   UNL A   1      33.484  23.164  20.630  1.00  0.00    -0.206 F 
ATOM     21  C   UNL A   1      31.781  25.885  22.307  1.00  0.00     0.025 A 
BRANCH  16  22
ATOM     22  C   UNL A   1      32.558  21.770  22.937  1.00  0.00     0.258 C 
ATOM     23  N   UNL A   1      33.674  21.469  23.689  1.00  0.00    -0.322 N 
ATOM     24  H   UNL A   1      33.867  20.505  23.752  1.00  0.00     0.170 HD
ATOM     25  O   UNL A   1      31.848  20.874  22.488  1.00  0.00    -0.269 OA
BRANCH  23  26
ATOM     26  C   UNL A   1      34.594  22.287  24.385  1.00  0.00     0.044 A 
ATOM     27  C   UNL A   1      34.359  22.592  25.741  1.00  0.00    -0.025 A 
ATOM     28  C   UNL A   1      35.350  23.280  26.473  1.00  0.00     0.006 A 
ATOM     29  C   UNL A   1      36.528  23.706  25.869  1.00  0.00     0.000 A 
ATOM     30  C   UNL A   1      35.739  22.819  23.776  1.00  0.00     0.026 A 
ATOM     31  C   UNL A   1      36.709  23.502  24.511  1.00  0.00     0.002 A 
BRANCH  27  32
ATOM     32  C   UNL A   1      33.067  22.276  26.463  1.00  0.00     0.034 C 
ATOM     33  C   UNL A   1      33.282  22.325  27.972  1.00  0.00     0.009 C 
ENDBRANCH  27  32
ENDBRANCH  23  26
ENDBRANCH  16  22
ENDBRANCH  12  15
ENDBRANCH   7  12
ENDBRANCH   3   6
ENDBRANCH   1   2
BRANCH   1  34
ATOM     34  C   UNL A   1      34.867  31.785  27.714  1.00  0.00     0.023 C 
BRANCH  34  35
ATOM     35  C   UNL A   1      34.965  32.598  28.996  1.00  0.00     0.023 C 
BRANCH  35  36
ATOM     36  C   UNL A   1      36.185  32.286  29.849  1.00  0.00     0.116 C 
BRANCH  36  37
ATOM     37  N   UNL A   1      35.988  31.204  30.806  1.00  0.00    -0.352 N 
ATOM     38  C   UNL A   1      36.872  30.190  31.109  1.00  0.00     0.251 C 
ATOM     39  H   UNL A   1      35.129  31.195  31.287  1.00  0.00     0.163 HD
ATOM     40  O   UNL A   1      36.561  29.281  31.869  1.00  0.00    -0.269 OA
BRANCH  38  41
ATOM     41  C   UNL A   1      38.189  30.209  30.445  1.00  0.00     0.039 A 
ATOM     42  C   UNL A   1      39.319  30.554  31.188  1.00  0.00     0.014 A 
ATOM     43  C   UNL A   1      38.309  29.724  29.140  1.00  0.00     0.014 A 
ATOM     44  C   UNL A   1      40.584  30.325  30.647  1.00  0.00     0.010 A 
ATOM     45  C   UNL A   1      39.566  29.403  28.648  1.00  0.00     0.010 A 
ATOM     46  C   UNL A   1      40.718  29.700  29.395  1.00  0.00    -0.014 A 
BRANCH  46  47
ATOM     47  C   UNL A   1      42.050  29.347  28.844  1.00  0.00     0.031 A 
ATOM     48  C   UNL A   1      42.311  27.942  28.374  1.00  0.00     0.074 A 
ATOM     49  C   UNL A   1      43.043  30.259  28.844  1.00  0.00     0.049 A 
ATOM     50  N   UNL A   1      43.423  27.409  27.940  1.00  0.00    -0.248 NA
ATOM     51  C   UNL A   1      41.181  27.001  28.440  1.00  0.00     0.031 C 
ATOM     52  C   UNL A   1      42.937  31.630  29.347  1.00  0.00     0.029 A 
ATOM     53  N   UNL A   1      44.346  30.164  28.420  1.00  0.00    -0.354 N 
ATOM     54  C   UNL A   1      43.131  26.073  27.699  1.00  0.00     0.074 A 
ATOM     55  C   UNL A   1      41.760  25.859  28.106  1.00  0.00     0.031 C 
ATOM     56  C   UNL A   1      44.115  32.253  29.184  1.00  0.00     0.029 A 
ATOM     57  C   UNL A   1      45.071  31.318  28.598  1.00  0.00     0.049 A 
ATOM     58  H   UNL A   1      44.725  29.345  28.027  1.00  0.00     0.167 HD
ATOM     59  C   UNL A   1      43.920  25.117  27.154  1.00  0.00     0.037 A 
ATOM     60  C   UNL A   1      46.362  31.592  28.322  1.00  0.00     0.037 A 
ATOM     61  C   UNL A   1      45.273  25.343  26.725  1.00  0.00     0.049 A 
ATOM     62  C   UNL A   1      47.214  30.526  27.691  1.00  0.00     0.074 A 
ATOM     63  C   UNL A   1      46.140  24.463  26.106  1.00  0.00     0.029 A 
ATOM     64  N   UNL A   1      45.957  26.543  26.872  1.00  0.00    -0.354 N 
ATOM     65  N   UNL A   1      46.899  29.287  27.397  1.00  0.00    -0.248 NA
ATOM     66  C   UNL A   1      48.592  30.896  27.340  1.00  0.00     0.031 C 
ATOM     67  C   UNL A   1      47.362  25.117  25.912  1.00  0.00     0.029 A 
ATOM     68  C   UNL A   1      47.241  26.421  26.368  1.00  0.00     0.049 A 
ATOM     69  H   UNL A   1      45.585  27.359  27.276  1.00  0.00     0.167 HD
ATOM     70  C   UNL A   1      48.032  28.733  26.811  1.00  0.00     0.074 A 
ATOM     71  C   UNL A   1      49.035  29.780  26.776  1.00  0.00     0.031 C 
ATOM     72  C   UNL A   1      48.225  27.475  26.342  1.00  0.00     0.037 A 
BRANCH  59  73
ATOM     73  C   UNL A   1      43.320  23.747  26.987  1.00  0.00     0.058 A 
ATOM     74  C   UNL A   1      43.170  22.872  28.076  1.00  0.00     0.135 A 
ATOM     75  C   UNL A   1      42.902  23.296  25.725  1.00  0.00     0.135 A 
ATOM     76  F   UNL A   1      43.569  23.246  29.303  1.00  0.00    -0.206 F 
ATOM     77  C   UNL A   1      42.678  21.582  27.913  1.00  0.00     0.059 A 
ATOM     78  C   UNL A   1      42.375  22.020  25.544  1.00  0.00     0.059 A 
ATOM     79  F   UNL A   1      43.017  24.090  24.649  1.00  0.00    -0.206 F 
ATOM     80  C   UNL A   1      42.289  21.163  26.640  1.00  0.00     0.060 A 
BRANCH  80  81
ATOM     81  S   UNL A   1      41.676  19.477  26.439  1.00  0.00     0.124 S 
ATOM     82  O   UNL A   1      42.390  19.049  25.241  1.00  0.00    -0.237 OA
ATOM     83  O   UNL A   1      42.091  18.842  27.685  1.00  0.00    -0.237 OA
ATOM     84  O   UNL A   1      40.235  19.657  26.282  1.00  0.00    -0.744 OA
ENDBRANCH  80  81
ENDBRANCH  59  73
BRANCH  60  85
ATOM     85  C   UNL A   1      46.909  32.943  28.621  1.00  0.00     0.058 A 
ATOM     86  C   UNL A   1      46.907  33.956  27.650  1.00  0.00     0.135 A 
ATOM     87  C   UNL A   1      47.405  33.261  29.895  1.00  0.00     0.135 A 
ATOM     88  F   UNL A   1      46.449  33.701  26.416  1.00  0.00    -0.206 F 
ATOM     89  C   UNL A   1      47.383  35.233  27.929  1.00  0.00     0.059 A 
ATOM     90  C   UNL A   1      47.865  34.537  30.204  1.00  0.00     0.059 A 
ATOM     91  F   UNL A   1      47.412  32.332  30.864  1.00  0.00    -0.206 F 
ATOM     92  C   UNL A   1      47.854  35.516  29.212  1.00  0.00     0.060 A 
BRANCH  92  93
ATOM     93  S   UNL A   1      48.399  37.198  29.584  1.00  0.00     0.124 S 
ATOM     94  O   UNL A   1      48.201  37.863  28.302  1.00  0.00    -0.237 OA
ATOM     95  O   UNL A   1      47.486  37.587  30.655  1.00  0.00    -0.237 OA
ATOM     96  O   UNL A   1      49.788  37.016  29.994  1.00  0.00    -0.744 OA
ENDBRANCH  92  93
ENDBRANCH  60  85
BRANCH  72  97
ATOM     97  C   UNL A   1      49.562  27.162  25.729  1.00  0.00     0.058 A 
ATOM     98  C   UNL A   1      49.802  27.336  24.358  1.00  0.00     0.135 A 
ATOM     99  C   UNL A   1      50.630  26.740  26.536  1.00  0.00     0.135 A 
ATOM    100  F   UNL A   1      48.812  27.731  23.543  1.00  0.00    -0.206 F 
ATOM    101  C   UNL A   1      51.053  27.084  23.803  1.00  0.00     0.059 A 
ATOM    102  C   UNL A   1      51.897  26.509  26.007  1.00  0.00     0.059 A 
ATOM    103  F   UNL A   1      50.456  26.569  27.856  1.00  0.00    -0.206 F 
ATOM    104  C   UNL A   1      52.094  26.674  24.638  1.00  0.00     0.060 A 
BRANCH 104 105
ATOM    105  S   UNL A   1      53.723  26.387  23.912  1.00  0.00     0.124 S 
ATOM    106  O   UNL A   1      54.422  27.618  24.263  1.00  0.00    -0.237 OA
ATOM    107  O   UNL A   1      54.168  25.183  24.608  1.00  0.00    -0.237 OA
ATOM    108  O   UNL A   1      53.434  26.211  22.491  1.00  0.00    -0.744 OA
ENDBRANCH 104 105
ENDBRANCH  72  97
ENDBRANCH  46  47
ENDBRANCH  38  41
ENDBRANCH  36  37
ENDBRANCH  35  36
ENDBRANCH  34  35
ENDBRANCH   1  34
TORSDOF 19
ENDMDL
MODEL 3
REMARK VINA RESULT:     -11.8      4.879      8.853
REMARK SMILES CCc1ccccc1NC(=O)c1cc(S(=O)(=O)N2CCC[C@H](C(=O)NCCCCNC(=O)c3ccc(-c4c5nc(c(-c6c(F)cc(S(=O)(=O)[O-])cc6F)c6ccc([nH]6)c(-c6c(F)cc(S(=O)(=O)[O-])cc6F)c6nc(c(-c7c(F)cc(S(=O)(=O)[O-])cc7F)c7ccc4[nH]7)C=C6)C=C5)cc3)C2)ccc1F
REMARK SMILES IDX 26 1 25 2 23 3 24 4 22 6 18 7 19 8 99 9 20 10 21 11 15 12
REMARK SMILES IDX 16 13 17 14 14 15 12 16 13 17 102 18 101 19 103 20 100 21
REMARK SMILES IDX 10 22 9 23 11 25 8 26 3 27 4 28 5 29 7 30 6 31 2 32 1 33
REMARK SMILES IDX 27 34 28 35 29 36 30 37 31 38 32 40 33 41 34 42 98 43 35 44
REMARK SMILES IDX 97 45 36 46 37 47 38 48 91 49 39 50 96 51 90 52 92 53 40 54
REMARK SMILES IDX 95 55 89 56 88 57 41 59 75 60 54 61 74 62 55 63 58 64 73 65
REMARK SMILES IDX 93 66 56 67 57 68 72 70 94 71 59 72 42 73 43 74 52 75 44 76
REMARK SMILES IDX 45 77 51 78 53 79 46 80 47 81 48 82 49 83 50 84 76 85 77 86
REMARK SMILES IDX 86 87 78 88 79 89 85 90 87 91 80 92 81 93 82 94 83 95 84 96
REMARK SMILES IDX 60 97 61 98 70 99 62 100 63 101 69 102 71 103 64 104 65 105
REMARK SMILES IDX 66 106 67 107 68 108
REMARK H PARENT 25 5 9 24 30 39 92 58 58 69
REMARK Flexibility Score: inf
ROOT
ATOM      1  C   UNL A   1      37.013  33.425  32.689  1.00  0.00     0.116 C 
ENDROOT
BRANCH   1   2
ATOM      2  N   UNL A   1      36.968  32.662  33.917  1.00  0.00    -0.356 N 
ATOM      3  C   UNL A   1      37.942  32.104  34.676  1.00  0.00     0.224 C 
ATOM      4  O   UNL A   1      37.575  31.519  35.703  1.00  0.00    -0.275 OA
ATOM      5  H   UNL A   1      36.059  32.520  34.268  1.00  0.00     0.163 HD
BRANCH   3   6
ATOM      6  C   UNL A   1      39.432  32.133  34.336  1.00  0.00     0.093 C 
ATOM      7  N   UNL A   1      40.764  29.998  34.641  1.00  0.00    -0.197 NA
ATOM      8  C   UNL A   1      41.549  30.578  35.750  1.00  0.00     0.102 C 
ATOM      9  C   UNL A   1      39.982  30.860  33.721  1.00  0.00     0.116 C 
ATOM     10  C   UNL A   1      40.913  31.802  36.382  1.00  0.00     0.018 C 
ATOM     11  C   UNL A   1      40.325  32.779  35.387  1.00  0.00     0.016 C 
BRANCH   7  12
ATOM     12  S   UNL A   1      41.335  28.536  33.982  1.00  0.00     0.243 S 
ATOM     13  O   UNL A   1      42.375  28.846  33.034  1.00  0.00    -0.207 OA
ATOM     14  O   UNL A   1      40.176  27.740  33.621  1.00  0.00    -0.207 OA
BRANCH  12  15
ATOM     15  C   UNL A   1      42.125  27.661  35.320  1.00  0.00     0.083 A 
ATOM     16  C   UNL A   1      44.189  26.838  36.249  1.00  0.00     0.077 A 
ATOM     17  C   UNL A   1      43.520  27.577  35.271  1.00  0.00     0.038 A 
ATOM     18  C   UNL A   1      43.493  26.280  37.320  1.00  0.00     0.136 A 
ATOM     19  C   UNL A   1      42.106  26.358  37.364  1.00  0.00     0.041 A 
ATOM     20  F   UNL A   1      44.129  25.607  38.288  1.00  0.00    -0.206 F 
ATOM     21  C   UNL A   1      41.419  27.030  36.352  1.00  0.00     0.025 A 
BRANCH  16  22
ATOM     22  C   UNL A   1      45.620  26.584  36.064  1.00  0.00     0.258 C 
ATOM     23  N   UNL A   1      46.070  25.551  35.270  1.00  0.00    -0.322 N 
ATOM     24  H   UNL A   1      47.046  25.423  35.293  1.00  0.00     0.170 HD
ATOM     25  O   UNL A   1      46.418  27.311  36.653  1.00  0.00    -0.269 OA
BRANCH  23  26
ATOM     26  C   UNL A   1      45.388  24.640  34.429  1.00  0.00     0.044 A 
ATOM     27  C   UNL A   1      44.904  23.431  34.967  1.00  0.00    -0.025 A 
ATOM     28  C   UNL A   1      44.096  22.597  34.166  1.00  0.00     0.006 A 
ATOM     29  C   UNL A   1      43.812  22.920  32.843  1.00  0.00     0.000 A 
ATOM     30  C   UNL A   1      45.177  24.890  33.066  1.00  0.00     0.026 A 
ATOM     31  C   UNL A   1      44.379  24.054  32.283  1.00  0.00     0.002 A 
BRANCH  27  32
ATOM     32  C   UNL A   1      45.245  22.930  36.353  1.00  0.00     0.034 C 
ATOM     33  C   UNL A   1      45.700  21.476  36.291  1.00  0.00     0.009 C 
ENDBRANCH  27  32
ENDBRANCH  23  26
ENDBRANCH  16  22
ENDBRANCH  12  15
ENDBRANCH   7  12
ENDBRANCH   3   6
ENDBRANCH   1   2
BRANCH   1  34
ATOM     34  C   UNL A   1      35.626  33.897  32.263  1.00  0.00     0.023 C 
BRANCH  34  35
ATOM     35  C   UNL A   1      34.821  32.859  31.495  1.00  0.00     0.023 C 
BRANCH  35  36
ATOM     36  C   UNL A   1      35.415  32.469  30.149  1.00  0.00     0.116 C 
BRANCH  36  37
ATOM     37  N   UNL A   1      34.464  31.858  29.228  1.00  0.00    -0.352 N 
ATOM     38  C   UNL A   1      34.679  30.766  28.415  1.00  0.00     0.251 C 
ATOM     39  H   UNL A   1      33.572  32.270  29.181  1.00  0.00     0.163 HD
ATOM     40  O   UNL A   1      33.831  30.392  27.613  1.00  0.00    -0.269 OA
BRANCH  38  41
ATOM     41  C   UNL A   1      35.989  30.092  28.505  1.00  0.00     0.039 A 
ATOM     42  C   UNL A   1      36.899  30.237  27.457  1.00  0.00     0.014 A 
ATOM     43  C   UNL A   1      36.359  29.465  29.697  1.00  0.00     0.014 A 
ATOM     44  C   UNL A   1      38.220  29.827  27.643  1.00  0.00     0.010 A 
ATOM     45  C   UNL A   1      37.694  29.154  29.913  1.00  0.00     0.010 A 
ATOM     46  C   UNL A   1      38.639  29.331  28.890  1.00  0.00    -0.014 A 
BRANCH  46  47
ATOM     47  C   UNL A   1      40.060  28.990  29.149  1.00  0.00     0.031 A 
ATOM     48  C   UNL A   1      40.980  30.026  29.734  1.00  0.00     0.074 A 
ATOM     49  C   UNL A   1      40.541  27.784  28.783  1.00  0.00     0.049 A 
ATOM     50  N   UNL A   1      42.266  29.959  29.958  1.00  0.00    -0.248 NA
ATOM     51  C   UNL A   1      40.380  31.327  30.072  1.00  0.00     0.031 C 
ATOM     52  C   UNL A   1      39.769  26.723  28.134  1.00  0.00     0.029 A 
ATOM     53  N   UNL A   1      41.803  27.254  28.891  1.00  0.00    -0.354 N 
ATOM     54  C   UNL A   1      42.629  31.208  30.446  1.00  0.00     0.074 A 
ATOM     55  C   UNL A   1      41.444  32.036  30.413  1.00  0.00     0.031 C 
ATOM     56  C   UNL A   1      40.566  25.664  27.921  1.00  0.00     0.029 A 
ATOM     57  C   UNL A   1      41.914  25.980  28.385  1.00  0.00     0.049 A 
ATOM     58  H   UNL A   1      42.559  27.741  29.292  1.00  0.00     0.167 HD
ATOM     59  C   UNL A   1      43.831  31.619  30.914  1.00  0.00     0.037 A 
ATOM     60  C   UNL A   1      42.980  25.161  28.302  1.00  0.00     0.037 A 
ATOM     61  C   UNL A   1      44.998  30.782  30.969  1.00  0.00     0.049 A 
ATOM     62  C   UNL A   1      44.301  25.624  28.853  1.00  0.00     0.074 A 
ATOM     63  C   UNL A   1      46.248  31.078  31.479  1.00  0.00     0.029 A 
ATOM     64  N   UNL A   1      45.056  29.477  30.497  1.00  0.00    -0.354 N 
ATOM     65  N   UNL A   1      44.610  26.784  29.383  1.00  0.00    -0.248 NA
ATOM     66  C   UNL A   1      45.415  24.668  28.807  1.00  0.00     0.031 C 
ATOM     67  C   UNL A   1      47.075  29.967  31.281  1.00  0.00     0.029 A 
ATOM     68  C   UNL A   1      46.326  28.961  30.690  1.00  0.00     0.049 A 
ATOM     69  H   UNL A   1      44.306  28.992  30.085  1.00  0.00     0.167 HD
ATOM     70  C   UNL A   1      45.947  26.692  29.752  1.00  0.00     0.074 A 
ATOM     71  C   UNL A   1      46.384  25.355  29.399  1.00  0.00     0.031 C 
ATOM     72  C   UNL A   1      46.742  27.626  30.332  1.00  0.00     0.037 A 
BRANCH  59  73
ATOM     73  C   UNL A   1      43.924  33.037  31.409  1.00  0.00     0.058 A 
ATOM     74  C   UNL A   1      43.534  33.388  32.713  1.00  0.00     0.135 A 
ATOM     75  C   UNL A   1      44.394  34.061  30.570  1.00  0.00     0.135 A 
ATOM     76  F   UNL A   1      43.062  32.452  33.552  1.00  0.00    -0.206 F 
ATOM     77  C   UNL A   1      43.557  34.707  33.150  1.00  0.00     0.059 A 
ATOM     78  C   UNL A   1      44.457  35.384  30.999  1.00  0.00     0.059 A 
ATOM     79  F   UNL A   1      44.783  33.783  29.316  1.00  0.00    -0.206 F 
ATOM     80  C   UNL A   1      44.014  35.699  32.282  1.00  0.00     0.060 A 
BRANCH  80  81
ATOM     81  S   UNL A   1      44.014  37.411  32.856  1.00  0.00     0.124 S 
ATOM     82  O   UNL A   1      43.753  38.133  31.615  1.00  0.00    -0.237 OA
ATOM     83  O   UNL A   1      42.929  37.415  33.831  1.00  0.00    -0.237 OA
ATOM     84  O   UNL A   1      45.353  37.582  33.413  1.00  0.00    -0.744 OA
ENDBRANCH  80  81
ENDBRANCH  59  73
BRANCH  60  85
ATOM     85  C   UNL A   1      42.827  23.811  27.696  1.00  0.00     0.058 A 
ATOM     86  C   UNL A   1      43.016  23.610  26.320  1.00  0.00     0.135 A 
ATOM     87  C   UNL A   1      42.531  22.688  28.485  1.00  0.00     0.135 A 
ATOM     88  F   UNL A   1      43.295  24.651  25.522  1.00  0.00    -0.206 F 
ATOM     89  C   UNL A   1      42.910  22.346  25.746  1.00  0.00     0.059 A 
ATOM     90  C   UNL A   1      42.443  21.412  27.938  1.00  0.00     0.059 A 
ATOM     91  F   UNL A   1      42.359  22.825  29.809  1.00  0.00    -0.206 F 
ATOM     92  C   UNL A   1      42.631  21.251  26.566  1.00  0.00     0.060 A 
BRANCH  92  93
ATOM     93  S   UNL A   1      42.571  19.606  25.824  1.00  0.00     0.124 S 
ATOM     94  O   UNL A   1      41.152  19.469  25.520  1.00  0.00    -0.237 OA
ATOM     95  O   UNL A   1      43.459  19.755  24.675  1.00  0.00    -0.237 OA
ATOM     96  O   UNL A   1      43.077  18.741  26.886  1.00  0.00    -0.744 OA
ENDBRANCH  92  93
ENDBRANCH  60  85
BRANCH  72  97
ATOM     97  C   UNL A   1      48.159  27.233  30.643  1.00  0.00     0.058 A 
ATOM     98  C   UNL A   1      48.543  26.823  31.929  1.00  0.00     0.135 A 
ATOM     99  C   UNL A   1      49.128  27.209  29.628  1.00  0.00     0.135 A 
ATOM    100  F   UNL A   1      47.656  26.834  32.936  1.00  0.00    -0.206 F 
ATOM    101  C   UNL A   1      49.847  26.421  32.202  1.00  0.00     0.059 A 
ATOM    102  C   UNL A   1      50.430  26.784  29.872  1.00  0.00     0.059 A 
ATOM    103  F   UNL A   1      48.808  27.581  28.379  1.00  0.00    -0.206 F 
ATOM    104  C   UNL A   1      50.782  26.402  31.165  1.00  0.00     0.060 A 
BRANCH 104 105
ATOM    105  S   UNL A   1      52.461  25.841  31.525  1.00  0.00     0.124 S 
ATOM    106  O   UNL A   1      53.106  25.994  30.225  1.00  0.00    -0.237 OA
ATOM    107  O   UNL A   1      52.889  26.779  32.559  1.00  0.00    -0.237 OA
ATOM    108  O   UNL A   1      52.269  24.466  31.974  1.00  0.00    -0.744 OA
ENDBRANCH 104 105
ENDBRANCH  72  97
ENDBRANCH  46  47
ENDBRANCH  38  41
ENDBRANCH  36  37
ENDBRANCH  35  36
ENDBRANCH  34  35
ENDBRANCH   1  34
TORSDOF 19
ENDMDL
