MODEL 1
REMARK VINA RESULT:     -12.6      0.000      0.000
REMARK SMILES O=C(NCCCCNC(=O)[C@H]1C[C@H]2CCCC[C@@H]2[N@@H+]1C1CCSCC1)c1ccc(-c2c3nc(c(-c4c(F)cc(S(=O)(=O)[O-])cc4F)c4ccc([nH]4)c(-c4c(F)cc(S(=O)(=O)[O-])cc4F)c4nc(c(-c5c(F)cc(S(=O)(=O)[O-])cc5F)c5ccc2[nH]5)C=C4)C=C3)cc1
REMARK SMILES IDX 4 1 3 2 1 3 2 4 26 6 27 7 91 8 28 9 90 10 29 11 30 12 31 13
REMARK SMILES IDX 84 14 32 15 89 16 83 17 85 18 33 19 88 20 82 21 81 22 34 24
REMARK SMILES IDX 68 25 47 26 67 27 48 28 51 29 66 30 86 31 49 32 50 33 65 35
REMARK SMILES IDX 87 36 52 37 35 38 36 39 45 40 37 41 38 42 44 43 46 44 39 45
REMARK SMILES IDX 40 46 41 47 42 48 43 49 69 50 70 51 79 52 71 53 72 54 78 55
REMARK SMILES IDX 80 56 73 57 74 58 75 59 76 60 77 61 53 62 54 63 63 64 55 65
REMARK SMILES IDX 56 66 62 67 64 68 57 69 58 70 59 71 60 72 61 73 5 74 6 75
REMARK SMILES IDX 7 76 8 77 9 78 10 80 11 81 12 82 19 83 13 84 18 85 14 87
REMARK SMILES IDX 17 88 15 89 16 90 20 91 21 92 25 93 22 94 24 95 23 96
REMARK H PARENT 3 5 85 23 51 34 8 79 19 86
REMARK Flexibility Score: inf
ROOT
ATOM      1  C   UNL A   1      40.346  23.494  27.049  1.00  0.00     0.116 C 
ENDROOT
BRANCH   1   2
ATOM      2  N   UNL A   1      41.146  24.148  26.020  1.00  0.00    -0.352 N 
ATOM      3  O   UNL A   1      42.122  25.914  24.986  1.00  0.00    -0.269 OA
ATOM      4  C   UNL A   1      41.512  25.476  25.956  1.00  0.00     0.251 C 
ATOM      5  H   UNL A   1      41.462  23.574  25.285  1.00  0.00     0.163 HD
BRANCH   4   6
ATOM      6  C   UNL A   1      41.112  26.367  27.064  1.00  0.00     0.039 A 
ATOM      7  C   UNL A   1      41.696  27.628  27.175  1.00  0.00     0.014 A 
ATOM      8  C   UNL A   1      40.246  25.897  28.056  1.00  0.00     0.014 A 
ATOM      9  C   UNL A   1      41.583  28.325  28.366  1.00  0.00     0.010 A 
ATOM     10  C   UNL A   1      40.031  26.666  29.205  1.00  0.00     0.010 A 
ATOM     11  C   UNL A   1      40.734  27.867  29.389  1.00  0.00    -0.014 A 
BRANCH  11  12
ATOM     12  C   UNL A   1      40.572  28.717  30.597  1.00  0.00     0.031 A 
ATOM     13  C   UNL A   1      41.522  28.636  31.762  1.00  0.00     0.074 A 
ATOM     14  C   UNL A   1      39.589  29.640  30.584  1.00  0.00     0.049 A 
ATOM     15  N   UNL A   1      41.543  29.362  32.851  1.00  0.00    -0.248 NA
ATOM     16  C   UNL A   1      42.574  27.609  31.711  1.00  0.00     0.031 C 
ATOM     17  C   UNL A   1      38.595  29.790  29.515  1.00  0.00     0.029 A 
ATOM     18  N   UNL A   1      39.288  30.651  31.457  1.00  0.00    -0.354 N 
ATOM     19  C   UNL A   1      42.588  28.869  33.624  1.00  0.00     0.074 A 
ATOM     20  C   UNL A   1      43.169  27.767  32.886  1.00  0.00     0.031 C 
ATOM     21  C   UNL A   1      37.852  30.879  29.752  1.00  0.00     0.029 A 
ATOM     22  C   UNL A   1      38.260  31.457  31.026  1.00  0.00     0.049 A 
ATOM     23  H   UNL A   1      39.761  30.788  32.309  1.00  0.00     0.167 HD
ATOM     24  C   UNL A   1      43.023  29.301  34.833  1.00  0.00     0.037 A 
ATOM     25  C   UNL A   1      37.693  32.534  31.596  1.00  0.00     0.037 A 
ATOM     26  C   UNL A   1      42.447  30.414  35.548  1.00  0.00     0.049 A 
ATOM     27  C   UNL A   1      38.217  33.010  32.916  1.00  0.00     0.074 A 
ATOM     28  C   UNL A   1      42.808  30.926  36.784  1.00  0.00     0.029 A 
ATOM     29  N   UNL A   1      41.395  31.194  35.089  1.00  0.00    -0.354 N 
ATOM     30  N   UNL A   1      39.196  32.517  33.635  1.00  0.00    -0.248 NA
ATOM     31  C   UNL A   1      37.556  34.178  33.507  1.00  0.00     0.031 C 
ATOM     32  C   UNL A   1      41.961  32.000  37.081  1.00  0.00     0.029 A 
ATOM     33  C   UNL A   1      41.094  32.180  36.015  1.00  0.00     0.049 A 
ATOM     34  H   UNL A   1      40.931  31.066  34.230  1.00  0.00     0.167 HD
ATOM     35  C   UNL A   1      39.262  33.307  34.774  1.00  0.00     0.074 A 
ATOM     36  C   UNL A   1      38.251  34.337  34.625  1.00  0.00     0.031 C 
ATOM     37  C   UNL A   1      40.072  33.184  35.853  1.00  0.00     0.037 A 
BRANCH  24  38
ATOM     38  C   UNL A   1      44.171  28.569  35.473  1.00  0.00     0.058 A 
ATOM     39  C   UNL A   1      45.505  28.905  35.197  1.00  0.00     0.135 A 
ATOM     40  C   UNL A   1      43.936  27.558  36.420  1.00  0.00     0.135 A 
ATOM     41  F   UNL A   1      45.788  29.852  34.289  1.00  0.00    -0.206 F 
ATOM     42  C   UNL A   1      46.565  28.258  35.826  1.00  0.00     0.059 A 
ATOM     43  C   UNL A   1      44.980  26.911  37.077  1.00  0.00     0.059 A 
ATOM     44  F   UNL A   1      42.679  27.195  36.722  1.00  0.00    -0.206 F 
ATOM     45  C   UNL A   1      46.292  27.262  36.765  1.00  0.00     0.060 A 
BRANCH  45  46
ATOM     46  S   UNL A   1      47.677  26.444  37.587  1.00  0.00     0.124 S 
ATOM     47  O   UNL A   1      48.804  26.895  36.776  1.00  0.00    -0.237 OA
ATOM     48  O   UNL A   1      47.609  26.992  38.938  1.00  0.00    -0.237 OA
ATOM     49  O   UNL A   1      47.351  25.025  37.473  1.00  0.00    -0.744 OA
ENDBRANCH  45  46
ENDBRANCH  24  38
BRANCH  25  50
ATOM     50  C   UNL A   1      36.555  33.208  30.920  1.00  0.00     0.058 A 
ATOM     51  C   UNL A   1      35.245  33.088  31.404  1.00  0.00     0.135 A 
ATOM     52  C   UNL A   1      36.769  34.023  29.797  1.00  0.00     0.135 A 
ATOM     53  F   UNL A   1      34.994  32.320  32.475  1.00  0.00    -0.206 F 
ATOM     54  C   UNL A   1      34.183  33.745  30.793  1.00  0.00     0.059 A 
ATOM     55  C   UNL A   1      35.728  34.714  29.187  1.00  0.00     0.059 A 
ATOM     56  F   UNL A   1      38.008  34.189  29.312  1.00  0.00    -0.206 F 
ATOM     57  C   UNL A   1      34.435  34.557  29.685  1.00  0.00     0.060 A 
BRANCH  57  58
ATOM     58  S   UNL A   1      33.065  35.458  28.929  1.00  0.00     0.124 S 
ATOM     59  O   UNL A   1      33.774  36.479  28.168  1.00  0.00    -0.237 OA
ATOM     60  O   UNL A   1      32.404  34.420  28.145  1.00  0.00    -0.237 OA
ATOM     61  O   UNL A   1      32.307  35.937  30.081  1.00  0.00    -0.744 OA
ENDBRANCH  57  58
ENDBRANCH  25  50
BRANCH  37  62
ATOM     62  C   UNL A   1      39.886  34.192  36.949  1.00  0.00     0.058 A 
ATOM     63  C   UNL A   1      39.084  33.911  38.067  1.00  0.00     0.135 A 
ATOM     64  C   UNL A   1      40.504  35.449  36.879  1.00  0.00     0.135 A 
ATOM     65  F   UNL A   1      38.464  32.726  38.174  1.00  0.00    -0.206 F 
ATOM     66  C   UNL A   1      38.872  34.859  39.062  1.00  0.00     0.059 A 
ATOM     67  C   UNL A   1      40.325  36.403  37.874  1.00  0.00     0.059 A 
ATOM     68  F   UNL A   1      41.286  35.760  35.833  1.00  0.00    -0.206 F 
ATOM     69  C   UNL A   1      39.490  36.105  38.952  1.00  0.00     0.060 A 
BRANCH  69  70
ATOM     70  S   UNL A   1      39.204  37.332  40.245  1.00  0.00     0.124 S 
ATOM     71  O   UNL A   1      38.518  36.536  41.257  1.00  0.00    -0.237 OA
ATOM     72  O   UNL A   1      40.558  37.758  40.582  1.00  0.00    -0.237 OA
ATOM     73  O   UNL A   1      38.385  38.340  39.577  1.00  0.00    -0.744 OA
ENDBRANCH  69  70
ENDBRANCH  37  62
ENDBRANCH  11  12
ENDBRANCH   4   6
ENDBRANCH   1   2
BRANCH   1  74
ATOM     74  C   UNL A   1      39.054  22.891  26.536  1.00  0.00     0.023 C 
BRANCH  74  75
ATOM     75  C   UNL A   1      37.996  23.904  26.124  1.00  0.00     0.023 C 
BRANCH  75  76
ATOM     76  C   UNL A   1      36.697  23.306  25.582  1.00  0.00     0.116 C 
BRANCH  76  77
ATOM     77  N   UNL A   1      35.932  22.672  26.638  1.00  0.00    -0.351 N 
ATOM     78  C   UNL A   1      34.899  21.777  26.571  1.00  0.00     0.278 C 
ATOM     79  H   UNL A   1      36.198  22.926  27.551  1.00  0.00     0.163 HD
ATOM     80  O   UNL A   1      34.391  21.422  27.638  1.00  0.00    -0.268 OA
BRANCH  78  81
ATOM     81  C   UNL A   1      34.471  21.184  25.208  1.00  0.00     0.275 C 
ATOM     82  C   UNL A   1      35.443  20.037  24.852  1.00  0.00     0.085 C 
ATOM     83  N   UNL A   1      33.116  20.578  25.298  1.00  0.00    -0.320 N 
ATOM     84  C   UNL A   1      34.519  18.910  24.433  1.00  0.00     0.054 C 
ATOM     85  C   UNL A   1      33.324  19.124  25.355  1.00  0.00     0.188 C 
ATOM     86  H   UNL A   1      32.676  20.925  26.150  1.00  0.00     0.349 HD
ATOM     87  C   UNL A   1      35.061  17.492  24.540  1.00  0.00     0.010 C 
ATOM     88  C   UNL A   1      32.192  18.143  25.043  1.00  0.00     0.065 C 
ATOM     89  C   UNL A   1      33.945  16.494  24.210  1.00  0.00     0.001 C 
ATOM     90  C   UNL A   1      32.708  16.700  25.091  1.00  0.00     0.006 C 
BRANCH  83  91
ATOM     91  C   UNL A   1      32.007  21.087  24.474  1.00  0.00     0.186 C 
ATOM     92  C   UNL A   1      31.187  22.198  25.165  1.00  0.00     0.076 C 
ATOM     93  C   UNL A   1      32.276  21.413  22.987  1.00  0.00     0.076 C 
ATOM     94  C   UNL A   1      31.678  23.619  24.966  1.00  0.00     0.075 C 
ATOM     95  C   UNL A   1      32.892  22.766  22.673  1.00  0.00     0.075 C 
ATOM     96  S   UNL A   1      31.816  24.108  23.231  1.00  0.00    -0.162 SA
ENDBRANCH  83  91
ENDBRANCH  78  81
ENDBRANCH  76  77
ENDBRANCH  75  76
ENDBRANCH  74  75
ENDBRANCH   1  74
TORSDOF 15
ENDMDL
MODEL 2
REMARK VINA RESULT:     -12.5      5.132      9.940
REMARK SMILES O=C(NCCCCNC(=O)[C@H]1C[C@H]2CCCC[C@@H]2[N@@H+]1C1CCSCC1)c1ccc(-c2c3nc(c(-c4c(F)cc(S(=O)(=O)[O-])cc4F)c4ccc([nH]4)c(-c4c(F)cc(S(=O)(=O)[O-])cc4F)c4nc(c(-c5c(F)cc(S(=O)(=O)[O-])cc5F)c5ccc2[nH]5)C=C4)C=C3)cc1
REMARK SMILES IDX 4 1 3 2 1 3 2 4 26 6 27 7 91 8 28 9 90 10 29 11 30 12 31 13
REMARK SMILES IDX 84 14 32 15 89 16 83 17 85 18 33 19 88 20 82 21 81 22 34 24
REMARK SMILES IDX 68 25 47 26 67 27 48 28 51 29 66 30 86 31 49 32 50 33 65 35
REMARK SMILES IDX 87 36 52 37 35 38 36 39 45 40 37 41 38 42 44 43 46 44 39 45
REMARK SMILES IDX 40 46 41 47 42 48 43 49 69 50 70 51 79 52 71 53 72 54 78 55
REMARK SMILES IDX 80 56 73 57 74 58 75 59 76 60 77 61 53 62 54 63 63 64 55 65
REMARK SMILES IDX 56 66 62 67 64 68 57 69 58 70 59 71 60 72 61 73 5 74 6 75
REMARK SMILES IDX 7 76 8 77 9 78 10 80 11 81 12 82 19 83 13 84 18 85 14 87
REMARK SMILES IDX 17 88 15 89 16 90 20 91 21 92 25 93 22 94 24 95 23 96
REMARK H PARENT 3 5 85 23 51 34 8 79 19 86
REMARK Flexibility Score: inf
ROOT
ATOM      1  C   UNL A   1      34.123  28.545  26.953  1.00  0.00     0.116 C 
ENDROOT
BRANCH   1   2
ATOM      2  N   UNL A   1      33.969  29.820  27.644  1.00  0.00    -0.352 N 
ATOM      3  O   UNL A   1      34.629  31.529  28.981  1.00  0.00    -0.269 OA
ATOM      4  C   UNL A   1      34.918  30.500  28.379  1.00  0.00     0.251 C 
ATOM      5  H   UNL A   1      33.084  30.245  27.579  1.00  0.00     0.163 HD
BRANCH   4   6
ATOM      6  C   UNL A   1      36.279  29.931  28.461  1.00  0.00     0.039 A 
ATOM      7  C   UNL A   1      36.710  29.355  29.655  1.00  0.00     0.014 A 
ATOM      8  C   UNL A   1      37.161  30.080  27.387  1.00  0.00     0.014 A 
ATOM      9  C   UNL A   1      38.063  29.126  29.847  1.00  0.00     0.010 A 
ATOM     10  C   UNL A   1      38.505  29.724  27.543  1.00  0.00     0.010 A 
ATOM     11  C   UNL A   1      38.976  29.286  28.790  1.00  0.00    -0.014 A 
BRANCH  11  12
ATOM     12  C   UNL A   1      40.395  28.917  29.030  1.00  0.00     0.031 A 
ATOM     13  C   UNL A   1      40.952  27.581  28.615  1.00  0.00     0.074 A 
ATOM     14  C   UNL A   1      41.205  29.857  29.558  1.00  0.00     0.049 A 
ATOM     15  N   UNL A   1      42.185  27.148  28.700  1.00  0.00    -0.248 NA
ATOM     16  C   UNL A   1      40.015  26.602  28.042  1.00  0.00     0.031 C 
ATOM     17  C   UNL A   1      40.764  31.178  30.020  1.00  0.00     0.029 A 
ATOM     18  N   UNL A   1      42.560  29.876  29.752  1.00  0.00    -0.354 N 
ATOM     19  C   UNL A   1      42.170  25.845  28.217  1.00  0.00     0.074 A 
ATOM     20  C   UNL A   1      40.800  25.549  27.855  1.00  0.00     0.031 C 
ATOM     21  C   UNL A   1      41.834  31.906  30.362  1.00  0.00     0.029 A 
ATOM     22  C   UNL A   1      43.027  31.081  30.222  1.00  0.00     0.049 A 
ATOM     23  H   UNL A   1      43.143  29.104  29.573  1.00  0.00     0.167 HD
ATOM     24  C   UNL A   1      43.207  24.980  28.085  1.00  0.00     0.037 A 
ATOM     25  C   UNL A   1      44.275  31.480  30.524  1.00  0.00     0.037 A 
ATOM     26  C   UNL A   1      44.571  25.296  28.430  1.00  0.00     0.049 A 
ATOM     27  C   UNL A   1      45.404  30.515  30.336  1.00  0.00     0.074 A 
ATOM     28  C   UNL A   1      45.693  24.488  28.342  1.00  0.00     0.029 A 
ATOM     29  N   UNL A   1      45.003  26.520  28.921  1.00  0.00    -0.354 N 
ATOM     30  N   UNL A   1      45.363  29.281  29.893  1.00  0.00    -0.248 NA
ATOM     31  C   UNL A   1      46.746  30.988  30.695  1.00  0.00     0.031 C 
ATOM     32  C   UNL A   1      46.797  25.215  28.801  1.00  0.00     0.029 A 
ATOM     33  C   UNL A   1      46.371  26.489  29.141  1.00  0.00     0.049 A 
ATOM     34  H   UNL A   1      44.423  27.298  29.088  1.00  0.00     0.167 HD
ATOM     35  C   UNL A   1      46.673  28.823  29.932  1.00  0.00     0.074 A 
ATOM     36  C   UNL A   1      47.487  29.928  30.401  1.00  0.00     0.031 C 
ATOM     37  C   UNL A   1      47.157  27.596  29.624  1.00  0.00     0.037 A 
BRANCH  24  38
ATOM     38  C   UNL A   1      42.913  23.604  27.552  1.00  0.00     0.058 A 
ATOM     39  C   UNL A   1      43.058  23.293  26.192  1.00  0.00     0.135 A 
ATOM     40  C   UNL A   1      42.540  22.565  28.422  1.00  0.00     0.135 A 
ATOM     41  F   UNL A   1      43.397  24.250  25.313  1.00  0.00    -0.206 F 
ATOM     42  C   UNL A   1      42.832  22.007  25.709  1.00  0.00     0.059 A 
ATOM     43  C   UNL A   1      42.329  21.266  27.965  1.00  0.00     0.059 A 
ATOM     44  F   UNL A   1      42.387  22.806  29.734  1.00  0.00    -0.206 F 
ATOM     45  C   UNL A   1      42.467  21.000  26.604  1.00  0.00     0.060 A 
BRANCH  45  46
ATOM     46  S   UNL A   1      42.195  19.332  25.967  1.00  0.00     0.124 S 
ATOM     47  O   UNL A   1      43.010  19.347  24.756  1.00  0.00    -0.237 OA
ATOM     48  O   UNL A   1      42.692  18.495  27.055  1.00  0.00    -0.237 OA
ATOM     49  O   UNL A   1      40.752  19.281  25.751  1.00  0.00    -0.744 OA
ENDBRANCH  45  46
ENDBRANCH  24  38
BRANCH  25  50
ATOM     50  C   UNL A   1      44.499  32.848  31.057  1.00  0.00     0.058 A 
ATOM     51  C   UNL A   1      44.730  33.935  30.203  1.00  0.00     0.135 A 
ATOM     52  C   UNL A   1      44.442  33.097  32.438  1.00  0.00     0.135 A 
ATOM     53  F   UNL A   1      44.792  33.744  28.877  1.00  0.00    -0.206 F 
ATOM     54  C   UNL A   1      44.906  35.222  30.699  1.00  0.00     0.059 A 
ATOM     55  C   UNL A   1      44.585  34.379  32.955  1.00  0.00     0.059 A 
ATOM     56  F   UNL A   1      44.199  32.093  33.294  1.00  0.00    -0.206 F 
ATOM     57  C   UNL A   1      44.830  35.434  32.077  1.00  0.00     0.060 A 
BRANCH  57  58
ATOM     58  S   UNL A   1      44.999  37.115  32.716  1.00  0.00     0.124 S 
ATOM     59  O   UNL A   1      46.289  37.507  32.164  1.00  0.00    -0.237 OA
ATOM     60  O   UNL A   1      43.831  37.783  32.149  1.00  0.00    -0.237 OA
ATOM     61  O   UNL A   1      44.958  36.924  34.163  1.00  0.00    -0.744 OA
ENDBRANCH  57  58
ENDBRANCH  25  50
BRANCH  37  62
ATOM     62  C   UNL A   1      48.636  27.398  29.794  1.00  0.00     0.058 A 
ATOM     63  C   UNL A   1      49.537  27.732  28.771  1.00  0.00     0.135 A 
ATOM     64  C   UNL A   1      49.154  26.862  30.983  1.00  0.00     0.135 A 
ATOM     65  F   UNL A   1      49.087  28.239  27.612  1.00  0.00    -0.206 F 
ATOM     66  C   UNL A   1      50.902  27.507  28.907  1.00  0.00     0.059 A 
ATOM     67  C   UNL A   1      50.518  26.650  31.149  1.00  0.00     0.059 A 
ATOM     68  F   UNL A   1      48.332  26.534  31.991  1.00  0.00    -0.206 F 
ATOM     69  C   UNL A   1      51.382  26.959  30.097  1.00  0.00     0.060 A 
BRANCH  69  70
ATOM     70  S   UNL A   1      53.155  26.663  30.263  1.00  0.00     0.124 S 
ATOM     71  O   UNL A   1      53.494  26.167  28.933  1.00  0.00    -0.237 OA
ATOM     72  O   UNL A   1      53.667  27.988  30.595  1.00  0.00    -0.237 OA
ATOM     73  O   UNL A   1      53.233  25.679  31.339  1.00  0.00    -0.744 OA
ENDBRANCH  69  70
ENDBRANCH  37  62
ENDBRANCH  11  12
ENDBRANCH   4   6
ENDBRANCH   1   2
BRANCH   1  74
ATOM     74  C   UNL A   1      32.995  28.223  25.995  1.00  0.00     0.023 C 
BRANCH  74  75
ATOM     75  C   UNL A   1      31.688  27.820  26.660  1.00  0.00     0.023 C 
BRANCH  75  76
ATOM     76  C   UNL A   1      30.981  26.617  26.035  1.00  0.00     0.116 C 
BRANCH  76  77
ATOM     77  N   UNL A   1      31.051  25.458  26.904  1.00  0.00    -0.351 N 
ATOM     78  C   UNL A   1      31.745  24.287  26.768  1.00  0.00     0.278 C 
ATOM     79  H   UNL A   1      30.511  25.524  27.725  1.00  0.00     0.163 HD
ATOM     80  O   UNL A   1      31.593  23.436  27.648  1.00  0.00    -0.268 OA
BRANCH  78  81
ATOM     81  C   UNL A   1      32.741  24.105  25.598  1.00  0.00     0.275 C 
ATOM     82  C   UNL A   1      34.127  23.765  26.191  1.00  0.00     0.085 C 
ATOM     83  N   UNL A   1      32.350  22.950  24.747  1.00  0.00    -0.320 N 
ATOM     84  C   UNL A   1      34.581  22.578  25.365  1.00  0.00     0.054 C 
ATOM     85  C   UNL A   1      33.265  21.855  25.102  1.00  0.00     0.188 C 
ATOM     86  H   UNL A   1      31.383  22.714  24.969  1.00  0.00     0.349 HD
ATOM     87  C   UNL A   1      35.612  21.650  25.991  1.00  0.00     0.010 C 
ATOM     88  C   UNL A   1      33.460  20.649  24.181  1.00  0.00     0.065 C 
ATOM     89  C   UNL A   1      35.837  20.444  25.072  1.00  0.00     0.001 C 
ATOM     90  C   UNL A   1      34.530  19.711  24.752  1.00  0.00     0.006 C 
BRANCH  83  91
ATOM     91  C   UNL A   1      32.017  23.141  23.326  1.00  0.00     0.186 C 
ATOM     92  C   UNL A   1      30.638  23.799  23.101  1.00  0.00     0.076 C 
ATOM     93  C   UNL A   1      33.093  23.727  22.383  1.00  0.00     0.076 C 
ATOM     94  C   UNL A   1      30.614  25.315  23.068  1.00  0.00     0.075 C 
ATOM     95  C   UNL A   1      33.251  25.238  22.363  1.00  0.00     0.075 C 
ATOM     96  S   UNL A   1      31.717  26.038  21.834  1.00  0.00    -0.162 SA
ENDBRANCH  83  91
ENDBRANCH  78  81
ENDBRANCH  76  77
ENDBRANCH  75  76
ENDBRANCH  74  75
ENDBRANCH   1  74
TORSDOF 15
ENDMDL
MODEL 3
REMARK VINA RESULT:     -12.5      6.940     12.473
REMARK SMILES O=C(NCCCCNC(=O)[C@H]1C[C@H]2CCCC[C@@H]2[N@@H+]1C1CCSCC1)c1ccc(-c2c3nc(c(-c4c(F)cc(S(=O)(=O)[O-])cc4F)c4ccc([nH]4)c(-c4c(F)cc(S(=O)(=O)[O-])cc4F)c4nc(c(-c5c(F)cc(S(=O)(=O)[O-])cc5F)c5ccc2[nH]5)C=C4)C=C3)cc1
REMARK SMILES IDX 4 1 3 2 1 3 2 4 26 6 27 7 91 8 28 9 90 10 29 11 30 12 31 13
REMARK SMILES IDX 84 14 32 15 89 16 83 17 85 18 33 19 88 20 82 21 81 22 34 24
REMARK SMILES IDX 68 25 47 26 67 27 48 28 51 29 66 30 86 31 49 32 50 33 65 35
REMARK SMILES IDX 87 36 52 37 35 38 36 39 45 40 37 41 38 42 44 43 46 44 39 45
REMARK SMILES IDX 40 46 41 47 42 48 43 49 69 50 70 51 79 52 71 53 72 54 78 55
REMARK SMILES IDX 80 56 73 57 74 58 75 59 76 60 77 61 53 62 54 63 63 64 55 65
REMARK SMILES IDX 56 66 62 67 64 68 57 69 58 70 59 71 60 72 61 73 5 74 6 75
REMARK SMILES IDX 7 76 8 77 9 78 10 80 11 81 12 82 19 83 13 84 18 85 14 87
REMARK SMILES IDX 17 88 15 89 16 90 20 91 21 92 25 93 22 94 24 95 23 96
REMARK H PARENT 3 5 85 23 51 34 8 79 19 86
REMARK Flexibility Score: inf
ROOT
ATOM      1  C   UNL A   1      35.742  31.386  28.517  1.00  0.00     0.116 C 
ENDROOT
BRANCH   1   2
ATOM      2  N   UNL A   1      35.608  31.097  29.940  1.00  0.00    -0.352 N 
ATOM      3  O   UNL A   1      36.195  30.141  31.910  1.00  0.00    -0.269 OA
ATOM      4  C   UNL A   1      36.473  30.380  30.740  1.00  0.00     0.251 C 
ATOM      5  H   UNL A   1      34.804  31.456  30.382  1.00  0.00     0.163 HD
BRANCH   4   6
ATOM      6  C   UNL A   1      37.721  29.869  30.137  1.00  0.00     0.039 A 
ATOM      7  C   UNL A   1      38.694  29.300  30.957  1.00  0.00     0.014 A 
ATOM      8  C   UNL A   1      37.968  30.066  28.775  1.00  0.00     0.014 A 
ATOM      9  C   UNL A   1      39.977  29.126  30.465  1.00  0.00     0.010 A 
ATOM     10  C   UNL A   1      39.230  29.765  28.253  1.00  0.00     0.010 A 
ATOM     11  C   UNL A   1      40.260  29.334  29.104  1.00  0.00    -0.014 A 
BRANCH  11  12
ATOM     12  C   UNL A   1      41.629  29.023  28.618  1.00  0.00     0.031 A 
ATOM     13  C   UNL A   1      42.746  30.030  28.683  1.00  0.00     0.074 A 
ATOM     14  C   UNL A   1      41.870  27.766  28.192  1.00  0.00     0.049 A 
ATOM     15  N   UNL A   1      44.005  29.877  28.359  1.00  0.00    -0.248 NA
ATOM     16  C   UNL A   1      42.415  31.382  29.161  1.00  0.00     0.031 C 
ATOM     17  C   UNL A   1      40.854  26.716  28.063  1.00  0.00     0.029 A 
ATOM     18  N   UNL A   1      43.036  27.141  27.837  1.00  0.00    -0.354 N 
ATOM     19  C   UNL A   1      44.611  31.110  28.568  1.00  0.00     0.074 A 
ATOM     20  C   UNL A   1      43.576  32.010  29.033  1.00  0.00     0.031 C 
ATOM     21  C   UNL A   1      41.451  25.561  27.743  1.00  0.00     0.029 A 
ATOM     22  C   UNL A   1      42.876  25.804  27.563  1.00  0.00     0.049 A 
ATOM     23  H   UNL A   1      43.903  27.604  27.783  1.00  0.00     0.167 HD
ATOM     24  C   UNL A   1      45.911  31.454  28.393  1.00  0.00     0.037 A 
ATOM     25  C   UNL A   1      43.771  24.872  27.192  1.00  0.00     0.037 A 
ATOM     26  C   UNL A   1      46.935  30.541  27.948  1.00  0.00     0.049 A 
ATOM     27  C   UNL A   1      45.206  25.273  27.039  1.00  0.00     0.074 A 
ATOM     28  C   UNL A   1      48.281  30.792  27.731  1.00  0.00     0.029 A 
ATOM     29  N   UNL A   1      46.732  29.197  27.663  1.00  0.00    -0.354 N 
ATOM     30  N   UNL A   1      45.753  26.450  27.228  1.00  0.00    -0.248 NA
ATOM     31  C   UNL A   1      46.144  24.227  26.617  1.00  0.00     0.031 C 
ATOM     32  C   UNL A   1      48.884  29.608  27.292  1.00  0.00     0.029 A 
ATOM     33  C   UNL A   1      47.924  28.609  27.271  1.00  0.00     0.049 A 
ATOM     34  H   UNL A   1      45.868  28.731  27.730  1.00  0.00     0.167 HD
ATOM     35  C   UNL A   1      47.100  26.292  26.933  1.00  0.00     0.074 A 
ATOM     36  C   UNL A   1      47.290  24.893  26.596  1.00  0.00     0.031 C 
ATOM     37  C   UNL A   1      48.087  27.219  26.924  1.00  0.00     0.037 A 
BRANCH  24  38
ATOM     38  C   UNL A   1      46.307  32.878  28.671  1.00  0.00     0.058 A 
ATOM     39  C   UNL A   1      46.245  33.868  27.678  1.00  0.00     0.135 A 
ATOM     40  C   UNL A   1      46.695  33.274  29.962  1.00  0.00     0.135 A 
ATOM     41  F   UNL A   1      45.896  33.543  26.423  1.00  0.00    -0.206 F 
ATOM     42  C   UNL A   1      46.566  35.195  27.949  1.00  0.00     0.059 A 
ATOM     43  C   UNL A   1      47.000  34.599  30.262  1.00  0.00     0.059 A 
ATOM     44  F   UNL A   1      46.771  32.369  30.951  1.00  0.00    -0.206 F 
ATOM     45  C   UNL A   1      46.943  35.551  29.245  1.00  0.00     0.060 A 
BRANCH  45  46
ATOM     46  S   UNL A   1      47.339  37.280  29.588  1.00  0.00     0.124 S 
ATOM     47  O   UNL A   1      48.317  37.147  30.663  1.00  0.00    -0.237 OA
ATOM     48  O   UNL A   1      47.864  37.741  28.306  1.00  0.00    -0.237 OA
ATOM     49  O   UNL A   1      46.054  37.853  29.977  1.00  0.00    -0.744 OA
ENDBRANCH  45  46
ENDBRANCH  24  38
BRANCH  25  50
ATOM     50  C   UNL A   1      43.317  23.484  26.921  1.00  0.00     0.058 A 
ATOM     51  C   UNL A   1      43.130  23.021  25.612  1.00  0.00     0.135 A 
ATOM     52  C   UNL A   1      43.103  22.581  27.974  1.00  0.00     0.135 A 
ATOM     53  F   UNL A   1      43.324  23.848  24.573  1.00  0.00    -0.206 F 
ATOM     54  C   UNL A   1      42.737  21.712  25.354  1.00  0.00     0.059 A 
ATOM     55  C   UNL A   1      42.739  21.260  27.742  1.00  0.00     0.059 A 
ATOM     56  F   UNL A   1      43.292  22.971  29.244  1.00  0.00    -0.206 F 
ATOM     57  C   UNL A   1      42.546  20.838  26.427  1.00  0.00     0.060 A 
BRANCH  57  58
ATOM     58  S   UNL A   1      42.095  19.122  26.091  1.00  0.00     0.124 S 
ATOM     59  O   UNL A   1      42.912  18.831  24.920  1.00  0.00    -0.237 OA
ATOM     60  O   UNL A   1      42.485  18.450  27.327  1.00  0.00    -0.237 OA
ATOM     61  O   UNL A   1      40.655  19.198  25.858  1.00  0.00    -0.744 OA
ENDBRANCH  57  58
ENDBRANCH  25  50
BRANCH  37  62
ATOM     62  C   UNL A   1      49.454  26.739  26.534  1.00  0.00     0.058 A 
ATOM     63  C   UNL A   1      49.892  26.795  25.202  1.00  0.00     0.135 A 
ATOM     64  C   UNL A   1      50.329  26.212  27.496  1.00  0.00     0.135 A 
ATOM     65  F   UNL A   1      49.087  27.282  24.245  1.00  0.00    -0.206 F 
ATOM     66  C   UNL A   1      51.141  26.309  24.829  1.00  0.00     0.059 A 
ATOM     67  C   UNL A   1      51.591  25.742  27.149  1.00  0.00     0.059 A 
ATOM     68  F   UNL A   1      49.957  26.145  28.783  1.00  0.00    -0.206 F 
ATOM     69  C   UNL A   1      51.979  25.777  25.809  1.00  0.00     0.060 A 
BRANCH  69  70
ATOM     70  S   UNL A   1      53.595  25.141  25.316  1.00  0.00     0.124 S 
ATOM     71  O   UNL A   1      53.759  25.748  23.999  1.00  0.00    -0.237 OA
ATOM     72  O   UNL A   1      54.471  25.656  26.364  1.00  0.00    -0.237 OA
ATOM     73  O   UNL A   1      53.405  23.694  25.323  1.00  0.00    -0.744 OA
ENDBRANCH  69  70
ENDBRANCH  37  62
ENDBRANCH  11  12
ENDBRANCH   4   6
ENDBRANCH   1   2
BRANCH   1  74
ATOM     74  C   UNL A   1      34.678  30.742  27.653  1.00  0.00     0.023 C 
BRANCH  74  75
ATOM     75  C   UNL A   1      34.831  29.240  27.465  1.00  0.00     0.023 C 
BRANCH  75  76
ATOM     76  C   UNL A   1      33.803  28.591  26.536  1.00  0.00     0.116 C 
BRANCH  76  77
ATOM     77  N   UNL A   1      34.026  28.979  25.156  1.00  0.00    -0.351 N 
ATOM     78  C   UNL A   1      33.160  29.028  24.097  1.00  0.00     0.278 C 
ATOM     79  H   UNL A   1      34.949  29.250  24.947  1.00  0.00     0.163 HD
ATOM     80  O   UNL A   1      33.626  29.358  23.004  1.00  0.00    -0.268 OA
BRANCH  78  81
ATOM     81  C   UNL A   1      31.651  28.764  24.314  1.00  0.00     0.275 C 
ATOM     82  C   UNL A   1      31.013  30.049  24.889  1.00  0.00     0.085 C 
ATOM     83  N   UNL A   1      30.972  28.496  23.018  1.00  0.00    -0.320 N 
ATOM     84  C   UNL A   1      29.774  30.238  24.035  1.00  0.00     0.054 C 
ATOM     85  C   UNL A   1      30.247  29.730  22.678  1.00  0.00     0.188 C 
ATOM     86  H   UNL A   1      31.691  28.285  22.327  1.00  0.00     0.349 HD
ATOM     87  C   UNL A   1      29.207  31.647  23.938  1.00  0.00     0.010 C 
ATOM     88  C   UNL A   1      29.111  29.730  21.652  1.00  0.00     0.065 C 
ATOM     89  C   UNL A   1      28.054  31.663  22.929  1.00  0.00     0.001 C 
ATOM     90  C   UNL A   1      28.477  31.123  21.559  1.00  0.00     0.006 C 
BRANCH  83  91
ATOM     91  C   UNL A   1      30.302  27.209  22.771  1.00  0.00     0.186 C 
ATOM     92  C   UNL A   1      31.237  26.135  22.174  1.00  0.00     0.076 C 
ATOM     93  C   UNL A   1      29.386  26.625  23.870  1.00  0.00     0.076 C 
ATOM     94  C   UNL A   1      32.000  25.281  23.168  1.00  0.00     0.075 C 
ATOM     95  C   UNL A   1      30.055  25.856  24.996  1.00  0.00     0.075 C 
ATOM     96  S   UNL A   1      30.944  24.418  24.353  1.00  0.00    -0.162 SA
ENDBRANCH  83  91
ENDBRANCH  78  81
ENDBRANCH  76  77
ENDBRANCH  75  76
ENDBRANCH  74  75
ENDBRANCH   1  74
TORSDOF 15
ENDMDL
