MODEL 1
REMARK VINA RESULT:      -9.8      0.000      0.000
REMARK SMILES COC[C@@H](C)[C@@](O)(C(=O)NCCCCNC(=O)c1ccc(-c2c3nc(c(-c4c(F)cc(S(=O)(=O)[O-])cc4F)c4ccc([nH]4)c(-c4c(F)cc(S(=O)(=O)[O-])cc4F)c4nc(c(-c5c(F)cc(S(=O)(=O)[O-])cc5F)c5ccc2[nH]5)C=C4)C=C3)cc1)C(C)C
REMARK SMILES IDX 12 1 11 2 10 3 8 4 9 5 6 7 4 8 5 9 3 10 2 11 1 12 7 13 84 15
REMARK SMILES IDX 85 16 86 17 13 18 14 19 15 20 16 21 17 23 18 24 19 25 83 26
REMARK SMILES IDX 20 27 82 28 21 29 22 30 23 31 76 32 24 33 81 34 75 35 77 36
REMARK SMILES IDX 25 37 80 38 74 39 73 40 26 42 60 43 39 44 59 45 40 46 43 47
REMARK SMILES IDX 58 48 78 49 41 50 42 51 57 53 79 54 44 55 27 56 28 57 37 58
REMARK SMILES IDX 29 59 30 60 36 61 38 62 31 63 32 64 33 65 34 66 35 67 61 68
REMARK SMILES IDX 62 69 71 70 63 71 64 72 70 73 72 74 65 75 66 76 67 77 68 78
REMARK SMILES IDX 69 79 45 80 46 81 55 82 47 83 48 84 54 85 56 86 49 87 50 88
REMARK SMILES IDX 51 89 52 90 53 91
REMARK H PARENT 10 6 7 14 15 22 77 41 43 52
REMARK Flexibility Score: inf
ROOT
ATOM      1  C   UNL A   1      32.918  26.793  25.127  1.00  0.00     0.023 C 
ENDROOT
BRANCH   1   2
ATOM      2  C   UNL A   1      33.180  25.322  25.460  1.00  0.00     0.116 C 
BRANCH   2   3
ATOM      3  N   UNL A   1      32.129  24.765  26.289  1.00  0.00    -0.354 N 
ATOM      4  C   UNL A   1      31.660  23.487  26.405  1.00  0.00     0.252 C 
ATOM      5  O   UNL A   1      30.775  23.319  27.252  1.00  0.00    -0.272 OA
ATOM      6  H   UNL A   1      31.677  25.420  26.868  1.00  0.00     0.163 HD
BRANCH   4   7
ATOM      7  C   UNL A   1      32.188  22.307  25.499  1.00  0.00     0.150 C 
BRANCH   7   8
ATOM      8  C   UNL A   1      33.609  21.845  25.971  1.00  0.00     0.053 C 
ATOM      9  C   UNL A   1      33.772  21.781  27.495  1.00  0.00     0.014 C 
BRANCH   8  10
ATOM     10  C   UNL A   1      34.783  22.567  25.291  1.00  0.00     0.166 C 
BRANCH  10  11
ATOM     11  O   UNL A   1      35.518  21.717  24.405  1.00  0.00    -0.384 OA
ATOM     12  C   UNL A   1      36.536  20.950  25.033  1.00  0.00     0.194 C 
ENDBRANCH  10  11
ENDBRANCH   8  10
ENDBRANCH   7   8
BRANCH   7  13
ATOM     13  O   UNL A   1      31.233  21.251  25.766  1.00  0.00    -0.379 OA
ATOM     14  H   UNL A   1      31.692  20.493  26.162  1.00  0.00     0.212 HD
ENDBRANCH   7  13
BRANCH   7  15
ATOM     15  C   UNL A   1      32.013  22.718  23.986  1.00  0.00     0.025 C 
ATOM     16  C   UNL A   1      32.107  21.567  22.975  1.00  0.00     0.011 C 
ATOM     17  C   UNL A   1      30.765  23.546  23.642  1.00  0.00     0.011 C 
ENDBRANCH   7  15
ENDBRANCH   4   7
ENDBRANCH   2   3
ENDBRANCH   1   2
BRANCH   1  18
ATOM     18  C   UNL A   1      32.585  27.674  26.330  1.00  0.00     0.023 C 
BRANCH  18  19
ATOM     19  C   UNL A   1      33.791  28.288  27.022  1.00  0.00     0.116 C 
BRANCH  19  20
ATOM     20  N   UNL A   1      33.561  29.658  27.450  1.00  0.00    -0.352 N 
ATOM     21  C   UNL A   1      34.420  30.514  28.097  1.00  0.00     0.251 C 
ATOM     22  H   UNL A   1      32.668  30.022  27.249  1.00  0.00     0.163 HD
ATOM     23  O   UNL A   1      34.018  31.590  28.515  1.00  0.00    -0.269 OA
BRANCH  21  24
ATOM     24  C   UNL A   1      35.826  30.103  28.307  1.00  0.00     0.039 A 
ATOM     25  C   UNL A   1      36.744  30.280  27.268  1.00  0.00     0.014 A 
ATOM     26  C   UNL A   1      36.237  29.556  29.525  1.00  0.00     0.014 A 
ATOM     27  C   UNL A   1      38.083  29.944  27.471  1.00  0.00     0.010 A 
ATOM     28  C   UNL A   1      37.585  29.313  29.755  1.00  0.00     0.010 A 
ATOM     29  C   UNL A   1      38.520  29.478  28.723  1.00  0.00    -0.014 A 
BRANCH  29  30
ATOM     30  C   UNL A   1      39.938  29.106  28.955  1.00  0.00     0.031 A 
ATOM     31  C   UNL A   1      40.888  30.116  29.541  1.00  0.00     0.074 A 
ATOM     32  C   UNL A   1      40.380  27.885  28.598  1.00  0.00     0.049 A 
ATOM     33  N   UNL A   1      42.166  30.001  29.794  1.00  0.00    -0.248 NA
ATOM     34  C   UNL A   1      40.335  31.446  29.854  1.00  0.00     0.031 C 
ATOM     35  C   UNL A   1      39.567  26.837  27.976  1.00  0.00     0.029 A 
ATOM     36  N   UNL A   1      41.624  27.317  28.707  1.00  0.00    -0.354 N 
ATOM     37  C   UNL A   1      42.571  31.243  30.272  1.00  0.00     0.074 A 
ATOM     38  C   UNL A   1      41.419  32.115  30.212  1.00  0.00     0.031 C 
ATOM     39  C   UNL A   1      40.324  25.743  27.796  1.00  0.00     0.029 A 
ATOM     40  C   UNL A   1      41.683  26.021  28.252  1.00  0.00     0.049 A 
ATOM     41  H   UNL A   1      42.403  27.794  29.075  1.00  0.00     0.167 HD
ATOM     42  C   UNL A   1      43.784  31.617  30.743  1.00  0.00     0.037 A 
ATOM     43  C   UNL A   1      42.713  25.154  28.217  1.00  0.00     0.037 A 
ATOM     44  C   UNL A   1      44.917  30.732  30.826  1.00  0.00     0.049 A 
ATOM     45  C   UNL A   1      44.050  25.586  28.757  1.00  0.00     0.074 A 
ATOM     46  C   UNL A   1      46.172  30.988  31.347  1.00  0.00     0.029 A 
ATOM     47  N   UNL A   1      44.931  29.421  30.373  1.00  0.00    -0.354 N 
ATOM     48  N   UNL A   1      44.399  26.742  29.270  1.00  0.00    -0.248 NA
ATOM     49  C   UNL A   1      45.129  24.591  28.726  1.00  0.00     0.031 C 
ATOM     50  C   UNL A   1      46.963  29.848  31.161  1.00  0.00     0.029 A 
ATOM     51  C   UNL A   1      46.180  28.861  30.582  1.00  0.00     0.049 A 
ATOM     52  H   UNL A   1      44.166  28.956  29.962  1.00  0.00     0.167 HD
ATOM     53  C   UNL A   1      45.727  26.598  29.662  1.00  0.00     0.074 A 
ATOM     54  C   UNL A   1      46.114  25.244  29.328  1.00  0.00     0.031 C 
ATOM     55  C   UNL A   1      46.546  27.504  30.254  1.00  0.00     0.037 A 
BRANCH  42  56
ATOM     56  C   UNL A   1      43.945  33.045  31.194  1.00  0.00     0.058 A 
ATOM     57  C   UNL A   1      43.720  33.435  32.526  1.00  0.00     0.135 A 
ATOM     58  C   UNL A   1      44.331  34.039  30.281  1.00  0.00     0.135 A 
ATOM     59  F   UNL A   1      43.333  32.530  33.440  1.00  0.00    -0.206 F 
ATOM     60  C   UNL A   1      43.824  34.764  32.924  1.00  0.00     0.059 A 
ATOM     61  C   UNL A   1      44.476  35.370  30.665  1.00  0.00     0.059 A 
ATOM     62  F   UNL A   1      44.564  33.726  28.997  1.00  0.00    -0.206 F 
ATOM     63  C   UNL A   1      44.198  35.726  31.985  1.00  0.00     0.060 A 
BRANCH  63  64
ATOM     64  S   UNL A   1      44.309  37.448  32.511  1.00  0.00     0.124 S 
ATOM     65  O   UNL A   1      45.647  37.487  33.094  1.00  0.00    -0.237 OA
ATOM     66  O   UNL A   1      44.145  38.170  31.254  1.00  0.00    -0.237 OA
ATOM     67  O   UNL A   1      43.207  37.586  33.459  1.00  0.00    -0.744 OA
ENDBRANCH  63  64
ENDBRANCH  42  56
BRANCH  43  68
ATOM     68  C   UNL A   1      42.503  23.773  27.705  1.00  0.00     0.058 A 
ATOM     69  C   UNL A   1      42.505  23.511  26.326  1.00  0.00     0.135 A 
ATOM     70  C   UNL A   1      42.319  22.687  28.575  1.00  0.00     0.135 A 
ATOM     71  F   UNL A   1      42.671  24.517  25.454  1.00  0.00    -0.206 F 
ATOM     72  C   UNL A   1      42.320  22.226  25.828  1.00  0.00     0.059 A 
ATOM     73  C   UNL A   1      42.158  21.389  28.101  1.00  0.00     0.059 A 
ATOM     74  F   UNL A   1      42.325  22.882  29.904  1.00  0.00    -0.206 F 
ATOM     75  C   UNL A   1      42.152  21.169  26.724  1.00  0.00     0.060 A 
BRANCH  75  76
ATOM     76  S   UNL A   1      41.972  19.499  26.065  1.00  0.00     0.124 S 
ATOM     77  O   UNL A   1      42.874  19.534  24.920  1.00  0.00    -0.237 OA
ATOM     78  O   UNL A   1      42.403  18.678  27.192  1.00  0.00    -0.237 OA
ATOM     79  O   UNL A   1      40.550  19.415  25.746  1.00  0.00    -0.744 OA
ENDBRANCH  75  76
ENDBRANCH  43  68
BRANCH  55  80
ATOM     80  C   UNL A   1      47.927  27.042  30.637  1.00  0.00     0.058 A 
ATOM     81  C   UNL A   1      49.039  27.238  29.803  1.00  0.00     0.135 A 
ATOM     82  C   UNL A   1      48.142  26.424  31.881  1.00  0.00     0.135 A 
ATOM     83  F   UNL A   1      48.890  27.820  28.603  1.00  0.00    -0.206 F 
ATOM     84  C   UNL A   1      50.309  26.806  30.173  1.00  0.00     0.059 A 
ATOM     85  C   UNL A   1      49.408  26.014  32.285  1.00  0.00     0.059 A 
ATOM     86  F   UNL A   1      47.117  26.225  32.724  1.00  0.00    -0.206 F 
ATOM     87  C   UNL A   1      50.483  26.194  31.416  1.00  0.00     0.060 A 
BRANCH  87  88
ATOM     88  S   UNL A   1      52.137  25.649  31.890  1.00  0.00     0.124 S 
ATOM     89  O   UNL A   1      52.907  25.970  30.693  1.00  0.00    -0.237 OA
ATOM     90  O   UNL A   1      52.414  26.473  33.062  1.00  0.00    -0.237 OA
ATOM     91  O   UNL A   1      51.961  24.224  32.160  1.00  0.00    -0.744 OA
ENDBRANCH  87  88
ENDBRANCH  55  80
ENDBRANCH  29  30
ENDBRANCH  21  24
ENDBRANCH  19  20
ENDBRANCH  18  19
ENDBRANCH   1  18
TORSDOF 19
ENDMDL
MODEL 2
REMARK VINA RESULT:      -9.7      2.971      3.847
REMARK SMILES COC[C@@H](C)[C@@](O)(C(=O)NCCCCNC(=O)c1ccc(-c2c3nc(c(-c4c(F)cc(S(=O)(=O)[O-])cc4F)c4ccc([nH]4)c(-c4c(F)cc(S(=O)(=O)[O-])cc4F)c4nc(c(-c5c(F)cc(S(=O)(=O)[O-])cc5F)c5ccc2[nH]5)C=C4)C=C3)cc1)C(C)C
REMARK SMILES IDX 12 1 11 2 10 3 8 4 9 5 6 7 4 8 5 9 3 10 2 11 1 12 7 13 84 15
REMARK SMILES IDX 85 16 86 17 13 18 14 19 15 20 16 21 17 23 18 24 19 25 83 26
REMARK SMILES IDX 20 27 82 28 21 29 22 30 23 31 76 32 24 33 81 34 75 35 77 36
REMARK SMILES IDX 25 37 80 38 74 39 73 40 26 42 60 43 39 44 59 45 40 46 43 47
REMARK SMILES IDX 58 48 78 49 41 50 42 51 57 53 79 54 44 55 27 56 28 57 37 58
REMARK SMILES IDX 29 59 30 60 36 61 38 62 31 63 32 64 33 65 34 66 35 67 61 68
REMARK SMILES IDX 62 69 71 70 63 71 64 72 70 73 72 74 65 75 66 76 67 77 68 78
REMARK SMILES IDX 69 79 45 80 46 81 55 82 47 83 48 84 54 85 56 86 49 87 50 88
REMARK SMILES IDX 51 89 52 90 53 91
REMARK H PARENT 10 6 7 14 15 22 77 41 43 52
REMARK Flexibility Score: inf
ROOT
ATOM      1  C   UNL A   1      33.451  26.821  24.492  1.00  0.00     0.023 C 
ENDROOT
BRANCH   1   2
ATOM      2  C   UNL A   1      34.126  25.448  24.570  1.00  0.00     0.116 C 
BRANCH   2   3
ATOM      3  N   UNL A   1      33.700  24.708  25.743  1.00  0.00    -0.354 N 
ATOM      4  C   UNL A   1      34.099  23.499  26.235  1.00  0.00     0.252 C 
ATOM      5  O   UNL A   1      33.575  23.157  27.301  1.00  0.00    -0.272 OA
ATOM      6  H   UNL A   1      33.003  25.156  26.275  1.00  0.00     0.163 HD
BRANCH   4   7
ATOM      7  C   UNL A   1      35.139  22.581  25.480  1.00  0.00     0.150 C 
BRANCH   7   8
ATOM      8  C   UNL A   1      36.286  23.447  24.857  1.00  0.00     0.053 C 
ATOM      9  C   UNL A   1      36.676  23.037  23.430  1.00  0.00     0.014 C 
BRANCH   8  10
ATOM     10  C   UNL A   1      37.515  23.641  25.761  1.00  0.00     0.166 C 
BRANCH  10  11
ATOM     11  O   UNL A   1      38.381  22.502  25.771  1.00  0.00    -0.384 OA
ATOM     12  C   UNL A   1      39.460  22.591  26.691  1.00  0.00     0.194 C 
ENDBRANCH  10  11
ENDBRANCH   8  10
ENDBRANCH   7   8
BRANCH   7  13
ATOM     13  O   UNL A   1      35.684  21.772  26.552  1.00  0.00    -0.379 OA
ATOM     14  H   UNL A   1      36.631  21.631  26.400  1.00  0.00     0.212 HD
ENDBRANCH   7  13
BRANCH   7  15
ATOM     15  C   UNL A   1      34.348  21.608  24.522  1.00  0.00     0.025 C 
ATOM     16  C   UNL A   1      34.233  20.156  25.005  1.00  0.00     0.011 C 
ATOM     17  C   UNL A   1      32.950  22.071  24.081  1.00  0.00     0.011 C 
ENDBRANCH   7  15
ENDBRANCH   4   7
ENDBRANCH   2   3
ENDBRANCH   1   2
BRANCH   1  18
ATOM     18  C   UNL A   1      33.329  27.552  25.827  1.00  0.00     0.023 C 
BRANCH  18  19
ATOM     19  C   UNL A   1      34.459  28.524  26.126  1.00  0.00     0.116 C 
BRANCH  19  20
ATOM     20  N   UNL A   1      33.985  29.851  26.483  1.00  0.00    -0.352 N 
ATOM     21  C   UNL A   1      34.480  30.716  27.430  1.00  0.00     0.251 C 
ATOM     22  H   UNL A   1      33.203  30.174  25.978  1.00  0.00     0.163 HD
ATOM     23  O   UNL A   1      33.871  31.741  27.705  1.00  0.00    -0.269 OA
BRANCH  21  24
ATOM     24  C   UNL A   1      35.737  30.376  28.132  1.00  0.00     0.039 A 
ATOM     25  C   UNL A   1      35.689  29.501  29.220  1.00  0.00     0.014 A 
ATOM     26  C   UNL A   1      36.957  30.910  27.711  1.00  0.00     0.014 A 
ATOM     27  C   UNL A   1      36.874  29.132  29.858  1.00  0.00     0.010 A 
ATOM     28  C   UNL A   1      38.142  30.467  28.285  1.00  0.00     0.010 A 
ATOM     29  C   UNL A   1      38.113  29.595  29.383  1.00  0.00    -0.014 A 
BRANCH  29  30
ATOM     30  C   UNL A   1      39.383  29.222  30.054  1.00  0.00     0.031 A 
ATOM     31  C   UNL A   1      39.806  29.944  31.306  1.00  0.00     0.074 A 
ATOM     32  C   UNL A   1      40.176  28.275  29.516  1.00  0.00     0.049 A 
ATOM     33  N   UNL A   1      40.888  29.791  32.025  1.00  0.00    -0.248 NA
ATOM     34  C   UNL A   1      38.907  31.003  31.798  1.00  0.00     0.031 C 
ATOM     35  C   UNL A   1      39.899  27.541  28.280  1.00  0.00     0.029 A 
ATOM     36  N   UNL A   1      41.377  27.768  29.941  1.00  0.00    -0.354 N 
ATOM     37  C   UNL A   1      40.809  30.745  33.035  1.00  0.00     0.074 A 
ATOM     38  C   UNL A   1      39.608  31.513  32.799  1.00  0.00     0.031 C 
ATOM     39  C   UNL A   1      40.882  26.650  28.068  1.00  0.00     0.029 A 
ATOM     40  C   UNL A   1      41.876  26.776  29.130  1.00  0.00     0.049 A 
ATOM     41  H   UNL A   1      41.840  28.086  30.749  1.00  0.00     0.167 HD
ATOM     42  C   UNL A   1      41.647  30.945  34.080  1.00  0.00     0.037 A 
ATOM     43  C   UNL A   1      43.003  26.045  29.237  1.00  0.00     0.037 A 
ATOM     44  C   UNL A   1      42.825  30.154  34.323  1.00  0.00     0.049 A 
ATOM     45  C   UNL A   1      43.914  26.275  30.413  1.00  0.00     0.074 A 
ATOM     46  C   UNL A   1      43.708  30.228  35.385  1.00  0.00     0.029 A 
ATOM     47  N   UNL A   1      43.287  29.146  33.489  1.00  0.00    -0.354 N 
ATOM     48  N   UNL A   1      43.791  27.134  31.398  1.00  0.00    -0.248 NA
ATOM     49  C   UNL A   1      45.110  25.428  30.499  1.00  0.00     0.031 C 
ATOM     50  C   UNL A   1      44.732  29.300  35.168  1.00  0.00     0.029 A 
ATOM     51  C   UNL A   1      44.453  28.604  34.002  1.00  0.00     0.049 A 
ATOM     52  H   UNL A   1      42.850  28.857  32.655  1.00  0.00     0.167 HD
ATOM     53  C   UNL A   1      44.871  26.900  32.244  1.00  0.00     0.074 A 
ATOM     54  C   UNL A   1      45.633  25.820  31.653  1.00  0.00     0.031 C 
ATOM     55  C   UNL A   1      45.195  27.518  33.407  1.00  0.00     0.037 A 
BRANCH  42  56
ATOM     56  C   UNL A   1      41.319  32.068  35.028  1.00  0.00     0.058 A 
ATOM     57  C   UNL A   1      40.381  31.918  36.063  1.00  0.00     0.135 A 
ATOM     58  C   UNL A   1      41.954  33.314  34.901  1.00  0.00     0.135 A 
ATOM     59  F   UNL A   1      39.730  30.754  36.225  1.00  0.00    -0.206 F 
ATOM     60  C   UNL A   1      40.048  32.975  36.905  1.00  0.00     0.059 A 
ATOM     61  C   UNL A   1      41.663  34.375  35.754  1.00  0.00     0.059 A 
ATOM     62  F   UNL A   1      42.862  33.515  33.933  1.00  0.00    -0.206 F 
ATOM     63  C   UNL A   1      40.692  34.202  36.739  1.00  0.00     0.060 A 
BRANCH  63  64
ATOM     64  S   UNL A   1      40.236  35.569  37.825  1.00  0.00     0.124 S 
ATOM     65  O   UNL A   1      39.897  36.608  36.857  1.00  0.00    -0.237 OA
ATOM     66  O   UNL A   1      39.114  35.012  38.574  1.00  0.00    -0.237 OA
ATOM     67  O   UNL A   1      41.449  35.806  38.602  1.00  0.00    -0.744 OA
ENDBRANCH  63  64
ENDBRANCH  42  56
BRANCH  43  68
ATOM     68  C   UNL A   1      43.299  24.988  28.233  1.00  0.00     0.058 A 
ATOM     69  C   UNL A   1      42.862  23.669  28.430  1.00  0.00     0.135 A 
ATOM     70  C   UNL A   1      44.001  25.274  27.052  1.00  0.00     0.135 A 
ATOM     71  F   UNL A   1      42.193  23.344  29.547  1.00  0.00    -0.206 F 
ATOM     72  C   UNL A   1      43.121  22.668  27.499  1.00  0.00     0.059 A 
ATOM     73  C   UNL A   1      44.249  24.296  26.094  1.00  0.00     0.059 A 
ATOM     74  F   UNL A   1      44.426  26.524  26.808  1.00  0.00    -0.206 F 
ATOM     75  C   UNL A   1      43.811  22.993  26.330  1.00  0.00     0.060 A 
BRANCH  75  76
ATOM     76  S   UNL A   1      44.088  21.698  25.103  1.00  0.00     0.124 S 
ATOM     77  O   UNL A   1      43.878  22.423  23.856  1.00  0.00    -0.237 OA
ATOM     78  O   UNL A   1      45.463  21.299  25.386  1.00  0.00    -0.237 OA
ATOM     79  O   UNL A   1      43.074  20.701  25.432  1.00  0.00    -0.744 OA
ENDBRANCH  75  76
ENDBRANCH  43  68
BRANCH  55  80
ATOM     80  C   UNL A   1      46.395  27.000  34.156  1.00  0.00     0.058 A 
ATOM     81  C   UNL A   1      46.290  25.998  35.133  1.00  0.00     0.135 A 
ATOM     82  C   UNL A   1      47.676  27.494  33.859  1.00  0.00     0.135 A 
ATOM     83  F   UNL A   1      45.089  25.493  35.457  1.00  0.00    -0.206 F 
ATOM     84  C   UNL A   1      47.409  25.530  35.814  1.00  0.00     0.059 A 
ATOM     85  C   UNL A   1      48.812  27.017  34.504  1.00  0.00     0.059 A 
ATOM     86  F   UNL A   1      47.836  28.443  32.923  1.00  0.00    -0.206 F 
ATOM     87  C   UNL A   1      48.666  26.046  35.494  1.00  0.00     0.060 A 
BRANCH  87  88
ATOM     88  S   UNL A   1      50.111  25.422  36.376  1.00  0.00     0.124 S 
ATOM     89  O   UNL A   1      49.500  24.491  37.320  1.00  0.00    -0.237 OA
ATOM     90  O   UNL A   1      50.894  24.816  35.304  1.00  0.00    -0.237 OA
ATOM     91  O   UNL A   1      50.694  26.623  36.968  1.00  0.00    -0.744 OA
ENDBRANCH  87  88
ENDBRANCH  55  80
ENDBRANCH  29  30
ENDBRANCH  21  24
ENDBRANCH  19  20
ENDBRANCH  18  19
ENDBRANCH   1  18
TORSDOF 19
ENDMDL
MODEL 3
REMARK VINA RESULT:      -9.6      4.989     10.541
REMARK SMILES COC[C@@H](C)[C@@](O)(C(=O)NCCCCNC(=O)c1ccc(-c2c3nc(c(-c4c(F)cc(S(=O)(=O)[O-])cc4F)c4ccc([nH]4)c(-c4c(F)cc(S(=O)(=O)[O-])cc4F)c4nc(c(-c5c(F)cc(S(=O)(=O)[O-])cc5F)c5ccc2[nH]5)C=C4)C=C3)cc1)C(C)C
REMARK SMILES IDX 12 1 11 2 10 3 8 4 9 5 6 7 4 8 5 9 3 10 2 11 1 12 7 13 84 15
REMARK SMILES IDX 85 16 86 17 13 18 14 19 15 20 16 21 17 23 18 24 19 25 83 26
REMARK SMILES IDX 20 27 82 28 21 29 22 30 23 31 76 32 24 33 81 34 75 35 77 36
REMARK SMILES IDX 25 37 80 38 74 39 73 40 26 42 60 43 39 44 59 45 40 46 43 47
REMARK SMILES IDX 58 48 78 49 41 50 42 51 57 53 79 54 44 55 27 56 28 57 37 58
REMARK SMILES IDX 29 59 30 60 36 61 38 62 31 63 32 64 33 65 34 66 35 67 61 68
REMARK SMILES IDX 62 69 71 70 63 71 64 72 70 73 72 74 65 75 66 76 67 77 68 78
REMARK SMILES IDX 69 79 45 80 46 81 55 82 47 83 48 84 54 85 56 86 49 87 50 88
REMARK SMILES IDX 51 89 52 90 53 91
REMARK H PARENT 10 6 7 14 15 22 77 41 43 52
REMARK Flexibility Score: inf
ROOT
ATOM      1  C   UNL A   1      36.495  22.967  25.776  1.00  0.00     0.023 C 
ENDROOT
BRANCH   1   2
ATOM      2  C   UNL A   1      35.068  23.501  25.628  1.00  0.00     0.116 C 
BRANCH   2   3
ATOM      3  N   UNL A   1      34.261  23.207  26.796  1.00  0.00    -0.354 N 
ATOM      4  C   UNL A   1      32.962  22.802  26.912  1.00  0.00     0.252 C 
ATOM      5  O   UNL A   1      32.573  22.580  28.064  1.00  0.00    -0.272 OA
ATOM      6  H   UNL A   1      34.732  23.318  27.653  1.00  0.00     0.163 HD
BRANCH   4   7
ATOM      7  C   UNL A   1      32.009  22.654  25.662  1.00  0.00     0.150 C 
BRANCH   7   8
ATOM      8  C   UNL A   1      32.780  22.021  24.454  1.00  0.00     0.053 C 
ATOM      9  C   UNL A   1      32.542  22.734  23.116  1.00  0.00     0.014 C 
BRANCH   8  10
ATOM     10  C   UNL A   1      32.646  20.494  24.329  1.00  0.00     0.166 C 
BRANCH  10  11
ATOM     11  O   UNL A   1      33.473  19.788  25.259  1.00  0.00    -0.384 OA
ATOM     12  C   UNL A   1      34.859  19.807  24.949  1.00  0.00     0.194 C 
ENDBRANCH  10  11
ENDBRANCH   8  10
ENDBRANCH   7   8
BRANCH   7  13
ATOM     13  O   UNL A   1      31.012  21.714  26.133  1.00  0.00    -0.379 OA
ATOM     14  H   UNL A   1      31.276  20.813  25.889  1.00  0.00     0.212 HD
ENDBRANCH   7  13
BRANCH   7  15
ATOM     15  C   UNL A   1      31.273  24.030  25.425  1.00  0.00     0.025 C 
ATOM     16  C   UNL A   1      30.052  24.287  26.318  1.00  0.00     0.011 C 
ATOM     17  C   UNL A   1      32.153  25.289  25.456  1.00  0.00     0.011 C 
ENDBRANCH   7  15
ENDBRANCH   4   7
ENDBRANCH   2   3
ENDBRANCH   1   2
BRANCH   1  18
ATOM     18  C   UNL A   1      37.594  24.004  25.555  1.00  0.00     0.023 C 
BRANCH  18  19
ATOM     19  C   UNL A   1      38.660  24.043  26.638  1.00  0.00     0.116 C 
BRANCH  19  20
ATOM     20  N   UNL A   1      40.010  24.097  26.102  1.00  0.00    -0.352 N 
ATOM     21  C   UNL A   1      41.017  24.986  26.393  1.00  0.00     0.251 C 
ATOM     22  H   UNL A   1      40.233  23.402  25.440  1.00  0.00     0.163 HD
ATOM     23  O   UNL A   1      42.053  24.977  25.742  1.00  0.00    -0.269 OA
BRANCH  21  24
ATOM     24  C   UNL A   1      40.820  25.970  27.480  1.00  0.00     0.039 A 
ATOM     25  C   UNL A   1      39.794  25.758  28.406  1.00  0.00     0.014 A 
ATOM     26  C   UNL A   1      41.649  27.089  27.591  1.00  0.00     0.014 A 
ATOM     27  C   UNL A   1      39.630  26.650  29.465  1.00  0.00     0.010 A 
ATOM     28  C   UNL A   1      41.544  27.921  28.699  1.00  0.00     0.010 A 
ATOM     29  C   UNL A   1      40.517  27.728  29.633  1.00  0.00    -0.014 A 
BRANCH  29  30
ATOM     30  C   UNL A   1      40.353  28.694  30.748  1.00  0.00     0.031 A 
ATOM     31  C   UNL A   1      41.217  28.572  31.975  1.00  0.00     0.074 A 
ATOM     32  C   UNL A   1      39.402  29.646  30.679  1.00  0.00     0.049 A 
ATOM     33  N   UNL A   1      41.212  29.293  33.066  1.00  0.00    -0.248 NA
ATOM     34  C   UNL A   1      42.195  27.471  31.992  1.00  0.00     0.031 C 
ATOM     35  C   UNL A   1      38.471  29.834  29.565  1.00  0.00     0.029 A 
ATOM     36  N   UNL A   1      39.061  30.635  31.566  1.00  0.00    -0.354 N 
ATOM     37  C   UNL A   1      42.165  28.721  33.903  1.00  0.00     0.074 A 
ATOM     38  C   UNL A   1      42.682  27.556  33.220  1.00  0.00     0.031 C 
ATOM     39  C   UNL A   1      37.692  30.899  29.818  1.00  0.00     0.029 A 
ATOM     40  C   UNL A   1      38.041  31.445  31.126  1.00  0.00     0.049 A 
ATOM     41  H   UNL A   1      39.504  30.753  32.437  1.00  0.00     0.167 HD
ATOM     42  C   UNL A   1      42.591  29.142  35.117  1.00  0.00     0.037 A 
ATOM     43  C   UNL A   1      37.460  32.512  31.709  1.00  0.00     0.037 A 
ATOM     44  C   UNL A   1      42.091  30.322  35.775  1.00  0.00     0.049 A 
ATOM     45  C   UNL A   1      37.957  32.971  33.053  1.00  0.00     0.074 A 
ATOM     46  C   UNL A   1      42.498  30.876  36.975  1.00  0.00     0.029 A 
ATOM     47  N   UNL A   1      41.071  31.126  35.289  1.00  0.00    -0.354 N 
ATOM     48  N   UNL A   1      38.907  32.460  33.801  1.00  0.00    -0.248 NA
ATOM     49  C   UNL A   1      37.313  34.159  33.627  1.00  0.00     0.031 C 
ATOM     50  C   UNL A   1      41.689  31.986  37.241  1.00  0.00     0.029 A 
ATOM     51  C   UNL A   1      40.820  32.160  36.174  1.00  0.00     0.049 A 
ATOM     52  H   UNL A   1      40.594  30.983  34.439  1.00  0.00     0.167 HD
ATOM     53  C   UNL A   1      39.003  33.291  34.914  1.00  0.00     0.074 A 
ATOM     54  C   UNL A   1      38.015  34.335  34.737  1.00  0.00     0.031 C 
ATOM     55  C   UNL A   1      39.839  33.201  35.978  1.00  0.00     0.037 A 
BRANCH  42  56
ATOM     56  C   UNL A   1      43.642  28.316  35.810  1.00  0.00     0.058 A 
ATOM     57  C   UNL A   1      45.015  28.542  35.617  1.00  0.00     0.135 A 
ATOM     58  C   UNL A   1      43.270  27.281  36.683  1.00  0.00     0.135 A 
ATOM     59  F   UNL A   1      45.431  29.509  34.781  1.00  0.00    -0.206 F 
ATOM     60  C   UNL A   1      45.979  27.743  36.223  1.00  0.00     0.059 A 
ATOM     61  C   UNL A   1      44.218  26.491  37.329  1.00  0.00     0.059 A 
ATOM     62  F   UNL A   1      41.974  27.019  36.910  1.00  0.00    -0.206 F 
ATOM     63  C   UNL A   1      45.570  26.716  37.074  1.00  0.00     0.060 A 
BRANCH  63  64
ATOM     64  S   UNL A   1      46.831  25.676  37.838  1.00  0.00     0.124 S 
ATOM     65  O   UNL A   1      48.046  26.433  37.550  1.00  0.00    -0.237 OA
ATOM     66  O   UNL A   1      46.414  25.655  39.236  1.00  0.00    -0.237 OA
ATOM     67  O   UNL A   1      46.700  24.406  37.129  1.00  0.00    -0.744 OA
ENDBRANCH  63  64
ENDBRANCH  42  56
BRANCH  43  68
ATOM     68  C   UNL A   1      36.385  33.253  30.995  1.00  0.00     0.058 A 
ATOM     69  C   UNL A   1      35.050  33.164  31.419  1.00  0.00     0.135 A 
ATOM     70  C   UNL A   1      36.668  34.078  29.896  1.00  0.00     0.135 A 
ATOM     71  F   UNL A   1      34.728  32.383  32.461  1.00  0.00    -0.206 F 
ATOM     72  C   UNL A   1      34.032  33.856  30.771  1.00  0.00     0.059 A 
ATOM     73  C   UNL A   1      35.671  34.800  29.248  1.00  0.00     0.059 A 
ATOM     74  F   UNL A   1      37.931  34.210  29.462  1.00  0.00    -0.206 F 
ATOM     75  C   UNL A   1      34.353  34.677  29.689  1.00  0.00     0.060 A 
BRANCH  75  76
ATOM     76  S   UNL A   1      33.031  35.615  28.894  1.00  0.00     0.124 S 
ATOM     77  O   UNL A   1      33.778  36.685  28.244  1.00  0.00    -0.237 OA
ATOM     78  O   UNL A   1      32.440  34.618  28.007  1.00  0.00    -0.237 OA
ATOM     79  O   UNL A   1      32.189  36.023  30.014  1.00  0.00    -0.744 OA
ENDBRANCH  75  76
ENDBRANCH  43  68
BRANCH  55  80
ATOM     80  C   UNL A   1      39.769  34.296  37.009  1.00  0.00     0.058 A 
ATOM     81  C   UNL A   1      39.018  34.165  38.188  1.00  0.00     0.135 A 
ATOM     82  C   UNL A   1      40.498  35.483  36.826  1.00  0.00     0.135 A 
ATOM     83  F   UNL A   1      38.301  33.053  38.413  1.00  0.00    -0.206 F 
ATOM     84  C   UNL A   1      38.965  35.186  39.131  1.00  0.00     0.059 A 
ATOM     85  C   UNL A   1      40.485  36.503  37.771  1.00  0.00     0.059 A 
ATOM     86  F   UNL A   1      41.244  35.655  35.723  1.00  0.00    -0.206 F 
ATOM     87  C   UNL A   1      39.701  36.353  38.913  1.00  0.00     0.060 A 
BRANCH  87  88
ATOM     88  S   UNL A   1      39.634  37.665  40.150  1.00  0.00     0.124 S 
ATOM     89  O   UNL A   1      39.145  36.943  41.319  1.00  0.00    -0.237 OA
ATOM     90  O   UNL A   1      41.023  38.108  40.212  1.00  0.00    -0.237 OA
ATOM     91  O   UNL A   1      38.700  38.629  39.572  1.00  0.00    -0.744 OA
ENDBRANCH  87  88
ENDBRANCH  55  80
ENDBRANCH  29  30
ENDBRANCH  21  24
ENDBRANCH  19  20
ENDBRANCH  18  19
ENDBRANCH   1  18
TORSDOF 19
ENDMDL
