MODEL 1
REMARK VINA RESULT:     -12.5      0.000      0.000
REMARK SMILES O=C(CSc1ccc(NC(=O)c2cccc3ccccc23)cc1)NCCCCNC(=O)c1ccc(-c2c3nc(c(-c4c(F)cc(S(=O)(=O)[O-])cc4F)c4ccc([nH]4)c(-c4c(F)cc(S(=O)(=O)[O-])cc4F)c4nc(c(-c5c(F)cc(S(=O)(=O)[O-])cc5F)c5ccc2[nH]5)C=C4)C=C3)cc1
REMARK SMILES IDX 26 1 25 2 24 3 1 4 2 5 3 7 4 8 5 9 6 10 23 11 7 12 22 13
REMARK SMILES IDX 8 14 9 15 10 16 11 18 12 19 13 20 21 21 14 22 16 23 20 24
REMARK SMILES IDX 15 25 17 26 19 27 18 28 27 29 28 30 29 31 30 32 31 34 32 35
REMARK SMILES IDX 33 36 97 37 34 38 96 39 35 40 36 41 37 42 90 43 38 44 95 45
REMARK SMILES IDX 89 46 91 47 39 48 94 49 88 50 87 51 40 53 74 54 53 55 73 56
REMARK SMILES IDX 54 57 57 58 72 59 92 60 55 61 56 62 71 64 93 65 58 66 41 67
REMARK SMILES IDX 42 68 51 69 43 70 44 71 50 72 52 73 45 74 46 75 47 76 48 77
REMARK SMILES IDX 49 78 75 79 76 80 85 81 77 82 78 83 84 84 86 85 79 86 80 87
REMARK SMILES IDX 81 88 82 89 83 90 59 91 60 92 69 93 61 94 62 95 68 96 70 97
REMARK SMILES IDX 63 98 64 99 65 100 66 101 67 102
REMARK H PARENT 24 6 9 17 29 33 91 52 57 63
REMARK Flexibility Score: inf
ROOT
ATOM      1  C   UNL A   1      41.779  21.259  26.120  1.00  0.00     0.023 C 
ENDROOT
BRANCH   1   2
ATOM      2  C   UNL A   1      40.468  21.067  26.882  1.00  0.00     0.116 C 
BRANCH   2   3
ATOM      3  N   UNL A   1      39.472  22.058  26.522  1.00  0.00    -0.355 N 
ATOM      4  O   UNL A   1      38.153  20.659  25.272  1.00  0.00    -0.274 OA
ATOM      5  C   UNL A   1      38.367  21.771  25.751  1.00  0.00     0.230 C 
ATOM      6  H   UNL A   1      39.592  22.981  26.845  1.00  0.00     0.163 HD
BRANCH   5   7
ATOM      7  C   UNL A   1      37.479  22.964  25.420  1.00  0.00     0.174 C 
BRANCH   7   8
ATOM      8  S   UNL A   1      36.607  22.782  23.822  1.00  0.00    -0.116 SA
BRANCH   8   9
ATOM      9  C   UNL A   1      34.968  23.276  24.311  1.00  0.00     0.008 A 
ATOM     10  C   UNL A   1      33.835  22.759  23.679  1.00  0.00     0.017 A 
ATOM     11  C   UNL A   1      34.809  24.193  25.349  1.00  0.00     0.017 A 
ATOM     12  C   UNL A   1      32.555  23.066  24.152  1.00  0.00     0.027 A 
ATOM     13  C   UNL A   1      33.531  24.484  25.831  1.00  0.00     0.027 A 
ATOM     14  C   UNL A   1      32.404  23.853  25.289  1.00  0.00     0.041 A 
BRANCH  14  15
ATOM     15  N   UNL A   1      31.209  24.013  26.000  1.00  0.00    -0.322 N 
ATOM     16  C   UNL A   1      30.277  25.015  26.096  1.00  0.00     0.256 C 
ATOM     17  H   UNL A   1      30.988  23.231  26.555  1.00  0.00     0.170 HD
ATOM     18  O   UNL A   1      29.333  24.837  26.875  1.00  0.00    -0.269 OA
BRANCH  16  19
ATOM     19  C   UNL A   1      30.293  26.297  25.351  1.00  0.00     0.048 A 
ATOM     20  C   UNL A   1      29.613  26.237  24.120  1.00  0.00     0.014 A 
ATOM     21  C   UNL A   1      31.028  27.467  25.713  1.00  0.00    -0.006 A 
ATOM     22  C   UNL A   1      29.656  27.299  23.228  1.00  0.00     0.001 A 
ATOM     23  C   UNL A   1      31.050  28.544  24.783  1.00  0.00    -0.018 A 
ATOM     24  C   UNL A   1      31.732  27.663  26.928  1.00  0.00     0.009 A 
ATOM     25  C   UNL A   1      30.386  28.436  23.553  1.00  0.00     0.009 A 
ATOM     26  C   UNL A   1      31.724  29.737  25.089  1.00  0.00     0.009 A 
ATOM     27  C   UNL A   1      32.315  28.891  27.256  1.00  0.00     0.001 A 
ATOM     28  C   UNL A   1      32.321  29.925  26.332  1.00  0.00     0.001 A 
ENDBRANCH  16  19
ENDBRANCH  14  15
ENDBRANCH   8   9
ENDBRANCH   7   8
ENDBRANCH   5   7
ENDBRANCH   2   3
ENDBRANCH   1   2
BRANCH   1  29
ATOM     29  C   UNL A   1      42.943  21.803  26.953  1.00  0.00     0.023 C 
BRANCH  29  30
ATOM     30  C   UNL A   1      42.954  23.315  27.159  1.00  0.00     0.116 C 
BRANCH  30  31
ATOM     31  N   UNL A   1      42.380  24.044  26.041  1.00  0.00    -0.352 N 
ATOM     32  C   UNL A   1      41.688  25.235  26.033  1.00  0.00     0.251 C 
ATOM     33  H   UNL A   1      42.505  23.627  25.158  1.00  0.00     0.163 HD
ATOM     34  O   UNL A   1      41.154  25.618  24.998  1.00  0.00    -0.269 OA
BRANCH  32  35
ATOM     35  C   UNL A   1      41.559  26.034  27.276  1.00  0.00     0.039 A 
ATOM     36  C   UNL A   1      42.568  26.946  27.597  1.00  0.00     0.014 A 
ATOM     37  C   UNL A   1      40.457  25.888  28.123  1.00  0.00     0.014 A 
ATOM     38  C   UNL A   1      42.436  27.762  28.724  1.00  0.00     0.010 A 
ATOM     39  C   UNL A   1      40.290  26.755  29.202  1.00  0.00     0.010 A 
ATOM     40  C   UNL A   1      41.276  27.704  29.515  1.00  0.00    -0.014 A 
BRANCH  40  41
ATOM     41  C   UNL A   1      41.071  28.636  30.657  1.00  0.00     0.031 A 
ATOM     42  C   UNL A   1      41.907  28.512  31.903  1.00  0.00     0.074 A 
ATOM     43  C   UNL A   1      40.086  29.557  30.598  1.00  0.00     0.049 A 
ATOM     44  N   UNL A   1      41.830  29.189  33.020  1.00  0.00    -0.248 NA
ATOM     45  C   UNL A   1      42.950  27.473  31.904  1.00  0.00     0.031 C 
ATOM     46  C   UNL A   1      39.178  29.753  29.466  1.00  0.00     0.029 A 
ATOM     47  N   UNL A   1      39.678  30.496  31.513  1.00  0.00    -0.354 N 
ATOM     48  C   UNL A   1      42.801  28.652  33.858  1.00  0.00     0.074 A 
ATOM     49  C   UNL A   1      43.418  27.558  33.141  1.00  0.00     0.031 C 
ATOM     50  C   UNL A   1      38.338  30.762  29.743  1.00  0.00     0.029 A 
ATOM     51  C   UNL A   1      38.615  31.258  31.087  1.00  0.00     0.049 A 
ATOM     52  H   UNL A   1      40.104  30.612  32.392  1.00  0.00     0.167 HD
ATOM     53  C   UNL A   1      43.160  29.048  35.105  1.00  0.00     0.037 A 
ATOM     54  C   UNL A   1      37.931  32.239  31.710  1.00  0.00     0.037 A 
ATOM     55  C   UNL A   1      42.554  30.151  35.807  1.00  0.00     0.049 A 
ATOM     56  C   UNL A   1      38.336  32.648  33.101  1.00  0.00     0.074 A 
ATOM     57  C   UNL A   1      42.890  30.667  37.046  1.00  0.00     0.029 A 
ATOM     58  N   UNL A   1      41.487  30.902  35.339  1.00  0.00    -0.354 N 
ATOM     59  N   UNL A   1      39.303  32.174  33.851  1.00  0.00    -0.248 NA
ATOM     60  C   UNL A   1      37.563  33.728  33.729  1.00  0.00     0.031 C 
ATOM     61  C   UNL A   1      41.989  31.691  37.353  1.00  0.00     0.029 A 
ATOM     62  C   UNL A   1      41.131  31.858  36.278  1.00  0.00     0.049 A 
ATOM     63  H   UNL A   1      41.045  30.775  34.468  1.00  0.00     0.167 HD
ATOM     64  C   UNL A   1      39.274  32.920  35.025  1.00  0.00     0.074 A 
ATOM     65  C   UNL A   1      38.203  33.883  34.881  1.00  0.00     0.031 C 
ATOM     66  C   UNL A   1      40.067  32.818  36.121  1.00  0.00     0.037 A 
BRANCH  53  67
ATOM     67  C   UNL A   1      44.256  28.280  35.796  1.00  0.00     0.058 A 
ATOM     68  C   UNL A   1      45.593  28.708  35.764  1.00  0.00     0.135 A 
ATOM     69  C   UNL A   1      43.958  27.127  36.539  1.00  0.00     0.135 A 
ATOM     70  F   UNL A   1      45.940  29.796  35.058  1.00  0.00    -0.206 F 
ATOM     71  C   UNL A   1      46.600  28.003  36.417  1.00  0.00     0.059 A 
ATOM     72  C   UNL A   1      44.943  26.424  37.228  1.00  0.00     0.059 A 
ATOM     73  F   UNL A   1      42.697  26.672  36.608  1.00  0.00    -0.206 F 
ATOM     74  C   UNL A   1      46.264  26.861  37.147  1.00  0.00     0.060 A 
BRANCH  74  75
ATOM     75  S   UNL A   1      47.581  25.963  37.993  1.00  0.00     0.124 S 
ATOM     76  O   UNL A   1      48.577  25.843  36.933  1.00  0.00    -0.237 OA
ATOM     77  O   UNL A   1      47.924  26.868  39.086  1.00  0.00    -0.237 OA
ATOM     78  O   UNL A   1      46.940  24.715  38.394  1.00  0.00    -0.744 OA
ENDBRANCH  74  75
ENDBRANCH  53  67
BRANCH  54  79
ATOM     79  C   UNL A   1      36.801  32.917  31.017  1.00  0.00     0.058 A 
ATOM     80  C   UNL A   1      35.471  32.667  31.390  1.00  0.00     0.135 A 
ATOM     81  C   UNL A   1      37.024  33.830  29.975  1.00  0.00     0.135 A 
ATOM     82  F   UNL A   1      35.204  31.796  32.374  1.00  0.00    -0.206 F 
ATOM     83  C   UNL A   1      34.403  33.282  30.744  1.00  0.00     0.059 A 
ATOM     84  C   UNL A   1      35.974  34.480  29.333  1.00  0.00     0.059 A 
ATOM     85  F   UNL A   1      38.277  34.118  29.589  1.00  0.00    -0.206 F 
ATOM     86  C   UNL A   1      34.666  34.191  29.717  1.00  0.00     0.060 A 
BRANCH  86  87
ATOM     87  S   UNL A   1      33.275  35.017  28.917  1.00  0.00     0.124 S 
ATOM     88  O   UNL A   1      32.866  34.021  27.935  1.00  0.00    -0.237 OA
ATOM     89  O   UNL A   1      32.358  35.225  30.035  1.00  0.00    -0.237 OA
ATOM     90  O   UNL A   1      33.874  36.233  28.373  1.00  0.00    -0.744 OA
ENDBRANCH  86  87
ENDBRANCH  54  79
BRANCH  66  91
ATOM     91  C   UNL A   1      39.836  33.798  37.241  1.00  0.00     0.058 A 
ATOM     92  C   UNL A   1      40.478  35.047  37.279  1.00  0.00     0.135 A 
ATOM     93  C   UNL A   1      38.918  33.504  38.262  1.00  0.00     0.135 A 
ATOM     94  F   UNL A   1      41.369  35.377  36.331  1.00  0.00    -0.206 F 
ATOM     95  C   UNL A   1      40.236  35.957  38.303  1.00  0.00     0.059 A 
ATOM     96  C   UNL A   1      38.637  34.412  39.278  1.00  0.00     0.059 A 
ATOM     97  F   UNL A   1      38.268  32.329  38.270  1.00  0.00    -0.206 F 
ATOM     98  C   UNL A   1      39.311  35.632  39.297  1.00  0.00     0.060 A 
BRANCH  98  99
ATOM     99  S   UNL A   1      38.981  36.837  40.599  1.00  0.00     0.124 S 
ATOM    100  O   UNL A   1      38.319  37.902  39.854  1.00  0.00    -0.237 OA
ATOM    101  O   UNL A   1      38.132  36.082  41.515  1.00  0.00    -0.237 OA
ATOM    102  O   UNL A   1      40.310  37.161  41.109  1.00  0.00    -0.744 OA
ENDBRANCH  98  99
ENDBRANCH  66  91
ENDBRANCH  40  41
ENDBRANCH  32  35
ENDBRANCH  30  31
ENDBRANCH  29  30
ENDBRANCH   1  29
TORSDOF 18
ENDMDL
MODEL 2
REMARK VINA RESULT:     -12.4      0.554      1.682
REMARK SMILES O=C(CSc1ccc(NC(=O)c2cccc3ccccc23)cc1)NCCCCNC(=O)c1ccc(-c2c3nc(c(-c4c(F)cc(S(=O)(=O)[O-])cc4F)c4ccc([nH]4)c(-c4c(F)cc(S(=O)(=O)[O-])cc4F)c4nc(c(-c5c(F)cc(S(=O)(=O)[O-])cc5F)c5ccc2[nH]5)C=C4)C=C3)cc1
REMARK SMILES IDX 26 1 25 2 24 3 1 4 2 5 3 7 4 8 5 9 6 10 23 11 7 12 22 13
REMARK SMILES IDX 8 14 9 15 10 16 11 18 12 19 13 20 21 21 14 22 16 23 20 24
REMARK SMILES IDX 15 25 17 26 19 27 18 28 27 29 28 30 29 31 30 32 31 34 32 35
REMARK SMILES IDX 33 36 97 37 34 38 96 39 35 40 36 41 37 42 90 43 38 44 95 45
REMARK SMILES IDX 89 46 91 47 39 48 94 49 88 50 87 51 40 53 74 54 53 55 73 56
REMARK SMILES IDX 54 57 57 58 72 59 92 60 55 61 56 62 71 64 93 65 58 66 41 67
REMARK SMILES IDX 42 68 51 69 43 70 44 71 50 72 52 73 45 74 46 75 47 76 48 77
REMARK SMILES IDX 49 78 75 79 76 80 85 81 77 82 78 83 84 84 86 85 79 86 80 87
REMARK SMILES IDX 81 88 82 89 83 90 59 91 60 92 69 93 61 94 62 95 68 96 70 97
REMARK SMILES IDX 63 98 64 99 65 100 66 101 67 102
REMARK H PARENT 24 6 9 17 29 33 91 52 57 63
REMARK Flexibility Score: inf
ROOT
ATOM      1  C   UNL A   1      41.565  21.844  27.038  1.00  0.00     0.023 C 
ENDROOT
BRANCH   1   2
ATOM      2  C   UNL A   1      40.155  22.358  27.329  1.00  0.00     0.116 C 
BRANCH   2   3
ATOM      3  N   UNL A   1      39.182  21.868  26.372  1.00  0.00    -0.355 N 
ATOM      4  O   UNL A   1      38.030  23.838  26.142  1.00  0.00    -0.274 OA
ATOM      5  C   UNL A   1      38.192  22.660  25.831  1.00  0.00     0.230 C 
ATOM      6  H   UNL A   1      39.230  20.924  26.097  1.00  0.00     0.163 HD
BRANCH   5   7
ATOM      7  C   UNL A   1      37.222  21.941  24.902  1.00  0.00     0.174 C 
BRANCH   7   8
ATOM      8  S   UNL A   1      36.682  22.978  23.495  1.00  0.00    -0.116 SA
BRANCH   8   9
ATOM      9  C   UNL A   1      35.050  23.420  24.051  1.00  0.00     0.008 A 
ATOM     10  C   UNL A   1      33.908  22.929  23.414  1.00  0.00     0.017 A 
ATOM     11  C   UNL A   1      34.905  24.270  25.146  1.00  0.00     0.017 A 
ATOM     12  C   UNL A   1      32.636  23.191  23.935  1.00  0.00     0.027 A 
ATOM     13  C   UNL A   1      33.637  24.516  25.675  1.00  0.00     0.027 A 
ATOM     14  C   UNL A   1      32.504  23.906  25.121  1.00  0.00     0.041 A 
BRANCH  14  15
ATOM     15  N   UNL A   1      31.325  24.008  25.868  1.00  0.00    -0.322 N 
ATOM     16  C   UNL A   1      30.382  24.989  26.045  1.00  0.00     0.256 C 
ATOM     17  H   UNL A   1      31.126  23.191  26.381  1.00  0.00     0.170 HD
ATOM     18  O   UNL A   1      29.460  24.753  26.834  1.00  0.00    -0.269 OA
BRANCH  16  19
ATOM     19  C   UNL A   1      30.366  26.313  25.377  1.00  0.00     0.048 A 
ATOM     20  C   UNL A   1      29.648  26.318  24.165  1.00  0.00     0.014 A 
ATOM     21  C   UNL A   1      31.101  27.466  25.784  1.00  0.00    -0.006 A 
ATOM     22  C   UNL A   1      29.654  27.431  23.337  1.00  0.00     0.001 A 
ATOM     23  C   UNL A   1      31.085  28.596  24.919  1.00  0.00    -0.018 A 
ATOM     24  C   UNL A   1      31.841  27.598  26.987  1.00  0.00     0.009 A 
ATOM     25  C   UNL A   1      30.384  28.554  23.706  1.00  0.00     0.009 A 
ATOM     26  C   UNL A   1      31.759  29.776  25.274  1.00  0.00     0.009 A 
ATOM     27  C   UNL A   1      32.423  28.811  27.369  1.00  0.00     0.001 A 
ATOM     28  C   UNL A   1      32.392  29.897  26.508  1.00  0.00     0.001 A 
ENDBRANCH  16  19
ENDBRANCH  14  15
ENDBRANCH   8   9
ENDBRANCH   7   8
ENDBRANCH   5   7
ENDBRANCH   2   3
ENDBRANCH   1   2
BRANCH   1  29
ATOM     29  C   UNL A   1      42.620  22.207  28.086  1.00  0.00     0.023 C 
BRANCH  29  30
ATOM     30  C   UNL A   1      43.466  23.438  27.772  1.00  0.00     0.116 C 
BRANCH  30  31
ATOM     31  N   UNL A   1      43.182  24.000  26.462  1.00  0.00    -0.352 N 
ATOM     32  C   UNL A   1      42.556  25.181  26.132  1.00  0.00     0.251 C 
ATOM     33  H   UNL A   1      43.484  23.458  25.697  1.00  0.00     0.163 HD
ATOM     34  O   UNL A   1      42.280  25.413  24.961  1.00  0.00    -0.269 OA
BRANCH  32  35
ATOM     35  C   UNL A   1      42.185  26.152  27.189  1.00  0.00     0.039 A 
ATOM     36  C   UNL A   1      41.106  25.855  28.028  1.00  0.00     0.014 A 
ATOM     37  C   UNL A   1      42.886  27.349  27.356  1.00  0.00     0.014 A 
ATOM     38  C   UNL A   1      40.781  26.720  29.076  1.00  0.00     0.010 A 
ATOM     39  C   UNL A   1      42.611  28.170  28.448  1.00  0.00     0.010 A 
ATOM     40  C   UNL A   1      41.557  27.866  29.323  1.00  0.00    -0.014 A 
BRANCH  40  41
ATOM     41  C   UNL A   1      41.291  28.742  30.496  1.00  0.00     0.031 A 
ATOM     42  C   UNL A   1      42.111  28.606  31.752  1.00  0.00     0.074 A 
ATOM     43  C   UNL A   1      40.267  29.621  30.455  1.00  0.00     0.049 A 
ATOM     44  N   UNL A   1      41.985  29.234  32.892  1.00  0.00    -0.248 NA
ATOM     45  C   UNL A   1      43.199  27.614  31.732  1.00  0.00     0.031 C 
ATOM     46  C   UNL A   1      39.370  29.821  29.314  1.00  0.00     0.029 A 
ATOM     47  N   UNL A   1      39.802  30.504  31.398  1.00  0.00    -0.354 N 
ATOM     48  C   UNL A   1      42.964  28.708  33.727  1.00  0.00     0.074 A 
ATOM     49  C   UNL A   1      43.642  27.671  32.979  1.00  0.00     0.031 C 
ATOM     50  C   UNL A   1      38.481  30.781  29.614  1.00  0.00     0.029 A 
ATOM     51  C   UNL A   1      38.713  31.235  30.982  1.00  0.00     0.049 A 
ATOM     52  H   UNL A   1      40.208  30.603  32.289  1.00  0.00     0.167 HD
ATOM     53  C   UNL A   1      43.284  29.069  34.995  1.00  0.00     0.037 A 
ATOM     54  C   UNL A   1      37.976  32.159  31.630  1.00  0.00     0.037 A 
ATOM     55  C   UNL A   1      42.618  30.116  35.728  1.00  0.00     0.049 A 
ATOM     56  C   UNL A   1      38.339  32.530  33.043  1.00  0.00     0.074 A 
ATOM     57  C   UNL A   1      42.910  30.597  36.992  1.00  0.00     0.029 A 
ATOM     58  N   UNL A   1      41.526  30.837  35.270  1.00  0.00    -0.354 N 
ATOM     59  N   UNL A   1      39.313  32.069  33.792  1.00  0.00    -0.248 NA
ATOM     60  C   UNL A   1      37.507  33.550  33.698  1.00  0.00     0.031 C 
ATOM     61  C   UNL A   1      41.958  31.567  37.322  1.00  0.00     0.029 A 
ATOM     62  C   UNL A   1      41.113  31.738  36.238  1.00  0.00     0.049 A 
ATOM     63  H   UNL A   1      41.105  30.726  34.386  1.00  0.00     0.167 HD
ATOM     64  C   UNL A   1      39.231  32.767  34.993  1.00  0.00     0.074 A 
ATOM     65  C   UNL A   1      38.120  33.687  34.867  1.00  0.00     0.031 C 
ATOM     66  C   UNL A   1      40.009  32.656  36.099  1.00  0.00     0.037 A 
BRANCH  53  67
ATOM     67  C   UNL A   1      44.402  28.324  35.676  1.00  0.00     0.058 A 
ATOM     68  C   UNL A   1      44.181  27.113  36.351  1.00  0.00     0.135 A 
ATOM     69  C   UNL A   1      45.720  28.804  35.613  1.00  0.00     0.135 A 
ATOM     70  F   UNL A   1      42.940  26.611  36.456  1.00  0.00    -0.206 F 
ATOM     71  C   UNL A   1      45.220  26.421  36.967  1.00  0.00     0.059 A 
ATOM     72  C   UNL A   1      46.780  28.113  36.192  1.00  0.00     0.059 A 
ATOM     73  F   UNL A   1      45.992  29.956  34.979  1.00  0.00    -0.206 F 
ATOM     74  C   UNL A   1      46.517  26.930  36.881  1.00  0.00     0.060 A 
BRANCH  74  75
ATOM     75  S   UNL A   1      47.854  26.016  37.679  1.00  0.00     0.124 S 
ATOM     76  O   UNL A   1      48.895  26.074  36.657  1.00  0.00    -0.237 OA
ATOM     77  O   UNL A   1      48.100  26.809  38.879  1.00  0.00    -0.237 OA
ATOM     78  O   UNL A   1      47.275  24.697  37.909  1.00  0.00    -0.744 OA
ENDBRANCH  74  75
ENDBRANCH  53  67
BRANCH  54  79
ATOM     79  C   UNL A   1      36.828  32.814  30.943  1.00  0.00     0.058 A 
ATOM     80  C   UNL A   1      37.037  33.833  30.002  1.00  0.00     0.135 A 
ATOM     81  C   UNL A   1      35.503  32.432  31.207  1.00  0.00     0.135 A 
ATOM     82  F   UNL A   1      38.283  34.241  29.720  1.00  0.00    -0.206 F 
ATOM     83  C   UNL A   1      35.975  34.465  29.361  1.00  0.00     0.059 A 
ATOM     84  C   UNL A   1      34.427  33.027  30.558  1.00  0.00     0.059 A 
ATOM     85  F   UNL A   1      35.249  31.451  32.087  1.00  0.00    -0.206 F 
ATOM     86  C   UNL A   1      34.672  34.051  29.644  1.00  0.00     0.060 A 
BRANCH  86  87
ATOM     87  S   UNL A   1      33.304  34.846  28.773  1.00  0.00     0.124 S 
ATOM     88  O   UNL A   1      33.988  35.930  28.079  1.00  0.00    -0.237 OA
ATOM     89  O   UNL A   1      32.807  33.761  27.932  1.00  0.00    -0.237 OA
ATOM     90  O   UNL A   1      32.410  35.252  29.853  1.00  0.00    -0.744 OA
ENDBRANCH  86  87
ENDBRANCH  54  79
BRANCH  66  91
ATOM     91  C   UNL A   1      39.716  33.580  37.251  1.00  0.00     0.058 A 
ATOM     92  C   UNL A   1      38.848  33.216  38.294  1.00  0.00     0.135 A 
ATOM     93  C   UNL A   1      40.357  34.827  37.340  1.00  0.00     0.135 A 
ATOM     94  F   UNL A   1      38.204  32.039  38.257  1.00  0.00    -0.206 F 
ATOM     95  C   UNL A   1      38.608  34.066  39.369  1.00  0.00     0.059 A 
ATOM     96  C   UNL A   1      40.157  35.679  38.421  1.00  0.00     0.059 A 
ATOM     97  F   UNL A   1      41.206  35.221  36.377  1.00  0.00    -0.206 F 
ATOM     98  C   UNL A   1      39.269  35.294  39.425  1.00  0.00     0.060 A 
BRANCH  98  99
ATOM     99  S   UNL A   1      38.974  36.371  40.844  1.00  0.00     0.124 S 
ATOM    100  O   UNL A   1      38.652  37.636  40.192  1.00  0.00    -0.237 OA
ATOM    101  O   UNL A   1      37.863  35.704  41.516  1.00  0.00    -0.237 OA
ATOM    102  O   UNL A   1      40.243  36.342  41.564  1.00  0.00    -0.744 OA
ENDBRANCH  98  99
ENDBRANCH  66  91
ENDBRANCH  40  41
ENDBRANCH  32  35
ENDBRANCH  30  31
ENDBRANCH  29  30
ENDBRANCH   1  29
TORSDOF 18
ENDMDL
MODEL 3
REMARK VINA RESULT:     -12.3      6.203     11.998
REMARK SMILES O=C(CSc1ccc(NC(=O)c2cccc3ccccc23)cc1)NCCCCNC(=O)c1ccc(-c2c3nc(c(-c4c(F)cc(S(=O)(=O)[O-])cc4F)c4ccc([nH]4)c(-c4c(F)cc(S(=O)(=O)[O-])cc4F)c4nc(c(-c5c(F)cc(S(=O)(=O)[O-])cc5F)c5ccc2[nH]5)C=C4)C=C3)cc1
REMARK SMILES IDX 26 1 25 2 24 3 1 4 2 5 3 7 4 8 5 9 6 10 23 11 7 12 22 13
REMARK SMILES IDX 8 14 9 15 10 16 11 18 12 19 13 20 21 21 14 22 16 23 20 24
REMARK SMILES IDX 15 25 17 26 19 27 18 28 27 29 28 30 29 31 30 32 31 34 32 35
REMARK SMILES IDX 33 36 97 37 34 38 96 39 35 40 36 41 37 42 90 43 38 44 95 45
REMARK SMILES IDX 89 46 91 47 39 48 94 49 88 50 87 51 40 53 74 54 53 55 73 56
REMARK SMILES IDX 54 57 57 58 72 59 92 60 55 61 56 62 71 64 93 65 58 66 41 67
REMARK SMILES IDX 42 68 51 69 43 70 44 71 50 72 52 73 45 74 46 75 47 76 48 77
REMARK SMILES IDX 49 78 75 79 76 80 85 81 77 82 78 83 84 84 86 85 79 86 80 87
REMARK SMILES IDX 81 88 82 89 83 90 59 91 60 92 69 93 61 94 62 95 68 96 70 97
REMARK SMILES IDX 63 98 64 99 65 100 66 101 67 102
REMARK H PARENT 24 6 9 17 29 33 91 52 57 63
REMARK Flexibility Score: inf
ROOT
ATOM      1  C   UNL A   1      34.264  31.942  28.215  1.00  0.00     0.023 C 
ENDROOT
BRANCH   1   2
ATOM      2  C   UNL A   1      34.426  30.569  27.563  1.00  0.00     0.116 C 
BRANCH   2   3
ATOM      3  N   UNL A   1      33.420  30.319  26.548  1.00  0.00    -0.355 N 
ATOM      4  O   UNL A   1      33.832  28.074  26.322  1.00  0.00    -0.274 OA
ATOM      5  C   UNL A   1      33.184  29.072  26.011  1.00  0.00     0.230 C 
ATOM      6  H   UNL A   1      32.880  31.078  26.227  1.00  0.00     0.163 HD
BRANCH   5   7
ATOM      7  C   UNL A   1      32.139  29.029  24.905  1.00  0.00     0.174 C 
BRANCH   7   8
ATOM      8  S   UNL A   1      32.875  28.954  23.231  1.00  0.00    -0.116 SA
BRANCH   8   9
ATOM      9  C   UNL A   1      32.528  27.257  22.822  1.00  0.00     0.008 A 
ATOM     10  C   UNL A   1      33.398  26.510  22.025  1.00  0.00     0.017 A 
ATOM     11  C   UNL A   1      31.367  26.657  23.308  1.00  0.00     0.017 A 
ATOM     12  C   UNL A   1      33.171  25.146  21.810  1.00  0.00     0.027 A 
ATOM     13  C   UNL A   1      31.152  25.293  23.108  1.00  0.00     0.027 A 
ATOM     14  C   UNL A   1      32.098  24.514  22.430  1.00  0.00     0.041 A 
BRANCH  14  15
ATOM     15  N   UNL A   1      31.919  23.128  22.503  1.00  0.00    -0.322 N 
ATOM     16  C   UNL A   1      32.334  22.150  23.372  1.00  0.00     0.256 C 
ATOM     17  H   UNL A   1      31.371  22.774  21.765  1.00  0.00     0.170 HD
ATOM     18  O   UNL A   1      32.019  20.985  23.106  1.00  0.00    -0.269 OA
BRANCH  16  19
ATOM     19  C   UNL A   1      33.127  22.361  24.608  1.00  0.00     0.048 A 
ATOM     20  C   UNL A   1      32.363  22.260  25.787  1.00  0.00     0.014 A 
ATOM     21  C   UNL A   1      34.492  22.774  24.666  1.00  0.00    -0.006 A 
ATOM     22  C   UNL A   1      32.913  22.574  27.022  1.00  0.00     0.001 A 
ATOM     23  C   UNL A   1      35.032  23.084  25.945  1.00  0.00    -0.018 A 
ATOM     24  C   UNL A   1      35.372  22.893  23.560  1.00  0.00     0.009 A 
ATOM     25  C   UNL A   1      34.233  23.001  27.095  1.00  0.00     0.009 A 
ATOM     26  C   UNL A   1      36.377  23.464  26.080  1.00  0.00     0.009 A 
ATOM     27  C   UNL A   1      36.732  23.177  23.723  1.00  0.00     0.001 A 
ATOM     28  C   UNL A   1      37.233  23.473  24.982  1.00  0.00     0.001 A 
ENDBRANCH  16  19
ENDBRANCH  14  15
ENDBRANCH   8   9
ENDBRANCH   7   8
ENDBRANCH   5   7
ENDBRANCH   2   3
ENDBRANCH   1   2
BRANCH   1  29
ATOM     29  C   UNL A   1      35.508  32.834  28.174  1.00  0.00     0.023 C 
BRANCH  29  30
ATOM     30  C   UNL A   1      36.300  32.918  29.476  1.00  0.00     0.116 C 
BRANCH  30  31
ATOM     31  N   UNL A   1      35.916  31.901  30.440  1.00  0.00    -0.352 N 
ATOM     32  C   UNL A   1      36.577  30.751  30.810  1.00  0.00     0.251 C 
ATOM     33  H   UNL A   1      35.058  32.057  30.897  1.00  0.00     0.163 HD
ATOM     34  O   UNL A   1      36.018  29.941  31.541  1.00  0.00    -0.269 OA
BRANCH  32  35
ATOM     35  C   UNL A   1      37.943  30.475  30.303  1.00  0.00     0.039 A 
ATOM     36  C   UNL A   1      39.013  30.501  31.203  1.00  0.00     0.014 A 
ATOM     37  C   UNL A   1      38.175  30.197  28.953  1.00  0.00     0.014 A 
ATOM     38  C   UNL A   1      40.299  30.175  30.763  1.00  0.00     0.010 A 
ATOM     39  C   UNL A   1      39.443  29.797  28.534  1.00  0.00     0.010 A 
ATOM     40  C   UNL A   1      40.520  29.779  29.433  1.00  0.00    -0.014 A 
BRANCH  40  41
ATOM     41  C   UNL A   1      41.862  29.328  28.973  1.00  0.00     0.031 A 
ATOM     42  C   UNL A   1      43.000  30.309  28.863  1.00  0.00     0.074 A 
ATOM     43  C   UNL A   1      42.041  28.046  28.593  1.00  0.00     0.049 A 
ATOM     44  N   UNL A   1      44.217  30.115  28.424  1.00  0.00    -0.248 NA
ATOM     45  C   UNL A   1      42.727  31.695  29.278  1.00  0.00     0.031 C 
ATOM     46  C   UNL A   1      41.009  27.007  28.612  1.00  0.00     0.029 A 
ATOM     47  N   UNL A   1      43.152  27.399  28.109  1.00  0.00    -0.354 N 
ATOM     48  C   UNL A   1      44.849  31.351  28.495  1.00  0.00     0.074 A 
ATOM     49  C   UNL A   1      43.865  32.300  28.971  1.00  0.00     0.031 C 
ATOM     50  C   UNL A   1      41.540  25.850  28.184  1.00  0.00     0.029 A 
ATOM     51  C   UNL A   1      42.935  26.072  27.819  1.00  0.00     0.049 A 
ATOM     52  H   UNL A   1      44.020  27.843  27.981  1.00  0.00     0.167 HD
ATOM     53  C   UNL A   1      46.137  31.665  28.210  1.00  0.00     0.037 A 
ATOM     54  C   UNL A   1      43.762  25.138  27.306  1.00  0.00     0.037 A 
ATOM     55  C   UNL A   1      47.118  30.711  27.755  1.00  0.00     0.049 A 
ATOM     56  C   UNL A   1      45.183  25.515  26.980  1.00  0.00     0.074 A 
ATOM     57  C   UNL A   1      48.462  30.919  27.500  1.00  0.00     0.029 A 
ATOM     58  N   UNL A   1      46.862  29.377  27.480  1.00  0.00    -0.354 N 
ATOM     59  N   UNL A   1      45.782  26.674  27.120  1.00  0.00    -0.248 NA
ATOM     60  C   UNL A   1      46.043  24.456  26.432  1.00  0.00     0.031 C 
ATOM     61  C   UNL A   1      49.005  29.725  27.015  1.00  0.00     0.029 A 
ATOM     62  C   UNL A   1      48.016  28.756  27.029  1.00  0.00     0.049 A 
ATOM     63  H   UNL A   1      45.988  28.934  27.590  1.00  0.00     0.167 HD
ATOM     64  C   UNL A   1      47.095  26.475  26.709  1.00  0.00     0.074 A 
ATOM     65  C   UNL A   1      47.207  25.083  26.326  1.00  0.00     0.031 C 
ATOM     66  C   UNL A   1      48.118  27.366  26.657  1.00  0.00     0.037 A 
BRANCH  53  67
ATOM     67  C   UNL A   1      46.564  33.100  28.376  1.00  0.00     0.058 A 
ATOM     68  C   UNL A   1      47.094  33.580  29.584  1.00  0.00     0.135 A 
ATOM     69  C   UNL A   1      46.484  33.995  27.298  1.00  0.00     0.135 A 
ATOM     70  F   UNL A   1      47.183  32.772  30.654  1.00  0.00    -0.206 F 
ATOM     71  C   UNL A   1      47.500  34.903  29.728  1.00  0.00     0.059 A 
ATOM     72  C   UNL A   1      46.914  35.315  27.407  1.00  0.00     0.059 A 
ATOM     73  F   UNL A   1      45.987  33.592  26.118  1.00  0.00    -0.206 F 
ATOM     74  C   UNL A   1      47.407  35.763  28.632  1.00  0.00     0.060 A 
BRANCH  74  75
ATOM     75  S   UNL A   1      47.944  37.474  28.834  1.00  0.00     0.124 S 
ATOM     76  O   UNL A   1      46.717  38.202  28.524  1.00  0.00    -0.237 OA
ATOM     77  O   UNL A   1      48.365  37.506  30.231  1.00  0.00    -0.237 OA
ATOM     78  O   UNL A   1      49.018  37.612  27.855  1.00  0.00    -0.744 OA
ENDBRANCH  74  75
ENDBRANCH  53  67
BRANCH  54  79
ATOM     79  C   UNL A   1      43.273  23.749  27.084  1.00  0.00     0.058 A 
ATOM     80  C   UNL A   1      42.951  23.296  25.796  1.00  0.00     0.135 A 
ATOM     81  C   UNL A   1      43.124  22.847  28.149  1.00  0.00     0.135 A 
ATOM     82  F   UNL A   1      43.068  24.121  24.745  1.00  0.00    -0.206 F 
ATOM     83  C   UNL A   1      42.480  22.005  25.572  1.00  0.00     0.059 A 
ATOM     84  C   UNL A   1      42.684  21.543  27.947  1.00  0.00     0.059 A 
ATOM     85  F   UNL A   1      43.434  23.225  29.399  1.00  0.00    -0.206 F 
ATOM     86  C   UNL A   1      42.353  21.134  26.656  1.00  0.00     0.060 A 
BRANCH  86  87
ATOM     87  S   UNL A   1      41.786  19.448  26.349  1.00  0.00     0.124 S 
ATOM     88  O   UNL A   1      42.183  18.775  27.579  1.00  0.00    -0.237 OA
ATOM     89  O   UNL A   1      40.350  19.639  26.160  1.00  0.00    -0.237 OA
ATOM     90  O   UNL A   1      42.522  19.060  25.150  1.00  0.00    -0.744 OA
ENDBRANCH  86  87
ENDBRANCH  54  79
BRANCH  66  91
ATOM     91  C   UNL A   1      49.462  26.858  26.208  1.00  0.00     0.058 A 
ATOM     92  C   UNL A   1      49.930  27.051  24.898  1.00  0.00     0.135 A 
ATOM     93  C   UNL A   1      50.317  26.214  27.118  1.00  0.00     0.135 A 
ATOM     94  F   UNL A   1      49.153  27.654  23.985  1.00  0.00    -0.206 F 
ATOM     95  C   UNL A   1      51.186  26.603  24.502  1.00  0.00     0.059 A 
ATOM     96  C   UNL A   1      51.589  25.787  26.753  1.00  0.00     0.059 A 
ATOM     97  F   UNL A   1      49.925  26.012  28.387  1.00  0.00    -0.206 F 
ATOM     98  C   UNL A   1      52.010  25.974  25.437  1.00  0.00     0.060 A 
BRANCH  98  99
ATOM     99  S   UNL A   1      53.651  25.430  24.917  1.00  0.00     0.124 S 
ATOM    100  O   UNL A   1      53.572  23.992  25.151  1.00  0.00    -0.237 OA
ATOM    101  O   UNL A   1      53.688  25.844  23.518  1.00  0.00    -0.237 OA
ATOM    102  O   UNL A   1      54.550  26.162  25.805  1.00  0.00    -0.744 OA
ENDBRANCH  98  99
ENDBRANCH  66  91
ENDBRANCH  40  41
ENDBRANCH  32  35
ENDBRANCH  30  31
ENDBRANCH  29  30
ENDBRANCH   1  29
TORSDOF 18
ENDMDL
