MODEL 1
REMARK VINA RESULT:     -12.1      0.000      0.000
REMARK SMILES COc1ccc(-n2c(SCC(=O)NCCCCNC(=O)c3ccc(-c4c5nc(c(-c6c(F)cc(S(=O)(=O)[O-])cc6F)c6ccc([nH]6)c(-c6c(F)cc(S(=O)(=O)[O-])cc6F)c6nc(c(-c7c(F)cc(S(=O)(=O)[O-])cc7F)c7ccc4[nH]7)C=C6)C=C5)cc3)nc3sc4c(c3c2=O)CC[N@H+](C)C4)cc1
REMARK SMILES IDX 15 1 14 2 13 3 11 4 12 5 10 7 9 8 8 9 7 10 93 11 87 12 92 13
REMARK SMILES IDX 94 14 88 15 91 16 89 17 90 18 95 19 99 20 96 21 97 22 98 23
REMARK SMILES IDX 6 25 3 26 4 27 101 28 5 29 100 30 2 31 1 32 16 33 17 34
REMARK SMILES IDX 18 35 19 36 20 38 21 39 22 40 86 41 23 42 85 43 24 44 25 45
REMARK SMILES IDX 26 46 79 47 27 48 84 49 78 50 80 51 28 52 83 53 77 54 76 55
REMARK SMILES IDX 29 57 63 58 42 59 62 60 43 61 46 62 61 63 81 64 44 65 45 66
REMARK SMILES IDX 60 68 82 69 47 70 30 71 31 72 40 73 32 74 33 75 39 76 41 77
REMARK SMILES IDX 34 78 35 79 36 80 37 81 38 82 64 83 65 84 74 85 66 86 67 87
REMARK SMILES IDX 73 88 75 89 68 90 69 91 70 92 71 93 72 94 48 95 49 96 58 97
REMARK SMILES IDX 50 98 51 99 57 100 59 101 52 102 53 103 54 104 55 105 56 106
REMARK H PARENT 13 6 97 24 18 37 80 56 46 67
REMARK Flexibility Score: inf
ROOT
ATOM      1  C   UNL A   1      46.985  20.051  35.481  1.00  0.00     0.023 C 
ENDROOT
BRANCH   1   2
ATOM      2  C   UNL A   1      47.843  19.925  36.743  1.00  0.00     0.116 C 
BRANCH   2   3
ATOM      3  N   UNL A   1      47.600  20.966  37.727  1.00  0.00    -0.355 N 
ATOM      4  C   UNL A   1      47.142  20.875  39.009  1.00  0.00     0.230 C 
ATOM      5  O   UNL A   1      47.482  21.781  39.778  1.00  0.00    -0.274 OA
ATOM      6  H   UNL A   1      47.797  21.881  37.421  1.00  0.00     0.163 HD
BRANCH   4   7
ATOM      7  C   UNL A   1      46.334  19.702  39.551  1.00  0.00     0.178 C 
BRANCH   7   8
ATOM      8  S   UNL A   1      45.835  19.818  41.254  1.00  0.00    -0.077 SA
BRANCH   8   9
ATOM      9  C   UNL A   1      45.076  18.377  41.883  1.00  0.00     0.177 A 
ATOM     10  N   UNL A   1      44.989  17.993  43.227  1.00  0.00    -0.255 N 
ATOM     11  C   UNL A   1      44.270  16.836  43.610  1.00  0.00     0.267 A 
ATOM     12  N   UNL A   1      44.527  17.711  40.908  1.00  0.00    -0.212 NA
ATOM     13  C   UNL A   1      43.567  16.184  42.525  1.00  0.00     0.081 A 
ATOM     14  O   UNL A   1      44.196  16.395  44.750  1.00  0.00    -0.268 OA
ATOM     15  C   UNL A   1      43.772  16.649  41.253  1.00  0.00     0.132 A 
ATOM     16  C   UNL A   1      42.619  15.118  42.565  1.00  0.00    -0.008 A 
ATOM     17  S   UNL A   1      42.897  15.755  40.092  1.00  0.00    -0.114 S 
ATOM     18  C   UNL A   1      42.197  14.777  41.294  1.00  0.00     0.065 A 
ATOM     19  C   UNL A   1      42.098  14.392  43.769  1.00  0.00     0.099 C 
ATOM     20  C   UNL A   1      41.200  13.698  40.987  1.00  0.00     0.310 C 
ATOM     21  C   UNL A   1      40.908  13.475  43.396  1.00  0.00     0.267 C 
ATOM     22  N   UNL A   1      41.044  12.745  42.112  1.00  0.00    -0.333 N 
ATOM     23  C   UNL A   1      42.147  11.785  42.153  1.00  0.00     0.333 C 
ATOM     24  H   UNL A   1      40.188  12.210  41.963  1.00  0.00     0.348 HD
BRANCH  10  25
ATOM     25  C   UNL A   1      45.508  18.727  44.319  1.00  0.00     0.052 A 
ATOM     26  C   UNL A   1      46.644  20.435  46.228  1.00  0.00     0.119 A 
ATOM     27  C   UNL A   1      45.306  20.586  45.855  1.00  0.00     0.048 A 
ATOM     28  C   UNL A   1      47.422  19.451  45.613  1.00  0.00     0.048 A 
ATOM     29  C   UNL A   1      44.740  19.746  44.895  1.00  0.00     0.030 A 
ATOM     30  C   UNL A   1      46.857  18.595  44.661  1.00  0.00     0.030 A 
BRANCH  26  31
ATOM     31  O   UNL A   1      47.073  21.315  47.182  1.00  0.00    -0.497 OA
ATOM     32  C   UNL A   1      47.605  20.743  48.372  1.00  0.00     0.278 C 
ENDBRANCH  26  31
ENDBRANCH  10  25
ENDBRANCH   8   9
ENDBRANCH   7   8
ENDBRANCH   4   7
ENDBRANCH   2   3
ENDBRANCH   1   2
BRANCH   1  33
ATOM     33  C   UNL A   1      46.545  21.471  35.093  1.00  0.00     0.023 C 
BRANCH  33  34
ATOM     34  C   UNL A   1      45.060  21.808  35.281  1.00  0.00     0.116 C 
BRANCH  34  35
ATOM     35  N   UNL A   1      44.870  22.962  36.139  1.00  0.00    -0.352 N 
ATOM     36  C   UNL A   1      44.874  24.309  35.895  1.00  0.00     0.251 C 
ATOM     37  H   UNL A   1      44.708  22.731  37.082  1.00  0.00     0.163 HD
ATOM     38  O   UNL A   1      44.837  25.051  36.879  1.00  0.00    -0.269 OA
BRANCH  36  39
ATOM     39  C   UNL A   1      44.936  24.912  34.539  1.00  0.00     0.039 A 
ATOM     40  C   UNL A   1      46.194  25.364  34.110  1.00  0.00     0.014 A 
ATOM     41  C   UNL A   1      43.820  25.159  33.735  1.00  0.00     0.014 A 
ATOM     42  C   UNL A   1      46.341  26.024  32.889  1.00  0.00     0.010 A 
ATOM     43  C   UNL A   1      43.971  25.816  32.502  1.00  0.00     0.010 A 
ATOM     44  C   UNL A   1      45.232  26.248  32.066  1.00  0.00    -0.014 A 
BRANCH  44  45
ATOM     45  C   UNL A   1      45.463  26.846  30.732  1.00  0.00     0.031 A 
ATOM     46  C   UNL A   1      45.333  25.937  29.558  1.00  0.00     0.074 A 
ATOM     47  C   UNL A   1      45.358  28.171  30.487  1.00  0.00     0.049 A 
ATOM     48  N   UNL A   1      44.183  25.647  29.025  1.00  0.00    -0.248 NA
ATOM     49  C   UNL A   1      46.446  25.148  29.032  1.00  0.00     0.031 C 
ATOM     50  C   UNL A   1      44.489  29.078  31.243  1.00  0.00     0.029 A 
ATOM     51  N   UNL A   1      45.790  28.926  29.421  1.00  0.00    -0.354 N 
ATOM     52  C   UNL A   1      44.394  24.618  28.129  1.00  0.00     0.074 A 
ATOM     53  C   UNL A   1      45.814  24.345  28.159  1.00  0.00     0.031 C 
ATOM     54  C   UNL A   1      44.315  30.207  30.523  1.00  0.00     0.029 A 
ATOM     55  C   UNL A   1      45.187  30.180  29.351  1.00  0.00     0.049 A 
ATOM     56  H   UNL A   1      46.459  28.611  28.770  1.00  0.00     0.167 HD
ATOM     57  C   UNL A   1      43.386  24.044  27.422  1.00  0.00     0.037 A 
ATOM     58  C   UNL A   1      44.951  30.892  28.214  1.00  0.00     0.037 A 
ATOM     59  C   UNL A   1      42.088  24.619  27.620  1.00  0.00     0.049 A 
ATOM     60  C   UNL A   1      43.988  29.993  27.484  1.00  0.00     0.074 A 
ATOM     61  C   UNL A   1      41.007  24.415  28.450  1.00  0.00     0.029 A 
ATOM     62  N   UNL A   1      41.750  25.724  26.873  1.00  0.00    -0.354 N 
ATOM     63  N   UNL A   1      42.703  29.903  27.708  1.00  0.00    -0.248 NA
ATOM     64  C   UNL A   1      44.546  28.900  26.684  1.00  0.00     0.031 C 
ATOM     65  C   UNL A   1      40.303  25.660  28.475  1.00  0.00     0.029 A 
ATOM     66  C   UNL A   1      41.038  26.555  27.699  1.00  0.00     0.049 A 
ATOM     67  H   UNL A   1      41.977  25.886  25.928  1.00  0.00     0.167 HD
ATOM     68  C   UNL A   1      42.350  28.611  27.315  1.00  0.00     0.074 A 
ATOM     69  C   UNL A   1      43.521  28.060  26.663  1.00  0.00     0.031 C 
ATOM     70  C   UNL A   1      41.198  27.992  27.702  1.00  0.00     0.037 A 
BRANCH  57  71
ATOM     71  C   UNL A   1      43.549  22.981  26.414  1.00  0.00     0.058 A 
ATOM     72  C   UNL A   1      43.089  21.691  26.717  1.00  0.00     0.135 A 
ATOM     73  C   UNL A   1      44.365  23.150  25.290  1.00  0.00     0.135 A 
ATOM     74  F   UNL A   1      42.305  21.494  27.791  1.00  0.00    -0.206 F 
ATOM     75  C   UNL A   1      43.484  20.588  25.975  1.00  0.00     0.059 A 
ATOM     76  C   UNL A   1      44.769  22.059  24.525  1.00  0.00     0.059 A 
ATOM     77  F   UNL A   1      44.831  24.368  24.968  1.00  0.00    -0.206 F 
ATOM     78  C   UNL A   1      44.351  20.780  24.900  1.00  0.00     0.060 A 
BRANCH  78  79
ATOM     79  S   UNL A   1      44.971  19.318  24.040  1.00  0.00     0.124 S 
ATOM     80  O   UNL A   1      44.493  19.549  22.681  1.00  0.00    -0.237 OA
ATOM     81  O   UNL A   1      46.412  19.439  24.237  1.00  0.00    -0.237 OA
ATOM     82  O   UNL A   1      44.335  18.214  24.750  1.00  0.00    -0.744 OA
ENDBRANCH  78  79
ENDBRANCH  57  71
BRANCH  58  83
ATOM     83  C   UNL A   1      46.156  31.505  27.561  1.00  0.00     0.058 A 
ATOM     84  C   UNL A   1      46.059  32.823  27.061  1.00  0.00     0.135 A 
ATOM     85  C   UNL A   1      47.399  30.876  27.382  1.00  0.00     0.135 A 
ATOM     86  F   UNL A   1      44.877  33.461  27.060  1.00  0.00    -0.206 F 
ATOM     87  C   UNL A   1      47.157  33.519  26.562  1.00  0.00     0.059 A 
ATOM     88  C   UNL A   1      48.522  31.560  26.910  1.00  0.00     0.059 A 
ATOM     89  F   UNL A   1      47.568  29.580  27.678  1.00  0.00    -0.206 F 
ATOM     90  C   UNL A   1      48.398  32.892  26.530  1.00  0.00     0.060 A 
BRANCH  90  91
ATOM     91  S   UNL A   1      49.846  33.860  26.058  1.00  0.00     0.124 S 
ATOM     92  O   UNL A   1      49.299  34.743  25.036  1.00  0.00    -0.237 OA
ATOM     93  O   UNL A   1      50.209  34.496  27.321  1.00  0.00    -0.237 OA
ATOM     94  O   UNL A   1      50.785  32.850  25.581  1.00  0.00    -0.744 OA
ENDBRANCH  90  91
ENDBRANCH  58  83
BRANCH  70  95
ATOM     95  C   UNL A   1      40.187  28.841  28.395  1.00  0.00     0.058 A 
ATOM     96  C   UNL A   1      39.172  29.466  27.659  1.00  0.00     0.135 A 
ATOM     97  C   UNL A   1      40.152  28.955  29.793  1.00  0.00     0.135 A 
ATOM     98  F   UNL A   1      39.156  29.383  26.318  1.00  0.00    -0.206 F 
ATOM     99  C   UNL A   1      38.128  30.135  28.290  1.00  0.00     0.059 A 
ATOM    100  C   UNL A   1      39.106  29.602  30.446  1.00  0.00     0.059 A 
ATOM    101  F   UNL A   1      41.107  28.389  30.551  1.00  0.00    -0.206 F 
ATOM    102  C   UNL A   1      38.090  30.178  29.685  1.00  0.00     0.060 A 
BRANCH 102 103
ATOM    103  S   UNL A   1      36.647  30.902  30.491  1.00  0.00     0.124 S 
ATOM    104  O   UNL A   1      36.120  29.773  31.248  1.00  0.00    -0.237 OA
ATOM    105  O   UNL A   1      37.238  31.977  31.284  1.00  0.00    -0.237 OA
ATOM    106  O   UNL A   1      35.818  31.349  29.373  1.00  0.00    -0.744 OA
ENDBRANCH 102 103
ENDBRANCH  70  95
ENDBRANCH  44  45
ENDBRANCH  36  39
ENDBRANCH  34  35
ENDBRANCH  33  34
ENDBRANCH   1  33
TORSDOF 18
ENDMDL
MODEL 2
REMARK VINA RESULT:     -11.4      7.950     14.725
REMARK SMILES COc1ccc(-n2c(SCC(=O)NCCCCNC(=O)c3ccc(-c4c5nc(c(-c6c(F)cc(S(=O)(=O)[O-])cc6F)c6ccc([nH]6)c(-c6c(F)cc(S(=O)(=O)[O-])cc6F)c6nc(c(-c7c(F)cc(S(=O)(=O)[O-])cc7F)c7ccc4[nH]7)C=C6)C=C5)cc3)nc3sc4c(c3c2=O)CC[N@H+](C)C4)cc1
REMARK SMILES IDX 15 1 14 2 13 3 11 4 12 5 10 7 9 8 8 9 7 10 93 11 87 12 92 13
REMARK SMILES IDX 94 14 88 15 91 16 89 17 90 18 95 19 99 20 96 21 97 22 98 23
REMARK SMILES IDX 6 25 3 26 4 27 101 28 5 29 100 30 2 31 1 32 16 33 17 34
REMARK SMILES IDX 18 35 19 36 20 38 21 39 22 40 86 41 23 42 85 43 24 44 25 45
REMARK SMILES IDX 26 46 79 47 27 48 84 49 78 50 80 51 28 52 83 53 77 54 76 55
REMARK SMILES IDX 29 57 63 58 42 59 62 60 43 61 46 62 61 63 81 64 44 65 45 66
REMARK SMILES IDX 60 68 82 69 47 70 30 71 31 72 40 73 32 74 33 75 39 76 41 77
REMARK SMILES IDX 34 78 35 79 36 80 37 81 38 82 64 83 65 84 74 85 66 86 67 87
REMARK SMILES IDX 73 88 75 89 68 90 69 91 70 92 71 93 72 94 48 95 49 96 58 97
REMARK SMILES IDX 50 98 51 99 57 100 59 101 52 102 53 103 54 104 55 105 56 106
REMARK H PARENT 13 6 97 24 18 37 80 56 46 67
REMARK Flexibility Score: inf
ROOT
ATOM      1  C   UNL A   1      33.110  30.998  27.706  1.00  0.00     0.023 C 
ENDROOT
BRANCH   1   2
ATOM      2  C   UNL A   1      34.064  29.884  27.267  1.00  0.00     0.116 C 
BRANCH   2   3
ATOM      3  N   UNL A   1      34.053  29.629  25.836  1.00  0.00    -0.355 N 
ATOM      4  C   UNL A   1      33.586  28.553  25.138  1.00  0.00     0.230 C 
ATOM      5  O   UNL A   1      33.235  28.767  23.973  1.00  0.00    -0.274 OA
ATOM      6  H   UNL A   1      34.442  30.344  25.284  1.00  0.00     0.163 HD
BRANCH   4   7
ATOM      7  C   UNL A   1      33.392  27.163  25.732  1.00  0.00     0.178 C 
BRANCH   7   8
ATOM      8  S   UNL A   1      34.554  25.922  25.211  1.00  0.00    -0.077 SA
BRANCH   8   9
ATOM      9  C   UNL A   1      33.844  24.364  24.872  1.00  0.00     0.177 A 
ATOM     10  N   UNL A   1      32.666  24.117  24.158  1.00  0.00    -0.255 N 
ATOM     11  C   UNL A   1      32.244  22.794  23.883  1.00  0.00     0.267 A 
ATOM     12  N   UNL A   1      34.615  23.422  25.336  1.00  0.00    -0.212 NA
ATOM     13  C   UNL A   1      33.180  21.770  24.299  1.00  0.00     0.081 A 
ATOM     14  O   UNL A   1      31.200  22.487  23.321  1.00  0.00    -0.268 OA
ATOM     15  C   UNL A   1      34.278  22.156  25.020  1.00  0.00     0.132 A 
ATOM     16  C   UNL A   1      33.172  20.368  24.033  1.00  0.00    -0.008 A 
ATOM     17  S   UNL A   1      35.259  20.830  25.459  1.00  0.00    -0.114 S 
ATOM     18  C   UNL A   1      34.247  19.741  24.635  1.00  0.00     0.065 A 
ATOM     19  C   UNL A   1      32.173  19.585  23.235  1.00  0.00     0.099 C 
ATOM     20  C   UNL A   1      34.534  18.269  24.549  1.00  0.00     0.310 C 
ATOM     21  C   UNL A   1      32.666  18.139  22.990  1.00  0.00     0.267 C 
ATOM     22  N   UNL A   1      33.339  17.491  24.142  1.00  0.00    -0.333 N 
ATOM     23  C   UNL A   1      32.421  17.298  25.264  1.00  0.00     0.333 C 
ATOM     24  H   UNL A   1      33.647  16.564  23.845  1.00  0.00     0.348 HD
BRANCH  10  25
ATOM     25  C   UNL A   1      31.842  25.108  23.576  1.00  0.00     0.052 A 
ATOM     26  C   UNL A   1      30.437  27.322  22.589  1.00  0.00     0.119 A 
ATOM     27  C   UNL A   1      31.504  26.785  21.864  1.00  0.00     0.048 A 
ATOM     28  C   UNL A   1      30.100  26.771  23.828  1.00  0.00     0.048 A 
ATOM     29  C   UNL A   1      32.215  25.690  22.358  1.00  0.00     0.030 A 
ATOM     30  C   UNL A   1      30.799  25.664  24.323  1.00  0.00     0.030 A 
BRANCH  26  31
ATOM     31  O   UNL A   1      29.820  28.387  21.992  1.00  0.00    -0.497 OA
ATOM     32  C   UNL A   1      30.169  29.675  22.487  1.00  0.00     0.278 C 
ENDBRANCH  26  31
ENDBRANCH  10  25
ENDBRANCH   8   9
ENDBRANCH   7   8
ENDBRANCH   4   7
ENDBRANCH   2   3
ENDBRANCH   1   2
BRANCH   1  33
ATOM     33  C   UNL A   1      33.523  32.434  27.343  1.00  0.00     0.023 C 
BRANCH  33  34
ATOM     34  C   UNL A   1      34.877  32.918  27.879  1.00  0.00     0.116 C 
BRANCH  34  35
ATOM     35  N   UNL A   1      34.729  33.754  29.055  1.00  0.00    -0.352 N 
ATOM     36  C   UNL A   1      35.359  33.765  30.269  1.00  0.00     0.251 C 
ATOM     37  H   UNL A   1      34.038  34.449  28.960  1.00  0.00     0.163 HD
ATOM     38  O   UNL A   1      34.891  34.513  31.130  1.00  0.00    -0.269 OA
BRANCH  36  39
ATOM     39  C   UNL A   1      36.541  32.929  30.605  1.00  0.00     0.039 A 
ATOM     40  C   UNL A   1      36.741  32.644  31.965  1.00  0.00     0.014 A 
ATOM     41  C   UNL A   1      37.506  32.523  29.681  1.00  0.00     0.014 A 
ATOM     42  C   UNL A   1      37.869  31.942  32.392  1.00  0.00     0.010 A 
ATOM     43  C   UNL A   1      38.637  31.808  30.111  1.00  0.00     0.010 A 
ATOM     44  C   UNL A   1      38.826  31.507  31.468  1.00  0.00    -0.014 A 
BRANCH  44  45
ATOM     45  C   UNL A   1      39.939  30.666  31.960  1.00  0.00     0.031 A 
ATOM     46  C   UNL A   1      40.026  29.281  31.417  1.00  0.00     0.074 A 
ATOM     47  C   UNL A   1      41.068  31.176  32.500  1.00  0.00     0.049 A 
ATOM     48  N   UNL A   1      40.577  29.016  30.269  1.00  0.00    -0.248 NA
ATOM     49  C   UNL A   1      39.336  28.142  32.019  1.00  0.00     0.031 C 
ATOM     50  C   UNL A   1      41.613  32.496  32.166  1.00  0.00     0.029 A 
ATOM     51  N   UNL A   1      42.060  30.578  33.243  1.00  0.00    -0.354 N 
ATOM     52  C   UNL A   1      40.283  27.701  29.966  1.00  0.00     0.074 A 
ATOM     53  C   UNL A   1      39.518  27.194  31.084  1.00  0.00     0.031 C 
ATOM     54  C   UNL A   1      42.905  32.539  32.554  1.00  0.00     0.029 A 
ATOM     55  C   UNL A   1      43.230  31.331  33.311  1.00  0.00     0.049 A 
ATOM     56  H   UNL A   1      41.954  29.703  33.683  1.00  0.00     0.167 HD
ATOM     57  C   UNL A   1      40.678  27.110  28.809  1.00  0.00     0.037 A 
ATOM     58  C   UNL A   1      44.493  30.839  33.447  1.00  0.00     0.037 A 
ATOM     59  C   UNL A   1      41.477  27.923  27.942  1.00  0.00     0.049 A 
ATOM     60  C   UNL A   1      44.652  30.049  32.174  1.00  0.00     0.074 A 
ATOM     61  C   UNL A   1      41.268  28.791  26.891  1.00  0.00     0.029 A 
ATOM     62  N   UNL A   1      42.832  27.977  28.174  1.00  0.00    -0.354 N 
ATOM     63  N   UNL A   1      44.956  30.539  31.001  1.00  0.00    -0.248 NA
ATOM     64  C   UNL A   1      44.121  28.684  32.146  1.00  0.00     0.031 C 
ATOM     65  C   UNL A   1      42.416  29.644  26.867  1.00  0.00     0.029 A 
ATOM     66  C   UNL A   1      43.221  29.271  27.941  1.00  0.00     0.049 A 
ATOM     67  H   UNL A   1      43.410  27.230  28.454  1.00  0.00     0.167 HD
ATOM     68  C   UNL A   1      44.401  29.653  30.076  1.00  0.00     0.074 A 
ATOM     69  C   UNL A   1      43.932  28.517  30.845  1.00  0.00     0.031 C 
ATOM     70  C   UNL A   1      44.182  29.967  28.768  1.00  0.00     0.037 A 
BRANCH  57  71
ATOM     71  C   UNL A   1      40.443  25.700  28.449  1.00  0.00     0.058 A 
ATOM     72  C   UNL A   1      41.456  24.763  28.704  1.00  0.00     0.135 A 
ATOM     73  C   UNL A   1      39.369  25.315  27.640  1.00  0.00     0.135 A 
ATOM     74  F   UNL A   1      42.503  25.101  29.476  1.00  0.00    -0.206 F 
ATOM     75  C   UNL A   1      41.446  23.507  28.116  1.00  0.00     0.059 A 
ATOM     76  C   UNL A   1      39.332  24.057  27.044  1.00  0.00     0.059 A 
ATOM     77  F   UNL A   1      38.381  26.183  27.367  1.00  0.00    -0.206 F 
ATOM     78  C   UNL A   1      40.394  23.176  27.261  1.00  0.00     0.060 A 
BRANCH  78  79
ATOM     79  S   UNL A   1      40.476  21.597  26.391  1.00  0.00     0.124 S 
ATOM     80  O   UNL A   1      40.696  20.663  27.490  1.00  0.00    -0.237 OA
ATOM     81  O   UNL A   1      39.163  21.533  25.754  1.00  0.00    -0.237 OA
ATOM     82  O   UNL A   1      41.602  21.771  25.479  1.00  0.00    -0.744 OA
ENDBRANCH  78  79
ENDBRANCH  57  71
BRANCH  58  83
ATOM     83  C   UNL A   1      44.841  30.291  34.801  1.00  0.00     0.058 A 
ATOM     84  C   UNL A   1      46.010  30.760  35.441  1.00  0.00     0.135 A 
ATOM     85  C   UNL A   1      44.108  29.323  35.506  1.00  0.00     0.135 A 
ATOM     86  F   UNL A   1      46.851  31.583  34.795  1.00  0.00    -0.206 F 
ATOM     87  C   UNL A   1      46.342  30.411  36.748  1.00  0.00     0.059 A 
ATOM     88  C   UNL A   1      44.403  28.976  36.827  1.00  0.00     0.059 A 
ATOM     89  F   UNL A   1      43.068  28.694  34.941  1.00  0.00    -0.206 F 
ATOM     90  C   UNL A   1      45.506  29.549  37.451  1.00  0.00     0.060 A 
BRANCH  90  91
ATOM     91  S   UNL A   1      45.841  29.251  39.198  1.00  0.00     0.124 S 
ATOM     92  O   UNL A   1      44.899  28.182  39.508  1.00  0.00    -0.237 OA
ATOM     93  O   UNL A   1      47.250  28.870  39.175  1.00  0.00    -0.237 OA
ATOM     94  O   UNL A   1      45.559  30.540  39.821  1.00  0.00    -0.744 OA
ENDBRANCH  90  91
ENDBRANCH  58  83
BRANCH  70  95
ATOM     95  C   UNL A   1      44.778  31.245  28.281  1.00  0.00     0.058 A 
ATOM     96  C   UNL A   1      45.973  31.229  27.549  1.00  0.00     0.135 A 
ATOM     97  C   UNL A   1      44.121  32.474  28.442  1.00  0.00     0.135 A 
ATOM     98  F   UNL A   1      46.638  30.078  27.361  1.00  0.00    -0.206 F 
ATOM     99  C   UNL A   1      46.470  32.383  26.952  1.00  0.00     0.059 A 
ATOM    100  C   UNL A   1      44.590  33.636  27.836  1.00  0.00     0.059 A 
ATOM    101  F   UNL A   1      42.979  32.554  29.146  1.00  0.00    -0.206 F 
ATOM    102  C   UNL A   1      45.760  33.578  27.081  1.00  0.00     0.060 A 
BRANCH 102 103
ATOM    103  S   UNL A   1      46.326  35.026  26.164  1.00  0.00     0.124 S 
ATOM    104  O   UNL A   1      46.409  34.513  24.801  1.00  0.00    -0.237 OA
ATOM    105  O   UNL A   1      45.260  35.992  26.415  1.00  0.00    -0.237 OA
ATOM    106  O   UNL A   1      47.606  35.349  26.791  1.00  0.00    -0.744 OA
ENDBRANCH 102 103
ENDBRANCH  70  95
ENDBRANCH  44  45
ENDBRANCH  36  39
ENDBRANCH  34  35
ENDBRANCH  33  34
ENDBRANCH   1  33
TORSDOF 18
ENDMDL
MODEL 3
REMARK VINA RESULT:     -11.3      5.938     10.977
REMARK SMILES COc1ccc(-n2c(SCC(=O)NCCCCNC(=O)c3ccc(-c4c5nc(c(-c6c(F)cc(S(=O)(=O)[O-])cc6F)c6ccc([nH]6)c(-c6c(F)cc(S(=O)(=O)[O-])cc6F)c6nc(c(-c7c(F)cc(S(=O)(=O)[O-])cc7F)c7ccc4[nH]7)C=C6)C=C5)cc3)nc3sc4c(c3c2=O)CC[N@H+](C)C4)cc1
REMARK SMILES IDX 15 1 14 2 13 3 11 4 12 5 10 7 9 8 8 9 7 10 93 11 87 12 92 13
REMARK SMILES IDX 94 14 88 15 91 16 89 17 90 18 95 19 99 20 96 21 97 22 98 23
REMARK SMILES IDX 6 25 3 26 4 27 101 28 5 29 100 30 2 31 1 32 16 33 17 34
REMARK SMILES IDX 18 35 19 36 20 38 21 39 22 40 86 41 23 42 85 43 24 44 25 45
REMARK SMILES IDX 26 46 79 47 27 48 84 49 78 50 80 51 28 52 83 53 77 54 76 55
REMARK SMILES IDX 29 57 63 58 42 59 62 60 43 61 46 62 61 63 81 64 44 65 45 66
REMARK SMILES IDX 60 68 82 69 47 70 30 71 31 72 40 73 32 74 33 75 39 76 41 77
REMARK SMILES IDX 34 78 35 79 36 80 37 81 38 82 64 83 65 84 74 85 66 86 67 87
REMARK SMILES IDX 73 88 75 89 68 90 69 91 70 92 71 93 72 94 48 95 49 96 58 97
REMARK SMILES IDX 50 98 51 99 57 100 59 101 52 102 53 103 54 104 55 105 56 106
REMARK H PARENT 13 6 97 24 18 37 80 56 46 67
REMARK Flexibility Score: inf
ROOT
ATOM      1  C   UNL A   1      42.657  27.696  35.185  1.00  0.00     0.023 C 
ENDROOT
BRANCH   1   2
ATOM      2  C   UNL A   1      41.635  27.843  34.054  1.00  0.00     0.116 C 
BRANCH   2   3
ATOM      3  N   UNL A   1      40.445  28.587  34.430  1.00  0.00    -0.355 N 
ATOM      4  C   UNL A   1      40.013  29.818  34.029  1.00  0.00     0.230 C 
ATOM      5  O   UNL A   1      38.794  30.014  34.080  1.00  0.00    -0.274 OA
ATOM      6  H   UNL A   1      39.856  28.130  35.074  1.00  0.00     0.163 HD
BRANCH   4   7
ATOM      7  C   UNL A   1      40.919  30.898  33.450  1.00  0.00     0.178 C 
BRANCH   7   8
ATOM      8  S   UNL A   1      40.099  32.321  32.768  1.00  0.00    -0.077 SA
BRANCH   8   9
ATOM      9  C   UNL A   1      40.783  33.852  33.256  1.00  0.00     0.177 A 
ATOM     10  N   UNL A   1      40.428  34.608  34.379  1.00  0.00    -0.255 N 
ATOM     11  C   UNL A   1      41.123  35.797  34.706  1.00  0.00     0.267 A 
ATOM     12  N   UNL A   1      41.745  34.180  32.442  1.00  0.00    -0.212 NA
ATOM     13  C   UNL A   1      42.264  36.073  33.859  1.00  0.00     0.081 A 
ATOM     14  O   UNL A   1      40.840  36.550  35.629  1.00  0.00    -0.268 OA
ATOM     15  C   UNL A   1      42.472  35.264  32.774  1.00  0.00     0.132 A 
ATOM     16  C   UNL A   1      43.282  37.065  33.997  1.00  0.00    -0.008 A 
ATOM     17  S   UNL A   1      43.836  35.742  31.865  1.00  0.00    -0.114 S 
ATOM     18  C   UNL A   1      44.186  37.001  32.954  1.00  0.00     0.065 A 
ATOM     19  C   UNL A   1      43.429  38.091  35.081  1.00  0.00     0.099 C 
ATOM     20  C   UNL A   1      45.377  37.901  32.801  1.00  0.00     0.310 C 
ATOM     21  C   UNL A   1      44.797  38.809  34.987  1.00  0.00     0.267 C 
ATOM     22  N   UNL A   1      45.252  39.136  33.614  1.00  0.00    -0.333 N 
ATOM     23  C   UNL A   1      44.370  40.109  32.970  1.00  0.00     0.333 C 
ATOM     24  H   UNL A   1      46.174  39.568  33.683  1.00  0.00     0.348 HD
BRANCH  10  25
ATOM     25  C   UNL A   1      39.441  34.249  35.325  1.00  0.00     0.052 A 
ATOM     26  C   UNL A   1      37.483  33.200  37.034  1.00  0.00     0.119 A 
ATOM     27  C   UNL A   1      38.838  33.071  37.352  1.00  0.00     0.048 A 
ATOM     28  C   UNL A   1      37.113  33.822  35.839  1.00  0.00     0.048 A 
ATOM     29  C   UNL A   1      39.817  33.581  36.497  1.00  0.00     0.030 A 
ATOM     30  C   UNL A   1      38.089  34.348  34.984  1.00  0.00     0.030 A 
BRANCH  26  31
ATOM     31  O   UNL A   1      36.628  32.666  37.957  1.00  0.00    -0.497 OA
ATOM     32  C   UNL A   1      37.195  31.745  38.883  1.00  0.00     0.278 C 
ENDBRANCH  26  31
ENDBRANCH  10  25
ENDBRANCH   8   9
ENDBRANCH   7   8
ENDBRANCH   4   7
ENDBRANCH   2   3
ENDBRANCH   1   2
BRANCH   1  33
ATOM     33  C   UNL A   1      42.297  26.710  36.308  1.00  0.00     0.023 C 
BRANCH  33  34
ATOM     34  C   UNL A   1      43.450  26.226  37.197  1.00  0.00     0.116 C 
BRANCH  34  35
ATOM     35  N   UNL A   1      43.810  24.849  36.916  1.00  0.00    -0.352 N 
ATOM     36  C   UNL A   1      44.247  24.217  35.784  1.00  0.00     0.251 C 
ATOM     37  H   UNL A   1      43.722  24.252  37.694  1.00  0.00     0.163 HD
ATOM     38  O   UNL A   1      44.319  22.987  35.827  1.00  0.00    -0.269 OA
BRANCH  36  39
ATOM     39  C   UNL A   1      44.614  24.917  34.526  1.00  0.00     0.039 A 
ATOM     40  C   UNL A   1      43.848  24.610  33.390  1.00  0.00     0.014 A 
ATOM     41  C   UNL A   1      45.726  25.751  34.384  1.00  0.00     0.014 A 
ATOM     42  C   UNL A   1      44.168  25.147  32.142  1.00  0.00     0.010 A 
ATOM     43  C   UNL A   1      46.042  26.299  33.129  1.00  0.00     0.010 A 
ATOM     44  C   UNL A   1      45.263  26.006  32.000  1.00  0.00    -0.014 A 
BRANCH  44  45
ATOM     45  C   UNL A   1      45.485  26.640  30.680  1.00  0.00     0.031 A 
ATOM     46  C   UNL A   1      45.367  25.759  29.485  1.00  0.00     0.074 A 
ATOM     47  C   UNL A   1      45.362  27.969  30.469  1.00  0.00     0.049 A 
ATOM     48  N   UNL A   1      44.221  25.466  28.945  1.00  0.00    -0.248 NA
ATOM     49  C   UNL A   1      46.490  24.998  28.939  1.00  0.00     0.031 C 
ATOM     50  C   UNL A   1      44.481  28.845  31.247  1.00  0.00     0.029 A 
ATOM     51  N   UNL A   1      45.782  28.756  29.421  1.00  0.00    -0.354 N 
ATOM     52  C   UNL A   1      44.444  24.463  28.023  1.00  0.00     0.074 A 
ATOM     53  C   UNL A   1      45.868  24.209  28.046  1.00  0.00     0.031 C 
ATOM     54  C   UNL A   1      44.291  29.989  30.556  1.00  0.00     0.029 A 
ATOM     55  C   UNL A   1      45.162  30.003  29.383  1.00  0.00     0.049 A 
ATOM     56  H   UNL A   1      46.455  28.467  28.763  1.00  0.00     0.167 HD
ATOM     57  C   UNL A   1      43.444  23.893  27.303  1.00  0.00     0.037 A 
ATOM     58  C   UNL A   1      44.915  30.740  28.264  1.00  0.00     0.037 A 
ATOM     59  C   UNL A   1      42.139  24.444  27.516  1.00  0.00     0.049 A 
ATOM     60  C   UNL A   1      43.964  29.846  27.512  1.00  0.00     0.074 A 
ATOM     61  C   UNL A   1      41.061  24.204  28.341  1.00  0.00     0.029 A 
ATOM     62  N   UNL A   1      41.785  25.563  26.796  1.00  0.00    -0.354 N 
ATOM     63  N   UNL A   1      42.681  29.732  27.735  1.00  0.00    -0.248 NA
ATOM     64  C   UNL A   1      44.536  28.781  26.685  1.00  0.00     0.031 C 
ATOM     65  C   UNL A   1      40.341  25.439  28.397  1.00  0.00     0.029 A 
ATOM     66  C   UNL A   1      41.062  26.363  27.644  1.00  0.00     0.049 A 
ATOM     67  H   UNL A   1      42.009  25.751  25.856  1.00  0.00     0.167 HD
ATOM     68  C   UNL A   1      42.345  28.446  27.310  1.00  0.00     0.074 A 
ATOM     69  C   UNL A   1      43.523  27.927  26.644  1.00  0.00     0.031 C 
ATOM     70  C   UNL A   1      41.202  27.802  27.682  1.00  0.00     0.037 A 
BRANCH  57  71
ATOM     71  C   UNL A   1      43.621  22.857  26.269  1.00  0.00     0.058 A 
ATOM     72  C   UNL A   1      43.132  21.566  26.519  1.00  0.00     0.135 A 
ATOM     73  C   UNL A   1      44.474  23.046  25.176  1.00  0.00     0.135 A 
ATOM     74  F   UNL A   1      42.312  21.351  27.562  1.00  0.00    -0.206 F 
ATOM     75  C   UNL A   1      43.532  20.480  25.756  1.00  0.00     0.059 A 
ATOM     76  C   UNL A   1      44.884  21.971  24.391  1.00  0.00     0.059 A 
ATOM     77  F   UNL A   1      44.969  24.265  24.905  1.00  0.00    -0.206 F 
ATOM     78  C   UNL A   1      44.434  20.689  24.714  1.00  0.00     0.060 A 
BRANCH  78  79
ATOM     79  S   UNL A   1      45.057  19.243  23.829  1.00  0.00     0.124 S 
ATOM     80  O   UNL A   1      44.497  18.150  24.616  1.00  0.00    -0.237 OA
ATOM     81  O   UNL A   1      44.484  19.431  22.500  1.00  0.00    -0.237 OA
ATOM     82  O   UNL A   1      46.506  19.396  23.910  1.00  0.00    -0.744 OA
ENDBRANCH  78  79
ENDBRANCH  57  71
BRANCH  58  83
ATOM     83  C   UNL A   1      46.111  31.385  27.627  1.00  0.00     0.058 A 
ATOM     84  C   UNL A   1      46.031  32.748  27.261  1.00  0.00     0.135 A 
ATOM     85  C   UNL A   1      47.329  30.748  27.338  1.00  0.00     0.135 A 
ATOM     86  F   UNL A   1      44.868  33.410  27.369  1.00  0.00    -0.206 F 
ATOM     87  C   UNL A   1      47.128  33.464  26.788  1.00  0.00     0.059 A 
ATOM     88  C   UNL A   1      48.452  31.449  26.890  1.00  0.00     0.059 A 
ATOM     89  F   UNL A   1      47.474  29.425  27.499  1.00  0.00    -0.206 F 
ATOM     90  C   UNL A   1      48.350  32.814  26.646  1.00  0.00     0.060 A 
BRANCH  90  91
ATOM     91  S   UNL A   1      49.805  33.789  26.213  1.00  0.00     0.124 S 
ATOM     92  O   UNL A   1      50.522  32.882  25.324  1.00  0.00    -0.237 OA
ATOM     93  O   UNL A   1      49.207  34.960  25.579  1.00  0.00    -0.237 OA
ATOM     94  O   UNL A   1      50.439  34.040  27.503  1.00  0.00    -0.744 OA
ENDBRANCH  90  91
ENDBRANCH  58  83
BRANCH  70  95
ATOM     95  C   UNL A   1      40.180  28.619  28.396  1.00  0.00     0.058 A 
ATOM     96  C   UNL A   1      39.205  29.316  27.670  1.00  0.00     0.135 A 
ATOM     97  C   UNL A   1      40.093  28.634  29.797  1.00  0.00     0.135 A 
ATOM     98  F   UNL A   1      39.239  29.329  26.327  1.00  0.00    -0.206 F 
ATOM     99  C   UNL A   1      38.149  29.958  28.308  1.00  0.00     0.059 A 
ATOM    100  C   UNL A   1      39.034  29.253  30.455  1.00  0.00     0.059 A 
ATOM    101  F   UNL A   1      41.008  27.996  30.547  1.00  0.00    -0.206 F 
ATOM    102  C   UNL A   1      38.059  29.902  29.700  1.00  0.00     0.060 A 
BRANCH 102 103
ATOM    103  S   UNL A   1      36.599  30.596  30.503  1.00  0.00     0.124 S 
ATOM    104  O   UNL A   1      35.637  30.635  29.407  1.00  0.00    -0.237 OA
ATOM    105  O   UNL A   1      36.324  29.619  31.553  1.00  0.00    -0.237 OA
ATOM    106  O   UNL A   1      37.057  31.899  30.982  1.00  0.00    -0.744 OA
ENDBRANCH 102 103
ENDBRANCH  70  95
ENDBRANCH  44  45
ENDBRANCH  36  39
ENDBRANCH  34  35
ENDBRANCH  33  34
ENDBRANCH   1  33
TORSDOF 18
ENDMDL
