MODEL 1
REMARK VINA RESULT:     -13.4      0.000      0.000
REMARK SMILES Cc1ccccc1-n1nc(Cl)c(C(=O)NCCCCNC(=O)c2ccc(-c3c4nc(c(-c5c(F)cc(S(=O)(=O)[O-])cc5F)c5ccc([nH]5)c(-c5c(F)cc(S(=O)(=O)[O-])cc5F)c5nc(c(-c6c(F)cc(S(=O)(=O)[O-])cc6F)c6ccc3[nH]6)C=C5)C=C4)cc2)n1
REMARK SMILES IDX 18 1 17 2 16 3 15 4 13 5 14 6 12 8 8 9 9 10 89 11 10 12
REMARK SMILES IDX 11 13 7 14 1 15 2 16 3 17 4 18 6 19 5 20 19 21 20 22 21 23
REMARK SMILES IDX 22 25 23 26 24 27 88 28 25 29 87 30 26 31 27 32 28 33 81 34
REMARK SMILES IDX 29 35 86 36 80 37 82 38 30 39 85 40 79 41 78 42 31 44 65 45
REMARK SMILES IDX 44 46 64 47 45 48 48 49 63 50 83 51 46 52 47 53 62 55 84 56
REMARK SMILES IDX 49 57 32 58 33 59 42 60 34 61 35 62 41 63 43 64 36 65 37 66
REMARK SMILES IDX 38 67 39 68 40 69 66 70 67 71 76 72 68 73 69 74 75 75 77 76
REMARK SMILES IDX 70 77 71 78 72 79 73 80 74 81 50 82 51 83 60 84 52 85 53 86
REMARK SMILES IDX 59 87 61 88 54 89 55 90 56 91 57 92 58 93
REMARK H PARENT 15 7 20 24 82 43 48 54
REMARK Flexibility Score: inf
ROOT
ATOM      1  C   UNL A   1      33.209  30.068  26.706  1.00  0.00     0.023 C 
ENDROOT
BRANCH   1   2
ATOM      2  C   UNL A   1      32.152  29.025  27.089  1.00  0.00     0.023 C 
BRANCH   2   3
ATOM      3  C   UNL A   1      32.007  27.866  26.093  1.00  0.00     0.116 C 
BRANCH   3   4
ATOM      4  N   UNL A   1      31.058  26.847  26.527  1.00  0.00    -0.351 N 
ATOM      5  C   UNL A   1      30.991  25.493  26.274  1.00  0.00     0.275 C 
ATOM      6  O   UNL A   1      30.024  24.882  26.730  1.00  0.00    -0.267 OA
ATOM      7  H   UNL A   1      30.337  27.186  27.105  1.00  0.00     0.163 HD
BRANCH   5   8
ATOM      8  C   UNL A   1      32.005  24.822  25.461  1.00  0.00     0.189 A 
ATOM      9  N   UNL A   1      33.740  23.767  24.869  1.00  0.00    -0.149 N 
ATOM     10  N   UNL A   1      33.238  24.177  23.677  1.00  0.00    -0.135 NA
ATOM     11  N   UNL A   1      33.013  24.090  25.960  1.00  0.00    -0.141 NA
ATOM     12  C   UNL A   1      32.110  24.787  24.054  1.00  0.00     0.184 A 
ATOM     13  Cl  UNL A   1      31.077  25.446  22.888  1.00  0.00    -0.058 Cl
BRANCH   9  14
ATOM     14  C   UNL A   1      35.034  23.192  24.995  1.00  0.00     0.089 A 
ATOM     15  C   UNL A   1      34.154  20.782  24.743  1.00  0.00     0.047 C 
ATOM     16  C   UNL A   1      35.228  21.795  25.048  1.00  0.00    -0.023 A 
ATOM     17  C   UNL A   1      36.501  21.309  25.390  1.00  0.00     0.006 A 
ATOM     18  C   UNL A   1      37.564  22.181  25.624  1.00  0.00     0.000 A 
ATOM     19  C   UNL A   1      36.125  24.063  25.165  1.00  0.00     0.030 A 
ATOM     20  C   UNL A   1      37.383  23.555  25.491  1.00  0.00     0.002 A 
ENDBRANCH   9  14
ENDBRANCH   5   8
ENDBRANCH   3   4
ENDBRANCH   2   3
ENDBRANCH   1   2
BRANCH   1  21
ATOM     21  C   UNL A   1      34.590  29.788  27.304  1.00  0.00     0.116 C 
BRANCH  21  22
ATOM     22  N   UNL A   1      35.341  30.975  27.691  1.00  0.00    -0.352 N 
ATOM     23  C   UNL A   1      36.637  31.009  28.183  1.00  0.00     0.251 C 
ATOM     24  H   UNL A   1      34.883  31.840  27.592  1.00  0.00     0.163 HD
ATOM     25  O   UNL A   1      37.165  32.039  28.590  1.00  0.00    -0.269 OA
BRANCH  23  26
ATOM     26  C   UNL A   1      37.399  29.747  28.126  1.00  0.00     0.039 A 
ATOM     27  C   UNL A   1      37.444  28.970  29.288  1.00  0.00     0.014 A 
ATOM     28  C   UNL A   1      38.304  29.552  27.086  1.00  0.00     0.014 A 
ATOM     29  C   UNL A   1      38.534  28.134  29.504  1.00  0.00     0.010 A 
ATOM     30  C   UNL A   1      39.419  28.772  27.329  1.00  0.00     0.010 A 
ATOM     31  C   UNL A   1      39.564  28.123  28.566  1.00  0.00    -0.014 A 
BRANCH  31  32
ATOM     32  C   UNL A   1      40.887  27.570  28.841  1.00  0.00     0.031 A 
ATOM     33  C   UNL A   1      41.162  26.141  28.591  1.00  0.00     0.074 A 
ATOM     34  C   UNL A   1      41.880  28.398  29.234  1.00  0.00     0.049 A 
ATOM     35  N   UNL A   1      42.220  25.518  28.987  1.00  0.00    -0.248 NA
ATOM     36  C   UNL A   1      40.192  25.262  27.941  1.00  0.00     0.031 C 
ATOM     37  C   UNL A   1      43.318  28.145  29.196  1.00  0.00     0.029 A 
ATOM     38  N   UNL A   1      41.757  29.578  29.971  1.00  0.00    -0.354 N 
ATOM     39  C   UNL A   1      42.223  24.281  28.386  1.00  0.00     0.074 A 
ATOM     40  C   UNL A   1      40.883  24.119  27.888  1.00  0.00     0.031 C 
ATOM     41  C   UNL A   1      43.931  28.976  30.052  1.00  0.00     0.029 A 
ATOM     42  C   UNL A   1      42.893  29.671  30.794  1.00  0.00     0.049 A 
ATOM     43  H   UNL A   1      41.013  30.223  29.923  1.00  0.00     0.167 HD
ATOM     44  C   UNL A   1      43.413  23.629  28.242  1.00  0.00     0.037 A 
ATOM     45  C   UNL A   1      42.774  29.639  32.155  1.00  0.00     0.037 A 
ATOM     46  C   UNL A   1      44.406  24.180  29.173  1.00  0.00     0.049 A 
ATOM     47  C   UNL A   1      43.452  28.453  32.805  1.00  0.00     0.074 A 
ATOM     48  C   UNL A   1      45.519  24.990  29.019  1.00  0.00     0.029 A 
ATOM     49  N   UNL A   1      44.144  24.142  30.546  1.00  0.00    -0.354 N 
ATOM     50  N   UNL A   1      43.841  27.387  32.162  1.00  0.00    -0.248 NA
ATOM     51  C   UNL A   1      43.734  28.376  34.236  1.00  0.00     0.031 C 
ATOM     52  C   UNL A   1      45.834  25.546  30.290  1.00  0.00     0.029 A 
ATOM     53  C   UNL A   1      44.949  25.035  31.227  1.00  0.00     0.049 A 
ATOM     54  H   UNL A   1      43.475  23.557  30.970  1.00  0.00     0.167 HD
ATOM     55  C   UNL A   1      44.366  26.483  33.047  1.00  0.00     0.074 A 
ATOM     56  C   UNL A   1      44.309  27.164  34.329  1.00  0.00     0.031 C 
ATOM     57  C   UNL A   1      44.793  25.241  32.663  1.00  0.00     0.037 A 
BRANCH  44  58
ATOM     58  C   UNL A   1      43.745  22.696  27.075  1.00  0.00     0.058 A 
ATOM     59  C   UNL A   1      43.055  21.469  26.920  1.00  0.00     0.135 A 
ATOM     60  C   UNL A   1      44.820  22.856  26.168  1.00  0.00     0.135 A 
ATOM     61  F   UNL A   1      41.997  21.166  27.687  1.00  0.00    -0.206 F 
ATOM     62  C   UNL A   1      43.438  20.478  26.001  1.00  0.00     0.059 A 
ATOM     63  C   UNL A   1      45.202  21.898  25.228  1.00  0.00     0.059 A 
ATOM     64  F   UNL A   1      45.607  23.934  26.156  1.00  0.00    -0.206 F 
ATOM     65  C   UNL A   1      44.525  20.696  25.166  1.00  0.00     0.060 A 
BRANCH  65  66
ATOM     66  S   UNL A   1      45.070  19.411  24.026  1.00  0.00     0.124 S 
ATOM     67  O   UNL A   1      44.477  19.852  22.768  1.00  0.00    -0.237 OA
ATOM     68  O   UNL A   1      46.522  19.510  24.117  1.00  0.00    -0.237 OA
ATOM     69  O   UNL A   1      44.496  18.190  24.587  1.00  0.00    -0.744 OA
ENDBRANCH  65  66
ENDBRANCH  44  58
BRANCH  45  70
ATOM     70  C   UNL A   1      41.551  30.325  32.655  1.00  0.00     0.058 A 
ATOM     71  C   UNL A   1      40.435  29.521  32.953  1.00  0.00     0.135 A 
ATOM     72  C   UNL A   1      41.604  31.600  33.233  1.00  0.00     0.135 A 
ATOM     73  F   UNL A   1      40.325  28.300  32.406  1.00  0.00    -0.206 F 
ATOM     74  C   UNL A   1      39.500  29.891  33.912  1.00  0.00     0.059 A 
ATOM     75  C   UNL A   1      40.668  32.000  34.191  1.00  0.00     0.059 A 
ATOM     76  F   UNL A   1      42.641  32.414  32.984  1.00  0.00    -0.206 F 
ATOM     77  C   UNL A   1      39.663  31.107  34.570  1.00  0.00     0.060 A 
BRANCH  77  78
ATOM     78  S   UNL A   1      38.669  31.394  36.054  1.00  0.00     0.124 S 
ATOM     79  O   UNL A   1      39.506  32.325  36.801  1.00  0.00    -0.237 OA
ATOM     80  O   UNL A   1      37.448  31.957  35.480  1.00  0.00    -0.237 OA
ATOM     81  O   UNL A   1      38.536  30.061  36.630  1.00  0.00    -0.744 OA
ENDBRANCH  77  78
ENDBRANCH  45  70
BRANCH  57  82
ATOM     82  C   UNL A   1      45.186  24.144  33.624  1.00  0.00     0.058 A 
ATOM     83  C   UNL A   1      46.493  23.957  34.110  1.00  0.00     0.135 A 
ATOM     84  C   UNL A   1      44.201  23.299  34.185  1.00  0.00     0.135 A 
ATOM     85  F   UNL A   1      47.492  24.777  33.750  1.00  0.00    -0.206 F 
ATOM     86  C   UNL A   1      46.821  22.945  35.014  1.00  0.00     0.059 A 
ATOM     87  C   UNL A   1      44.496  22.318  35.130  1.00  0.00     0.059 A 
ATOM     88  F   UNL A   1      42.910  23.406  33.836  1.00  0.00    -0.206 F 
ATOM     89  C   UNL A   1      45.817  22.124  35.514  1.00  0.00     0.060 A 
BRANCH  89  90
ATOM     90  S   UNL A   1      46.220  20.837  36.710  1.00  0.00     0.124 S 
ATOM     91  O   UNL A   1      45.480  19.700  36.174  1.00  0.00    -0.237 OA
ATOM     92  O   UNL A   1      47.674  20.744  36.614  1.00  0.00    -0.237 OA
ATOM     93  O   UNL A   1      45.717  21.385  37.967  1.00  0.00    -0.744 OA
ENDBRANCH  89  90
ENDBRANCH  57  82
ENDBRANCH  31  32
ENDBRANCH  23  26
ENDBRANCH  21  22
ENDBRANCH   1  21
TORSDOF 15
ENDMDL
MODEL 2
REMARK VINA RESULT:     -13.3      0.915      1.789
REMARK SMILES Cc1ccccc1-n1nc(Cl)c(C(=O)NCCCCNC(=O)c2ccc(-c3c4nc(c(-c5c(F)cc(S(=O)(=O)[O-])cc5F)c5ccc([nH]5)c(-c5c(F)cc(S(=O)(=O)[O-])cc5F)c5nc(c(-c6c(F)cc(S(=O)(=O)[O-])cc6F)c6ccc3[nH]6)C=C5)C=C4)cc2)n1
REMARK SMILES IDX 18 1 17 2 16 3 15 4 13 5 14 6 12 8 8 9 9 10 89 11 10 12
REMARK SMILES IDX 11 13 7 14 1 15 2 16 3 17 4 18 6 19 5 20 19 21 20 22 21 23
REMARK SMILES IDX 22 25 23 26 24 27 88 28 25 29 87 30 26 31 27 32 28 33 81 34
REMARK SMILES IDX 29 35 86 36 80 37 82 38 30 39 85 40 79 41 78 42 31 44 65 45
REMARK SMILES IDX 44 46 64 47 45 48 48 49 63 50 83 51 46 52 47 53 62 55 84 56
REMARK SMILES IDX 49 57 32 58 33 59 42 60 34 61 35 62 41 63 43 64 36 65 37 66
REMARK SMILES IDX 38 67 39 68 40 69 66 70 67 71 76 72 68 73 69 74 75 75 77 76
REMARK SMILES IDX 70 77 71 78 72 79 73 80 74 81 50 82 51 83 60 84 52 85 53 86
REMARK SMILES IDX 59 87 61 88 54 89 55 90 56 91 57 92 58 93
REMARK H PARENT 15 7 20 24 82 43 48 54
REMARK Flexibility Score: inf
ROOT
ATOM      1  C   UNL A   1      33.394  29.899  26.668  1.00  0.00     0.023 C 
ENDROOT
BRANCH   1   2
ATOM      2  C   UNL A   1      32.206  28.968  26.941  1.00  0.00     0.023 C 
BRANCH   2   3
ATOM      3  C   UNL A   1      32.167  27.706  26.068  1.00  0.00     0.116 C 
BRANCH   3   4
ATOM      4  N   UNL A   1      31.219  26.704  26.544  1.00  0.00    -0.351 N 
ATOM      5  C   UNL A   1      31.135  25.346  26.319  1.00  0.00     0.275 C 
ATOM      6  O   UNL A   1      30.173  24.753  26.808  1.00  0.00    -0.267 OA
ATOM      7  H   UNL A   1      30.514  27.061  27.131  1.00  0.00     0.163 HD
BRANCH   5   8
ATOM      8  C   UNL A   1      32.124  24.651  25.496  1.00  0.00     0.189 A 
ATOM      9  N   UNL A   1      33.839  23.573  24.885  1.00  0.00    -0.149 N 
ATOM     10  N   UNL A   1      33.306  23.955  23.697  1.00  0.00    -0.135 NA
ATOM     11  N   UNL A   1      33.142  23.927  25.987  1.00  0.00    -0.141 NA
ATOM     12  C   UNL A   1      32.192  24.579  24.089  1.00  0.00     0.184 A 
ATOM     13  Cl  UNL A   1      31.130  25.213  22.934  1.00  0.00    -0.058 Cl
BRANCH   9  14
ATOM     14  C   UNL A   1      35.133  22.996  24.992  1.00  0.00     0.089 A 
ATOM     15  C   UNL A   1      34.251  20.590  24.710  1.00  0.00     0.047 C 
ATOM     16  C   UNL A   1      35.327  21.598  25.022  1.00  0.00    -0.023 A 
ATOM     17  C   UNL A   1      36.603  21.106  25.345  1.00  0.00     0.006 A 
ATOM     18  C   UNL A   1      37.668  21.975  25.583  1.00  0.00     0.000 A 
ATOM     19  C   UNL A   1      36.226  23.864  25.166  1.00  0.00     0.030 A 
ATOM     20  C   UNL A   1      37.487  23.350  25.474  1.00  0.00     0.002 A 
ENDBRANCH   9  14
ENDBRANCH   5   8
ENDBRANCH   3   4
ENDBRANCH   2   3
ENDBRANCH   1   2
BRANCH   1  21
ATOM     21  C   UNL A   1      34.558  29.707  27.643  1.00  0.00     0.116 C 
BRANCH  21  22
ATOM     22  N   UNL A   1      35.350  30.906  27.892  1.00  0.00    -0.352 N 
ATOM     23  C   UNL A   1      36.675  30.951  28.294  1.00  0.00     0.251 C 
ATOM     24  H   UNL A   1      34.898  31.770  27.760  1.00  0.00     0.163 HD
ATOM     25  O   UNL A   1      37.244  31.997  28.589  1.00  0.00    -0.269 OA
BRANCH  23  26
ATOM     26  C   UNL A   1      37.415  29.673  28.279  1.00  0.00     0.039 A 
ATOM     27  C   UNL A   1      37.461  28.944  29.472  1.00  0.00     0.014 A 
ATOM     28  C   UNL A   1      38.304  29.421  27.237  1.00  0.00     0.014 A 
ATOM     29  C   UNL A   1      38.539  28.097  29.708  1.00  0.00     0.010 A 
ATOM     30  C   UNL A   1      39.408  28.631  27.499  1.00  0.00     0.010 A 
ATOM     31  C   UNL A   1      39.557  28.030  28.759  1.00  0.00    -0.014 A 
BRANCH  31  32
ATOM     32  C   UNL A   1      40.873  27.465  29.041  1.00  0.00     0.031 A 
ATOM     33  C   UNL A   1      41.151  26.046  28.745  1.00  0.00     0.074 A 
ATOM     34  C   UNL A   1      41.859  28.277  29.483  1.00  0.00     0.049 A 
ATOM     35  N   UNL A   1      42.201  25.407  29.140  1.00  0.00    -0.248 NA
ATOM     36  C   UNL A   1      40.194  25.192  28.044  1.00  0.00     0.031 C 
ATOM     37  C   UNL A   1      43.296  28.022  29.466  1.00  0.00     0.029 A 
ATOM     38  N   UNL A   1      41.722  29.429  30.260  1.00  0.00    -0.354 N 
ATOM     39  C   UNL A   1      42.214  24.192  28.494  1.00  0.00     0.074 A 
ATOM     40  C   UNL A   1      40.884  24.051  27.964  1.00  0.00     0.031 C 
ATOM     41  C   UNL A   1      43.893  28.821  30.363  1.00  0.00     0.029 A 
ATOM     42  C   UNL A   1      42.842  29.491  31.110  1.00  0.00     0.049 A 
ATOM     43  H   UNL A   1      40.980  30.077  30.221  1.00  0.00     0.167 HD
ATOM     44  C   UNL A   1      43.406  23.544  28.351  1.00  0.00     0.037 A 
ATOM     45  C   UNL A   1      42.695  29.409  32.466  1.00  0.00     0.037 A 
ATOM     46  C   UNL A   1      44.381  24.059  29.321  1.00  0.00     0.049 A 
ATOM     47  C   UNL A   1      43.357  28.199  33.086  1.00  0.00     0.074 A 
ATOM     48  C   UNL A   1      45.497  24.872  29.219  1.00  0.00     0.029 A 
ATOM     49  N   UNL A   1      44.091  23.971  30.686  1.00  0.00    -0.354 N 
ATOM     50  N   UNL A   1      43.759  27.156  32.413  1.00  0.00    -0.248 NA
ATOM     51  C   UNL A   1      43.611  28.070  34.518  1.00  0.00     0.031 C 
ATOM     52  C   UNL A   1      45.787  25.380  30.516  1.00  0.00     0.029 A 
ATOM     53  C   UNL A   1      44.883  24.838  31.416  1.00  0.00     0.049 A 
ATOM     54  H   UNL A   1      43.413  23.373  31.076  1.00  0.00     0.167 HD
ATOM     55  C   UNL A   1      44.265  26.220  33.275  1.00  0.00     0.074 A 
ATOM     56  C   UNL A   1      44.182  26.854  34.579  1.00  0.00     0.031 C 
ATOM     57  C   UNL A   1      44.698  24.992  32.855  1.00  0.00     0.037 A 
BRANCH  44  58
ATOM     58  C   UNL A   1      43.760  22.653  27.158  1.00  0.00     0.058 A 
ATOM     59  C   UNL A   1      43.007  21.486  26.887  1.00  0.00     0.135 A 
ATOM     60  C   UNL A   1      44.907  22.787  26.338  1.00  0.00     0.135 A 
ATOM     61  F   UNL A   1      41.879  21.216  27.560  1.00  0.00    -0.206 F 
ATOM     62  C   UNL A   1      43.390  20.521  25.940  1.00  0.00     0.059 A 
ATOM     63  C   UNL A   1      45.293  21.855  25.372  1.00  0.00     0.059 A 
ATOM     64  F   UNL A   1      45.760  23.807  26.441  1.00  0.00    -0.206 F 
ATOM     65  C   UNL A   1      44.546  20.708  25.196  1.00  0.00     0.060 A 
BRANCH  65  66
ATOM     66  S   UNL A   1      45.088  19.450  24.023  1.00  0.00     0.124 S 
ATOM     67  O   UNL A   1      46.540  19.575  24.096  1.00  0.00    -0.237 OA
ATOM     68  O   UNL A   1      44.522  18.232  24.592  1.00  0.00    -0.237 OA
ATOM     69  O   UNL A   1      44.491  19.880  22.761  1.00  0.00    -0.744 OA
ENDBRANCH  65  66
ENDBRANCH  44  58
BRANCH  45  70
ATOM     70  C   UNL A   1      41.463  30.078  32.965  1.00  0.00     0.058 A 
ATOM     71  C   UNL A   1      41.498  31.479  33.103  1.00  0.00     0.135 A 
ATOM     72  C   UNL A   1      40.205  29.467  32.883  1.00  0.00     0.135 A 
ATOM     73  F   UNL A   1      42.677  32.111  33.211  1.00  0.00    -0.206 F 
ATOM     74  C   UNL A   1      40.351  32.255  32.991  1.00  0.00     0.059 A 
ATOM     75  C   UNL A   1      39.036  30.226  32.781  1.00  0.00     0.059 A 
ATOM     76  F   UNL A   1      40.107  28.135  32.755  1.00  0.00    -0.206 F 
ATOM     77  C   UNL A   1      39.132  31.620  32.766  1.00  0.00     0.060 A 
BRANCH  77  78
ATOM     78  S   UNL A   1      37.735  32.648  32.254  1.00  0.00     0.124 S 
ATOM     79  O   UNL A   1      36.785  31.649  31.778  1.00  0.00    -0.237 OA
ATOM     80  O   UNL A   1      37.386  33.309  33.511  1.00  0.00    -0.237 OA
ATOM     81  O   UNL A   1      38.313  33.511  31.230  1.00  0.00    -0.744 OA
ENDBRANCH  77  78
ENDBRANCH  45  70
BRANCH  57  82
ATOM     82  C   UNL A   1      45.070  23.860  33.784  1.00  0.00     0.058 A 
ATOM     83  C   UNL A   1      44.150  22.917  34.279  1.00  0.00     0.135 A 
ATOM     84  C   UNL A   1      46.423  23.623  34.115  1.00  0.00     0.135 A 
ATOM     85  F   UNL A   1      42.855  22.961  33.931  1.00  0.00    -0.206 F 
ATOM     86  C   UNL A   1      44.528  21.870  35.120  1.00  0.00     0.059 A 
ATOM     87  C   UNL A   1      46.831  22.552  34.909  1.00  0.00     0.059 A 
ATOM     88  F   UNL A   1      47.401  24.426  33.669  1.00  0.00    -0.206 F 
ATOM     89  C   UNL A   1      45.871  21.698  35.436  1.00  0.00     0.060 A 
BRANCH  89  90
ATOM     90  S   UNL A   1      46.378  20.327  36.492  1.00  0.00     0.124 S 
ATOM     91  O   UNL A   1      47.830  20.380  36.359  1.00  0.00    -0.237 OA
ATOM     92  O   UNL A   1      45.851  20.708  37.799  1.00  0.00    -0.237 OA
ATOM     93  O   UNL A   1      45.727  19.176  35.874  1.00  0.00    -0.744 OA
ENDBRANCH  89  90
ENDBRANCH  57  82
ENDBRANCH  31  32
ENDBRANCH  23  26
ENDBRANCH  21  22
ENDBRANCH   1  21
TORSDOF 15
ENDMDL
MODEL 3
REMARK VINA RESULT:     -13.2      5.002     11.557
REMARK SMILES Cc1ccccc1-n1nc(Cl)c(C(=O)NCCCCNC(=O)c2ccc(-c3c4nc(c(-c5c(F)cc(S(=O)(=O)[O-])cc5F)c5ccc([nH]5)c(-c5c(F)cc(S(=O)(=O)[O-])cc5F)c5nc(c(-c6c(F)cc(S(=O)(=O)[O-])cc6F)c6ccc3[nH]6)C=C5)C=C4)cc2)n1
REMARK SMILES IDX 18 1 17 2 16 3 15 4 13 5 14 6 12 8 8 9 9 10 89 11 10 12
REMARK SMILES IDX 11 13 7 14 1 15 2 16 3 17 4 18 6 19 5 20 19 21 20 22 21 23
REMARK SMILES IDX 22 25 23 26 24 27 88 28 25 29 87 30 26 31 27 32 28 33 81 34
REMARK SMILES IDX 29 35 86 36 80 37 82 38 30 39 85 40 79 41 78 42 31 44 65 45
REMARK SMILES IDX 44 46 64 47 45 48 48 49 63 50 83 51 46 52 47 53 62 55 84 56
REMARK SMILES IDX 49 57 32 58 33 59 42 60 34 61 35 62 41 63 43 64 36 65 37 66
REMARK SMILES IDX 38 67 39 68 40 69 66 70 67 71 76 72 68 73 69 74 75 75 77 76
REMARK SMILES IDX 70 77 71 78 72 79 73 80 74 81 50 82 51 83 60 84 52 85 53 86
REMARK SMILES IDX 59 87 61 88 54 89 55 90 56 91 57 92 58 93
REMARK H PARENT 15 7 20 24 82 43 48 54
REMARK Flexibility Score: inf
ROOT
ATOM      1  C   UNL A   1      37.766  22.181  25.333  1.00  0.00     0.023 C 
ENDROOT
BRANCH   1   2
ATOM      2  C   UNL A   1      36.249  22.204  25.103  1.00  0.00     0.023 C 
BRANCH   2   3
ATOM      3  C   UNL A   1      35.407  22.190  26.386  1.00  0.00     0.116 C 
BRANCH   3   4
ATOM      4  N   UNL A   1      33.994  21.917  26.146  1.00  0.00    -0.351 N 
ATOM      5  C   UNL A   1      32.973  22.722  25.685  1.00  0.00     0.275 C 
ATOM      6  O   UNL A   1      31.845  22.230  25.641  1.00  0.00    -0.267 OA
ATOM      7  H   UNL A   1      33.721  20.993  26.348  1.00  0.00     0.163 HD
BRANCH   5   8
ATOM      8  C   UNL A   1      33.216  24.113  25.307  1.00  0.00     0.189 A 
ATOM      9  N   UNL A   1      33.306  26.226  25.345  1.00  0.00    -0.149 N 
ATOM     10  N   UNL A   1      33.629  25.952  24.056  1.00  0.00    -0.135 NA
ATOM     11  N   UNL A   1      33.095  25.157  26.142  1.00  0.00    -0.141 NA
ATOM     12  C   UNL A   1      33.632  24.616  24.056  1.00  0.00     0.184 A 
ATOM     13  Cl  UNL A   1      34.035  23.773  22.645  1.00  0.00    -0.058 Cl
BRANCH   9  14
ATOM     14  C   UNL A   1      33.028  27.544  25.799  1.00  0.00     0.089 A 
ATOM     15  C   UNL A   1      30.726  27.621  24.641  1.00  0.00     0.047 C 
ATOM     16  C   UNL A   1      31.875  28.248  25.387  1.00  0.00    -0.023 A 
ATOM     17  C   UNL A   1      31.778  29.614  25.700  1.00  0.00     0.006 A 
ATOM     18  C   UNL A   1      32.771  30.252  26.444  1.00  0.00     0.000 A 
ATOM     19  C   UNL A   1      33.990  28.177  26.605  1.00  0.00     0.030 A 
ATOM     20  C   UNL A   1      33.865  29.532  26.914  1.00  0.00     0.002 A 
ENDBRANCH   9  14
ENDBRANCH   5   8
ENDBRANCH   3   4
ENDBRANCH   2   3
ENDBRANCH   1   2
BRANCH   1  21
ATOM     21  C   UNL A   1      38.277  23.365  26.158  1.00  0.00     0.116 C 
BRANCH  21  22
ATOM     22  N   UNL A   1      39.479  23.094  26.936  1.00  0.00    -0.352 N 
ATOM     23  C   UNL A   1      40.219  24.015  27.659  1.00  0.00     0.251 C 
ATOM     24  H   UNL A   1      39.796  22.163  26.951  1.00  0.00     0.163 HD
ATOM     25  O   UNL A   1      41.284  23.733  28.202  1.00  0.00    -0.269 OA
BRANCH  23  26
ATOM     26  C   UNL A   1      39.630  25.358  27.820  1.00  0.00     0.039 A 
ATOM     27  C   UNL A   1      40.043  26.353  26.927  1.00  0.00     0.014 A 
ATOM     28  C   UNL A   1      38.989  25.675  29.015  1.00  0.00     0.014 A 
ATOM     29  C   UNL A   1      40.005  27.684  27.328  1.00  0.00     0.010 A 
ATOM     30  C   UNL A   1      39.013  26.991  29.439  1.00  0.00     0.010 A 
ATOM     31  C   UNL A   1      39.586  27.980  28.624  1.00  0.00    -0.014 A 
BRANCH  31  32
ATOM     32  C   UNL A   1      39.829  29.268  29.265  1.00  0.00     0.031 A 
ATOM     33  C   UNL A   1      38.866  30.376  29.096  1.00  0.00     0.074 A 
ATOM     34  C   UNL A   1      40.890  29.406  30.090  1.00  0.00     0.049 A 
ATOM     35  N   UNL A   1      39.087  31.598  29.447  1.00  0.00    -0.248 NA
ATOM     36  C   UNL A   1      37.587  30.200  28.413  1.00  0.00     0.031 C 
ATOM     37  C   UNL A   1      41.105  30.439  31.099  1.00  0.00     0.029 A 
ATOM     38  N   UNL A   1      42.114  28.738  30.013  1.00  0.00    -0.354 N 
ATOM     39  C   UNL A   1      37.898  32.281  29.337  1.00  0.00     0.074 A 
ATOM     40  C   UNL A   1      37.058  31.419  28.550  1.00  0.00     0.031 C 
ATOM     41  C   UNL A   1      42.415  30.506  31.383  1.00  0.00     0.029 A 
ATOM     42  C   UNL A   1      43.105  29.640  30.443  1.00  0.00     0.049 A 
ATOM     43  H   UNL A   1      42.258  27.810  29.713  1.00  0.00     0.167 HD
ATOM     44  C   UNL A   1      37.729  33.416  30.075  1.00  0.00     0.037 A 
ATOM     45  C   UNL A   1      44.082  30.064  29.587  1.00  0.00     0.037 A 
ATOM     46  C   UNL A   1      39.033  33.940  30.503  1.00  0.00     0.049 A 
ATOM     47  C   UNL A   1      44.055  31.550  29.309  1.00  0.00     0.074 A 
ATOM     48  C   UNL A   1      39.702  33.972  31.714  1.00  0.00     0.029 A 
ATOM     49  N   UNL A   1      39.976  34.286  29.531  1.00  0.00    -0.354 N 
ATOM     50  N   UNL A   1      43.043  32.329  29.574  1.00  0.00    -0.248 NA
ATOM     51  C   UNL A   1      45.169  32.272  28.700  1.00  0.00     0.031 C 
ATOM     52  C   UNL A   1      41.081  34.203  31.446  1.00  0.00     0.029 A 
ATOM     53  C   UNL A   1      41.243  34.364  30.079  1.00  0.00     0.049 A 
ATOM     54  H   UNL A   1      39.767  34.452  28.583  1.00  0.00     0.167 HD
ATOM     55  C   UNL A   1      43.319  33.602  29.152  1.00  0.00     0.074 A 
ATOM     56  C   UNL A   1      44.678  33.522  28.644  1.00  0.00     0.031 C 
ATOM     57  C   UNL A   1      42.409  34.619  29.239  1.00  0.00     0.037 A 
BRANCH  44  58
ATOM     58  C   UNL A   1      36.384  33.883  30.636  1.00  0.00     0.058 A 
ATOM     59  C   UNL A   1      35.372  34.358  29.768  1.00  0.00     0.135 A 
ATOM     60  C   UNL A   1      36.069  34.041  32.007  1.00  0.00     0.135 A 
ATOM     61  F   UNL A   1      35.501  34.266  28.436  1.00  0.00    -0.206 F 
ATOM     62  C   UNL A   1      34.198  34.985  30.219  1.00  0.00     0.059 A 
ATOM     63  C   UNL A   1      34.897  34.635  32.480  1.00  0.00     0.059 A 
ATOM     64  F   UNL A   1      36.893  33.672  32.990  1.00  0.00    -0.206 F 
ATOM     65  C   UNL A   1      33.975  35.132  31.580  1.00  0.00     0.060 A 
BRANCH  65  66
ATOM     66  S   UNL A   1      32.506  35.990  32.176  1.00  0.00     0.124 S 
ATOM     67  O   UNL A   1      33.040  36.764  33.292  1.00  0.00    -0.237 OA
ATOM     68  O   UNL A   1      32.099  36.757  31.004  1.00  0.00    -0.237 OA
ATOM     69  O   UNL A   1      31.604  34.904  32.549  1.00  0.00    -0.744 OA
ENDBRANCH  65  66
ENDBRANCH  44  58
BRANCH  45  70
ATOM     70  C   UNL A   1      44.532  29.009  28.639  1.00  0.00     0.058 A 
ATOM     71  C   UNL A   1      43.945  28.995  27.359  1.00  0.00     0.135 A 
ATOM     72  C   UNL A   1      45.757  28.348  28.796  1.00  0.00     0.135 A 
ATOM     73  F   UNL A   1      42.759  29.593  27.161  1.00  0.00    -0.206 F 
ATOM     74  C   UNL A   1      44.619  28.503  26.249  1.00  0.00     0.059 A 
ATOM     75  C   UNL A   1      46.449  27.833  27.695  1.00  0.00     0.059 A 
ATOM     76  F   UNL A   1      46.365  28.323  29.992  1.00  0.00    -0.206 F 
ATOM     77  C   UNL A   1      45.898  27.981  26.420  1.00  0.00     0.060 A 
BRANCH  77  78
ATOM     78  S   UNL A   1      46.891  27.697  24.934  1.00  0.00     0.124 S 
ATOM     79  O   UNL A   1      46.766  28.975  24.242  1.00  0.00    -0.237 OA
ATOM     80  O   UNL A   1      48.203  27.414  25.513  1.00  0.00    -0.237 OA
ATOM     81  O   UNL A   1      46.226  26.566  24.299  1.00  0.00    -0.744 OA
ENDBRANCH  77  78
ENDBRANCH  45  70
BRANCH  57  82
ATOM     82  C   UNL A   1      42.593  35.979  28.606  1.00  0.00     0.058 A 
ATOM     83  C   UNL A   1      42.138  36.312  27.317  1.00  0.00     0.135 A 
ATOM     84  C   UNL A   1      43.146  37.045  29.352  1.00  0.00     0.135 A 
ATOM     85  F   UNL A   1      41.481  35.420  26.560  1.00  0.00    -0.206 F 
ATOM     86  C   UNL A   1      42.305  37.584  26.767  1.00  0.00     0.059 A 
ATOM     87  C   UNL A   1      43.273  38.337  28.842  1.00  0.00     0.059 A 
ATOM     88  F   UNL A   1      43.578  36.866  30.609  1.00  0.00    -0.206 F 
ATOM     89  C   UNL A   1      42.880  38.590  27.535  1.00  0.00     0.060 A 
BRANCH  89  90
ATOM     90  S   UNL A   1      43.068  40.247  26.851  1.00  0.00     0.124 S 
ATOM     91  O   UNL A   1      43.364  41.025  28.049  1.00  0.00    -0.237 OA
ATOM     92  O   UNL A   1      44.176  40.090  25.912  1.00  0.00    -0.237 OA
ATOM     93  O   UNL A   1      41.769  40.500  26.236  1.00  0.00    -0.744 OA
ENDBRANCH  89  90
ENDBRANCH  57  82
ENDBRANCH  31  32
ENDBRANCH  23  26
ENDBRANCH  21  22
ENDBRANCH   1  21
TORSDOF 15
ENDMDL
