MODEL 1
REMARK VINA RESULT:     -11.4      0.000      0.000
REMARK SMILES CN(C(=O)N1CCC(C(=O)NCCCCNC(=O)c2ccc(-c3c4nc(c(-c5c(F)cc(S(=O)(=O)[O-])cc5F)c5ccc([nH]5)c(-c5c(F)cc(S(=O)(=O)[O-])cc5F)c5nc(c(-c6c(F)cc(S(=O)(=O)[O-])cc6F)c6ccc3[nH]6)C=C5)C=C4)cc2)CC1)[C@H]1CCSC1
REMARK SMILES IDX 14 1 13 2 12 3 11 4 9 5 10 6 8 8 3 9 4 10 5 11 6 12 86 13
REMARK SMILES IDX 7 14 85 15 2 16 1 17 87 18 88 19 91 20 89 21 90 22 15 23
REMARK SMILES IDX 16 24 17 25 18 27 19 28 20 29 84 30 21 31 83 32 22 33 23 34
REMARK SMILES IDX 24 35 77 36 25 37 82 38 76 39 78 40 26 41 81 42 75 43 74 44
REMARK SMILES IDX 27 46 61 47 40 48 60 49 41 50 44 51 59 52 79 53 42 54 43 55
REMARK SMILES IDX 58 57 80 58 45 59 28 60 29 61 38 62 30 63 31 64 37 65 39 66
REMARK SMILES IDX 32 67 33 68 34 69 35 70 36 71 62 72 63 73 72 74 64 75 65 76
REMARK SMILES IDX 71 77 73 78 66 79 67 80 68 81 69 82 70 83 46 84 47 85 56 86
REMARK SMILES IDX 48 87 49 88 55 89 57 90 50 91 51 92 52 93 53 94 54 95
REMARK H PARENT 11 7 16 26 78 45 44 56
REMARK Flexibility Score: inf
ROOT
ATOM      1  C   UNL A   1      33.829  28.408  25.656  1.00  0.00     0.023 C 
ENDROOT
BRANCH   1   2
ATOM      2  C   UNL A   1      33.029  29.387  24.798  1.00  0.00     0.023 C 
BRANCH   2   3
ATOM      3  C   UNL A   1      31.514  29.296  24.973  1.00  0.00     0.116 C 
BRANCH   3   4
ATOM      4  N   UNL A   1      30.813  29.476  23.713  1.00  0.00    -0.356 N 
ATOM      5  C   UNL A   1      30.537  28.600  22.712  1.00  0.00     0.223 C 
ATOM      6  O   UNL A   1      29.925  29.023  21.728  1.00  0.00    -0.275 OA
ATOM      7  H   UNL A   1      30.481  30.390  23.559  1.00  0.00     0.163 HD
BRANCH   5   8
ATOM      8  C   UNL A   1      30.931  27.132  22.787  1.00  0.00     0.082 C 
ATOM      9  C   UNL A   1      33.519  24.537  24.613  1.00  0.00     0.320 C 
ATOM     10  O   UNL A   1      34.572  25.169  24.644  1.00  0.00    -0.248 OA
ATOM     11  N   UNL A   1      32.480  24.929  23.790  1.00  0.00    -0.325 N 
ATOM     12  C   UNL A   1      32.767  25.422  22.453  1.00  0.00     0.122 C 
ATOM     13  C   UNL A   1      31.111  25.090  24.270  1.00  0.00     0.122 C 
ATOM     14  C   UNL A   1      32.345  26.869  22.259  1.00  0.00     0.035 C 
ATOM     15  C   UNL A   1      30.662  26.544  24.177  1.00  0.00     0.035 C 
BRANCH   9  16
ATOM     16  N   UNL A   1      33.315  23.374  25.347  1.00  0.00    -0.324 N 
ATOM     17  C   UNL A   1      32.767  23.382  26.699  1.00  0.00     0.149 C 
BRANCH  16  18
ATOM     18  C   UNL A   1      33.458  22.045  24.732  1.00  0.00     0.097 C 
ATOM     19  C   UNL A   1      34.041  20.958  25.639  1.00  0.00     0.037 C 
ATOM     20  C   UNL A   1      32.168  21.462  24.154  1.00  0.00     0.094 C 
ATOM     21  C   UNL A   1      34.103  19.699  24.786  1.00  0.00     0.072 C 
ATOM     22  S   UNL A   1      32.604  19.737  23.756  1.00  0.00    -0.160 SA
ENDBRANCH  16  18
ENDBRANCH   9  16
ENDBRANCH   5   8
ENDBRANCH   3   4
ENDBRANCH   2   3
ENDBRANCH   1   2
BRANCH   1  23
ATOM     23  C   UNL A   1      33.633  28.552  27.161  1.00  0.00     0.116 C 
BRANCH  23  24
ATOM     24  N   UNL A   1      33.549  29.938  27.600  1.00  0.00    -0.352 N 
ATOM     25  C   UNL A   1      34.515  30.706  28.205  1.00  0.00     0.251 C 
ATOM     26  H   UNL A   1      32.685  30.385  27.441  1.00  0.00     0.163 HD
ATOM     27  O   UNL A   1      34.245  31.832  28.613  1.00  0.00    -0.269 OA
BRANCH  25  28
ATOM     28  C   UNL A   1      35.867  30.145  28.395  1.00  0.00     0.039 A 
ATOM     29  C   UNL A   1      36.782  30.220  27.342  1.00  0.00     0.014 A 
ATOM     30  C   UNL A   1      36.243  29.592  29.622  1.00  0.00     0.014 A 
ATOM     31  C   UNL A   1      38.099  29.804  27.544  1.00  0.00     0.010 A 
ATOM     32  C   UNL A   1      37.571  29.249  29.844  1.00  0.00     0.010 A 
ATOM     33  C   UNL A   1      38.512  29.351  28.808  1.00  0.00    -0.014 A 
BRANCH  33  34
ATOM     34  C   UNL A   1      39.926  28.982  29.071  1.00  0.00     0.031 A 
ATOM     35  C   UNL A   1      40.865  29.990  29.672  1.00  0.00     0.074 A 
ATOM     36  C   UNL A   1      40.377  27.767  28.704  1.00  0.00     0.049 A 
ATOM     37  N   UNL A   1      42.147  29.885  29.910  1.00  0.00    -0.248 NA
ATOM     38  C   UNL A   1      40.293  31.299  30.024  1.00  0.00     0.031 C 
ATOM     39  C   UNL A   1      39.573  26.720  28.072  1.00  0.00     0.029 A 
ATOM     40  N   UNL A   1      41.626  27.210  28.804  1.00  0.00    -0.354 N 
ATOM     41  C   UNL A   1      42.538  31.116  30.422  1.00  0.00     0.074 A 
ATOM     42  C   UNL A   1      41.369  31.968  30.406  1.00  0.00     0.031 C 
ATOM     43  C   UNL A   1      40.341  25.638  27.868  1.00  0.00     0.029 A 
ATOM     44  C   UNL A   1      41.699  25.926  28.321  1.00  0.00     0.049 A 
ATOM     45  H   UNL A   1      42.400  27.686  29.186  1.00  0.00     0.167 HD
ATOM     46  C   UNL A   1      43.753  31.495  30.885  1.00  0.00     0.037 A 
ATOM     47  C   UNL A   1      42.742  25.075  28.251  1.00  0.00     0.037 A 
ATOM     48  C   UNL A   1      44.907  30.634  30.916  1.00  0.00     0.049 A 
ATOM     49  C   UNL A   1      44.083  25.516  28.768  1.00  0.00     0.074 A 
ATOM     50  C   UNL A   1      46.169  30.904  31.413  1.00  0.00     0.029 A 
ATOM     51  N   UNL A   1      44.937  29.336  30.428  1.00  0.00    -0.354 N 
ATOM     52  N   UNL A   1      44.423  26.666  29.300  1.00  0.00    -0.248 NA
ATOM     53  C   UNL A   1      45.180  24.542  28.680  1.00  0.00     0.031 C 
ATOM     54  C   UNL A   1      46.974  29.778  31.194  1.00  0.00     0.029 A 
ATOM     55  C   UNL A   1      46.201  28.794  30.597  1.00  0.00     0.049 A 
ATOM     56  H   UNL A   1      44.172  28.867  30.022  1.00  0.00     0.167 HD
ATOM     57  C   UNL A   1      45.768  26.547  29.633  1.00  0.00     0.074 A 
ATOM     58  C   UNL A   1      46.175  25.210  29.249  1.00  0.00     0.031 C 
ATOM     59  C   UNL A   1      46.588  27.460  30.209  1.00  0.00     0.037 A 
BRANCH  46  60
ATOM     60  C   UNL A   1      43.883  32.905  31.390  1.00  0.00     0.058 A 
ATOM     61  C   UNL A   1      43.603  33.237  32.726  1.00  0.00     0.135 A 
ATOM     62  C   UNL A   1      44.271  33.943  30.527  1.00  0.00     0.135 A 
ATOM     63  F   UNL A   1      43.214  32.287  33.591  1.00  0.00    -0.206 F 
ATOM     64  C   UNL A   1      43.650  34.553  33.175  1.00  0.00     0.059 A 
ATOM     65  C   UNL A   1      44.353  35.263  30.962  1.00  0.00     0.059 A 
ATOM     66  F   UNL A   1      44.553  33.683  29.241  1.00  0.00    -0.206 F 
ATOM     67  C   UNL A   1      44.015  35.560  32.281  1.00  0.00     0.060 A 
BRANCH  67  68
ATOM     68  S   UNL A   1      44.030  37.269  32.864  1.00  0.00     0.124 S 
ATOM     69  O   UNL A   1      43.966  38.005  31.605  1.00  0.00    -0.237 OA
ATOM     70  O   UNL A   1      42.832  37.331  33.695  1.00  0.00    -0.237 OA
ATOM     71  O   UNL A   1      45.296  37.369  33.586  1.00  0.00    -0.744 OA
ENDBRANCH  67  68
ENDBRANCH  46  60
BRANCH  47  72
ATOM     72  C   UNL A   1      42.538  23.705  27.713  1.00  0.00     0.058 A 
ATOM     73  C   UNL A   1      42.569  23.470  26.331  1.00  0.00     0.135 A 
ATOM     74  C   UNL A   1      42.356  22.602  28.561  1.00  0.00     0.135 A 
ATOM     75  F   UNL A   1      42.734  24.496  25.480  1.00  0.00    -0.206 F 
ATOM     76  C   UNL A   1      42.425  22.191  25.805  1.00  0.00     0.059 A 
ATOM     77  C   UNL A   1      42.230  21.309  28.061  1.00  0.00     0.059 A 
ATOM     78  F   UNL A   1      42.336  22.774  29.892  1.00  0.00    -0.206 F 
ATOM     79  C   UNL A   1      42.262  21.115  26.679  1.00  0.00     0.060 A 
BRANCH  79  80
ATOM     80  S   UNL A   1      42.153  19.450  25.989  1.00  0.00     0.124 S 
ATOM     81  O   UNL A   1      42.697  18.644  27.076  1.00  0.00    -0.237 OA
ATOM     82  O   UNL A   1      40.721  19.311  25.747  1.00  0.00    -0.237 OA
ATOM     83  O   UNL A   1      42.979  19.530  24.788  1.00  0.00    -0.744 OA
ENDBRANCH  79  80
ENDBRANCH  47  72
BRANCH  59  84
ATOM     84  C   UNL A   1      48.004  27.037  30.487  1.00  0.00     0.058 A 
ATOM     85  C   UNL A   1      49.041  27.293  29.578  1.00  0.00     0.135 A 
ATOM     86  C   UNL A   1      48.333  26.413  31.703  1.00  0.00     0.135 A 
ATOM     87  F   UNL A   1      48.778  27.880  28.400  1.00  0.00    -0.206 F 
ATOM     88  C   UNL A   1      50.354  26.930  29.856  1.00  0.00     0.059 A 
ATOM     89  C   UNL A   1      49.642  26.064  32.011  1.00  0.00     0.059 A 
ATOM     90  F   UNL A   1      47.377  26.155  32.609  1.00  0.00    -0.206 F 
ATOM     91  C   UNL A   1      50.646  26.316  31.076  1.00  0.00     0.060 A 
BRANCH  91  92
ATOM     92  S   UNL A   1      52.360  25.884  31.442  1.00  0.00     0.124 S 
ATOM     93  O   UNL A   1      52.709  26.887  32.442  1.00  0.00    -0.237 OA
ATOM     94  O   UNL A   1      52.242  24.515  31.932  1.00  0.00    -0.237 OA
ATOM     95  O   UNL A   1      53.028  26.025  30.152  1.00  0.00    -0.744 OA
ENDBRANCH  91  92
ENDBRANCH  59  84
ENDBRANCH  33  34
ENDBRANCH  25  28
ENDBRANCH  23  24
ENDBRANCH   1  23
TORSDOF 16
ENDMDL
MODEL 2
REMARK VINA RESULT:     -11.2      4.914     10.592
REMARK SMILES CN(C(=O)N1CCC(C(=O)NCCCCNC(=O)c2ccc(-c3c4nc(c(-c5c(F)cc(S(=O)(=O)[O-])cc5F)c5ccc([nH]5)c(-c5c(F)cc(S(=O)(=O)[O-])cc5F)c5nc(c(-c6c(F)cc(S(=O)(=O)[O-])cc6F)c6ccc3[nH]6)C=C5)C=C4)cc2)CC1)[C@H]1CCSC1
REMARK SMILES IDX 14 1 13 2 12 3 11 4 9 5 10 6 8 8 3 9 4 10 5 11 6 12 86 13
REMARK SMILES IDX 7 14 85 15 2 16 1 17 87 18 88 19 91 20 89 21 90 22 15 23
REMARK SMILES IDX 16 24 17 25 18 27 19 28 20 29 84 30 21 31 83 32 22 33 23 34
REMARK SMILES IDX 24 35 77 36 25 37 82 38 76 39 78 40 26 41 81 42 75 43 74 44
REMARK SMILES IDX 27 46 61 47 40 48 60 49 41 50 44 51 59 52 79 53 42 54 43 55
REMARK SMILES IDX 58 57 80 58 45 59 28 60 29 61 38 62 30 63 31 64 37 65 39 66
REMARK SMILES IDX 32 67 33 68 34 69 35 70 36 71 62 72 63 73 72 74 64 75 65 76
REMARK SMILES IDX 71 77 73 78 66 79 67 80 68 81 69 82 70 83 46 84 47 85 56 86
REMARK SMILES IDX 48 87 49 88 55 89 57 90 50 91 51 92 52 93 53 94 54 95
REMARK H PARENT 11 7 16 26 78 45 44 56
REMARK Flexibility Score: inf
ROOT
ATOM      1  C   UNL A   1      37.765  23.212  25.687  1.00  0.00     0.023 C 
ENDROOT
BRANCH   1   2
ATOM      2  C   UNL A   1      38.067  21.714  25.689  1.00  0.00     0.023 C 
BRANCH   2   3
ATOM      3  C   UNL A   1      37.045  20.858  24.946  1.00  0.00     0.116 C 
BRANCH   3   4
ATOM      4  N   UNL A   1      35.821  20.692  25.710  1.00  0.00    -0.356 N 
ATOM      5  C   UNL A   1      34.553  21.116  25.468  1.00  0.00     0.223 C 
ATOM      6  O   UNL A   1      33.684  20.844  26.301  1.00  0.00    -0.275 OA
ATOM      7  H   UNL A   1      35.929  20.184  26.547  1.00  0.00     0.163 HD
BRANCH   5   8
ATOM      8  C   UNL A   1      34.180  21.878  24.205  1.00  0.00     0.082 C 
ATOM      9  C   UNL A   1      31.599  24.698  22.737  1.00  0.00     0.320 C 
ATOM     10  O   UNL A   1      30.536  24.413  23.283  1.00  0.00    -0.248 OA
ATOM     11  N   UNL A   1      32.647  23.797  22.712  1.00  0.00    -0.325 N 
ATOM     12  C   UNL A   1      32.378  22.384  22.501  1.00  0.00     0.122 C 
ATOM     13  C   UNL A   1      34.004  24.155  23.114  1.00  0.00     0.122 C 
ATOM     14  C   UNL A   1      32.781  21.526  23.690  1.00  0.00     0.035 C 
ATOM     15  C   UNL A   1      34.432  23.383  24.357  1.00  0.00     0.035 C 
BRANCH   9  16
ATOM     16  N   UNL A   1      31.807  25.900  22.069  1.00  0.00    -0.324 N 
ATOM     17  C   UNL A   1      32.061  25.969  20.635  1.00  0.00     0.149 C 
BRANCH  16  18
ATOM     18  C   UNL A   1      31.591  27.193  22.736  1.00  0.00     0.097 C 
ATOM     19  C   UNL A   1      30.142  27.687  22.764  1.00  0.00     0.037 C 
ATOM     20  C   UNL A   1      32.085  27.260  24.182  1.00  0.00     0.094 C 
ATOM     21  C   UNL A   1      30.177  29.027  23.483  1.00  0.00     0.072 C 
ATOM     22  S   UNL A   1      31.413  28.838  24.803  1.00  0.00    -0.160 SA
ENDBRANCH  16  18
ENDBRANCH   9  16
ENDBRANCH   5   8
ENDBRANCH   3   4
ENDBRANCH   2   3
ENDBRANCH   1   2
BRANCH   1  23
ATOM     23  C   UNL A   1      38.680  24.061  26.563  1.00  0.00     0.116 C 
BRANCH  23  24
ATOM     24  N   UNL A   1      40.079  23.995  26.167  1.00  0.00    -0.352 N 
ATOM     25  C   UNL A   1      41.113  24.824  26.532  1.00  0.00     0.251 C 
ATOM     26  H   UNL A   1      40.316  23.259  25.557  1.00  0.00     0.163 HD
ATOM     27  O   UNL A   1      42.221  24.694  26.019  1.00  0.00    -0.269 OA
BRANCH  25  28
ATOM     28  C   UNL A   1      40.866  25.895  27.517  1.00  0.00     0.039 A 
ATOM     29  C   UNL A   1      39.893  25.696  28.499  1.00  0.00     0.014 A 
ATOM     30  C   UNL A   1      41.625  27.068  27.498  1.00  0.00     0.014 A 
ATOM     31  C   UNL A   1      39.730  26.646  29.508  1.00  0.00     0.010 A 
ATOM     32  C   UNL A   1      41.513  27.976  28.544  1.00  0.00     0.010 A 
ATOM     33  C   UNL A   1      40.566  27.775  29.560  1.00  0.00    -0.014 A 
BRANCH  33  34
ATOM     34  C   UNL A   1      40.469  28.757  30.668  1.00  0.00     0.031 A 
ATOM     35  C   UNL A   1      41.367  28.628  31.866  1.00  0.00     0.074 A 
ATOM     36  C   UNL A   1      39.526  29.719  30.628  1.00  0.00     0.049 A 
ATOM     37  N   UNL A   1      41.387  29.338  32.964  1.00  0.00    -0.248 NA
ATOM     38  C   UNL A   1      42.354  27.538  31.837  1.00  0.00     0.031 C 
ATOM     39  C   UNL A   1      38.566  29.918  29.540  1.00  0.00     0.029 A 
ATOM     40  N   UNL A   1      39.215  30.705  31.528  1.00  0.00    -0.354 N 
ATOM     41  C   UNL A   1      42.373  28.771  33.762  1.00  0.00     0.074 A 
ATOM     42  C   UNL A   1      42.888  27.626  33.045  1.00  0.00     0.031 C 
ATOM     43  C   UNL A   1      37.794  30.979  29.823  1.00  0.00     0.029 A 
ATOM     44  C   UNL A   1      38.179  31.513  31.127  1.00  0.00     0.049 A 
ATOM     45  H   UNL A   1      39.690  30.823  32.383  1.00  0.00     0.167 HD
ATOM     46  C   UNL A   1      42.825  29.182  34.972  1.00  0.00     0.037 A 
ATOM     47  C   UNL A   1      37.604  32.567  31.739  1.00  0.00     0.037 A 
ATOM     48  C   UNL A   1      42.322  30.336  35.670  1.00  0.00     0.049 A 
ATOM     49  C   UNL A   1      38.118  33.005  33.082  1.00  0.00     0.074 A 
ATOM     50  C   UNL A   1      42.746  30.867  36.875  1.00  0.00     0.029 A 
ATOM     51  N   UNL A   1      41.279  31.136  35.225  1.00  0.00    -0.354 N 
ATOM     52  N   UNL A   1      39.089  32.491  33.799  1.00  0.00    -0.248 NA
ATOM     53  C   UNL A   1      37.463  34.168  33.696  1.00  0.00     0.031 C 
ATOM     54  C   UNL A   1      41.937  31.970  37.175  1.00  0.00     0.029 A 
ATOM     55  C   UNL A   1      41.034  32.148  36.138  1.00  0.00     0.049 A 
ATOM     56  H   UNL A   1      40.786  31.004  34.383  1.00  0.00     0.167 HD
ATOM     57  C   UNL A   1      39.178  33.282  34.939  1.00  0.00     0.074 A 
ATOM     58  C   UNL A   1      38.168  34.313  34.810  1.00  0.00     0.031 C 
ATOM     59  C   UNL A   1      40.024  33.168  35.993  1.00  0.00     0.037 A 
BRANCH  46  60
ATOM     60  C   UNL A   1      43.918  28.366  35.605  1.00  0.00     0.058 A 
ATOM     61  C   UNL A   1      43.633  27.329  36.509  1.00  0.00     0.135 A 
ATOM     62  C   UNL A   1      45.267  28.636  35.324  1.00  0.00     0.135 A 
ATOM     63  F   UNL A   1      42.361  27.039  36.824  1.00  0.00    -0.206 F 
ATOM     64  C   UNL A   1      44.645  26.625  37.152  1.00  0.00     0.059 A 
ATOM     65  C   UNL A   1      46.297  27.924  35.935  1.00  0.00     0.059 A 
ATOM     66  F   UNL A   1      45.598  29.613  34.466  1.00  0.00    -0.206 F 
ATOM     67  C   UNL A   1      45.974  26.937  36.866  1.00  0.00     0.060 A 
BRANCH  67  68
ATOM     68  S   UNL A   1      47.279  26.046  37.740  1.00  0.00     0.124 S 
ATOM     69  O   UNL A   1      46.529  24.942  38.332  1.00  0.00    -0.237 OA
ATOM     70  O   UNL A   1      48.192  25.684  36.661  1.00  0.00    -0.237 OA
ATOM     71  O   UNL A   1      47.791  27.036  38.684  1.00  0.00    -0.744 OA
ENDBRANCH  67  68
ENDBRANCH  46  60
BRANCH  47  72
ATOM     72  C   UNL A   1      36.509  33.305  31.058  1.00  0.00     0.058 A 
ATOM     73  C   UNL A   1      36.779  34.117  29.947  1.00  0.00     0.135 A 
ATOM     74  C   UNL A   1      35.173  33.183  31.470  1.00  0.00     0.135 A 
ATOM     75  F   UNL A   1      38.043  34.270  29.520  1.00  0.00    -0.206 F 
ATOM     76  C   UNL A   1      35.766  34.783  29.267  1.00  0.00     0.059 A 
ATOM     77  C   UNL A   1      34.138  33.823  30.794  1.00  0.00     0.059 A 
ATOM     78  F   UNL A   1      34.862  32.404  32.519  1.00  0.00    -0.206 F 
ATOM     79  C   UNL A   1      34.446  34.624  29.694  1.00  0.00     0.060 A 
BRANCH  79  80
ATOM     80  S   UNL A   1      33.131  35.433  28.757  1.00  0.00     0.124 S 
ATOM     81  O   UNL A   1      33.887  36.380  27.946  1.00  0.00    -0.237 OA
ATOM     82  O   UNL A   1      32.534  34.312  28.038  1.00  0.00    -0.237 OA
ATOM     83  O   UNL A   1      32.291  36.019  29.796  1.00  0.00    -0.744 OA
ENDBRANCH  79  80
ENDBRANCH  47  72
BRANCH  59  84
ATOM     84  C   UNL A   1      39.915  34.200  37.080  1.00  0.00     0.058 A 
ATOM     85  C   UNL A   1      40.534  35.454  36.970  1.00  0.00     0.135 A 
ATOM     86  C   UNL A   1      39.139  33.947  38.223  1.00  0.00     0.135 A 
ATOM     87  F   UNL A   1      41.293  35.742  35.901  1.00  0.00    -0.206 F 
ATOM     88  C   UNL A   1      40.401  36.418  37.964  1.00  0.00     0.059 A 
ATOM     89  C   UNL A   1      38.973  34.905  39.218  1.00  0.00     0.059 A 
ATOM     90  F   UNL A   1      38.519  32.766  38.372  1.00  0.00    -0.206 F 
ATOM     91  C   UNL A   1      39.618  36.134  39.085  1.00  0.00     0.060 A 
BRANCH  91  92
ATOM     92  S   UNL A   1      39.421  37.406  40.350  1.00  0.00     0.124 S 
ATOM     93  O   UNL A   1      38.625  38.404  39.644  1.00  0.00    -0.237 OA
ATOM     94  O   UNL A   1      38.733  36.686  41.417  1.00  0.00    -0.237 OA
ATOM     95  O   UNL A   1      40.794  37.798  40.653  1.00  0.00    -0.744 OA
ENDBRANCH  91  92
ENDBRANCH  59  84
ENDBRANCH  33  34
ENDBRANCH  25  28
ENDBRANCH  23  24
ENDBRANCH   1  23
TORSDOF 16
ENDMDL
MODEL 3
REMARK VINA RESULT:     -11.2      3.582      9.448
REMARK SMILES CN(C(=O)N1CCC(C(=O)NCCCCNC(=O)c2ccc(-c3c4nc(c(-c5c(F)cc(S(=O)(=O)[O-])cc5F)c5ccc([nH]5)c(-c5c(F)cc(S(=O)(=O)[O-])cc5F)c5nc(c(-c6c(F)cc(S(=O)(=O)[O-])cc6F)c6ccc3[nH]6)C=C5)C=C4)cc2)CC1)[C@H]1CCSC1
REMARK SMILES IDX 14 1 13 2 12 3 11 4 9 5 10 6 8 8 3 9 4 10 5 11 6 12 86 13
REMARK SMILES IDX 7 14 85 15 2 16 1 17 87 18 88 19 91 20 89 21 90 22 15 23
REMARK SMILES IDX 16 24 17 25 18 27 19 28 20 29 84 30 21 31 83 32 22 33 23 34
REMARK SMILES IDX 24 35 77 36 25 37 82 38 76 39 78 40 26 41 81 42 75 43 74 44
REMARK SMILES IDX 27 46 61 47 40 48 60 49 41 50 44 51 59 52 79 53 42 54 43 55
REMARK SMILES IDX 58 57 80 58 45 59 28 60 29 61 38 62 30 63 31 64 37 65 39 66
REMARK SMILES IDX 32 67 33 68 34 69 35 70 36 71 62 72 63 73 72 74 64 75 65 76
REMARK SMILES IDX 71 77 73 78 66 79 67 80 68 81 69 82 70 83 46 84 47 85 56 86
REMARK SMILES IDX 48 87 49 88 55 89 57 90 50 91 51 92 52 93 53 94 54 95
REMARK H PARENT 11 7 16 26 78 45 44 56
REMARK Flexibility Score: inf
ROOT
ATOM      1  C   UNL A   1      38.371  20.061  25.185  1.00  0.00     0.023 C 
ENDROOT
BRANCH   1   2
ATOM      2  C   UNL A   1      37.510  21.294  24.914  1.00  0.00     0.023 C 
BRANCH   2   3
ATOM      3  C   UNL A   1      36.015  21.011  24.788  1.00  0.00     0.116 C 
BRANCH   3   4
ATOM      4  N   UNL A   1      35.355  21.008  26.082  1.00  0.00    -0.356 N 
ATOM      5  C   UNL A   1      34.221  21.624  26.506  1.00  0.00     0.223 C 
ATOM      6  O   UNL A   1      33.881  21.462  27.681  1.00  0.00    -0.275 OA
ATOM      7  H   UNL A   1      35.807  20.466  26.769  1.00  0.00     0.163 HD
BRANCH   5   8
ATOM      8  C   UNL A   1      33.361  22.470  25.578  1.00  0.00     0.082 C 
ATOM      9  C   UNL A   1      30.554  25.451  25.543  1.00  0.00     0.320 C 
ATOM     10  O   UNL A   1      29.837  25.170  26.500  1.00  0.00    -0.248 OA
ATOM     11  N   UNL A   1      31.428  24.520  25.013  1.00  0.00    -0.325 N 
ATOM     12  C   UNL A   1      31.016  23.131  24.894  1.00  0.00     0.122 C 
ATOM     13  C   UNL A   1      32.837  24.810  24.771  1.00  0.00     0.122 C 
ATOM     14  C   UNL A   1      31.863  22.194  25.739  1.00  0.00     0.035 C 
ATOM     15  C   UNL A   1      33.737  23.955  25.656  1.00  0.00     0.035 C 
BRANCH   9  16
ATOM     16  N   UNL A   1      30.505  26.682  24.899  1.00  0.00    -0.324 N 
ATOM     17  C   UNL A   1      29.666  26.926  23.731  1.00  0.00     0.149 C 
BRANCH  16  18
ATOM     18  C   UNL A   1      31.149  27.873  25.474  1.00  0.00     0.097 C 
ATOM     19  C   UNL A   1      31.741  27.691  26.874  1.00  0.00     0.037 C 
ATOM     20  C   UNL A   1      32.268  28.473  24.621  1.00  0.00     0.094 C 
ATOM     21  C   UNL A   1      32.330  29.042  27.252  1.00  0.00     0.072 C 
ATOM     22  S   UNL A   1      33.044  29.706  25.717  1.00  0.00    -0.160 SA
ENDBRANCH  16  18
ENDBRANCH   9  16
ENDBRANCH   5   8
ENDBRANCH   3   4
ENDBRANCH   2   3
ENDBRANCH   1   2
BRANCH   1  23
ATOM     23  C   UNL A   1      39.549  20.285  26.127  1.00  0.00     0.116 C 
BRANCH  23  24
ATOM     24  N   UNL A   1      40.539  19.219  26.074  1.00  0.00    -0.352 N 
ATOM     25  C   UNL A   1      41.909  19.318  26.126  1.00  0.00     0.251 C 
ATOM     26  H   UNL A   1      40.180  18.306  25.990  1.00  0.00     0.163 HD
ATOM     27  O   UNL A   1      42.609  18.324  25.958  1.00  0.00    -0.269 OA
BRANCH  25  28
ATOM     28  C   UNL A   1      42.529  20.640  26.347  1.00  0.00     0.039 A 
ATOM     29  C   UNL A   1      42.954  21.378  25.240  1.00  0.00     0.014 A 
ATOM     30  C   UNL A   1      42.644  21.165  27.637  1.00  0.00     0.014 A 
ATOM     31  C   UNL A   1      43.432  22.677  25.423  1.00  0.00     0.010 A 
ATOM     32  C   UNL A   1      43.049  22.483  27.809  1.00  0.00     0.010 A 
ATOM     33  C   UNL A   1      43.446  23.253  26.704  1.00  0.00    -0.014 A 
BRANCH  33  34
ATOM     34  C   UNL A   1      43.870  24.660  26.914  1.00  0.00     0.031 A 
ATOM     35  C   UNL A   1      45.306  25.050  26.704  1.00  0.00     0.074 A 
ATOM     36  C   UNL A   1      42.979  25.566  27.361  1.00  0.00     0.049 A 
ATOM     37  N   UNL A   1      45.886  26.205  26.904  1.00  0.00    -0.248 NA
ATOM     38  C   UNL A   1      46.215  23.993  26.235  1.00  0.00     0.031 C 
ATOM     39  C   UNL A   1      41.567  25.297  27.645  1.00  0.00     0.029 A 
ATOM     40  N   UNL A   1      43.129  26.895  27.662  1.00  0.00    -0.354 N 
ATOM     41  C   UNL A   1      47.228  26.010  26.603  1.00  0.00     0.074 A 
ATOM     42  C   UNL A   1      47.385  24.613  26.261  1.00  0.00     0.031 C 
ATOM     43  C   UNL A   1      40.976  26.433  28.049  1.00  0.00     0.029 A 
ATOM     44  C   UNL A   1      41.972  27.500  28.089  1.00  0.00     0.049 A 
ATOM     45  H   UNL A   1      43.988  27.373  27.580  1.00  0.00     0.167 HD
ATOM     46  C   UNL A   1      48.234  26.918  26.589  1.00  0.00     0.037 A 
ATOM     47  C   UNL A   1      41.738  28.772  28.468  1.00  0.00     0.037 A 
ATOM     48  C   UNL A   1      48.067  28.311  26.910  1.00  0.00     0.049 A 
ATOM     49  C   UNL A   1      42.868  29.762  28.448  1.00  0.00     0.074 A 
ATOM     50  C   UNL A   1      49.010  29.323  26.875  1.00  0.00     0.029 A 
ATOM     51  N   UNL A   1      46.876  28.888  27.326  1.00  0.00    -0.354 N 
ATOM     52  N   UNL A   1      44.122  29.575  28.108  1.00  0.00    -0.248 NA
ATOM     53  C   UNL A   1      42.553  31.138  28.858  1.00  0.00     0.031 C 
ATOM     54  C   UNL A   1      48.396  30.506  27.304  1.00  0.00     0.029 A 
ATOM     55  C   UNL A   1      47.061  30.239  27.568  1.00  0.00     0.049 A 
ATOM     56  H   UNL A   1      46.023  28.407  27.434  1.00  0.00     0.167 HD
ATOM     57  C   UNL A   1      44.740  30.814  28.239  1.00  0.00     0.074 A 
ATOM     58  C   UNL A   1      43.720  31.743  28.682  1.00  0.00     0.031 C 
ATOM     59  C   UNL A   1      46.033  31.151  28.008  1.00  0.00     0.037 A 
BRANCH  46  60
ATOM     60  C   UNL A   1      49.601  26.416  26.214  1.00  0.00     0.058 A 
ATOM     61  C   UNL A   1      50.427  25.764  27.145  1.00  0.00     0.135 A 
ATOM     62  C   UNL A   1      50.103  26.606  24.916  1.00  0.00     0.135 A 
ATOM     63  F   UNL A   1      50.003  25.568  28.404  1.00  0.00    -0.206 F 
ATOM     64  C   UNL A   1      51.719  25.366  26.819  1.00  0.00     0.059 A 
ATOM     65  C   UNL A   1      51.384  26.191  24.560  1.00  0.00     0.059 A 
ATOM     66  F   UNL A   1      49.357  27.221  23.985  1.00  0.00    -0.206 F 
ATOM     67  C   UNL A   1      52.193  25.595  25.527  1.00  0.00     0.060 A 
BRANCH  67  68
ATOM     68  S   UNL A   1      53.887  25.115  25.129  1.00  0.00     0.124 S 
ATOM     69  O   UNL A   1      53.758  23.665  25.017  1.00  0.00    -0.237 OA
ATOM     70  O   UNL A   1      54.133  25.827  23.879  1.00  0.00    -0.237 OA
ATOM     71  O   UNL A   1      54.653  25.591  26.278  1.00  0.00    -0.744 OA
ENDBRANCH  67  68
ENDBRANCH  46  60
BRANCH  47  72
ATOM     72  C   UNL A   1      40.363  29.184  28.851  1.00  0.00     0.058 A 
ATOM     73  C   UNL A   1      40.012  29.333  30.201  1.00  0.00     0.135 A 
ATOM     74  C   UNL A   1      39.389  29.480  27.885  1.00  0.00     0.135 A 
ATOM     75  F   UNL A   1      40.910  29.055  31.160  1.00  0.00    -0.206 F 
ATOM     76  C   UNL A   1      38.745  29.759  30.583  1.00  0.00     0.059 A 
ATOM     77  C   UNL A   1      38.120  29.928  28.241  1.00  0.00     0.059 A 
ATOM     78  F   UNL A   1      39.681  29.368  26.580  1.00  0.00    -0.206 F 
ATOM     79  C   UNL A   1      37.807  30.061  29.595  1.00  0.00     0.060 A 
BRANCH  79  80
ATOM     80  S   UNL A   1      36.190  30.687  30.100  1.00  0.00     0.124 S 
ATOM     81  O   UNL A   1      35.954  29.935  31.327  1.00  0.00    -0.237 OA
ATOM     82  O   UNL A   1      36.451  32.113  30.266  1.00  0.00    -0.237 OA
ATOM     83  O   UNL A   1      35.330  30.342  28.973  1.00  0.00    -0.744 OA
ENDBRANCH  79  80
ENDBRANCH  47  72
BRANCH  59  84
ATOM     84  C   UNL A   1      46.416  32.591  28.202  1.00  0.00     0.058 A 
ATOM     85  C   UNL A   1      46.986  33.046  29.400  1.00  0.00     0.135 A 
ATOM     86  C   UNL A   1      46.256  33.515  27.156  1.00  0.00     0.135 A 
ATOM     87  F   UNL A   1      47.154  32.204  30.432  1.00  0.00    -0.206 F 
ATOM     88  C   UNL A   1      47.370  34.373  29.562  1.00  0.00     0.059 A 
ATOM     89  C   UNL A   1      46.654  34.841  27.288  1.00  0.00     0.059 A 
ATOM     90  F   UNL A   1      45.722  33.127  25.988  1.00  0.00    -0.206 F 
ATOM     91  C   UNL A   1      47.200  35.264  28.499  1.00  0.00     0.060 A 
BRANCH  91  92
ATOM     92  S   UNL A   1      47.737  36.975  28.707  1.00  0.00     0.124 S 
ATOM     93  O   UNL A   1      46.710  37.499  29.601  1.00  0.00    -0.237 OA
ATOM     94  O   UNL A   1      49.065  36.819  29.291  1.00  0.00    -0.237 OA
ATOM     95  O   UNL A   1      47.717  37.505  27.348  1.00  0.00    -0.744 OA
ENDBRANCH  91  92
ENDBRANCH  59  84
ENDBRANCH  33  34
ENDBRANCH  25  28
ENDBRANCH  23  24
ENDBRANCH   1  23
TORSDOF 16
ENDMDL
