MODEL 1
REMARK VINA RESULT:     -13.5      0.000      0.000
REMARK SMILES NS(=O)(=O)c1ccc(-n2nc(C(=O)NCCCCNC(=O)c3ccc(-c4c5nc(c(-c6c(F)cc(S(=O)(=O)[O-])cc6F)c6ccc([nH]6)c(-c6c(F)cc(S(=O)(=O)[O-])cc6F)c6nc(c(-c7c(F)cc(S(=O)(=O)[O-])cc7F)c7ccc4[nH]7)C=C6)C=C5)cc3)cc2-c2cc3ccccc3s2)cc1
REMARK SMILES IDX 16 1 15 2 14 3 12 4 13 5 11 7 9 8 10 9 89 10 88 11 8 12 5 13
REMARK SMILES IDX 6 14 100 15 7 16 99 17 2 18 3 19 4 20 1 21 90 24 91 25 98 26
REMARK SMILES IDX 92 27 97 28 93 29 96 30 94 31 95 32 17 33 18 34 19 35 20 36
REMARK SMILES IDX 21 38 22 39 23 40 87 41 24 42 86 43 25 44 26 45 27 46 80 47
REMARK SMILES IDX 28 48 85 49 79 50 81 51 29 52 84 53 78 54 77 55 30 57 64 58
REMARK SMILES IDX 43 59 63 60 44 61 47 62 62 63 82 64 45 65 46 66 61 68 83 69
REMARK SMILES IDX 48 70 31 71 32 72 41 73 33 74 34 75 40 76 42 77 35 78 36 79
REMARK SMILES IDX 37 80 38 81 39 82 65 83 66 84 75 85 67 86 68 87 74 88 76 89
REMARK SMILES IDX 69 90 70 91 71 92 72 93 73 94 49 95 50 96 59 97 51 98 52 99
REMARK SMILES IDX 58 100 60 101 53 102 54 103 55 104 56 105 57 106
REMARK H PARENT 14 6 1 22 1 23 19 37 81 56 47 67
REMARK Flexibility Score: inf
ROOT
ATOM      1  C   UNL A   1      32.014  27.367  27.008  1.00  0.00     0.023 C 
ENDROOT
BRANCH   1   2
ATOM      2  C   UNL A   1      31.097  26.624  26.022  1.00  0.00     0.116 C 
BRANCH   2   3
ATOM      3  N   UNL A   1      30.190  25.705  26.700  1.00  0.00    -0.351 N 
ATOM      4  C   UNL A   1      29.969  24.341  26.587  1.00  0.00     0.271 C 
ATOM      5  O   UNL A   1      29.162  23.849  27.378  1.00  0.00    -0.267 OA
ATOM      6  H   UNL A   1      29.619  26.141  27.374  1.00  0.00     0.163 HD
BRANCH   4   7
ATOM      7  C   UNL A   1      30.704  23.522  25.598  1.00  0.00     0.151 A 
ATOM      8  N   UNL A   1      32.052  21.999  24.884  1.00  0.00    -0.231 N 
ATOM      9  N   UNL A   1      31.151  22.276  25.867  1.00  0.00    -0.162 NA
ATOM     10  C   UNL A   1      32.133  23.037  23.986  1.00  0.00     0.085 A 
ATOM     11  C   UNL A   1      31.048  23.842  24.276  1.00  0.00     0.066 A 
BRANCH   8  12
ATOM     12  C   UNL A   1      32.522  20.682  24.679  1.00  0.00     0.065 A 
ATOM     13  C   UNL A   1      33.275  18.015  24.479  1.00  0.00     0.082 A 
ATOM     14  C   UNL A   1      32.630  18.639  23.403  1.00  0.00     0.024 A 
ATOM     15  C   UNL A   1      33.550  18.720  25.653  1.00  0.00     0.024 A 
ATOM     16  C   UNL A   1      32.232  19.975  23.508  1.00  0.00     0.030 A 
ATOM     17  C   UNL A   1      33.198  20.065  25.742  1.00  0.00     0.030 A 
BRANCH  13  18
ATOM     18  S   UNL A   1      33.713  16.310  24.329  1.00  0.00     0.238 S 
ATOM     19  O   UNL A   1      34.224  16.080  22.994  1.00  0.00    -0.207 OA
ATOM     20  O   UNL A   1      32.669  15.509  24.915  1.00  0.00    -0.207 OA
BRANCH  18  21
ATOM     21  N   UNL A   1      35.035  16.119  25.354  1.00  0.00    -0.225 NA
ATOM     22  H   UNL A   1      35.626  16.949  25.305  1.00  0.00     0.137 HD
ATOM     23  H   UNL A   1      35.573  15.301  25.066  1.00  0.00     0.137 HD
ENDBRANCH  18  21
ENDBRANCH  13  18
ENDBRANCH   8  12
BRANCH  10  24
ATOM     24  C   UNL A   1      33.126  23.348  22.996  1.00  0.00     0.054 A 
ATOM     25  C   UNL A   1      32.869  23.979  21.785  1.00  0.00     0.031 A 
ATOM     26  S   UNL A   1      34.599  24.070  23.581  1.00  0.00    -0.134 S 
ATOM     27  C   UNL A   1      33.064  25.400  22.028  1.00  0.00    -0.007 A 
ATOM     28  C   UNL A   1      33.937  25.606  23.107  1.00  0.00     0.035 A 
ATOM     29  C   UNL A   1      32.421  26.526  21.469  1.00  0.00     0.009 A 
ATOM     30  C   UNL A   1      34.145  26.870  23.679  1.00  0.00     0.019 A 
ATOM     31  C   UNL A   1      32.571  27.779  22.073  1.00  0.00     0.001 A 
ATOM     32  C   UNL A   1      33.407  27.944  23.174  1.00  0.00     0.001 A 
ENDBRANCH  10  24
ENDBRANCH   4   7
ENDBRANCH   2   3
ENDBRANCH   1   2
BRANCH   1  33
ATOM     33  C   UNL A   1      32.593  28.695  26.494  1.00  0.00     0.023 C 
BRANCH  33  34
ATOM     34  C   UNL A   1      33.739  29.261  27.328  1.00  0.00     0.116 C 
BRANCH  34  35
ATOM     35  N   UNL A   1      34.037  30.668  27.052  1.00  0.00    -0.352 N 
ATOM     36  C   UNL A   1      35.055  31.435  27.601  1.00  0.00     0.251 C 
ATOM     37  H   UNL A   1      33.449  31.122  26.405  1.00  0.00     0.163 HD
ATOM     38  O   UNL A   1      34.979  32.657  27.624  1.00  0.00    -0.269 OA
BRANCH  36  39
ATOM     39  C   UNL A   1      36.248  30.744  28.131  1.00  0.00     0.039 A 
ATOM     40  C   UNL A   1      36.446  29.366  27.995  1.00  0.00     0.014 A 
ATOM     41  C   UNL A   1      37.207  31.542  28.749  1.00  0.00     0.014 A 
ATOM     42  C   UNL A   1      37.662  28.819  28.406  1.00  0.00     0.010 A 
ATOM     43  C   UNL A   1      38.456  31.037  28.990  1.00  0.00     0.010 A 
ATOM     44  C   UNL A   1      38.673  29.669  28.883  1.00  0.00    -0.014 A 
BRANCH  44  45
ATOM     45  C   UNL A   1      40.035  29.196  29.120  1.00  0.00     0.031 A 
ATOM     46  C   UNL A   1      40.344  29.035  30.569  1.00  0.00     0.074 A 
ATOM     47  C   UNL A   1      40.804  28.683  28.130  1.00  0.00     0.049 A 
ATOM     48  N   UNL A   1      41.103  29.778  31.305  1.00  0.00    -0.248 NA
ATOM     49  C   UNL A   1      39.549  28.064  31.347  1.00  0.00     0.031 C 
ATOM     50  C   UNL A   1      40.428  28.490  26.720  1.00  0.00     0.029 A 
ATOM     51  N   UNL A   1      42.044  28.114  28.178  1.00  0.00    -0.354 N 
ATOM     52  C   UNL A   1      41.116  29.166  32.558  1.00  0.00     0.074 A 
ATOM     53  C   UNL A   1      39.955  28.323  32.594  1.00  0.00     0.031 C 
ATOM     54  C   UNL A   1      41.300  27.651  26.120  1.00  0.00     0.029 A 
ATOM     55  C   UNL A   1      42.394  27.388  27.036  1.00  0.00     0.049 A 
ATOM     56  H   UNL A   1      42.643  28.207  28.954  1.00  0.00     0.167 HD
ATOM     57  C   UNL A   1      42.262  29.128  33.296  1.00  0.00     0.037 A 
ATOM     58  C   UNL A   1      43.507  26.630  26.853  1.00  0.00     0.037 A 
ATOM     59  C   UNL A   1      43.242  30.014  32.720  1.00  0.00     0.049 A 
ATOM     60  C   UNL A   1      44.504  27.097  27.845  1.00  0.00     0.074 A 
ATOM     61  C   UNL A   1      43.418  31.376  32.606  1.00  0.00     0.029 A 
ATOM     62  N   UNL A   1      44.018  29.416  31.759  1.00  0.00    -0.354 N 
ATOM     63  N   UNL A   1      45.024  28.294  27.825  1.00  0.00    -0.248 NA
ATOM     64  C   UNL A   1      44.635  26.381  29.107  1.00  0.00     0.031 C 
ATOM     65  C   UNL A   1      44.164  31.574  31.406  1.00  0.00     0.029 A 
ATOM     66  C   UNL A   1      44.484  30.333  30.859  1.00  0.00     0.049 A 
ATOM     67  H   UNL A   1      44.213  28.452  31.723  1.00  0.00     0.167 HD
ATOM     68  C   UNL A   1      45.145  28.640  29.158  1.00  0.00     0.074 A 
ATOM     69  C   UNL A   1      45.054  27.380  29.889  1.00  0.00     0.031 C 
ATOM     70  C   UNL A   1      44.973  29.933  29.555  1.00  0.00     0.037 A 
BRANCH  57  71
ATOM     71  C   UNL A   1      42.708  27.974  34.185  1.00  0.00     0.058 A 
ATOM     72  C   UNL A   1      42.844  28.200  35.574  1.00  0.00     0.135 A 
ATOM     73  C   UNL A   1      43.281  26.770  33.719  1.00  0.00     0.135 A 
ATOM     74  F   UNL A   1      42.343  29.311  36.139  1.00  0.00    -0.206 F 
ATOM     75  C   UNL A   1      43.553  27.337  36.415  1.00  0.00     0.059 A 
ATOM     76  C   UNL A   1      43.949  25.872  34.548  1.00  0.00     0.059 A 
ATOM     77  F   UNL A   1      43.311  26.437  32.426  1.00  0.00    -0.206 F 
ATOM     78  C   UNL A   1      44.111  26.179  35.887  1.00  0.00     0.060 A 
BRANCH  78  79
ATOM     79  S   UNL A   1      45.079  25.090  36.947  1.00  0.00     0.124 S 
ATOM     80  O   UNL A   1      44.909  23.804  36.279  1.00  0.00    -0.237 OA
ATOM     81  O   UNL A   1      46.407  25.688  36.859  1.00  0.00    -0.237 OA
ATOM     82  O   UNL A   1      44.425  25.218  38.246  1.00  0.00    -0.744 OA
ENDBRANCH  78  79
ENDBRANCH  57  71
BRANCH  58  83
ATOM     83  C   UNL A   1      43.694  25.377  26.071  1.00  0.00     0.058 A 
ATOM     84  C   UNL A   1      44.821  25.172  25.251  1.00  0.00     0.135 A 
ATOM     85  C   UNL A   1      42.919  24.235  26.353  1.00  0.00     0.135 A 
ATOM     86  F   UNL A   1      45.627  26.199  24.944  1.00  0.00    -0.206 F 
ATOM     87  C   UNL A   1      45.187  23.901  24.783  1.00  0.00     0.059 A 
ATOM     88  C   UNL A   1      43.263  22.961  25.897  1.00  0.00     0.059 A 
ATOM     89  F   UNL A   1      41.852  24.316  27.162  1.00  0.00    -0.206 F 
ATOM     90  C   UNL A   1      44.412  22.796  25.131  1.00  0.00     0.060 A 
BRANCH  90  91
ATOM     91  S   UNL A   1      44.973  21.133  24.677  1.00  0.00     0.124 S 
ATOM     92  O   UNL A   1      44.582  21.055  23.274  1.00  0.00    -0.237 OA
ATOM     93  O   UNL A   1      46.407  21.208  24.936  1.00  0.00    -0.237 OA
ATOM     94  O   UNL A   1      44.225  20.266  25.582  1.00  0.00    -0.744 OA
ENDBRANCH  90  91
ENDBRANCH  58  83
BRANCH  70  95
ATOM     95  C   UNL A   1      45.186  31.011  28.531  1.00  0.00     0.058 A 
ATOM     96  C   UNL A   1      44.212  31.500  27.646  1.00  0.00     0.135 A 
ATOM     97  C   UNL A   1      46.438  31.643  28.525  1.00  0.00     0.135 A 
ATOM     98  F   UNL A   1      42.966  31.004  27.646  1.00  0.00    -0.206 F 
ATOM     99  C   UNL A   1      44.485  32.552  26.768  1.00  0.00     0.059 A 
ATOM    100  C   UNL A   1      46.721  32.711  27.684  1.00  0.00     0.059 A 
ATOM    101  F   UNL A   1      47.393  31.251  29.384  1.00  0.00    -0.206 F 
ATOM    102  C   UNL A   1      45.745  33.151  26.796  1.00  0.00     0.060 A 
BRANCH 102 103
ATOM    103  S   UNL A   1      46.088  34.547  25.704  1.00  0.00     0.124 S 
ATOM    104  O   UNL A   1      45.743  35.688  26.547  1.00  0.00    -0.237 OA
ATOM    105  O   UNL A   1      47.510  34.379  25.414  1.00  0.00    -0.237 OA
ATOM    106  O   UNL A   1      45.199  34.319  24.568  1.00  0.00    -0.744 OA
ENDBRANCH 102 103
ENDBRANCH  70  95
ENDBRANCH  44  45
ENDBRANCH  36  39
ENDBRANCH  34  35
ENDBRANCH  33  34
ENDBRANCH   1  33
TORSDOF 18
ENDMDL
MODEL 2
REMARK VINA RESULT:     -13.5      2.661      8.804
REMARK SMILES NS(=O)(=O)c1ccc(-n2nc(C(=O)NCCCCNC(=O)c3ccc(-c4c5nc(c(-c6c(F)cc(S(=O)(=O)[O-])cc6F)c6ccc([nH]6)c(-c6c(F)cc(S(=O)(=O)[O-])cc6F)c6nc(c(-c7c(F)cc(S(=O)(=O)[O-])cc7F)c7ccc4[nH]7)C=C6)C=C5)cc3)cc2-c2cc3ccccc3s2)cc1
REMARK SMILES IDX 16 1 15 2 14 3 12 4 13 5 11 7 9 8 10 9 89 10 88 11 8 12 5 13
REMARK SMILES IDX 6 14 100 15 7 16 99 17 2 18 3 19 4 20 1 21 90 24 91 25 98 26
REMARK SMILES IDX 92 27 97 28 93 29 96 30 94 31 95 32 17 33 18 34 19 35 20 36
REMARK SMILES IDX 21 38 22 39 23 40 87 41 24 42 86 43 25 44 26 45 27 46 80 47
REMARK SMILES IDX 28 48 85 49 79 50 81 51 29 52 84 53 78 54 77 55 30 57 64 58
REMARK SMILES IDX 43 59 63 60 44 61 47 62 62 63 82 64 45 65 46 66 61 68 83 69
REMARK SMILES IDX 48 70 31 71 32 72 41 73 33 74 34 75 40 76 42 77 35 78 36 79
REMARK SMILES IDX 37 80 38 81 39 82 65 83 66 84 75 85 67 86 68 87 74 88 76 89
REMARK SMILES IDX 69 90 70 91 71 92 72 93 73 94 49 95 50 96 59 97 51 98 52 99
REMARK SMILES IDX 58 100 60 101 53 102 54 103 55 104 56 105 57 106
REMARK H PARENT 14 6 1 22 1 23 19 37 81 56 47 67
REMARK Flexibility Score: inf
ROOT
ATOM      1  C   UNL A   1      41.064  21.678  27.588  1.00  0.00     0.023 C 
ENDROOT
BRANCH   1   2
ATOM      2  C   UNL A   1      39.803  21.845  26.724  1.00  0.00     0.116 C 
BRANCH   2   3
ATOM      3  N   UNL A   1      39.481  23.248  26.487  1.00  0.00    -0.351 N 
ATOM      4  C   UNL A   1      38.290  23.915  26.247  1.00  0.00     0.271 C 
ATOM      5  O   UNL A   1      38.358  25.143  26.160  1.00  0.00    -0.267 OA
ATOM      6  H   UNL A   1      40.268  23.840  26.500  1.00  0.00     0.163 HD
BRANCH   4   7
ATOM      7  C   UNL A   1      37.006  23.187  26.151  1.00  0.00     0.151 A 
ATOM      8  N   UNL A   1      35.572  21.774  25.381  1.00  0.00    -0.231 N 
ATOM      9  N   UNL A   1      36.902  21.952  25.613  1.00  0.00    -0.162 NA
ATOM     10  C   UNL A   1      34.848  22.861  25.811  1.00  0.00     0.085 A 
ATOM     11  C   UNL A   1      35.733  23.594  26.579  1.00  0.00     0.066 A 
BRANCH   8  12
ATOM     12  C   UNL A   1      35.053  20.495  25.078  1.00  0.00     0.065 A 
ATOM     13  C   UNL A   1      34.168  17.887  24.704  1.00  0.00     0.082 A 
ATOM     14  C   UNL A   1      33.245  18.901  24.993  1.00  0.00     0.024 A 
ATOM     15  C   UNL A   1      35.532  18.173  24.596  1.00  0.00     0.024 A 
ATOM     16  C   UNL A   1      33.689  20.210  25.202  1.00  0.00     0.030 A 
ATOM     17  C   UNL A   1      35.971  19.485  24.755  1.00  0.00     0.030 A 
BRANCH  13  18
ATOM     18  S   UNL A   1      33.575  16.236  24.503  1.00  0.00     0.238 S 
ATOM     19  O   UNL A   1      33.609  15.901  23.095  1.00  0.00    -0.207 OA
ATOM     20  O   UNL A   1      32.401  16.061  25.320  1.00  0.00    -0.207 OA
BRANCH  18  21
ATOM     21  N   UNL A   1      34.752  15.271  25.222  1.00  0.00    -0.225 NA
ATOM     22  H   UNL A   1      34.355  14.357  25.444  1.00  0.00     0.137 HD
ATOM     23  H   UNL A   1      35.079  15.716  26.080  1.00  0.00     0.137 HD
ENDBRANCH  18  21
ENDBRANCH  13  18
ENDBRANCH   8  12
BRANCH  10  24
ATOM     24  C   UNL A   1      33.505  23.274  25.513  1.00  0.00     0.054 A 
ATOM     25  C   UNL A   1      32.756  24.155  26.284  1.00  0.00     0.031 A 
ATOM     26  S   UNL A   1      33.186  23.729  23.862  1.00  0.00    -0.134 S 
ATOM     27  C   UNL A   1      32.992  25.475  25.720  1.00  0.00    -0.007 A 
ATOM     28  C   UNL A   1      33.366  25.382  24.370  1.00  0.00     0.035 A 
ATOM     29  C   UNL A   1      33.048  26.743  26.339  1.00  0.00     0.009 A 
ATOM     30  C   UNL A   1      33.840  26.482  23.641  1.00  0.00     0.019 A 
ATOM     31  C   UNL A   1      33.581  27.832  25.638  1.00  0.00     0.001 A 
ATOM     32  C   UNL A   1      33.989  27.696  24.315  1.00  0.00     0.001 A 
ENDBRANCH  10  24
ENDBRANCH   4   7
ENDBRANCH   2   3
ENDBRANCH   1   2
BRANCH   1  33
ATOM     33  C   UNL A   1      41.903  20.424  27.292  1.00  0.00     0.023 C 
BRANCH  33  34
ATOM     34  C   UNL A   1      42.059  20.091  25.810  1.00  0.00     0.116 C 
BRANCH  34  35
ATOM     35  N   UNL A   1      43.423  19.716  25.426  1.00  0.00    -0.352 N 
ATOM     36  C   UNL A   1      44.439  20.560  25.004  1.00  0.00     0.251 C 
ATOM     37  H   UNL A   1      43.642  18.756  25.472  1.00  0.00     0.163 HD
ATOM     38  O   UNL A   1      45.376  20.133  24.339  1.00  0.00    -0.269 OA
BRANCH  36  39
ATOM     39  C   UNL A   1      44.383  21.981  25.401  1.00  0.00     0.039 A 
ATOM     40  C   UNL A   1      43.469  22.884  24.848  1.00  0.00     0.014 A 
ATOM     41  C   UNL A   1      45.268  22.386  26.396  1.00  0.00     0.014 A 
ATOM     42  C   UNL A   1      43.396  24.174  25.376  1.00  0.00     0.010 A 
ATOM     43  C   UNL A   1      45.078  23.587  27.025  1.00  0.00     0.010 A 
ATOM     44  C   UNL A   1      44.191  24.510  26.484  1.00  0.00    -0.014 A 
BRANCH  44  45
ATOM     45  C   UNL A   1      44.007  25.758  27.220  1.00  0.00     0.031 A 
ATOM     46  C   UNL A   1      45.042  26.778  26.890  1.00  0.00     0.074 A 
ATOM     47  C   UNL A   1      42.861  26.043  27.885  1.00  0.00     0.049 A 
ATOM     48  N   UNL A   1      46.026  27.176  27.627  1.00  0.00    -0.248 NA
ATOM     49  C   UNL A   1      45.125  27.261  25.497  1.00  0.00     0.031 C 
ATOM     50  C   UNL A   1      41.649  25.212  27.963  1.00  0.00     0.029 A 
ATOM     51  N   UNL A   1      42.476  27.177  28.538  1.00  0.00    -0.354 N 
ATOM     52  C   UNL A   1      46.652  28.184  26.893  1.00  0.00     0.074 A 
ATOM     53  C   UNL A   1      46.246  27.988  25.531  1.00  0.00     0.031 C 
ATOM     54  C   UNL A   1      40.609  25.954  28.406  1.00  0.00     0.029 A 
ATOM     55  C   UNL A   1      41.109  27.253  28.815  1.00  0.00     0.049 A 
ATOM     56  H   UNL A   1      43.112  27.886  28.794  1.00  0.00     0.167 HD
ATOM     57  C   UNL A   1      47.142  29.291  27.522  1.00  0.00     0.037 A 
ATOM     58  C   UNL A   1      40.434  28.306  29.348  1.00  0.00     0.037 A 
ATOM     59  C   UNL A   1      47.156  29.077  28.947  1.00  0.00     0.049 A 
ATOM     60  C   UNL A   1      41.440  29.146  30.038  1.00  0.00     0.074 A 
ATOM     61  C   UNL A   1      47.876  28.312  29.838  1.00  0.00     0.029 A 
ATOM     62  N   UNL A   1      45.982  29.432  29.562  1.00  0.00    -0.354 N 
ATOM     63  N   UNL A   1      42.114  28.741  31.081  1.00  0.00    -0.248 NA
ATOM     64  C   UNL A   1      42.003  30.294  29.340  1.00  0.00     0.031 C 
ATOM     65  C   UNL A   1      46.995  28.050  30.928  1.00  0.00     0.029 A 
ATOM     66  C   UNL A   1      45.790  28.717  30.710  1.00  0.00     0.049 A 
ATOM     67  H   UNL A   1      45.359  30.113  29.220  1.00  0.00     0.167 HD
ATOM     68  C   UNL A   1      43.374  29.282  30.909  1.00  0.00     0.074 A 
ATOM     69  C   UNL A   1      43.201  30.351  29.930  1.00  0.00     0.031 C 
ATOM     70  C   UNL A   1      44.481  28.601  31.320  1.00  0.00     0.037 A 
BRANCH  57  71
ATOM     71  C   UNL A   1      47.124  30.709  26.964  1.00  0.00     0.058 A 
ATOM     72  C   UNL A   1      48.313  31.473  27.012  1.00  0.00     0.135 A 
ATOM     73  C   UNL A   1      45.955  31.444  26.665  1.00  0.00     0.135 A 
ATOM     74  F   UNL A   1      49.490  30.891  27.289  1.00  0.00    -0.206 F 
ATOM     75  C   UNL A   1      48.326  32.862  26.847  1.00  0.00     0.059 A 
ATOM     76  C   UNL A   1      45.954  32.820  26.449  1.00  0.00     0.059 A 
ATOM     77  F   UNL A   1      44.738  30.894  26.656  1.00  0.00    -0.206 F 
ATOM     78  C   UNL A   1      47.136  33.527  26.577  1.00  0.00     0.060 A 
BRANCH  78  79
ATOM     79  S   UNL A   1      47.131  35.322  26.424  1.00  0.00     0.124 S 
ATOM     80  O   UNL A   1      48.138  35.531  25.390  1.00  0.00    -0.237 OA
ATOM     81  O   UNL A   1      45.749  35.586  26.037  1.00  0.00    -0.237 OA
ATOM     82  O   UNL A   1      47.497  35.773  27.763  1.00  0.00    -0.744 OA
ENDBRANCH  78  79
ENDBRANCH  57  71
BRANCH  58  83
ATOM     83  C   UNL A   1      39.045  28.778  29.098  1.00  0.00     0.058 A 
ATOM     84  C   UNL A   1      38.125  28.975  30.146  1.00  0.00     0.135 A 
ATOM     85  C   UNL A   1      38.690  29.334  27.853  1.00  0.00     0.135 A 
ATOM     86  F   UNL A   1      38.387  28.495  31.371  1.00  0.00    -0.206 F 
ATOM     87  C   UNL A   1      36.951  29.724  29.984  1.00  0.00     0.059 A 
ATOM     88  C   UNL A   1      37.526  30.083  27.667  1.00  0.00     0.059 A 
ATOM     89  F   UNL A   1      39.520  29.242  26.802  1.00  0.00    -0.206 F 
ATOM     90  C   UNL A   1      36.671  30.295  28.743  1.00  0.00     0.060 A 
BRANCH  90  91
ATOM     91  S   UNL A   1      35.250  31.406  28.571  1.00  0.00     0.124 S 
ATOM     92  O   UNL A   1      35.808  32.488  27.768  1.00  0.00    -0.237 OA
ATOM     93  O   UNL A   1      34.272  30.555  27.900  1.00  0.00    -0.237 OA
ATOM     94  O   UNL A   1      34.924  31.755  29.950  1.00  0.00    -0.744 OA
ENDBRANCH  90  91
ENDBRANCH  58  83
BRANCH  70  95
ATOM     95  C   UNL A   1      44.305  27.569  32.398  1.00  0.00     0.058 A 
ATOM     96  C   UNL A   1      44.158  26.188  32.190  1.00  0.00     0.135 A 
ATOM     97  C   UNL A   1      44.386  28.015  33.724  1.00  0.00     0.135 A 
ATOM     98  F   UNL A   1      44.152  25.672  30.952  1.00  0.00    -0.206 F 
ATOM     99  C   UNL A   1      44.062  25.294  33.259  1.00  0.00     0.059 A 
ATOM    100  C   UNL A   1      44.326  27.142  34.803  1.00  0.00     0.059 A 
ATOM    101  F   UNL A   1      44.577  29.320  33.984  1.00  0.00    -0.206 F 
ATOM    102  C   UNL A   1      44.148  25.783  34.563  1.00  0.00     0.060 A 
BRANCH 102 103
ATOM    103  S   UNL A   1      44.081  24.629  35.950  1.00  0.00     0.124 S 
ATOM    104  O   UNL A   1      43.270  25.360  36.918  1.00  0.00    -0.237 OA
ATOM    105  O   UNL A   1      43.451  23.454  35.353  1.00  0.00    -0.237 OA
ATOM    106  O   UNL A   1      45.484  24.454  36.317  1.00  0.00    -0.744 OA
ENDBRANCH 102 103
ENDBRANCH  70  95
ENDBRANCH  44  45
ENDBRANCH  36  39
ENDBRANCH  34  35
ENDBRANCH  33  34
ENDBRANCH   1  33
TORSDOF 18
ENDMDL
MODEL 3
REMARK VINA RESULT:     -12.9      3.433      8.216
REMARK SMILES NS(=O)(=O)c1ccc(-n2nc(C(=O)NCCCCNC(=O)c3ccc(-c4c5nc(c(-c6c(F)cc(S(=O)(=O)[O-])cc6F)c6ccc([nH]6)c(-c6c(F)cc(S(=O)(=O)[O-])cc6F)c6nc(c(-c7c(F)cc(S(=O)(=O)[O-])cc7F)c7ccc4[nH]7)C=C6)C=C5)cc3)cc2-c2cc3ccccc3s2)cc1
REMARK SMILES IDX 16 1 15 2 14 3 12 4 13 5 11 7 9 8 10 9 89 10 88 11 8 12 5 13
REMARK SMILES IDX 6 14 100 15 7 16 99 17 2 18 3 19 4 20 1 21 90 24 91 25 98 26
REMARK SMILES IDX 92 27 97 28 93 29 96 30 94 31 95 32 17 33 18 34 19 35 20 36
REMARK SMILES IDX 21 38 22 39 23 40 87 41 24 42 86 43 25 44 26 45 27 46 80 47
REMARK SMILES IDX 28 48 85 49 79 50 81 51 29 52 84 53 78 54 77 55 30 57 64 58
REMARK SMILES IDX 43 59 63 60 44 61 47 62 62 63 82 64 45 65 46 66 61 68 83 69
REMARK SMILES IDX 48 70 31 71 32 72 41 73 33 74 34 75 40 76 42 77 35 78 36 79
REMARK SMILES IDX 37 80 38 81 39 82 65 83 66 84 75 85 67 86 68 87 74 88 76 89
REMARK SMILES IDX 69 90 70 91 71 92 72 93 73 94 49 95 50 96 59 97 51 98 52 99
REMARK SMILES IDX 58 100 60 101 53 102 54 103 55 104 56 105 57 106
REMARK H PARENT 14 6 1 22 1 23 19 37 81 56 47 67
REMARK Flexibility Score: inf
ROOT
ATOM      1  C   UNL A   1      35.967  21.926  24.516  1.00  0.00     0.023 C 
ENDROOT
BRANCH   1   2
ATOM      2  C   UNL A   1      34.723  21.318  25.185  1.00  0.00     0.116 C 
BRANCH   2   3
ATOM      3  N   UNL A   1      33.701  20.950  24.212  1.00  0.00    -0.351 N 
ATOM      4  C   UNL A   1      32.720  21.675  23.554  1.00  0.00     0.271 C 
ATOM      5  O   UNL A   1      32.051  21.060  22.721  1.00  0.00    -0.267 OA
ATOM      6  H   UNL A   1      33.709  19.994  23.977  1.00  0.00     0.163 HD
BRANCH   4   7
ATOM      7  C   UNL A   1      32.527  23.119  23.810  1.00  0.00     0.151 A 
ATOM      8  N   UNL A   1      31.895  25.142  23.419  1.00  0.00    -0.231 N 
ATOM      9  N   UNL A   1      31.542  23.840  23.231  1.00  0.00    -0.162 NA
ATOM     10  C   UNL A   1      33.058  25.236  24.146  1.00  0.00     0.085 A 
ATOM     11  C   UNL A   1      33.262  23.966  24.652  1.00  0.00     0.066 A 
BRANCH   8  12
ATOM     12  C   UNL A   1      30.970  26.185  23.190  1.00  0.00     0.065 A 
ATOM     13  C   UNL A   1      29.238  28.348  22.979  1.00  0.00     0.082 A 
ATOM     14  C   UNL A   1      30.252  28.173  22.028  1.00  0.00     0.024 A 
ATOM     15  C   UNL A   1      29.083  27.444  24.032  1.00  0.00     0.024 A 
ATOM     16  C   UNL A   1      31.137  27.097  22.143  1.00  0.00     0.030 A 
ATOM     17  C   UNL A   1      29.932  26.344  24.121  1.00  0.00     0.030 A 
BRANCH  13  18
ATOM     18  S   UNL A   1      28.174  29.751  22.831  1.00  0.00     0.238 S 
ATOM     19  O   UNL A   1      28.887  30.923  23.293  1.00  0.00    -0.207 OA
ATOM     20  O   UNL A   1      26.864  29.393  23.311  1.00  0.00    -0.207 OA
BRANCH  18  21
ATOM     21  N   UNL A   1      27.985  29.967  21.172  1.00  0.00    -0.225 NA
ATOM     22  H   UNL A   1      28.302  29.130  20.681  1.00  0.00     0.137 HD
ATOM     23  H   UNL A   1      28.539  30.769  20.868  1.00  0.00     0.137 HD
ENDBRANCH  18  21
ENDBRANCH  13  18
ENDBRANCH   8  12
BRANCH  10  24
ATOM     24  C   UNL A   1      33.969  26.332  24.326  1.00  0.00     0.054 A 
ATOM     25  C   UNL A   1      33.768  27.619  23.844  1.00  0.00     0.031 A 
ATOM     26  S   UNL A   1      34.614  26.542  25.931  1.00  0.00    -0.134 S 
ATOM     27  C   UNL A   1      33.113  28.348  24.920  1.00  0.00    -0.007 A 
ATOM     28  C   UNL A   1      33.408  27.771  26.165  1.00  0.00     0.035 A 
ATOM     29  C   UNL A   1      32.159  29.389  24.879  1.00  0.00     0.009 A 
ATOM     30  C   UNL A   1      32.754  28.152  27.346  1.00  0.00     0.019 A 
ATOM     31  C   UNL A   1      31.456  29.729  26.040  1.00  0.00     0.001 A 
ATOM     32  C   UNL A   1      31.737  29.105  27.252  1.00  0.00     0.001 A 
ENDBRANCH  10  24
ENDBRANCH   4   7
ENDBRANCH   2   3
ENDBRANCH   1   2
BRANCH   1  33
ATOM     33  C   UNL A   1      37.153  20.965  24.336  1.00  0.00     0.023 C 
BRANCH  33  34
ATOM     34  C   UNL A   1      38.246  21.088  25.395  1.00  0.00     0.116 C 
BRANCH  34  35
ATOM     35  N   UNL A   1      39.020  19.860  25.597  1.00  0.00    -0.352 N 
ATOM     36  C   UNL A   1      40.377  19.758  25.863  1.00  0.00     0.251 C 
ATOM     37  H   UNL A   1      38.521  19.013  25.536  1.00  0.00     0.163 HD
ATOM     38  O   UNL A   1      40.990  18.725  25.618  1.00  0.00    -0.269 OA
BRANCH  36  39
ATOM     39  C   UNL A   1      41.063  20.912  26.478  1.00  0.00     0.039 A 
ATOM     40  C   UNL A   1      41.792  21.843  25.731  1.00  0.00     0.014 A 
ATOM     41  C   UNL A   1      40.920  21.062  27.854  1.00  0.00     0.014 A 
ATOM     42  C   UNL A   1      42.294  22.975  26.374  1.00  0.00     0.010 A 
ATOM     43  C   UNL A   1      41.260  22.247  28.446  1.00  0.00     0.010 A 
ATOM     44  C   UNL A   1      42.003  23.180  27.732  1.00  0.00    -0.014 A 
BRANCH  44  45
ATOM     45  C   UNL A   1      42.305  24.440  28.408  1.00  0.00     0.031 A 
ATOM     46  C   UNL A   1      41.246  25.469  28.207  1.00  0.00     0.074 A 
ATOM     47  C   UNL A   1      43.279  24.542  29.345  1.00  0.00     0.049 A 
ATOM     48  N   UNL A   1      41.301  26.530  27.472  1.00  0.00    -0.248 NA
ATOM     49  C   UNL A   1      39.888  25.178  28.707  1.00  0.00     0.031 C 
ATOM     50  C   UNL A   1      44.145  23.464  29.848  1.00  0.00     0.029 A 
ATOM     51  N   UNL A   1      43.636  25.594  30.137  1.00  0.00    -0.354 N 
ATOM     52  C   UNL A   1      40.088  27.187  27.682  1.00  0.00     0.074 A 
ATOM     53  C   UNL A   1      39.188  26.195  28.196  1.00  0.00     0.031 C 
ATOM     54  C   UNL A   1      44.740  23.850  30.998  1.00  0.00     0.029 A 
ATOM     55  C   UNL A   1      44.449  25.254  31.222  1.00  0.00     0.049 A 
ATOM     56  H   UNL A   1      43.344  26.518  29.960  1.00  0.00     0.167 HD
ATOM     57  C   UNL A   1      40.046  28.549  27.760  1.00  0.00     0.037 A 
ATOM     58  C   UNL A   1      44.860  26.068  32.229  1.00  0.00     0.037 A 
ATOM     59  C   UNL A   1      41.303  29.101  27.321  1.00  0.00     0.049 A 
ATOM     60  C   UNL A   1      44.726  27.457  31.731  1.00  0.00     0.074 A 
ATOM     61  C   UNL A   1      41.975  29.239  26.126  1.00  0.00     0.029 A 
ATOM     62  N   UNL A   1      42.226  29.222  28.330  1.00  0.00    -0.354 N 
ATOM     63  N   UNL A   1      45.431  27.930  30.739  1.00  0.00    -0.248 NA
ATOM     64  C   UNL A   1      43.526  28.215  32.060  1.00  0.00     0.031 C 
ATOM     65  C   UNL A   1      43.363  29.236  26.456  1.00  0.00     0.029 A 
ATOM     66  C   UNL A   1      43.501  29.169  27.842  1.00  0.00     0.049 A 
ATOM     67  H   UNL A   1      41.998  29.332  29.281  1.00  0.00     0.167 HD
ATOM     68  C   UNL A   1      44.557  28.756  30.058  1.00  0.00     0.074 A 
ATOM     69  C   UNL A   1      43.473  29.024  30.998  1.00  0.00     0.031 C 
ATOM     70  C   UNL A   1      44.628  28.870  28.701  1.00  0.00     0.037 A 
BRANCH  57  71
ATOM     71  C   UNL A   1      39.136  29.357  28.675  1.00  0.00     0.058 A 
ATOM     72  C   UNL A   1      38.155  30.193  28.093  1.00  0.00     0.135 A 
ATOM     73  C   UNL A   1      39.366  29.579  30.052  1.00  0.00     0.135 A 
ATOM     74  F   UNL A   1      37.848  30.082  26.791  1.00  0.00    -0.206 F 
ATOM     75  C   UNL A   1      37.511  31.210  28.803  1.00  0.00     0.059 A 
ATOM     76  C   UNL A   1      38.699  30.554  30.789  1.00  0.00     0.059 A 
ATOM     77  F   UNL A   1      40.310  28.932  30.740  1.00  0.00    -0.206 F 
ATOM     78  C   UNL A   1      37.799  31.389  30.151  1.00  0.00     0.060 A 
BRANCH  78  79
ATOM     79  S   UNL A   1      37.021  32.735  31.061  1.00  0.00     0.124 S 
ATOM     80  O   UNL A   1      35.609  32.504  30.775  1.00  0.00    -0.237 OA
ATOM     81  O   UNL A   1      37.453  32.462  32.427  1.00  0.00    -0.237 OA
ATOM     82  O   UNL A   1      37.601  33.929  30.454  1.00  0.00    -0.744 OA
ENDBRANCH  78  79
ENDBRANCH  57  71
BRANCH  58  83
ATOM     83  C   UNL A   1      45.115  25.763  33.664  1.00  0.00     0.058 A 
ATOM     84  C   UNL A   1      44.071  25.460  34.559  1.00  0.00     0.135 A 
ATOM     85  C   UNL A   1      46.417  25.466  34.112  1.00  0.00     0.135 A 
ATOM     86  F   UNL A   1      42.796  25.692  34.210  1.00  0.00    -0.206 F 
ATOM     87  C   UNL A   1      44.298  24.849  35.800  1.00  0.00     0.059 A 
ATOM     88  C   UNL A   1      46.669  24.859  35.344  1.00  0.00     0.059 A 
ATOM     89  F   UNL A   1      47.478  25.674  33.316  1.00  0.00    -0.206 F 
ATOM     90  C   UNL A   1      45.603  24.531  36.175  1.00  0.00     0.060 A 
BRANCH  90  91
ATOM     91  S   UNL A   1      45.891  23.588  37.695  1.00  0.00     0.124 S 
ATOM     92  O   UNL A   1      45.556  22.231  37.278  1.00  0.00    -0.237 OA
ATOM     93  O   UNL A   1      47.304  23.843  37.955  1.00  0.00    -0.237 OA
ATOM     94  O   UNL A   1      44.967  24.193  38.649  1.00  0.00    -0.744 OA
ENDBRANCH  90  91
ENDBRANCH  58  83
BRANCH  70  95
ATOM     95  C   UNL A   1      45.938  28.544  28.042  1.00  0.00     0.058 A 
ATOM     96  C   UNL A   1      46.308  27.285  27.540  1.00  0.00     0.135 A 
ATOM     97  C   UNL A   1      46.826  29.608  27.829  1.00  0.00     0.135 A 
ATOM     98  F   UNL A   1      45.481  26.234  27.632  1.00  0.00    -0.206 F 
ATOM     99  C   UNL A   1      47.526  27.089  26.885  1.00  0.00     0.059 A 
ATOM    100  C   UNL A   1      48.027  29.444  27.152  1.00  0.00     0.059 A 
ATOM    101  F   UNL A   1      46.503  30.845  28.243  1.00  0.00    -0.206 F 
ATOM    102  C   UNL A   1      48.379  28.177  26.695  1.00  0.00     0.060 A 
BRANCH 102 103
ATOM    103  S   UNL A   1      49.929  27.944  25.801  1.00  0.00     0.124 S 
ATOM    104  O   UNL A   1      49.525  28.188  24.419  1.00  0.00    -0.237 OA
ATOM    105  O   UNL A   1      50.794  28.959  26.397  1.00  0.00    -0.237 OA
ATOM    106  O   UNL A   1      50.297  26.565  26.108  1.00  0.00    -0.744 OA
ENDBRANCH 102 103
ENDBRANCH  70  95
ENDBRANCH  44  45
ENDBRANCH  36  39
ENDBRANCH  34  35
ENDBRANCH  33  34
ENDBRANCH   1  33
TORSDOF 18
ENDMDL
