MODEL 1
REMARK VINA RESULT:     -11.5      0.000      0.000
REMARK SMILES O=C(NCCCCNC(=O)[C@H]1CC(=O)N(c2cccc(OC(F)(F)F)c2)C1)c1ccc(-c2c3nc(c(-c4c(F)cc(S(=O)(=O)[O-])cc4F)c4ccc([nH]4)c(-c4c(F)cc(S(=O)(=O)[O-])cc4F)c4nc(c(-c5c(F)cc(S(=O)(=O)[O-])cc5F)c5ccc2[nH]5)C=C4)C=C3)cc1
REMARK SMILES IDX 5 1 4 2 3 3 1 4 2 5 28 7 29 8 93 9 30 10 92 11 31 12 32 13
REMARK SMILES IDX 33 14 86 15 34 16 91 17 85 18 87 19 35 20 90 21 84 22 83 23
REMARK SMILES IDX 36 25 70 26 49 27 69 28 50 29 53 30 68 31 88 32 51 33 52 34
REMARK SMILES IDX 67 36 89 37 54 38 37 39 38 40 47 41 39 42 40 43 46 44 48 45
REMARK SMILES IDX 41 46 42 47 43 48 44 49 45 50 71 51 72 52 81 53 73 54 74 55
REMARK SMILES IDX 80 56 82 57 75 58 76 59 77 60 78 61 79 62 55 63 56 64 65 65
REMARK SMILES IDX 57 66 58 67 64 68 66 69 59 70 60 71 61 72 62 73 63 74 6 75
REMARK SMILES IDX 7 76 8 77 9 78 10 80 11 81 12 82 27 83 13 84 15 85 14 86
REMARK SMILES IDX 16 87 17 88 26 89 18 90 20 91 19 92 21 93 22 94 23 95 24 96
REMARK SMILES IDX 25 97
REMARK H PARENT 3 6 87 24 53 35 8 79
REMARK Flexibility Score: inf
ROOT
ATOM      1  C   UNL A   1      37.424  23.632  25.492  1.00  0.00     0.023 C 
ENDROOT
BRANCH   1   2
ATOM      2  C   UNL A   1      38.419  24.231  26.477  1.00  0.00     0.116 C 
BRANCH   2   3
ATOM      3  N   UNL A   1      39.799  24.091  26.038  1.00  0.00    -0.352 N 
ATOM      4  O   UNL A   1      41.964  24.694  25.827  1.00  0.00    -0.269 OA
ATOM      5  C   UNL A   1      40.893  24.838  26.408  1.00  0.00     0.251 C 
ATOM      6  H   UNL A   1      39.972  23.369  25.393  1.00  0.00     0.163 HD
BRANCH   5   7
ATOM      7  C   UNL A   1      40.749  25.831  27.492  1.00  0.00     0.039 A 
ATOM      8  C   UNL A   1      41.610  26.930  27.554  1.00  0.00     0.014 A 
ATOM      9  C   UNL A   1      39.771  25.642  28.471  1.00  0.00     0.014 A 
ATOM     10  C   UNL A   1      41.594  27.752  28.671  1.00  0.00     0.010 A 
ATOM     11  C   UNL A   1      39.692  26.533  29.545  1.00  0.00     0.010 A 
ATOM     12  C   UNL A   1      40.619  27.580  29.667  1.00  0.00    -0.014 A 
BRANCH  12  13
ATOM     13  C   UNL A   1      40.538  28.560  30.779  1.00  0.00     0.031 A 
ATOM     14  C   UNL A   1      41.451  28.474  31.969  1.00  0.00     0.074 A 
ATOM     15  C   UNL A   1      39.626  29.550  30.688  1.00  0.00     0.049 A 
ATOM     16  N   UNL A   1      41.496  29.244  33.026  1.00  0.00    -0.248 NA
ATOM     17  C   UNL A   1      42.435  27.380  31.984  1.00  0.00     0.031 C 
ATOM     18  C   UNL A   1      38.684  29.727  29.579  1.00  0.00     0.029 A 
ATOM     19  N   UNL A   1      39.347  30.596  31.528  1.00  0.00    -0.354 N 
ATOM     20  C   UNL A   1      42.499  28.726  33.836  1.00  0.00     0.074 A 
ATOM     21  C   UNL A   1      43.018  27.555  33.163  1.00  0.00     0.031 C 
ATOM     22  C   UNL A   1      37.961  30.835  29.786  1.00  0.00     0.029 A 
ATOM     23  C   UNL A   1      38.331  31.405  31.075  1.00  0.00     0.049 A 
ATOM     24  H   UNL A   1      39.826  30.753  32.374  1.00  0.00     0.167 HD
ATOM     25  C   UNL A   1      42.947  29.193  35.028  1.00  0.00     0.037 A 
ATOM     26  C   UNL A   1      37.741  32.472  31.644  1.00  0.00     0.037 A 
ATOM     27  C   UNL A   1      42.419  30.364  35.685  1.00  0.00     0.049 A 
ATOM     28  C   UNL A   1      38.222  32.936  32.987  1.00  0.00     0.074 A 
ATOM     29  C   UNL A   1      42.822  30.934  36.881  1.00  0.00     0.029 A 
ATOM     30  N   UNL A   1      41.367  31.138  35.212  1.00  0.00    -0.354 N 
ATOM     31  N   UNL A   1      39.193  32.453  33.724  1.00  0.00    -0.248 NA
ATOM     32  C   UNL A   1      37.530  34.087  33.578  1.00  0.00     0.031 C 
ATOM     33  C   UNL A   1      41.979  32.015  37.158  1.00  0.00     0.029 A 
ATOM     34  C   UNL A   1      41.091  32.162  36.105  1.00  0.00     0.049 A 
ATOM     35  H   UNL A   1      40.889  30.983  34.366  1.00  0.00     0.167 HD
ATOM     36  C   UNL A   1      39.243  33.255  34.858  1.00  0.00     0.074 A 
ATOM     37  C   UNL A   1      38.216  34.264  34.699  1.00  0.00     0.031 C 
ATOM     38  C   UNL A   1      40.065  33.162  35.932  1.00  0.00     0.037 A 
BRANCH  25  39
ATOM     39  C   UNL A   1      44.049  28.430  35.716  1.00  0.00     0.058 A 
ATOM     40  C   UNL A   1      45.405  28.722  35.492  1.00  0.00     0.135 A 
ATOM     41  C   UNL A   1      43.746  27.427  36.652  1.00  0.00     0.135 A 
ATOM     42  F   UNL A   1      45.757  29.661  34.600  1.00  0.00    -0.206 F 
ATOM     43  C   UNL A   1      46.417  28.031  36.151  1.00  0.00     0.059 A 
ATOM     44  C   UNL A   1      44.742  26.743  37.345  1.00  0.00     0.059 A 
ATOM     45  F   UNL A   1      42.467  27.107  36.909  1.00  0.00    -0.206 F 
ATOM     46  C   UNL A   1      46.076  27.043  37.077  1.00  0.00     0.060 A 
BRANCH  46  47
ATOM     47  S   UNL A   1      47.403  26.158  37.922  1.00  0.00     0.124 S 
ATOM     48  O   UNL A   1      47.115  24.776  37.549  1.00  0.00    -0.237 OA
ATOM     49  O   UNL A   1      48.598  26.740  37.320  1.00  0.00    -0.237 OA
ATOM     50  O   UNL A   1      47.189  26.483  39.328  1.00  0.00    -0.744 OA
ENDBRANCH  46  47
ENDBRANCH  25  39
BRANCH  26  51
ATOM     51  C   UNL A   1      36.621  33.154  30.944  1.00  0.00     0.058 A 
ATOM     52  C   UNL A   1      35.294  32.984  31.362  1.00  0.00     0.135 A 
ATOM     53  C   UNL A   1      36.860  34.015  29.860  1.00  0.00     0.135 A 
ATOM     54  F   UNL A   1      35.015  32.170  32.392  1.00  0.00    -0.206 F 
ATOM     55  C   UNL A   1      34.242  33.629  30.723  1.00  0.00     0.059 A 
ATOM     56  C   UNL A   1      35.828  34.696  29.225  1.00  0.00     0.059 A 
ATOM     57  F   UNL A   1      38.114  34.227  29.433  1.00  0.00    -0.206 F 
ATOM     58  C   UNL A   1      34.519  34.488  29.658  1.00  0.00     0.060 A 
BRANCH  58  59
ATOM     59  S   UNL A   1      33.149  35.356  28.866  1.00  0.00     0.124 S 
ATOM     60  O   UNL A   1      32.574  34.302  28.040  1.00  0.00    -0.237 OA
ATOM     61  O   UNL A   1      32.352  35.777  30.014  1.00  0.00    -0.237 OA
ATOM     62  O   UNL A   1      33.810  36.437  28.142  1.00  0.00    -0.744 OA
ENDBRANCH  58  59
ENDBRANCH  26  51
BRANCH  38  63
ATOM     63  C   UNL A   1      39.911  34.202  37.008  1.00  0.00     0.058 A 
ATOM     64  C   UNL A   1      40.469  35.484  36.883  1.00  0.00     0.135 A 
ATOM     65  C   UNL A   1      39.156  33.925  38.160  1.00  0.00     0.135 A 
ATOM     66  F   UNL A   1      41.209  35.798  35.809  1.00  0.00    -0.206 F 
ATOM     67  C   UNL A   1      40.301  36.448  37.872  1.00  0.00     0.059 A 
ATOM     68  C   UNL A   1      38.949  34.884  39.146  1.00  0.00     0.059 A 
ATOM     69  F   UNL A   1      38.596  32.717  38.327  1.00  0.00    -0.206 F 
ATOM     70  C   UNL A   1      39.535  36.140  38.998  1.00  0.00     0.060 A 
BRANCH  70  71
ATOM     71  S   UNL A   1      39.292  37.414  40.253  1.00  0.00     0.124 S 
ATOM     72  O   UNL A   1      38.463  38.378  39.537  1.00  0.00    -0.237 OA
ATOM     73  O   UNL A   1      38.628  36.676  41.322  1.00  0.00    -0.237 OA
ATOM     74  O   UNL A   1      40.650  37.858  40.555  1.00  0.00    -0.744 OA
ENDBRANCH  70  71
ENDBRANCH  38  63
ENDBRANCH  12  13
ENDBRANCH   5   7
ENDBRANCH   2   3
ENDBRANCH   1   2
BRANCH   1  75
ATOM     75  C   UNL A   1      37.380  22.106  25.483  1.00  0.00     0.023 C 
BRANCH  75  76
ATOM     76  C   UNL A   1      35.987  21.531  25.240  1.00  0.00     0.116 C 
BRANCH  76  77
ATOM     77  N   UNL A   1      35.254  21.389  26.487  1.00  0.00    -0.356 N 
ATOM     78  C   UNL A   1      34.205  22.135  26.938  1.00  0.00     0.225 C 
ATOM     79  H   UNL A   1      35.553  20.663  27.080  1.00  0.00     0.163 HD
ATOM     80  O   UNL A   1      33.786  21.961  28.080  1.00  0.00    -0.275 OA
BRANCH  78  81
ATOM     81  C   UNL A   1      33.574  23.103  25.972  1.00  0.00     0.107 C 
ATOM     82  C   UNL A   1      32.080  23.231  26.265  1.00  0.00     0.116 C 
ATOM     83  C   UNL A   1      34.092  24.517  26.121  1.00  0.00     0.139 C 
ATOM     84  C   UNL A   1      31.763  24.645  25.870  1.00  0.00     0.227 C 
ATOM     85  N   UNL A   1      32.968  25.329  25.721  1.00  0.00    -0.311 N 
ATOM     86  O   UNL A   1      30.626  25.064  25.701  1.00  0.00    -0.274 OA
BRANCH  85  87
ATOM     87  C   UNL A   1      33.093  26.703  25.452  1.00  0.00     0.047 A 
ATOM     88  C   UNL A   1      33.112  27.166  24.134  1.00  0.00     0.026 A 
ATOM     89  C   UNL A   1      33.219  27.614  26.507  1.00  0.00     0.073 A 
ATOM     90  C   UNL A   1      33.227  28.530  23.874  1.00  0.00     0.006 A 
ATOM     91  C   UNL A   1      33.412  28.972  26.251  1.00  0.00     0.131 A 
ATOM     92  C   UNL A   1      33.384  29.426  24.931  1.00  0.00     0.047 A 
BRANCH  91  93
ATOM     93  O   UNL A   1      33.636  29.939  27.190  1.00  0.00    -0.406 OA
BRANCH  93  94
ATOM     94  C   UNL A   1      34.977  30.123  27.622  1.00  0.00     0.573 C 
ATOM     95  F   UNL A   1      35.135  29.712  28.897  1.00  0.00    -0.132 F 
ATOM     96  F   UNL A   1      35.852  29.476  26.822  1.00  0.00    -0.132 F 
ATOM     97  F   UNL A   1      35.267  31.443  27.569  1.00  0.00    -0.132 F 
ENDBRANCH  93  94
ENDBRANCH  91  93
ENDBRANCH  85  87
ENDBRANCH  78  81
ENDBRANCH  76  77
ENDBRANCH  75  76
ENDBRANCH   1  75
TORSDOF 17
ENDMDL
MODEL 2
REMARK VINA RESULT:     -11.2      1.255      2.154
REMARK SMILES O=C(NCCCCNC(=O)[C@H]1CC(=O)N(c2cccc(OC(F)(F)F)c2)C1)c1ccc(-c2c3nc(c(-c4c(F)cc(S(=O)(=O)[O-])cc4F)c4ccc([nH]4)c(-c4c(F)cc(S(=O)(=O)[O-])cc4F)c4nc(c(-c5c(F)cc(S(=O)(=O)[O-])cc5F)c5ccc2[nH]5)C=C4)C=C3)cc1
REMARK SMILES IDX 5 1 4 2 3 3 1 4 2 5 28 7 29 8 93 9 30 10 92 11 31 12 32 13
REMARK SMILES IDX 33 14 86 15 34 16 91 17 85 18 87 19 35 20 90 21 84 22 83 23
REMARK SMILES IDX 36 25 70 26 49 27 69 28 50 29 53 30 68 31 88 32 51 33 52 34
REMARK SMILES IDX 67 36 89 37 54 38 37 39 38 40 47 41 39 42 40 43 46 44 48 45
REMARK SMILES IDX 41 46 42 47 43 48 44 49 45 50 71 51 72 52 81 53 73 54 74 55
REMARK SMILES IDX 80 56 82 57 75 58 76 59 77 60 78 61 79 62 55 63 56 64 65 65
REMARK SMILES IDX 57 66 58 67 64 68 66 69 59 70 60 71 61 72 62 73 63 74 6 75
REMARK SMILES IDX 7 76 8 77 9 78 10 80 11 81 12 82 27 83 13 84 15 85 14 86
REMARK SMILES IDX 16 87 17 88 26 89 18 90 20 91 19 92 21 93 22 94 23 95 24 96
REMARK SMILES IDX 25 97
REMARK H PARENT 3 6 87 24 53 35 8 79
REMARK Flexibility Score: inf
ROOT
ATOM      1  C   UNL A   1      39.931  22.423  26.990  1.00  0.00     0.023 C 
ENDROOT
BRANCH   1   2
ATOM      2  C   UNL A   1      41.142  23.292  27.301  1.00  0.00     0.116 C 
BRANCH   2   3
ATOM      3  N   UNL A   1      41.628  24.019  26.138  1.00  0.00    -0.352 N 
ATOM      4  O   UNL A   1      42.023  25.840  24.865  1.00  0.00    -0.269 OA
ATOM      5  C   UNL A   1      41.742  25.379  25.966  1.00  0.00     0.251 C 
ATOM      6  H   UNL A   1      41.912  23.465  25.376  1.00  0.00     0.163 HD
BRANCH   5   7
ATOM      7  C   UNL A   1      41.492  26.270  27.117  1.00  0.00     0.039 A 
ATOM      8  C   UNL A   1      42.345  27.347  27.367  1.00  0.00     0.014 A 
ATOM      9  C   UNL A   1      40.420  26.003  27.972  1.00  0.00     0.014 A 
ATOM     10  C   UNL A   1      42.219  28.064  28.548  1.00  0.00     0.010 A 
ATOM     11  C   UNL A   1      40.236  26.792  29.110  1.00  0.00     0.010 A 
ATOM     12  C   UNL A   1      41.148  27.812  29.422  1.00  0.00    -0.014 A 
BRANCH  12  13
ATOM     13  C   UNL A   1      40.958  28.687  30.606  1.00  0.00     0.031 A 
ATOM     14  C   UNL A   1      41.820  28.549  31.829  1.00  0.00     0.074 A 
ATOM     15  C   UNL A   1      39.995  29.629  30.552  1.00  0.00     0.049 A 
ATOM     16  N   UNL A   1      41.771  29.227  32.947  1.00  0.00    -0.248 NA
ATOM     17  C   UNL A   1      42.865  27.515  31.802  1.00  0.00     0.031 C 
ATOM     18  C   UNL A   1      39.095  29.848  29.415  1.00  0.00     0.029 A 
ATOM     19  N   UNL A   1      39.616  30.582  31.461  1.00  0.00    -0.354 N 
ATOM     20  C   UNL A   1      42.765  28.697  33.761  1.00  0.00     0.074 A 
ATOM     21  C   UNL A   1      43.383  27.619  33.020  1.00  0.00     0.031 C 
ATOM     22  C   UNL A   1      38.299  30.893  29.677  1.00  0.00     0.029 A 
ATOM     23  C   UNL A   1      38.576  31.370  31.026  1.00  0.00     0.049 A 
ATOM     24  H   UNL A   1      40.046  30.692  32.340  1.00  0.00     0.167 HD
ATOM     25  C   UNL A   1      43.130  29.083  35.009  1.00  0.00     0.037 A 
ATOM     26  C   UNL A   1      37.898  32.349  31.652  1.00  0.00     0.037 A 
ATOM     27  C   UNL A   1      42.504  30.162  35.734  1.00  0.00     0.049 A 
ATOM     28  C   UNL A   1      38.289  32.721  33.051  1.00  0.00     0.074 A 
ATOM     29  C   UNL A   1      42.817  30.649  36.992  1.00  0.00     0.029 A 
ATOM     30  N   UNL A   1      41.431  30.915  35.274  1.00  0.00    -0.354 N 
ATOM     31  N   UNL A   1      39.252  32.231  33.794  1.00  0.00    -0.248 NA
ATOM     32  C   UNL A   1      37.503  33.777  33.701  1.00  0.00     0.031 C 
ATOM     33  C   UNL A   1      41.900  31.654  37.316  1.00  0.00     0.029 A 
ATOM     34  C   UNL A   1      41.054  31.841  36.234  1.00  0.00     0.049 A 
ATOM     35  H   UNL A   1      41.002  30.807  34.395  1.00  0.00     0.167 HD
ATOM     36  C   UNL A   1      39.203  32.934  34.991  1.00  0.00     0.074 A 
ATOM     37  C   UNL A   1      38.126  33.895  34.865  1.00  0.00     0.031 C 
ATOM     38  C   UNL A   1      39.979  32.794  36.094  1.00  0.00     0.037 A 
BRANCH  25  39
ATOM     39  C   UNL A   1      44.243  28.327  35.686  1.00  0.00     0.058 A 
ATOM     40  C   UNL A   1      43.989  27.246  36.546  1.00  0.00     0.135 A 
ATOM     41  C   UNL A   1      45.586  28.653  35.429  1.00  0.00     0.135 A 
ATOM     42  F   UNL A   1      42.726  26.896  36.839  1.00  0.00    -0.206 F 
ATOM     43  C   UNL A   1      45.023  26.535  37.147  1.00  0.00     0.059 A 
ATOM     44  C   UNL A   1      46.636  27.936  35.997  1.00  0.00     0.059 A 
ATOM     45  F   UNL A   1      45.889  29.674  34.613  1.00  0.00    -0.206 F 
ATOM     46  C   UNL A   1      46.344  26.887  36.866  1.00  0.00     0.060 A 
BRANCH  46  47
ATOM     47  S   UNL A   1      47.673  25.951  37.654  1.00  0.00     0.124 S 
ATOM     48  O   UNL A   1      48.720  26.023  36.639  1.00  0.00    -0.237 OA
ATOM     49  O   UNL A   1      47.916  26.721  38.869  1.00  0.00    -0.237 OA
ATOM     50  O   UNL A   1      47.087  24.631  37.857  1.00  0.00    -0.744 OA
ENDBRANCH  46  47
ENDBRANCH  25  39
BRANCH  26  51
ATOM     51  C   UNL A   1      36.772  33.026  30.955  1.00  0.00     0.058 A 
ATOM     52  C   UNL A   1      37.007  33.960  29.937  1.00  0.00     0.135 A 
ATOM     53  C   UNL A   1      35.437  32.727  31.274  1.00  0.00     0.135 A 
ATOM     54  F   UNL A   1      38.266  34.278  29.597  1.00  0.00    -0.206 F 
ATOM     55  C   UNL A   1      35.962  34.587  29.270  1.00  0.00     0.059 A 
ATOM     56  C   UNL A   1      34.375  33.317  30.600  1.00  0.00     0.059 A 
ATOM     57  F   UNL A   1      35.158  31.825  32.228  1.00  0.00    -0.206 F 
ATOM     58  C   UNL A   1      34.647  34.255  29.605  1.00  0.00     0.060 A 
BRANCH  58  59
ATOM     59  S   UNL A   1      33.299  35.041  28.699  1.00  0.00     0.124 S 
ATOM     60  O   UNL A   1      32.454  35.516  29.788  1.00  0.00    -0.237 OA
ATOM     61  O   UNL A   1      34.002  36.070  27.939  1.00  0.00    -0.237 OA
ATOM     62  O   UNL A   1      32.749  33.949  27.901  1.00  0.00    -0.744 OA
ENDBRANCH  58  59
ENDBRANCH  26  51
BRANCH  38  63
ATOM     63  C   UNL A   1      39.715  33.728  37.244  1.00  0.00     0.058 A 
ATOM     64  C   UNL A   1      38.807  33.407  38.265  1.00  0.00     0.135 A 
ATOM     65  C   UNL A   1      40.416  34.941  37.347  1.00  0.00     0.135 A 
ATOM     66  F   UNL A   1      38.102  32.266  38.209  1.00  0.00    -0.206 F 
ATOM     67  C   UNL A   1      38.587  34.266  39.337  1.00  0.00     0.059 A 
ATOM     68  C   UNL A   1      40.235  35.800  38.427  1.00  0.00     0.059 A 
ATOM     69  F   UNL A   1      41.300  35.295  36.402  1.00  0.00    -0.206 F 
ATOM     70  C   UNL A   1      39.310  35.458  39.412  1.00  0.00     0.060 A 
BRANCH  70  71
ATOM     71  S   UNL A   1      39.044  36.542  40.831  1.00  0.00     0.124 S 
ATOM     72  O   UNL A   1      38.529  37.746  40.189  1.00  0.00    -0.237 OA
ATOM     73  O   UNL A   1      38.083  35.784  41.625  1.00  0.00    -0.237 OA
ATOM     74  O   UNL A   1      40.375  36.665  41.419  1.00  0.00    -0.744 OA
ENDBRANCH  70  71
ENDBRANCH  38  63
ENDBRANCH  12  13
ENDBRANCH   5   7
ENDBRANCH   2   3
ENDBRANCH   1   2
BRANCH   1  75
ATOM     75  C   UNL A   1      38.699  23.196  26.524  1.00  0.00     0.023 C 
BRANCH  75  76
ATOM     76  C   UNL A   1      37.876  22.464  25.466  1.00  0.00     0.116 C 
BRANCH  76  77
ATOM     77  N   UNL A   1      36.634  21.959  26.027  1.00  0.00    -0.356 N 
ATOM     78  C   UNL A   1      35.417  22.575  26.071  1.00  0.00     0.225 C 
ATOM     79  H   UNL A   1      36.677  21.060  26.424  1.00  0.00     0.163 HD
ATOM     80  O   UNL A   1      34.500  22.056  26.702  1.00  0.00    -0.275 OA
BRANCH  78  81
ATOM     81  C   UNL A   1      35.252  23.846  25.280  1.00  0.00     0.107 C 
ATOM     82  C   UNL A   1      34.936  23.514  23.823  1.00  0.00     0.116 C 
ATOM     83  C   UNL A   1      34.066  24.675  25.725  1.00  0.00     0.139 C 
ATOM     84  C   UNL A   1      34.073  24.660  23.379  1.00  0.00     0.227 C 
ATOM     85  N   UNL A   1      33.658  25.350  24.517  1.00  0.00    -0.311 N 
ATOM     86  O   UNL A   1      33.827  24.911  22.207  1.00  0.00    -0.274 OA
BRANCH  85  87
ATOM     87  C   UNL A   1      32.756  26.428  24.528  1.00  0.00     0.047 A 
ATOM     88  C   UNL A   1      31.472  26.280  23.998  1.00  0.00     0.026 A 
ATOM     89  C   UNL A   1      33.149  27.664  25.055  1.00  0.00     0.073 A 
ATOM     90  C   UNL A   1      30.580  27.350  24.020  1.00  0.00     0.006 A 
ATOM     91  C   UNL A   1      32.287  28.759  25.009  1.00  0.00     0.131 A 
ATOM     92  C   UNL A   1      30.991  28.587  24.517  1.00  0.00     0.047 A 
BRANCH  91  93
ATOM     93  O   UNL A   1      32.588  30.032  25.406  1.00  0.00    -0.406 OA
BRANCH  93  94
ATOM     94  C   UNL A   1      32.225  30.400  26.729  1.00  0.00     0.573 C 
ATOM     95  F   UNL A   1      31.342  31.420  26.723  1.00  0.00    -0.132 F 
ATOM     96  F   UNL A   1      31.712  29.355  27.415  1.00  0.00    -0.132 F 
ATOM     97  F   UNL A   1      33.337  30.814  27.379  1.00  0.00    -0.132 F 
ENDBRANCH  93  94
ENDBRANCH  91  93
ENDBRANCH  85  87
ENDBRANCH  78  81
ENDBRANCH  76  77
ENDBRANCH  75  76
ENDBRANCH   1  75
TORSDOF 17
ENDMDL
MODEL 3
REMARK VINA RESULT:     -11.2      2.093      2.894
REMARK SMILES O=C(NCCCCNC(=O)[C@H]1CC(=O)N(c2cccc(OC(F)(F)F)c2)C1)c1ccc(-c2c3nc(c(-c4c(F)cc(S(=O)(=O)[O-])cc4F)c4ccc([nH]4)c(-c4c(F)cc(S(=O)(=O)[O-])cc4F)c4nc(c(-c5c(F)cc(S(=O)(=O)[O-])cc5F)c5ccc2[nH]5)C=C4)C=C3)cc1
REMARK SMILES IDX 5 1 4 2 3 3 1 4 2 5 28 7 29 8 93 9 30 10 92 11 31 12 32 13
REMARK SMILES IDX 33 14 86 15 34 16 91 17 85 18 87 19 35 20 90 21 84 22 83 23
REMARK SMILES IDX 36 25 70 26 49 27 69 28 50 29 53 30 68 31 88 32 51 33 52 34
REMARK SMILES IDX 67 36 89 37 54 38 37 39 38 40 47 41 39 42 40 43 46 44 48 45
REMARK SMILES IDX 41 46 42 47 43 48 44 49 45 50 71 51 72 52 81 53 73 54 74 55
REMARK SMILES IDX 80 56 82 57 75 58 76 59 77 60 78 61 79 62 55 63 56 64 65 65
REMARK SMILES IDX 57 66 58 67 64 68 66 69 59 70 60 71 61 72 62 73 63 74 6 75
REMARK SMILES IDX 7 76 8 77 9 78 10 80 11 81 12 82 27 83 13 84 15 85 14 86
REMARK SMILES IDX 16 87 17 88 26 89 18 90 20 91 19 92 21 93 22 94 23 95 24 96
REMARK SMILES IDX 25 97
REMARK H PARENT 3 6 87 24 53 35 8 79
REMARK Flexibility Score: inf
ROOT
ATOM      1  C   UNL A   1      41.920  22.115  27.447  1.00  0.00     0.023 C 
ENDROOT
BRANCH   1   2
ATOM      2  C   UNL A   1      42.772  23.377  27.428  1.00  0.00     0.116 C 
BRANCH   2   3
ATOM      3  N   UNL A   1      42.702  24.085  26.159  1.00  0.00    -0.352 N 
ATOM      4  O   UNL A   1      42.144  25.777  24.773  1.00  0.00    -0.269 OA
ATOM      5  C   UNL A   1      42.294  25.377  25.924  1.00  0.00     0.251 C 
ATOM      6  H   UNL A   1      42.982  23.573  25.367  1.00  0.00     0.163 HD
BRANCH   5   7
ATOM      7  C   UNL A   1      42.015  26.262  27.073  1.00  0.00     0.039 A 
ATOM      8  C   UNL A   1      42.841  27.358  27.331  1.00  0.00     0.014 A 
ATOM      9  C   UNL A   1      40.942  25.970  27.919  1.00  0.00     0.014 A 
ATOM     10  C   UNL A   1      42.689  28.070  28.511  1.00  0.00     0.010 A 
ATOM     11  C   UNL A   1      40.731  26.753  29.056  1.00  0.00     0.010 A 
ATOM     12  C   UNL A   1      41.617  27.794  29.376  1.00  0.00    -0.014 A 
BRANCH  12  13
ATOM     13  C   UNL A   1      41.397  28.663  30.559  1.00  0.00     0.031 A 
ATOM     14  C   UNL A   1      42.268  28.562  31.779  1.00  0.00     0.074 A 
ATOM     15  C   UNL A   1      40.397  29.566  30.507  1.00  0.00     0.049 A 
ATOM     16  N   UNL A   1      42.197  29.240  32.896  1.00  0.00    -0.248 NA
ATOM     17  C   UNL A   1      43.354  27.570  31.749  1.00  0.00     0.031 C 
ATOM     18  C   UNL A   1      39.485  29.747  29.373  1.00  0.00     0.029 A 
ATOM     19  N   UNL A   1      39.984  30.505  31.415  1.00  0.00    -0.354 N 
ATOM     20  C   UNL A   1      43.214  28.752  33.707  1.00  0.00     0.074 A 
ATOM     21  C   UNL A   1      43.871  27.697  32.965  1.00  0.00     0.031 C 
ATOM     22  C   UNL A   1      38.649  30.760  29.636  1.00  0.00     0.029 A 
ATOM     23  C   UNL A   1      38.912  31.250  30.983  1.00  0.00     0.049 A 
ATOM     24  H   UNL A   1      40.413  30.634  32.292  1.00  0.00     0.167 HD
ATOM     25  C   UNL A   1      43.569  29.155  34.952  1.00  0.00     0.037 A 
ATOM     26  C   UNL A   1      38.198  32.203  31.610  1.00  0.00     0.037 A 
ATOM     27  C   UNL A   1      42.903  30.210  35.678  1.00  0.00     0.049 A 
ATOM     28  C   UNL A   1      38.579  32.594  33.007  1.00  0.00     0.074 A 
ATOM     29  C   UNL A   1      43.202  30.711  36.933  1.00  0.00     0.029 A 
ATOM     30  N   UNL A   1      41.799  30.918  35.221  1.00  0.00    -0.354 N 
ATOM     31  N   UNL A   1      39.565  32.144  33.746  1.00  0.00    -0.248 NA
ATOM     32  C   UNL A   1      37.755  33.619  33.657  1.00  0.00     0.031 C 
ATOM     33  C   UNL A   1      42.247  31.679  37.259  1.00  0.00     0.029 A 
ATOM     34  C   UNL A   1      41.390  31.831  36.181  1.00  0.00     0.049 A 
ATOM     35  H   UNL A   1      41.371  30.792  34.344  1.00  0.00     0.167 HD
ATOM     36  C   UNL A   1      39.492  32.847  34.943  1.00  0.00     0.074 A 
ATOM     37  C   UNL A   1      38.377  33.763  34.819  1.00  0.00     0.031 C 
ATOM     38  C   UNL A   1      40.277  32.740  36.043  1.00  0.00     0.037 A 
BRANCH  25  39
ATOM     39  C   UNL A   1      44.713  28.444  35.626  1.00  0.00     0.058 A 
ATOM     40  C   UNL A   1      46.045  28.860  35.462  1.00  0.00     0.135 A 
ATOM     41  C   UNL A   1      44.472  27.363  36.490  1.00  0.00     0.135 A 
ATOM     42  F   UNL A   1      46.338  29.880  34.639  1.00  0.00    -0.206 F 
ATOM     43  C   UNL A   1      47.095  28.215  36.108  1.00  0.00     0.059 A 
ATOM     44  C   UNL A   1      45.504  26.721  37.170  1.00  0.00     0.059 A 
ATOM     45  F   UNL A   1      43.219  26.922  36.688  1.00  0.00    -0.206 F 
ATOM     46  C   UNL A   1      46.814  27.146  36.961  1.00  0.00     0.060 A 
BRANCH  46  47
ATOM     47  S   UNL A   1      48.190  26.322  37.792  1.00  0.00     0.124 S 
ATOM     48  O   UNL A   1      47.760  26.374  39.186  1.00  0.00    -0.237 OA
ATOM     49  O   UNL A   1      48.179  25.001  37.175  1.00  0.00    -0.237 OA
ATOM     50  O   UNL A   1      49.339  27.158  37.460  1.00  0.00    -0.744 OA
ENDBRANCH  46  47
ENDBRANCH  25  39
BRANCH  26  51
ATOM     51  C   UNL A   1      37.043  32.833  30.916  1.00  0.00     0.058 A 
ATOM     52  C   UNL A   1      35.725  32.509  31.263  1.00  0.00     0.135 A 
ATOM     53  C   UNL A   1      37.238  33.797  29.913  1.00  0.00     0.135 A 
ATOM     54  F   UNL A   1      35.488  31.593  32.215  1.00  0.00    -0.206 F 
ATOM     55  C   UNL A   1      34.639  33.104  30.631  1.00  0.00     0.059 A 
ATOM     56  C   UNL A   1      36.170  34.429  29.289  1.00  0.00     0.059 A 
ATOM     57  F   UNL A   1      38.481  34.157  29.557  1.00  0.00    -0.206 F 
ATOM     58  C   UNL A   1      34.872  34.067  29.647  1.00  0.00     0.060 A 
BRANCH  58  59
ATOM     59  S   UNL A   1      33.454  34.866  28.867  1.00  0.00     0.124 S 
ATOM     60  O   UNL A   1      33.088  33.886  27.852  1.00  0.00    -0.237 OA
ATOM     61  O   UNL A   1      32.529  35.006  29.987  1.00  0.00    -0.237 OA
ATOM     62  O   UNL A   1      34.010  36.119  28.364  1.00  0.00    -0.744 OA
ENDBRANCH  58  59
ENDBRANCH  26  51
BRANCH  38  63
ATOM     63  C   UNL A   1      39.981  33.665  37.191  1.00  0.00     0.058 A 
ATOM     64  C   UNL A   1      40.629  34.902  37.332  1.00  0.00     0.135 A 
ATOM     65  C   UNL A   1      39.001  33.326  38.140  1.00  0.00     0.135 A 
ATOM     66  F   UNL A   1      41.581  35.269  36.461  1.00  0.00    -0.206 F 
ATOM     67  C   UNL A   1      40.331  35.762  38.384  1.00  0.00     0.059 A 
ATOM     68  C   UNL A   1      38.665  34.186  39.182  1.00  0.00     0.059 A 
ATOM     69  F   UNL A   1      38.346  32.158  38.049  1.00  0.00    -0.206 F 
ATOM     70  C   UNL A   1      39.344  35.397  39.302  1.00  0.00     0.060 A 
BRANCH  70  71
ATOM     71  S   UNL A   1      38.939  36.542  40.637  1.00  0.00     0.124 S 
ATOM     72  O   UNL A   1      40.230  36.687  41.301  1.00  0.00    -0.237 OA
ATOM     73  O   UNL A   1      38.464  37.714  39.909  1.00  0.00    -0.237 OA
ATOM     74  O   UNL A   1      37.918  35.828  41.400  1.00  0.00    -0.744 OA
ENDBRANCH  70  71
ENDBRANCH  38  63
ENDBRANCH  12  13
ENDBRANCH   5   7
ENDBRANCH   2   3
ENDBRANCH   1   2
BRANCH   1  75
ATOM     75  C   UNL A   1      40.433  22.357  27.700  1.00  0.00     0.023 C 
BRANCH  75  76
ATOM     76  C   UNL A   1      39.643  22.710  26.443  1.00  0.00     0.116 C 
BRANCH  76  77
ATOM     77  N   UNL A   1      38.976  21.540  25.897  1.00  0.00    -0.356 N 
ATOM     78  C   UNL A   1      37.772  21.476  25.258  1.00  0.00     0.225 C 
ATOM     79  H   UNL A   1      39.454  20.686  26.002  1.00  0.00     0.163 HD
ATOM     80  O   UNL A   1      37.295  20.380  24.976  1.00  0.00    -0.275 OA
BRANCH  78  81
ATOM     81  C   UNL A   1      37.118  22.778  24.878  1.00  0.00     0.107 C 
ATOM     82  C   UNL A   1      36.526  22.672  23.473  1.00  0.00     0.116 C 
ATOM     83  C   UNL A   1      35.925  23.122  25.745  1.00  0.00     0.139 C 
ATOM     84  C   UNL A   1      35.335  23.585  23.521  1.00  0.00     0.227 C 
ATOM     85  N   UNL A   1      35.076  23.880  24.859  1.00  0.00    -0.311 N 
ATOM     86  O   UNL A   1      34.746  23.986  22.527  1.00  0.00    -0.274 OA
BRANCH  85  87
ATOM     87  C   UNL A   1      33.981  24.627  25.327  1.00  0.00     0.047 A 
ATOM     88  C   UNL A   1      34.145  25.963  25.699  1.00  0.00     0.026 A 
ATOM     89  C   UNL A   1      32.721  24.027  25.440  1.00  0.00     0.073 A 
ATOM     90  C   UNL A   1      33.054  26.701  26.155  1.00  0.00     0.006 A 
ATOM     91  C   UNL A   1      31.643  24.737  25.967  1.00  0.00     0.131 A 
ATOM     92  C   UNL A   1      31.810  26.085  26.294  1.00  0.00     0.047 A 
BRANCH  91  93
ATOM     93  O   UNL A   1      30.396  24.236  26.209  1.00  0.00    -0.406 OA
BRANCH  93  94
ATOM     94  C   UNL A   1      30.320  22.978  26.864  1.00  0.00     0.573 C 
ATOM     95  F   UNL A   1      31.396  22.778  27.654  1.00  0.00    -0.132 F 
ATOM     96  F   UNL A   1      29.189  22.863  27.594  1.00  0.00    -0.132 F 
ATOM     97  F   UNL A   1      30.306  22.005  25.924  1.00  0.00    -0.132 F 
ENDBRANCH  93  94
ENDBRANCH  91  93
ENDBRANCH  85  87
ENDBRANCH  78  81
ENDBRANCH  76  77
ENDBRANCH  75  76
ENDBRANCH   1  75
TORSDOF 17
ENDMDL
