MODEL 1
REMARK VINA RESULT:     -12.7      0.000      0.000
REMARK SMILES CCc1[nH]nc(-n2cccc2)c1C(=O)NCCCCNC(=O)c1ccc(-c2c3nc(c(-c4c(F)cc(S(=O)(=O)[O-])cc4F)c4ccc([nH]4)c(-c4c(F)cc(S(=O)(=O)[O-])cc4F)c4nc(c(-c5c(F)cc(S(=O)(=O)[O-])cc5F)c5ccc2[nH]5)C=C4)C=C3)cc1
REMARK SMILES IDX 18 1 17 2 16 3 15 4 13 5 14 6 12 8 3 9 4 10 5 11 6 13 2 14
REMARK SMILES IDX 1 15 7 16 8 17 11 18 9 19 10 20 19 21 20 22 21 23 22 25
REMARK SMILES IDX 23 26 24 27 88 28 25 29 87 30 26 31 27 32 28 33 81 34 29 35
REMARK SMILES IDX 86 36 80 37 82 38 30 39 85 40 79 41 78 42 31 44 65 45 44 46
REMARK SMILES IDX 64 47 45 48 48 49 63 50 83 51 46 52 47 53 62 55 84 56 49 57
REMARK SMILES IDX 32 58 33 59 42 60 34 61 35 62 41 63 43 64 36 65 37 66 38 67
REMARK SMILES IDX 39 68 40 69 66 70 67 71 76 72 68 73 69 74 75 75 77 76 70 77
REMARK SMILES IDX 71 78 72 79 73 80 74 81 50 82 51 83 60 84 52 85 53 86 59 87
REMARK SMILES IDX 61 88 54 89 55 90 56 91 57 92 58 93
REMARK H PARENT 15 7 4 12 20 24 82 43 48 54
REMARK Flexibility Score: inf
ROOT
ATOM      1  C   UNL A   1      33.450  28.893  27.503  1.00  0.00     0.023 C 
ENDROOT
BRANCH   1   2
ATOM      2  C   UNL A   1      32.169  29.387  26.827  1.00  0.00     0.023 C 
BRANCH   2   3
ATOM      3  C   UNL A   1      31.541  28.470  25.788  1.00  0.00     0.116 C 
BRANCH   3   4
ATOM      4  N   UNL A   1      31.806  28.798  24.418  1.00  0.00    -0.352 N 
ATOM      5  C   UNL A   1      30.999  28.773  23.302  1.00  0.00     0.256 C 
ATOM      6  O   UNL A   1      31.543  29.188  22.280  1.00  0.00    -0.269 OA
ATOM      7  H   UNL A   1      32.729  29.094  24.242  1.00  0.00     0.163 HD
BRANCH   5   8
ATOM      8  C   UNL A   1      29.612  28.276  23.268  1.00  0.00     0.105 A 
ATOM      9  C   UNL A   1      28.998  27.086  23.695  1.00  0.00     0.050 A 
ATOM     10  N   UNL A   1      27.649  27.258  23.509  1.00  0.00    -0.280 N 
ATOM     11  N   UNL A   1      27.296  28.479  23.127  1.00  0.00    -0.156 NA
ATOM     12  H   UNL A   1      26.997  26.535  23.646  1.00  0.00     0.190 HD
ATOM     13  C   UNL A   1      28.469  29.097  22.950  1.00  0.00     0.171 A 
BRANCH   9  14
ATOM     14  C   UNL A   1      29.412  25.814  24.364  1.00  0.00     0.053 C 
ATOM     15  C   UNL A   1      30.469  25.051  23.568  1.00  0.00     0.011 C 
ENDBRANCH   9  14
BRANCH  13  16
ATOM     16  N   UNL A   1      28.401  30.458  22.514  1.00  0.00    -0.307 N 
ATOM     17  C   UNL A   1      28.488  31.603  23.280  1.00  0.00     0.093 A 
ATOM     18  C   UNL A   1      28.292  30.860  21.190  1.00  0.00     0.093 A 
ATOM     19  C   UNL A   1      28.369  32.705  22.460  1.00  0.00     0.020 A 
ATOM     20  C   UNL A   1      28.210  32.232  21.139  1.00  0.00     0.020 A 
ENDBRANCH  13  16
ENDBRANCH   5   8
ENDBRANCH   3   4
ENDBRANCH   2   3
ENDBRANCH   1   2
BRANCH   1  21
ATOM     21  C   UNL A   1      34.758  29.283  26.808  1.00  0.00     0.116 C 
BRANCH  21  22
ATOM     22  N   UNL A   1      35.227  30.597  27.221  1.00  0.00    -0.352 N 
ATOM     23  C   UNL A   1      36.269  30.929  28.054  1.00  0.00     0.251 C 
ATOM     24  H   UNL A   1      34.726  31.359  26.851  1.00  0.00     0.163 HD
ATOM     25  O   UNL A   1      36.305  32.062  28.530  1.00  0.00    -0.269 OA
BRANCH  23  26
ATOM     26  C   UNL A   1      37.329  29.957  28.406  1.00  0.00     0.039 A 
ATOM     27  C   UNL A   1      38.421  29.830  27.534  1.00  0.00     0.014 A 
ATOM     28  C   UNL A   1      37.228  29.121  29.522  1.00  0.00     0.014 A 
ATOM     29  C   UNL A   1      39.440  28.923  27.817  1.00  0.00     0.010 A 
ATOM     30  C   UNL A   1      38.250  28.217  29.815  1.00  0.00     0.010 A 
ATOM     31  C   UNL A   1      39.372  28.141  28.978  1.00  0.00    -0.014 A 
BRANCH  31  32
ATOM     32  C   UNL A   1      40.603  27.449  29.442  1.00  0.00     0.031 A 
ATOM     33  C   UNL A   1      40.814  26.117  28.663  1.00  0.00     0.074 A 
ATOM     34  C   UNL A   1      41.331  28.051  30.438  1.00  0.00     0.049 A 
ATOM     35  N   UNL A   1      41.515  25.066  28.961  1.00  0.00    -0.248 NA
ATOM     36  C   UNL A   1      40.086  25.898  27.376  1.00  0.00     0.031 C 
ATOM     37  C   UNL A   1      41.012  29.368  31.039  1.00  0.00     0.029 A 
ATOM     38  N   UNL A   1      42.473  27.712  31.146  1.00  0.00    -0.354 N 
ATOM     39  C   UNL A   1      41.522  24.211  27.827  1.00  0.00     0.074 A 
ATOM     40  C   UNL A   1      40.522  24.714  26.942  1.00  0.00     0.031 C 
ATOM     41  C   UNL A   1      41.861  29.665  32.050  1.00  0.00     0.029 A 
ATOM     42  C   UNL A   1      42.838  28.604  32.199  1.00  0.00     0.049 A 
ATOM     43  H   UNL A   1      42.999  26.906  30.935  1.00  0.00     0.167 HD
ATOM     44  C   UNL A   1      42.460  23.234  27.630  1.00  0.00     0.037 A 
ATOM     45  C   UNL A   1      43.841  28.487  33.132  1.00  0.00     0.037 A 
ATOM     46  C   UNL A   1      43.327  23.189  28.755  1.00  0.00     0.049 A 
ATOM     47  C   UNL A   1      44.666  27.376  32.650  1.00  0.00     0.074 A 
ATOM     48  C   UNL A   1      43.132  22.771  30.044  1.00  0.00     0.029 A 
ATOM     49  N   UNL A   1      44.458  23.964  28.684  1.00  0.00    -0.354 N 
ATOM     50  N   UNL A   1      45.455  27.446  31.622  1.00  0.00    -0.248 NA
ATOM     51  C   UNL A   1      44.576  26.076  33.326  1.00  0.00     0.031 C 
ATOM     52  C   UNL A   1      43.861  23.714  30.789  1.00  0.00     0.029 A 
ATOM     53  C   UNL A   1      44.662  24.482  29.934  1.00  0.00     0.049 A 
ATOM     54  H   UNL A   1      45.016  24.117  27.887  1.00  0.00     0.167 HD
ATOM     55  C   UNL A   1      45.652  26.124  31.324  1.00  0.00     0.074 A 
ATOM     56  C   UNL A   1      45.393  25.380  32.539  1.00  0.00     0.031 C 
ATOM     57  C   UNL A   1      45.421  25.702  30.055  1.00  0.00     0.037 A 
BRANCH  44  58
ATOM     58  C   UNL A   1      42.901  22.438  26.423  1.00  0.00     0.058 A 
ATOM     59  C   UNL A   1      42.525  21.069  26.369  1.00  0.00     0.135 A 
ATOM     60  C   UNL A   1      43.948  22.819  25.575  1.00  0.00     0.135 A 
ATOM     61  F   UNL A   1      41.476  20.613  27.077  1.00  0.00    -0.206 F 
ATOM     62  C   UNL A   1      43.258  20.115  25.674  1.00  0.00     0.059 A 
ATOM     63  C   UNL A   1      44.669  21.881  24.825  1.00  0.00     0.059 A 
ATOM     64  F   UNL A   1      44.357  24.094  25.510  1.00  0.00    -0.206 F 
ATOM     65  C   UNL A   1      44.359  20.526  24.937  1.00  0.00     0.060 A 
BRANCH  65  66
ATOM     66  S   UNL A   1      45.393  19.259  24.172  1.00  0.00     0.124 S 
ATOM     67  O   UNL A   1      45.145  18.112  25.039  1.00  0.00    -0.237 OA
ATOM     68  O   UNL A   1      44.829  19.168  22.828  1.00  0.00    -0.237 OA
ATOM     69  O   UNL A   1      46.732  19.834  24.243  1.00  0.00    -0.744 OA
ENDBRANCH  65  66
ENDBRANCH  44  58
BRANCH  45  70
ATOM     70  C   UNL A   1      44.296  29.083  34.459  1.00  0.00     0.058 A 
ATOM     71  C   UNL A   1      45.309  30.032  34.640  1.00  0.00     0.135 A 
ATOM     72  C   UNL A   1      43.520  28.839  35.636  1.00  0.00     0.135 A 
ATOM     73  F   UNL A   1      46.210  30.267  33.678  1.00  0.00    -0.206 F 
ATOM     74  C   UNL A   1      45.415  30.805  35.817  1.00  0.00     0.059 A 
ATOM     75  C   UNL A   1      43.561  29.631  36.780  1.00  0.00     0.059 A 
ATOM     76  F   UNL A   1      42.632  27.838  35.705  1.00  0.00    -0.206 F 
ATOM     77  C   UNL A   1      44.488  30.648  36.849  1.00  0.00     0.060 A 
BRANCH  77  78
ATOM     78  S   UNL A   1      44.369  31.853  38.193  1.00  0.00     0.124 S 
ATOM     79  O   UNL A   1      43.929  33.053  37.492  1.00  0.00    -0.237 OA
ATOM     80  O   UNL A   1      43.387  31.238  39.081  1.00  0.00    -0.237 OA
ATOM     81  O   UNL A   1      45.730  31.895  38.724  1.00  0.00    -0.744 OA
ENDBRANCH  77  78
ENDBRANCH  45  70
BRANCH  57  82
ATOM     82  C   UNL A   1      45.642  26.755  28.978  1.00  0.00     0.058 A 
ATOM     83  C   UNL A   1      46.925  27.299  28.792  1.00  0.00     0.135 A 
ATOM     84  C   UNL A   1      44.624  27.311  28.181  1.00  0.00     0.135 A 
ATOM     85  F   UNL A   1      47.961  26.825  29.504  1.00  0.00    -0.206 F 
ATOM     86  C   UNL A   1      47.183  28.326  27.880  1.00  0.00     0.059 A 
ATOM     87  C   UNL A   1      44.854  28.336  27.254  1.00  0.00     0.059 A 
ATOM     88  F   UNL A   1      43.369  26.875  28.280  1.00  0.00    -0.206 F 
ATOM     89  C   UNL A   1      46.141  28.841  27.110  1.00  0.00     0.060 A 
BRANCH  89  90
ATOM     90  S   UNL A   1      46.499  30.146  25.912  1.00  0.00     0.124 S 
ATOM     91  O   UNL A   1      45.352  31.035  26.063  1.00  0.00    -0.237 OA
ATOM     92  O   UNL A   1      47.771  30.669  26.402  1.00  0.00    -0.237 OA
ATOM     93  O   UNL A   1      46.567  29.436  24.637  1.00  0.00    -0.744 OA
ENDBRANCH  89  90
ENDBRANCH  57  82
ENDBRANCH  31  32
ENDBRANCH  23  26
ENDBRANCH  21  22
ENDBRANCH   1  21
TORSDOF 16
ENDMDL
MODEL 2
REMARK VINA RESULT:     -12.2      1.970      3.533
REMARK SMILES CCc1[nH]nc(-n2cccc2)c1C(=O)NCCCCNC(=O)c1ccc(-c2c3nc(c(-c4c(F)cc(S(=O)(=O)[O-])cc4F)c4ccc([nH]4)c(-c4c(F)cc(S(=O)(=O)[O-])cc4F)c4nc(c(-c5c(F)cc(S(=O)(=O)[O-])cc5F)c5ccc2[nH]5)C=C4)C=C3)cc1
REMARK SMILES IDX 18 1 17 2 16 3 15 4 13 5 14 6 12 8 3 9 4 10 5 11 6 13 2 14
REMARK SMILES IDX 1 15 7 16 8 17 11 18 9 19 10 20 19 21 20 22 21 23 22 25
REMARK SMILES IDX 23 26 24 27 88 28 25 29 87 30 26 31 27 32 28 33 81 34 29 35
REMARK SMILES IDX 86 36 80 37 82 38 30 39 85 40 79 41 78 42 31 44 65 45 44 46
REMARK SMILES IDX 64 47 45 48 48 49 63 50 83 51 46 52 47 53 62 55 84 56 49 57
REMARK SMILES IDX 32 58 33 59 42 60 34 61 35 62 41 63 43 64 36 65 37 66 38 67
REMARK SMILES IDX 39 68 40 69 66 70 67 71 76 72 68 73 69 74 75 75 77 76 70 77
REMARK SMILES IDX 71 78 72 79 73 80 74 81 50 82 51 83 60 84 52 85 53 86 59 87
REMARK SMILES IDX 61 88 54 89 55 90 56 91 57 92 58 93
REMARK H PARENT 15 7 4 12 20 24 82 43 48 54
REMARK Flexibility Score: inf
ROOT
ATOM      1  C   UNL A   1      33.395  28.861  27.486  1.00  0.00     0.023 C 
ENDROOT
BRANCH   1   2
ATOM      2  C   UNL A   1      32.404  28.018  26.681  1.00  0.00     0.023 C 
BRANCH   2   3
ATOM      3  C   UNL A   1      32.810  26.583  26.375  1.00  0.00     0.116 C 
BRANCH   3   4
ATOM      4  N   UNL A   1      32.005  25.560  26.976  1.00  0.00    -0.352 N 
ATOM      5  C   UNL A   1      31.286  24.524  26.423  1.00  0.00     0.256 C 
ATOM      6  O   UNL A   1      30.757  23.783  27.249  1.00  0.00    -0.269 OA
ATOM      7  H   UNL A   1      31.959  25.605  27.958  1.00  0.00     0.163 HD
BRANCH   5   8
ATOM      8  C   UNL A   1      31.105  24.292  24.978  1.00  0.00     0.105 A 
ATOM      9  C   UNL A   1      30.364  24.942  23.978  1.00  0.00     0.050 A 
ATOM     10  N   UNL A   1      30.698  24.336  22.792  1.00  0.00    -0.280 N 
ATOM     11  N   UNL A   1      31.676  23.444  22.886  1.00  0.00    -0.156 NA
ATOM     12  H   UNL A   1      30.249  24.545  21.943  1.00  0.00     0.190 HD
ATOM     13  C   UNL A   1      31.913  23.384  24.201  1.00  0.00     0.171 A 
BRANCH   9  14
ATOM     14  C   UNL A   1      29.454  26.124  23.876  1.00  0.00     0.053 C 
ATOM     15  C   UNL A   1      30.215  27.448  23.834  1.00  0.00     0.011 C 
ENDBRANCH   9  14
BRANCH  13  16
ATOM     16  N   UNL A   1      32.935  22.471  24.612  1.00  0.00    -0.307 N 
ATOM     17  C   UNL A   1      34.296  22.690  24.676  1.00  0.00     0.093 A 
ATOM     18  C   UNL A   1      32.705  21.188  25.089  1.00  0.00     0.093 A 
ATOM     19  C   UNL A   1      34.918  21.542  25.123  1.00  0.00     0.020 A 
ATOM     20  C   UNL A   1      33.910  20.579  25.351  1.00  0.00     0.020 A 
ENDBRANCH  13  16
ENDBRANCH   5   8
ENDBRANCH   3   4
ENDBRANCH   2   3
ENDBRANCH   1   2
BRANCH   1  21
ATOM     21  C   UNL A   1      34.703  29.209  26.770  1.00  0.00     0.116 C 
BRANCH  21  22
ATOM     22  N   UNL A   1      35.193  30.530  27.134  1.00  0.00    -0.352 N 
ATOM     23  C   UNL A   1      36.250  30.877  27.941  1.00  0.00     0.251 C 
ATOM     24  H   UNL A   1      34.694  31.285  26.747  1.00  0.00     0.163 HD
ATOM     25  O   UNL A   1      36.306  32.024  28.379  1.00  0.00    -0.269 OA
BRANCH  23  26
ATOM     26  C   UNL A   1      37.305  29.904  28.308  1.00  0.00     0.039 A 
ATOM     27  C   UNL A   1      38.429  29.806  27.475  1.00  0.00     0.014 A 
ATOM     28  C   UNL A   1      37.169  29.040  29.400  1.00  0.00     0.014 A 
ATOM     29  C   UNL A   1      39.445  28.900  27.775  1.00  0.00     0.010 A 
ATOM     30  C   UNL A   1      38.187  28.137  29.709  1.00  0.00     0.010 A 
ATOM     31  C   UNL A   1      39.340  28.090  28.913  1.00  0.00    -0.014 A 
BRANCH  31  32
ATOM     32  C   UNL A   1      40.558  27.396  29.407  1.00  0.00     0.031 A 
ATOM     33  C   UNL A   1      40.783  26.062  28.636  1.00  0.00     0.074 A 
ATOM     34  C   UNL A   1      41.265  27.999  30.418  1.00  0.00     0.049 A 
ATOM     35  N   UNL A   1      41.475  25.010  28.952  1.00  0.00    -0.248 NA
ATOM     36  C   UNL A   1      40.085  25.842  27.333  1.00  0.00     0.031 C 
ATOM     37  C   UNL A   1      40.936  29.318  31.008  1.00  0.00     0.029 A 
ATOM     38  N   UNL A   1      42.390  27.659  31.151  1.00  0.00    -0.354 N 
ATOM     39  C   UNL A   1      41.505  24.152  27.820  1.00  0.00     0.074 A 
ATOM     40  C   UNL A   1      40.528  24.656  26.911  1.00  0.00     0.031 C 
ATOM     41  C   UNL A   1      41.762  29.615  32.038  1.00  0.00     0.029 A 
ATOM     42  C   UNL A   1      42.734  28.553  32.211  1.00  0.00     0.049 A 
ATOM     43  H   UNL A   1      42.919  26.851  30.955  1.00  0.00     0.167 HD
ATOM     44  C   UNL A   1      42.445  23.173  27.646  1.00  0.00     0.037 A 
ATOM     45  C   UNL A   1      43.715  28.435  33.166  1.00  0.00     0.037 A 
ATOM     46  C   UNL A   1      43.287  23.128  28.790  1.00  0.00     0.049 A 
ATOM     47  C   UNL A   1      44.548  27.321  32.706  1.00  0.00     0.074 A 
ATOM     48  C   UNL A   1      43.062  22.714  30.076  1.00  0.00     0.029 A 
ATOM     49  N   UNL A   1      44.421  23.901  28.743  1.00  0.00    -0.354 N 
ATOM     50  N   UNL A   1      45.360  27.387  31.695  1.00  0.00    -0.248 NA
ATOM     51  C   UNL A   1      44.440  26.023  33.382  1.00  0.00     0.031 C 
ATOM     52  C   UNL A   1      43.776  23.657  30.835  1.00  0.00     0.029 A 
ATOM     53  C   UNL A   1      44.598  24.421  29.997  1.00  0.00     0.049 A 
ATOM     54  H   UNL A   1      44.998  24.050  27.959  1.00  0.00     0.167 HD
ATOM     55  C   UNL A   1      45.560  26.064  31.405  1.00  0.00     0.074 A 
ATOM     56  C   UNL A   1      45.272  25.323  32.616  1.00  0.00     0.031 C 
ATOM     57  C   UNL A   1      45.357  25.640  30.132  1.00  0.00     0.037 A 
BRANCH  44  58
ATOM     58  C   UNL A   1      42.912  22.373  26.451  1.00  0.00     0.058 A 
ATOM     59  C   UNL A   1      42.526  21.007  26.387  1.00  0.00     0.135 A 
ATOM     60  C   UNL A   1      43.984  22.746  25.631  1.00  0.00     0.135 A 
ATOM     61  F   UNL A   1      41.455  20.561  27.067  1.00  0.00    -0.206 F 
ATOM     62  C   UNL A   1      43.269  20.047  25.711  1.00  0.00     0.059 A 
ATOM     63  C   UNL A   1      44.717  21.802  24.900  1.00  0.00     0.059 A 
ATOM     64  F   UNL A   1      44.405  24.017  25.577  1.00  0.00    -0.206 F 
ATOM     65  C   UNL A   1      44.393  20.449  25.004  1.00  0.00     0.060 A 
BRANCH  65  66
ATOM     66  S   UNL A   1      45.436  19.174  24.267  1.00  0.00     0.124 S 
ATOM     67  O   UNL A   1      45.280  18.078  25.217  1.00  0.00    -0.237 OA
ATOM     68  O   UNL A   1      44.808  18.974  22.963  1.00  0.00    -0.237 OA
ATOM     69  O   UNL A   1      46.753  19.801  24.228  1.00  0.00    -0.744 OA
ENDBRANCH  65  66
ENDBRANCH  44  58
BRANCH  45  70
ATOM     70  C   UNL A   1      44.141  29.033  34.502  1.00  0.00     0.058 A 
ATOM     71  C   UNL A   1      43.563  28.775  35.750  1.00  0.00     0.135 A 
ATOM     72  C   UNL A   1      45.363  29.775  34.577  1.00  0.00     0.135 A 
ATOM     73  F   UNL A   1      42.350  28.217  35.842  1.00  0.00    -0.206 F 
ATOM     74  C   UNL A   1      44.232  29.054  36.962  1.00  0.00     0.059 A 
ATOM     75  C   UNL A   1      46.072  30.001  35.753  1.00  0.00     0.059 A 
ATOM     76  F   UNL A   1      45.960  30.270  33.484  1.00  0.00    -0.206 F 
ATOM     77  C   UNL A   1      45.519  29.597  36.948  1.00  0.00     0.060 A 
BRANCH  77  78
ATOM     78  S   UNL A   1      46.539  29.626  38.441  1.00  0.00     0.124 S 
ATOM     79  O   UNL A   1      47.405  28.470  38.246  1.00  0.00    -0.237 OA
ATOM     80  O   UNL A   1      47.187  30.930  38.354  1.00  0.00    -0.237 OA
ATOM     81  O   UNL A   1      45.558  29.503  39.518  1.00  0.00    -0.744 OA
ENDBRANCH  77  78
ENDBRANCH  45  70
BRANCH  57  82
ATOM     82  C   UNL A   1      45.605  26.689  29.058  1.00  0.00     0.058 A 
ATOM     83  C   UNL A   1      46.891  27.237  28.906  1.00  0.00     0.135 A 
ATOM     84  C   UNL A   1      44.608  27.240  28.231  1.00  0.00     0.135 A 
ATOM     85  F   UNL A   1      47.908  26.768  29.649  1.00  0.00    -0.206 F 
ATOM     86  C   UNL A   1      47.170  28.262  27.998  1.00  0.00     0.059 A 
ATOM     87  C   UNL A   1      44.861  28.262  27.308  1.00  0.00     0.059 A 
ATOM     88  F   UNL A   1      43.352  26.800  28.297  1.00  0.00    -0.206 F 
ATOM     89  C   UNL A   1      46.149  28.770  27.198  1.00  0.00     0.060 A 
BRANCH  89  90
ATOM     90  S   UNL A   1      46.537  30.073  26.005  1.00  0.00     0.124 S 
ATOM     91  O   UNL A   1      47.807  30.589  26.505  1.00  0.00    -0.237 OA
ATOM     92  O   UNL A   1      46.608  29.328  24.752  1.00  0.00    -0.237 OA
ATOM     93  O   UNL A   1      45.408  30.994  26.120  1.00  0.00    -0.744 OA
ENDBRANCH  89  90
ENDBRANCH  57  82
ENDBRANCH  31  32
ENDBRANCH  23  26
ENDBRANCH  21  22
ENDBRANCH   1  21
TORSDOF 16
ENDMDL
MODEL 3
REMARK VINA RESULT:     -11.9      2.351      3.940
REMARK SMILES CCc1[nH]nc(-n2cccc2)c1C(=O)NCCCCNC(=O)c1ccc(-c2c3nc(c(-c4c(F)cc(S(=O)(=O)[O-])cc4F)c4ccc([nH]4)c(-c4c(F)cc(S(=O)(=O)[O-])cc4F)c4nc(c(-c5c(F)cc(S(=O)(=O)[O-])cc5F)c5ccc2[nH]5)C=C4)C=C3)cc1
REMARK SMILES IDX 18 1 17 2 16 3 15 4 13 5 14 6 12 8 3 9 4 10 5 11 6 13 2 14
REMARK SMILES IDX 1 15 7 16 8 17 11 18 9 19 10 20 19 21 20 22 21 23 22 25
REMARK SMILES IDX 23 26 24 27 88 28 25 29 87 30 26 31 27 32 28 33 81 34 29 35
REMARK SMILES IDX 86 36 80 37 82 38 30 39 85 40 79 41 78 42 31 44 65 45 44 46
REMARK SMILES IDX 64 47 45 48 48 49 63 50 83 51 46 52 47 53 62 55 84 56 49 57
REMARK SMILES IDX 32 58 33 59 42 60 34 61 35 62 41 63 43 64 36 65 37 66 38 67
REMARK SMILES IDX 39 68 40 69 66 70 67 71 76 72 68 73 69 74 75 75 77 76 70 77
REMARK SMILES IDX 71 78 72 79 73 80 74 81 50 82 51 83 60 84 52 85 53 86 59 87
REMARK SMILES IDX 61 88 54 89 55 90 56 91 57 92 58 93
REMARK H PARENT 15 7 4 12 20 24 82 43 48 54
REMARK Flexibility Score: inf
ROOT
ATOM      1  C   UNL A   1      33.568  28.999  25.806  1.00  0.00     0.023 C 
ENDROOT
BRANCH   1   2
ATOM      2  C   UNL A   1      32.484  27.937  26.006  1.00  0.00     0.023 C 
BRANCH   2   3
ATOM      3  C   UNL A   1      32.951  26.497  26.157  1.00  0.00     0.116 C 
BRANCH   3   4
ATOM      4  N   UNL A   1      33.533  25.898  24.992  1.00  0.00    -0.352 N 
ATOM      5  C   UNL A   1      33.719  24.580  24.641  1.00  0.00     0.256 C 
ATOM      6  O   UNL A   1      34.199  24.422  23.520  1.00  0.00    -0.269 OA
ATOM      7  H   UNL A   1      33.857  26.544  24.323  1.00  0.00     0.163 HD
BRANCH   5   8
ATOM      8  C   UNL A   1      33.420  23.421  25.502  1.00  0.00     0.105 A 
ATOM      9  C   UNL A   1      32.229  22.785  25.891  1.00  0.00     0.050 A 
ATOM     10  N   UNL A   1      32.600  21.674  26.607  1.00  0.00    -0.280 N 
ATOM     11  N   UNL A   1      33.906  21.438  26.621  1.00  0.00    -0.156 NA
ATOM     12  H   UNL A   1      31.951  21.100  27.072  1.00  0.00     0.190 HD
ATOM     13  C   UNL A   1      34.417  22.497  25.984  1.00  0.00     0.171 A 
BRANCH   9  14
ATOM     14  C   UNL A   1      30.764  22.945  25.639  1.00  0.00     0.053 C 
ATOM     15  C   UNL A   1      29.978  23.238  26.915  1.00  0.00     0.011 C 
ENDBRANCH   9  14
BRANCH  13  16
ATOM     16  N   UNL A   1      35.842  22.523  25.855  1.00  0.00    -0.307 N 
ATOM     17  C   UNL A   1      36.692  21.468  25.594  1.00  0.00     0.093 A 
ATOM     18  C   UNL A   1      36.621  23.670  25.916  1.00  0.00     0.093 A 
ATOM     19  C   UNL A   1      37.990  21.933  25.556  1.00  0.00     0.020 A 
ATOM     20  C   UNL A   1      37.947  23.323  25.796  1.00  0.00     0.020 A 
ENDBRANCH  13  16
ENDBRANCH   5   8
ENDBRANCH   3   4
ENDBRANCH   2   3
ENDBRANCH   1   2
BRANCH   1  21
ATOM     21  C   UNL A   1      34.687  29.007  26.852  1.00  0.00     0.116 C 
BRANCH  21  22
ATOM     22  N   UNL A   1      35.142  30.355  27.157  1.00  0.00    -0.352 N 
ATOM     23  C   UNL A   1      36.199  30.765  27.934  1.00  0.00     0.251 C 
ATOM     24  H   UNL A   1      34.616  31.080  26.748  1.00  0.00     0.163 HD
ATOM     25  O   UNL A   1      36.227  31.930  28.326  1.00  0.00    -0.269 OA
BRANCH  23  26
ATOM     26  C   UNL A   1      37.287  29.839  28.324  1.00  0.00     0.039 A 
ATOM     27  C   UNL A   1      38.389  29.718  27.464  1.00  0.00     0.014 A 
ATOM     28  C   UNL A   1      37.204  29.036  29.467  1.00  0.00     0.014 A 
ATOM     29  C   UNL A   1      39.434  28.853  27.783  1.00  0.00     0.010 A 
ATOM     30  C   UNL A   1      38.252  28.175  29.795  1.00  0.00     0.010 A 
ATOM     31  C   UNL A   1      39.382  28.108  28.968  1.00  0.00    -0.014 A 
BRANCH  31  32
ATOM     32  C   UNL A   1      40.630  27.471  29.464  1.00  0.00     0.031 A 
ATOM     33  C   UNL A   1      40.916  26.147  28.694  1.00  0.00     0.074 A 
ATOM     34  C   UNL A   1      41.309  28.106  30.473  1.00  0.00     0.049 A 
ATOM     35  N   UNL A   1      41.655  25.128  29.012  1.00  0.00    -0.248 NA
ATOM     36  C   UNL A   1      40.228  25.894  27.391  1.00  0.00     0.031 C 
ATOM     37  C   UNL A   1      40.920  29.410  31.062  1.00  0.00     0.029 A 
ATOM     38  N   UNL A   1      42.448  27.819  31.208  1.00  0.00    -0.354 N 
ATOM     39  C   UNL A   1      41.724  24.271  27.882  1.00  0.00     0.074 A 
ATOM     40  C   UNL A   1      40.725  24.728  26.972  1.00  0.00     0.031 C 
ATOM     41  C   UNL A   1      41.732  29.746  32.091  1.00  0.00     0.029 A 
ATOM     42  C   UNL A   1      42.750  28.729  32.266  1.00  0.00     0.049 A 
ATOM     43  H   UNL A   1      43.013  27.036  31.012  1.00  0.00     0.167 HD
ATOM     44  C   UNL A   1      42.708  23.335  27.710  1.00  0.00     0.037 A 
ATOM     45  C   UNL A   1      43.736  28.658  33.222  1.00  0.00     0.037 A 
ATOM     46  C   UNL A   1      43.550  23.330  28.854  1.00  0.00     0.049 A 
ATOM     47  C   UNL A   1      44.619  27.582  32.763  1.00  0.00     0.074 A 
ATOM     48  C   UNL A   1      43.344  22.908  30.140  1.00  0.00     0.029 A 
ATOM     49  N   UNL A   1      44.648  24.153  28.806  1.00  0.00    -0.354 N 
ATOM     50  N   UNL A   1      45.427  27.683  31.753  1.00  0.00    -0.248 NA
ATOM     51  C   UNL A   1      44.569  26.281  33.441  1.00  0.00     0.031 C 
ATOM     52  C   UNL A   1      44.014  23.883  30.898  1.00  0.00     0.029 A 
ATOM     53  C   UNL A   1      44.801  24.683  30.059  1.00  0.00     0.049 A 
ATOM     54  H   UNL A   1      45.217  24.328  28.022  1.00  0.00     0.167 HD
ATOM     55  C   UNL A   1      45.688  26.370  31.464  1.00  0.00     0.074 A 
ATOM     56  C   UNL A   1      45.433  25.619  32.676  1.00  0.00     0.031 C 
ATOM     57  C   UNL A   1      45.504  25.935  30.192  1.00  0.00     0.037 A 
BRANCH  44  58
ATOM     58  C   UNL A   1      43.210  22.555  26.516  1.00  0.00     0.058 A 
ATOM     59  C   UNL A   1      42.663  21.262  26.302  1.00  0.00     0.135 A 
ATOM     60  C   UNL A   1      44.414  22.828  25.855  1.00  0.00     0.135 A 
ATOM     61  F   UNL A   1      41.468  20.925  26.818  1.00  0.00    -0.206 F 
ATOM     62  C   UNL A   1      43.353  20.253  25.641  1.00  0.00     0.059 A 
ATOM     63  C   UNL A   1      45.104  21.840  25.139  1.00  0.00     0.059 A 
ATOM     64  F   UNL A   1      44.999  24.030  25.948  1.00  0.00    -0.206 F 
ATOM     65  C   UNL A   1      44.597  20.541  25.099  1.00  0.00     0.060 A 
BRANCH  65  66
ATOM     66  S   UNL A   1      45.550  19.183  24.386  1.00  0.00     0.124 S 
ATOM     67  O   UNL A   1      44.884  18.996  23.102  1.00  0.00    -0.237 OA
ATOM     68  O   UNL A   1      46.896  19.748  24.324  1.00  0.00    -0.237 OA
ATOM     69  O   UNL A   1      45.377  18.108  25.357  1.00  0.00    -0.744 OA
ENDBRANCH  65  66
ENDBRANCH  44  58
BRANCH  45  70
ATOM     70  C   UNL A   1      44.134  29.276  34.557  1.00  0.00     0.058 A 
ATOM     71  C   UNL A   1      45.146  30.220  34.766  1.00  0.00     0.135 A 
ATOM     72  C   UNL A   1      43.302  29.063  35.701  1.00  0.00     0.135 A 
ATOM     73  F   UNL A   1      46.093  30.427  33.843  1.00  0.00    -0.206 F 
ATOM     74  C   UNL A   1      45.205  31.015  35.931  1.00  0.00     0.059 A 
ATOM     75  C   UNL A   1      43.297  29.877  36.830  1.00  0.00     0.059 A 
ATOM     76  F   UNL A   1      42.402  28.070  35.748  1.00  0.00    -0.206 F 
ATOM     77  C   UNL A   1      44.229  30.887  36.922  1.00  0.00     0.060 A 
BRANCH  77  78
ATOM     78  S   UNL A   1      44.060  32.120  38.235  1.00  0.00     0.124 S 
ATOM     79  O   UNL A   1      45.397  32.139  38.814  1.00  0.00    -0.237 OA
ATOM     80  O   UNL A   1      43.669  33.315  37.495  1.00  0.00    -0.237 OA
ATOM     81  O   UNL A   1      43.012  31.559  39.086  1.00  0.00    -0.744 OA
ENDBRANCH  77  78
ENDBRANCH  45  70
BRANCH  57  82
ATOM     82  C   UNL A   1      45.704  26.993  29.117  1.00  0.00     0.058 A 
ATOM     83  C   UNL A   1      46.965  27.595  28.961  1.00  0.00     0.135 A 
ATOM     84  C   UNL A   1      44.683  27.500  28.291  1.00  0.00     0.135 A 
ATOM     85  F   UNL A   1      48.003  27.170  29.701  1.00  0.00    -0.206 F 
ATOM     86  C   UNL A   1      47.199  28.630  28.051  1.00  0.00     0.059 A 
ATOM     87  C   UNL A   1      44.889  28.531  27.367  1.00  0.00     0.059 A 
ATOM     88  F   UNL A   1      43.446  27.007  28.361  1.00  0.00    -0.206 F 
ATOM     89  C   UNL A   1      46.154  29.094  27.253  1.00  0.00     0.060 A 
BRANCH  89  90
ATOM     90  S   UNL A   1      46.483  30.410  26.058  1.00  0.00     0.124 S 
ATOM     91  O   UNL A   1      46.486  29.690  24.789  1.00  0.00    -0.237 OA
ATOM     92  O   UNL A   1      45.351  31.306  26.272  1.00  0.00    -0.237 OA
ATOM     93  O   UNL A   1      47.782  30.936  26.473  1.00  0.00    -0.744 OA
ENDBRANCH  89  90
ENDBRANCH  57  82
ENDBRANCH  31  32
ENDBRANCH  23  26
ENDBRANCH  21  22
ENDBRANCH   1  21
TORSDOF 16
ENDMDL
