MODEL 1
REMARK VINA RESULT:     -12.1      0.000      0.000
REMARK SMILES COc1ccc2c(c1)[C@H]([NH2+][C@H]1CCC[C@H](C(=O)NCCCCNC(=O)c3ccc(-c4c5nc(c(-c6c(F)cc(S(=O)(=O)[O-])cc6F)c6ccc([nH]6)c(-c6c(F)cc(S(=O)(=O)[O-])cc6F)c6nc(c(-c7c(F)cc(S(=O)(=O)[O-])cc7F)c7ccc4[nH]7)C=C6)C=C5)cc3)C1)CC2
REMARK SMILES IDX 20 1 19 2 18 3 16 4 17 5 15 7 11 8 12 9 92 10 13 11 14 12
REMARK SMILES IDX 10 13 9 16 3 17 4 18 8 19 5 20 7 21 6 22 94 23 93 24 2 25
REMARK SMILES IDX 1 26 21 27 22 28 23 29 24 30 25 32 26 33 27 34 91 35 28 36
REMARK SMILES IDX 90 37 29 38 30 39 31 40 84 41 32 42 89 43 83 44 85 45 33 46
REMARK SMILES IDX 88 47 82 48 81 49 34 51 68 52 47 53 67 54 48 55 51 56 66 57
REMARK SMILES IDX 86 58 49 59 50 60 65 62 87 63 52 64 35 65 36 66 45 67 37 68
REMARK SMILES IDX 38 69 44 70 46 71 39 72 40 73 41 74 42 75 43 76 69 77 70 78
REMARK SMILES IDX 79 79 71 80 72 81 78 82 80 83 73 84 74 85 75 86 76 87 77 88
REMARK SMILES IDX 53 89 54 90 63 91 55 92 56 93 62 94 64 95 57 96 58 97 59 98
REMARK SMILES IDX 60 99 61 100
REMARK H PARENT 18 6 10 14 10 15 23 31 85 50 51 61
REMARK Flexibility Score: inf
ROOT
ATOM      1  C   UNL A   1      31.373  29.017  26.179  1.00  0.00     0.023 C 
ENDROOT
BRANCH   1   2
ATOM      2  C   UNL A   1      31.908  29.549  24.848  1.00  0.00     0.116 C 
BRANCH   2   3
ATOM      3  N   UNL A   1      30.923  29.560  23.789  1.00  0.00    -0.356 N 
ATOM      4  C   UNL A   1      30.763  28.737  22.715  1.00  0.00     0.223 C 
ATOM      5  O   UNL A   1      29.762  28.907  22.013  1.00  0.00    -0.275 OA
ATOM      6  H   UNL A   1      30.257  30.282  23.855  1.00  0.00     0.163 HD
BRANCH   4   7
ATOM      7  C   UNL A   1      31.762  27.626  22.371  1.00  0.00     0.084 C 
ATOM      8  C   UNL A   1      32.625  25.403  23.455  1.00  0.00     0.183 C 
ATOM      9  C   UNL A   1      33.675  26.247  24.175  1.00  0.00     0.065 C 
ATOM     10  C   UNL A   1      31.434  26.310  23.089  1.00  0.00     0.078 C 
ATOM     11  C   UNL A   1      34.151  27.504  23.448  1.00  0.00     0.007 C 
ATOM     12  C   UNL A   1      33.210  28.123  22.415  1.00  0.00     0.014 C 
BRANCH   8  13
ATOM     13  N   UNL A   1      33.084  24.461  22.414  1.00  0.00    -0.338 N 
ATOM     14  H   UNL A   1      32.468  24.577  21.609  1.00  0.00     0.347 HD
ATOM     15  H   UNL A   1      34.063  24.706  22.269  1.00  0.00     0.347 HD
BRANCH  13  16
ATOM     16  C   UNL A   1      33.113  23.049  22.730  1.00  0.00     0.214 C 
ATOM     17  C   UNL A   1      36.307  22.216  24.675  1.00  0.00     0.119 A 
ATOM     18  C   UNL A   1      35.925  20.947  25.120  1.00  0.00     0.047 A 
ATOM     19  C   UNL A   1      35.406  23.054  24.023  1.00  0.00     0.056 A 
ATOM     20  C   UNL A   1      34.613  20.506  24.923  1.00  0.00     0.008 A 
ATOM     21  C   UNL A   1      34.156  22.557  23.701  1.00  0.00     0.016 A 
ATOM     22  C   UNL A   1      33.737  21.328  24.232  1.00  0.00    -0.038 A 
ATOM     23  C   UNL A   1      32.293  21.085  23.893  1.00  0.00     0.042 C 
ATOM     24  C   UNL A   1      31.860  22.497  23.432  1.00  0.00     0.075 C 
BRANCH  17  25
ATOM     25  O   UNL A   1      37.587  22.670  24.851  1.00  0.00    -0.497 OA
ATOM     26  C   UNL A   1      38.349  21.716  25.598  1.00  0.00     0.278 C 
ENDBRANCH  17  25
ENDBRANCH  13  16
ENDBRANCH   8  13
ENDBRANCH   4   7
ENDBRANCH   2   3
ENDBRANCH   1   2
BRANCH   1  27
ATOM     27  C   UNL A   1      32.315  28.083  26.932  1.00  0.00     0.023 C 
BRANCH  27  28
ATOM     28  C   UNL A   1      33.677  28.677  27.250  1.00  0.00     0.116 C 
BRANCH  28  29
ATOM     29  N   UNL A   1      33.610  30.036  27.768  1.00  0.00    -0.352 N 
ATOM     30  C   UNL A   1      34.615  30.739  28.396  1.00  0.00     0.251 C 
ATOM     31  H   UNL A   1      32.751  30.505  27.656  1.00  0.00     0.163 HD
ATOM     32  O   UNL A   1      34.410  31.848  28.868  1.00  0.00    -0.269 OA
BRANCH  30  33
ATOM     33  C   UNL A   1      35.935  30.090  28.519  1.00  0.00     0.039 A 
ATOM     34  C   UNL A   1      36.825  30.153  27.444  1.00  0.00     0.014 A 
ATOM     35  C   UNL A   1      36.323  29.537  29.741  1.00  0.00     0.014 A 
ATOM     36  C   UNL A   1      38.143  29.727  27.623  1.00  0.00     0.010 A 
ATOM     37  C   UNL A   1      37.650  29.180  29.935  1.00  0.00     0.010 A 
ATOM     38  C   UNL A   1      38.574  29.278  28.882  1.00  0.00    -0.014 A 
BRANCH  38  39
ATOM     39  C   UNL A   1      39.985  28.893  29.139  1.00  0.00     0.031 A 
ATOM     40  C   UNL A   1      40.948  29.935  29.634  1.00  0.00     0.074 A 
ATOM     41  C   UNL A   1      40.419  27.659  28.813  1.00  0.00     0.049 A 
ATOM     42  N   UNL A   1      42.250  29.876  29.731  1.00  0.00    -0.248 NA
ATOM     43  C   UNL A   1      40.373  31.232  30.034  1.00  0.00     0.031 C 
ATOM     44  C   UNL A   1      39.589  26.578  28.276  1.00  0.00     0.029 A 
ATOM     45  N   UNL A   1      41.679  27.114  28.859  1.00  0.00    -0.354 N 
ATOM     46  C   UNL A   1      42.653  31.137  30.156  1.00  0.00     0.074 A 
ATOM     47  C   UNL A   1      41.462  31.948  30.276  1.00  0.00     0.031 C 
ATOM     48  C   UNL A   1      40.361  25.503  28.041  1.00  0.00     0.029 A 
ATOM     49  C   UNL A   1      41.744  25.829  28.372  1.00  0.00     0.049 A 
ATOM     50  H   UNL A   1      42.462  27.599  29.206  1.00  0.00     0.167 HD
ATOM     51  C   UNL A   1      43.903  31.572  30.432  1.00  0.00     0.037 A 
ATOM     52  C   UNL A   1      42.805  25.015  28.195  1.00  0.00     0.037 A 
ATOM     53  C   UNL A   1      45.073  30.738  30.382  1.00  0.00     0.049 A 
ATOM     54  C   UNL A   1      44.179  25.509  28.568  1.00  0.00     0.074 A 
ATOM     55  C   UNL A   1      46.372  31.060  30.735  1.00  0.00     0.029 A 
ATOM     56  N   UNL A   1      45.084  29.416  29.967  1.00  0.00    -0.354 N 
ATOM     57  N   UNL A   1      44.532  26.684  29.029  1.00  0.00    -0.248 NA
ATOM     58  C   UNL A   1      45.296  24.568  28.400  1.00  0.00     0.031 C 
ATOM     59  C   UNL A   1      47.174  29.937  30.511  1.00  0.00     0.029 A 
ATOM     60  C   UNL A   1      46.368  28.909  30.049  1.00  0.00     0.049 A 
ATOM     61  H   UNL A   1      44.296  28.913  29.659  1.00  0.00     0.167 HD
ATOM     62  C   UNL A   1      45.906  26.612  29.237  1.00  0.00     0.074 A 
ATOM     63  C   UNL A   1      46.320  25.279  28.855  1.00  0.00     0.031 C 
ATOM     64  C   UNL A   1      46.749  27.564  29.702  1.00  0.00     0.037 A 
BRANCH  51  65
ATOM     65  C   UNL A   1      44.079  33.008  30.831  1.00  0.00     0.058 A 
ATOM     66  C   UNL A   1      44.157  34.031  29.875  1.00  0.00     0.135 A 
ATOM     67  C   UNL A   1      44.096  33.371  32.187  1.00  0.00     0.135 A 
ATOM     68  F   UNL A   1      44.165  33.735  28.566  1.00  0.00    -0.206 F 
ATOM     69  C   UNL A   1      44.254  35.367  30.250  1.00  0.00     0.059 A 
ATOM     70  C   UNL A   1      44.170  34.702  32.585  1.00  0.00     0.059 A 
ATOM     71  F   UNL A   1      44.029  32.428  33.140  1.00  0.00    -0.206 F 
ATOM     72  C   UNL A   1      44.256  35.692  31.607  1.00  0.00     0.060 A 
BRANCH  72  73
ATOM     73  S   UNL A   1      44.339  37.434  32.077  1.00  0.00     0.124 S 
ATOM     74  O   UNL A   1      43.987  38.090  30.822  1.00  0.00    -0.237 OA
ATOM     75  O   UNL A   1      43.340  37.520  33.138  1.00  0.00    -0.237 OA
ATOM     76  O   UNL A   1      45.723  37.603  32.508  1.00  0.00    -0.744 OA
ENDBRANCH  72  73
ENDBRANCH  51  65
BRANCH  52  77
ATOM     77  C   UNL A   1      42.623  23.648  27.639  1.00  0.00     0.058 A 
ATOM     78  C   UNL A   1      42.464  22.542  28.487  1.00  0.00     0.135 A 
ATOM     79  C   UNL A   1      42.639  23.414  26.256  1.00  0.00     0.135 A 
ATOM     80  F   UNL A   1      42.448  22.716  29.818  1.00  0.00    -0.206 F 
ATOM     81  C   UNL A   1      42.363  21.248  27.988  1.00  0.00     0.059 A 
ATOM     82  C   UNL A   1      42.515  22.130  25.731  1.00  0.00     0.059 A 
ATOM     83  F   UNL A   1      42.767  24.441  25.401  1.00  0.00    -0.206 F 
ATOM     84  C   UNL A   1      42.397  21.052  26.607  1.00  0.00     0.060 A 
BRANCH  84  85
ATOM     85  S   UNL A   1      42.258  19.370  25.962  1.00  0.00     0.124 S 
ATOM     86  O   UNL A   1      40.821  19.264  25.734  1.00  0.00    -0.237 OA
ATOM     87  O   UNL A   1      43.091  19.427  24.765  1.00  0.00    -0.237 OA
ATOM     88  O   UNL A   1      42.790  18.552  27.047  1.00  0.00    -0.744 OA
ENDBRANCH  84  85
ENDBRANCH  52  77
BRANCH  64  89
ATOM     89  C   UNL A   1      48.191  27.192  29.888  1.00  0.00     0.058 A 
ATOM     90  C   UNL A   1      49.147  27.437  28.892  1.00  0.00     0.135 A 
ATOM     91  C   UNL A   1      48.632  26.673  31.116  1.00  0.00     0.135 A 
ATOM     92  F   UNL A   1      48.771  27.927  27.700  1.00  0.00    -0.206 F 
ATOM     93  C   UNL A   1      50.496  27.178  29.107  1.00  0.00     0.059 A 
ATOM     94  C   UNL A   1      49.978  26.426  31.359  1.00  0.00     0.059 A 
ATOM     95  F   UNL A   1      47.754  26.431  32.102  1.00  0.00    -0.206 F 
ATOM     96  C   UNL A   1      50.903  26.678  30.346  1.00  0.00     0.060 A 
BRANCH  96  97
ATOM     97  S   UNL A   1      52.664  26.414  30.640  1.00  0.00     0.124 S 
ATOM     98  O   UNL A   1      53.049  27.673  31.269  1.00  0.00    -0.237 OA
ATOM     99  O   UNL A   1      52.666  25.243  31.511  1.00  0.00    -0.237 OA
ATOM    100  O   UNL A   1      53.201  26.190  29.300  1.00  0.00    -0.744 OA
ENDBRANCH  96  97
ENDBRANCH  64  89
ENDBRANCH  38  39
ENDBRANCH  30  33
ENDBRANCH  28  29
ENDBRANCH  27  28
ENDBRANCH   1  27
TORSDOF 17
ENDMDL
MODEL 2
REMARK VINA RESULT:     -12.0      1.079      2.027
REMARK SMILES COc1ccc2c(c1)[C@H]([NH2+][C@H]1CCC[C@H](C(=O)NCCCCNC(=O)c3ccc(-c4c5nc(c(-c6c(F)cc(S(=O)(=O)[O-])cc6F)c6ccc([nH]6)c(-c6c(F)cc(S(=O)(=O)[O-])cc6F)c6nc(c(-c7c(F)cc(S(=O)(=O)[O-])cc7F)c7ccc4[nH]7)C=C6)C=C5)cc3)C1)CC2
REMARK SMILES IDX 20 1 19 2 18 3 16 4 17 5 15 7 11 8 12 9 92 10 13 11 14 12
REMARK SMILES IDX 10 13 9 16 3 17 4 18 8 19 5 20 7 21 6 22 94 23 93 24 2 25
REMARK SMILES IDX 1 26 21 27 22 28 23 29 24 30 25 32 26 33 27 34 91 35 28 36
REMARK SMILES IDX 90 37 29 38 30 39 31 40 84 41 32 42 89 43 83 44 85 45 33 46
REMARK SMILES IDX 88 47 82 48 81 49 34 51 68 52 47 53 67 54 48 55 51 56 66 57
REMARK SMILES IDX 86 58 49 59 50 60 65 62 87 63 52 64 35 65 36 66 45 67 37 68
REMARK SMILES IDX 38 69 44 70 46 71 39 72 40 73 41 74 42 75 43 76 69 77 70 78
REMARK SMILES IDX 79 79 71 80 72 81 78 82 80 83 73 84 74 85 75 86 76 87 77 88
REMARK SMILES IDX 53 89 54 90 63 91 55 92 56 93 62 94 64 95 57 96 58 97 59 98
REMARK SMILES IDX 60 99 61 100
REMARK H PARENT 18 6 10 14 10 15 23 31 85 50 51 61
REMARK Flexibility Score: inf
ROOT
ATOM      1  C   UNL A   1      31.660  28.779  25.528  1.00  0.00     0.023 C 
ENDROOT
BRANCH   1   2
ATOM      2  C   UNL A   1      32.641  28.915  24.363  1.00  0.00     0.116 C 
BRANCH   2   3
ATOM      3  N   UNL A   1      32.144  28.371  23.118  1.00  0.00    -0.356 N 
ATOM      4  C   UNL A   1      31.772  27.103  22.788  1.00  0.00     0.223 C 
ATOM      5  O   UNL A   1      31.276  26.929  21.671  1.00  0.00    -0.275 OA
ATOM      6  H   UNL A   1      32.061  29.026  22.388  1.00  0.00     0.163 HD
BRANCH   4   7
ATOM      7  C   UNL A   1      31.937  25.918  23.746  1.00  0.00     0.084 C 
ATOM      8  C   UNL A   1      33.282  23.672  23.825  1.00  0.00     0.183 C 
ATOM      9  C   UNL A   1      32.108  23.028  23.088  1.00  0.00     0.065 C 
ATOM     10  C   UNL A   1      33.270  25.186  23.538  1.00  0.00     0.078 C 
ATOM     11  C   UNL A   1      30.727  23.623  23.360  1.00  0.00     0.007 C 
ATOM     12  C   UNL A   1      30.663  25.073  23.837  1.00  0.00     0.014 C 
BRANCH   8  13
ATOM     13  N   UNL A   1      33.534  23.265  25.222  1.00  0.00    -0.338 N 
ATOM     14  H   UNL A   1      33.579  24.117  25.781  1.00  0.00     0.347 HD
ATOM     15  H   UNL A   1      32.768  22.627  25.439  1.00  0.00     0.347 HD
BRANCH  13  16
ATOM     16  C   UNL A   1      34.727  22.499  25.511  1.00  0.00     0.214 C 
ATOM     17  C   UNL A   1      34.181  18.828  24.559  1.00  0.00     0.119 A 
ATOM     18  C   UNL A   1      35.518  18.424  24.613  1.00  0.00     0.047 A 
ATOM     19  C   UNL A   1      33.827  20.170  24.678  1.00  0.00     0.056 A 
ATOM     20  C   UNL A   1      36.528  19.377  24.775  1.00  0.00     0.008 A 
ATOM     21  C   UNL A   1      34.813  21.088  24.985  1.00  0.00     0.016 A 
ATOM     22  C   UNL A   1      36.162  20.704  24.939  1.00  0.00    -0.038 A 
ATOM     23  C   UNL A   1      37.047  21.903  25.131  1.00  0.00     0.042 C 
ATOM     24  C   UNL A   1      36.034  23.052  24.915  1.00  0.00     0.075 C 
BRANCH  17  25
ATOM     25  O   UNL A   1      33.172  17.914  24.405  1.00  0.00    -0.497 OA
ATOM     26  C   UNL A   1      33.629  16.805  23.623  1.00  0.00     0.278 C 
ENDBRANCH  17  25
ENDBRANCH  13  16
ENDBRANCH   8  13
ENDBRANCH   4   7
ENDBRANCH   2   3
ENDBRANCH   1   2
BRANCH   1  27
ATOM     27  C   UNL A   1      32.192  28.021  26.740  1.00  0.00     0.023 C 
BRANCH  27  28
ATOM     28  C   UNL A   1      33.509  28.543  27.288  1.00  0.00     0.116 C 
BRANCH  28  29
ATOM     29  N   UNL A   1      33.447  29.932  27.722  1.00  0.00    -0.352 N 
ATOM     30  C   UNL A   1      34.462  30.676  28.283  1.00  0.00     0.251 C 
ATOM     31  H   UNL A   1      32.584  30.390  27.601  1.00  0.00     0.163 HD
ATOM     32  O   UNL A   1      34.262  31.811  28.690  1.00  0.00    -0.269 OA
BRANCH  30  33
ATOM     33  C   UNL A   1      35.787  30.040  28.417  1.00  0.00     0.039 A 
ATOM     34  C   UNL A   1      36.665  30.065  27.330  1.00  0.00     0.014 A 
ATOM     35  C   UNL A   1      36.192  29.538  29.656  1.00  0.00     0.014 A 
ATOM     36  C   UNL A   1      37.988  29.654  27.511  1.00  0.00     0.010 A 
ATOM     37  C   UNL A   1      37.524  29.197  29.849  1.00  0.00     0.010 A 
ATOM     38  C   UNL A   1      38.436  29.259  28.782  1.00  0.00    -0.014 A 
BRANCH  38  39
ATOM     39  C   UNL A   1      39.851  28.892  29.039  1.00  0.00     0.031 A 
ATOM     40  C   UNL A   1      40.804  29.950  29.520  1.00  0.00     0.074 A 
ATOM     41  C   UNL A   1      40.298  27.660  28.724  1.00  0.00     0.049 A 
ATOM     42  N   UNL A   1      42.107  29.907  29.614  1.00  0.00    -0.248 NA
ATOM     43  C   UNL A   1      40.215  31.244  29.910  1.00  0.00     0.031 C 
ATOM     44  C   UNL A   1      39.480  26.564  28.200  1.00  0.00     0.029 A 
ATOM     45  N   UNL A   1      41.565  27.130  28.771  1.00  0.00    -0.354 N 
ATOM     46  C   UNL A   1      42.496  31.177  30.026  1.00  0.00     0.074 A 
ATOM     47  C   UNL A   1      41.296  31.975  30.141  1.00  0.00     0.031 C 
ATOM     48  C   UNL A   1      40.264  25.496  27.973  1.00  0.00     0.029 A 
ATOM     49  C   UNL A   1      41.644  25.841  28.297  1.00  0.00     0.049 A 
ATOM     50  H   UNL A   1      42.343  27.627  29.111  1.00  0.00     0.167 HD
ATOM     51  C   UNL A   1      43.743  31.629  30.293  1.00  0.00     0.037 A 
ATOM     52  C   UNL A   1      42.713  25.038  28.124  1.00  0.00     0.037 A 
ATOM     53  C   UNL A   1      44.921  30.808  30.248  1.00  0.00     0.049 A 
ATOM     54  C   UNL A   1      44.083  25.551  28.487  1.00  0.00     0.074 A 
ATOM     55  C   UNL A   1      46.217  31.148  30.594  1.00  0.00     0.029 A 
ATOM     56  N   UNL A   1      44.947  29.482  29.845  1.00  0.00    -0.354 N 
ATOM     57  N   UNL A   1      44.424  26.735  28.936  1.00  0.00    -0.248 NA
ATOM     58  C   UNL A   1      45.210  24.622  28.325  1.00  0.00     0.031 C 
ATOM     59  C   UNL A   1      47.032  30.033  30.378  1.00  0.00     0.029 A 
ATOM     60  C   UNL A   1      46.237  28.991  29.929  1.00  0.00     0.049 A 
ATOM     61  H   UNL A   1      44.163  28.967  29.545  1.00  0.00     0.167 HD
ATOM     62  C   UNL A   1      45.799  26.681  29.141  1.00  0.00     0.074 A 
ATOM     63  C   UNL A   1      46.227  25.349  28.771  1.00  0.00     0.031 C 
ATOM     64  C   UNL A   1      46.632  27.648  29.594  1.00  0.00     0.037 A 
BRANCH  51  65
ATOM     65  C   UNL A   1      43.902  33.071  30.678  1.00  0.00     0.058 A 
ATOM     66  C   UNL A   1      43.987  33.468  32.020  1.00  0.00     0.135 A 
ATOM     67  C   UNL A   1      44.045  34.057  29.688  1.00  0.00     0.135 A 
ATOM     68  F   UNL A   1      43.837  32.567  33.003  1.00  0.00    -0.206 F 
ATOM     69  C   UNL A   1      44.200  34.797  32.370  1.00  0.00     0.059 A 
ATOM     70  C   UNL A   1      44.280  35.388  30.015  1.00  0.00     0.059 A 
ATOM     71  F   UNL A   1      43.966  33.728  28.389  1.00  0.00    -0.206 F 
ATOM     72  C   UNL A   1      44.350  35.749  31.360  1.00  0.00     0.060 A 
BRANCH  72  73
ATOM     73  S   UNL A   1      44.669  37.462  31.831  1.00  0.00     0.124 S 
ATOM     74  O   UNL A   1      45.998  37.358  32.426  1.00  0.00    -0.237 OA
ATOM     75  O   UNL A   1      44.601  38.157  30.550  1.00  0.00    -0.237 OA
ATOM     76  O   UNL A   1      43.586  37.765  32.763  1.00  0.00    -0.744 OA
ENDBRANCH  72  73
ENDBRANCH  51  65
BRANCH  52  77
ATOM     77  C   UNL A   1      42.546  23.664  27.582  1.00  0.00     0.058 A 
ATOM     78  C   UNL A   1      42.401  22.565  28.442  1.00  0.00     0.135 A 
ATOM     79  C   UNL A   1      42.561  23.416  26.201  1.00  0.00     0.135 A 
ATOM     80  F   UNL A   1      42.386  22.751  29.770  1.00  0.00    -0.206 F 
ATOM     81  C   UNL A   1      42.314  21.264  27.955  1.00  0.00     0.059 A 
ATOM     82  C   UNL A   1      42.450  22.126  25.690  1.00  0.00     0.059 A 
ATOM     83  F   UNL A   1      42.676  24.436  25.336  1.00  0.00    -0.206 F 
ATOM     84  C   UNL A   1      42.347  21.055  26.576  1.00  0.00     0.060 A 
BRANCH  84  85
ATOM     85  S   UNL A   1      42.225  19.365  25.948  1.00  0.00     0.124 S 
ATOM     86  O   UNL A   1      40.788  19.236  25.738  1.00  0.00    -0.237 OA
ATOM     87  O   UNL A   1      43.043  19.424  24.741  1.00  0.00    -0.237 OA
ATOM     88  O   UNL A   1      42.782  18.565  27.035  1.00  0.00    -0.744 OA
ENDBRANCH  84  85
ENDBRANCH  52  77
BRANCH  64  89
ATOM     89  C   UNL A   1      48.079  27.294  29.779  1.00  0.00     0.058 A 
ATOM     90  C   UNL A   1      49.020  27.496  28.759  1.00  0.00     0.135 A 
ATOM     91  C   UNL A   1      48.539  26.839  31.024  1.00  0.00     0.135 A 
ATOM     92  F   UNL A   1      48.625  27.923  27.549  1.00  0.00    -0.206 F 
ATOM     93  C   UNL A   1      50.374  27.256  28.969  1.00  0.00     0.059 A 
ATOM     94  C   UNL A   1      49.890  26.612  31.262  1.00  0.00     0.059 A 
ATOM     95  F   UNL A   1      47.676  26.640  32.032  1.00  0.00    -0.206 F 
ATOM     96  C   UNL A   1      50.800  26.820  30.226  1.00  0.00     0.060 A 
BRANCH  96  97
ATOM     97  S   UNL A   1      52.567  26.582  30.509  1.00  0.00     0.124 S 
ATOM     98  O   UNL A   1      52.961  27.889  31.022  1.00  0.00    -0.237 OA
ATOM     99  O   UNL A   1      52.586  25.488  31.476  1.00  0.00    -0.237 OA
ATOM    100  O   UNL A   1      53.079  26.245  29.183  1.00  0.00    -0.744 OA
ENDBRANCH  96  97
ENDBRANCH  64  89
ENDBRANCH  38  39
ENDBRANCH  30  33
ENDBRANCH  28  29
ENDBRANCH  27  28
ENDBRANCH   1  27
TORSDOF 17
ENDMDL
MODEL 3
REMARK VINA RESULT:     -11.9      3.391      6.711
REMARK SMILES COc1ccc2c(c1)[C@H]([NH2+][C@H]1CCC[C@H](C(=O)NCCCCNC(=O)c3ccc(-c4c5nc(c(-c6c(F)cc(S(=O)(=O)[O-])cc6F)c6ccc([nH]6)c(-c6c(F)cc(S(=O)(=O)[O-])cc6F)c6nc(c(-c7c(F)cc(S(=O)(=O)[O-])cc7F)c7ccc4[nH]7)C=C6)C=C5)cc3)C1)CC2
REMARK SMILES IDX 20 1 19 2 18 3 16 4 17 5 15 7 11 8 12 9 92 10 13 11 14 12
REMARK SMILES IDX 10 13 9 16 3 17 4 18 8 19 5 20 7 21 6 22 94 23 93 24 2 25
REMARK SMILES IDX 1 26 21 27 22 28 23 29 24 30 25 32 26 33 27 34 91 35 28 36
REMARK SMILES IDX 90 37 29 38 30 39 31 40 84 41 32 42 89 43 83 44 85 45 33 46
REMARK SMILES IDX 88 47 82 48 81 49 34 51 68 52 47 53 67 54 48 55 51 56 66 57
REMARK SMILES IDX 86 58 49 59 50 60 65 62 87 63 52 64 35 65 36 66 45 67 37 68
REMARK SMILES IDX 38 69 44 70 46 71 39 72 40 73 41 74 42 75 43 76 69 77 70 78
REMARK SMILES IDX 79 79 71 80 72 81 78 82 80 83 73 84 74 85 75 86 76 87 77 88
REMARK SMILES IDX 53 89 54 90 63 91 55 92 56 93 62 94 64 95 57 96 58 97 59 98
REMARK SMILES IDX 60 99 61 100
REMARK H PARENT 18 6 10 14 10 15 23 31 85 50 51 61
REMARK Flexibility Score: inf
ROOT
ATOM      1  C   UNL A   1      34.362  34.931  28.045  1.00  0.00     0.023 C 
ENDROOT
BRANCH   1   2
ATOM      2  C   UNL A   1      33.812  36.109  28.850  1.00  0.00     0.116 C 
BRANCH   2   3
ATOM      3  N   UNL A   1      32.940  35.714  29.935  1.00  0.00    -0.356 N 
ATOM      4  C   UNL A   1      33.225  35.337  31.212  1.00  0.00     0.223 C 
ATOM      5  O   UNL A   1      32.273  35.152  31.976  1.00  0.00    -0.275 OA
ATOM      6  H   UNL A   1      31.981  35.719  29.713  1.00  0.00     0.163 HD
BRANCH   4   7
ATOM      7  C   UNL A   1      34.660  35.154  31.718  1.00  0.00     0.084 C 
ATOM      8  C   UNL A   1      36.231  33.168  32.390  1.00  0.00     0.183 C 
ATOM      9  C   UNL A   1      35.653  33.283  33.800  1.00  0.00     0.065 C 
ATOM     10  C   UNL A   1      35.215  33.760  31.394  1.00  0.00     0.078 C 
ATOM     11  C   UNL A   1      35.209  34.678  34.239  1.00  0.00     0.007 C 
ATOM     12  C   UNL A   1      34.836  35.679  33.147  1.00  0.00     0.014 C 
BRANCH   8  13
ATOM     13  N   UNL A   1      37.647  33.533  32.186  1.00  0.00    -0.338 N 
ATOM     14  H   UNL A   1      38.042  32.857  31.532  1.00  0.00     0.347 HD
ATOM     15  H   UNL A   1      37.613  34.500  31.864  1.00  0.00     0.347 HD
BRANCH  13  16
ATOM     16  C   UNL A   1      38.520  33.572  33.340  1.00  0.00     0.214 C 
ATOM     17  C   UNL A   1      39.905  30.071  34.045  1.00  0.00     0.119 A 
ATOM     18  C   UNL A   1      40.918  30.449  34.930  1.00  0.00     0.047 A 
ATOM     19  C   UNL A   1      39.167  31.021  33.344  1.00  0.00     0.056 A 
ATOM     20  C   UNL A   1      41.213  31.803  35.115  1.00  0.00     0.008 A 
ATOM     21  C   UNL A   1      39.361  32.357  33.639  1.00  0.00     0.016 A 
ATOM     22  C   UNL A   1      40.441  32.743  34.447  1.00  0.00    -0.038 A 
ATOM     23  C   UNL A   1      40.554  34.241  34.479  1.00  0.00     0.042 C 
ATOM     24  C   UNL A   1      39.639  34.627  33.293  1.00  0.00     0.075 C 
BRANCH  17  25
ATOM     25  O   UNL A   1      39.594  28.751  33.850  1.00  0.00    -0.497 OA
ATOM     26  C   UNL A   1      40.354  28.222  32.758  1.00  0.00     0.278 C 
ENDBRANCH  17  25
ENDBRANCH  13  16
ENDBRANCH   8  13
ENDBRANCH   4   7
ENDBRANCH   2   3
ENDBRANCH   1   2
BRANCH   1  27
ATOM     27  C   UNL A   1      33.506  33.669  28.071  1.00  0.00     0.023 C 
BRANCH  27  28
ATOM     28  C   UNL A   1      34.226  32.423  28.558  1.00  0.00     0.116 C 
BRANCH  28  29
ATOM     29  N   UNL A   1      33.651  31.185  28.051  1.00  0.00    -0.352 N 
ATOM     30  C   UNL A   1      34.299  29.988  27.844  1.00  0.00     0.251 C 
ATOM     31  H   UNL A   1      32.690  31.207  27.833  1.00  0.00     0.163 HD
ATOM     32  O   UNL A   1      33.725  29.039  27.327  1.00  0.00    -0.269 OA
BRANCH  30  33
ATOM     33  C   UNL A   1      35.722  29.902  28.224  1.00  0.00     0.039 A 
ATOM     34  C   UNL A   1      36.055  29.539  29.532  1.00  0.00     0.014 A 
ATOM     35  C   UNL A   1      36.710  30.059  27.249  1.00  0.00     0.014 A 
ATOM     36  C   UNL A   1      37.387  29.254  29.844  1.00  0.00     0.010 A 
ATOM     37  C   UNL A   1      38.021  29.708  27.545  1.00  0.00     0.010 A 
ATOM     38  C   UNL A   1      38.370  29.295  28.842  1.00  0.00    -0.014 A 
BRANCH  38  39
ATOM     39  C   UNL A   1      39.782  28.922  29.109  1.00  0.00     0.031 A 
ATOM     40  C   UNL A   1      40.735  29.974  29.602  1.00  0.00     0.074 A 
ATOM     41  C   UNL A   1      40.226  27.689  28.795  1.00  0.00     0.049 A 
ATOM     42  N   UNL A   1      42.037  29.925  29.707  1.00  0.00    -0.248 NA
ATOM     43  C   UNL A   1      40.149  31.269  29.991  1.00  0.00     0.031 C 
ATOM     44  C   UNL A   1      39.406  26.598  28.260  1.00  0.00     0.029 A 
ATOM     45  N   UNL A   1      41.489  27.153  28.850  1.00  0.00    -0.354 N 
ATOM     46  C   UNL A   1      42.428  31.191  30.125  1.00  0.00     0.074 A 
ATOM     47  C   UNL A   1      41.232  31.994  30.233  1.00  0.00     0.031 C 
ATOM     48  C   UNL A   1      40.187  25.527  28.037  1.00  0.00     0.029 A 
ATOM     49  C   UNL A   1      41.567  25.865  28.373  1.00  0.00     0.049 A 
ATOM     50  H   UNL A   1      42.267  27.645  29.199  1.00  0.00     0.167 HD
ATOM     51  C   UNL A   1      43.675  31.637  30.405  1.00  0.00     0.037 A 
ATOM     52  C   UNL A   1      42.633  25.057  28.207  1.00  0.00     0.037 A 
ATOM     53  C   UNL A   1      44.850  30.810  30.367  1.00  0.00     0.049 A 
ATOM     54  C   UNL A   1      44.002  25.563  28.583  1.00  0.00     0.074 A 
ATOM     55  C   UNL A   1      46.145  31.143  30.724  1.00  0.00     0.029 A 
ATOM     56  N   UNL A   1      44.873  29.485  29.960  1.00  0.00    -0.354 N 
ATOM     57  N   UNL A   1      44.345  26.743  29.038  1.00  0.00    -0.248 NA
ATOM     58  C   UNL A   1      45.127  24.629  28.428  1.00  0.00     0.031 C 
ATOM     59  C   UNL A   1      46.956  30.025  30.512  1.00  0.00     0.029 A 
ATOM     60  C   UNL A   1      46.160  28.988  30.053  1.00  0.00     0.049 A 
ATOM     61  H   UNL A   1      44.089  28.975  29.652  1.00  0.00     0.167 HD
ATOM     62  C   UNL A   1      45.718  26.682  29.255  1.00  0.00     0.074 A 
ATOM     63  C   UNL A   1      46.143  25.350  28.884  1.00  0.00     0.031 C 
ATOM     64  C   UNL A   1      46.552  27.644  29.717  1.00  0.00     0.037 A 
BRANCH  51  65
ATOM     65  C   UNL A   1      43.838  33.077  30.795  1.00  0.00     0.058 A 
ATOM     66  C   UNL A   1      43.748  33.490  32.132  1.00  0.00     0.135 A 
ATOM     67  C   UNL A   1      44.160  34.041  29.827  1.00  0.00     0.135 A 
ATOM     68  F   UNL A   1      43.423  32.610  33.092  1.00  0.00    -0.206 F 
ATOM     69  C   UNL A   1      43.964  34.815  32.497  1.00  0.00     0.059 A 
ATOM     70  C   UNL A   1      44.401  35.367  30.172  1.00  0.00     0.059 A 
ATOM     71  F   UNL A   1      44.252  33.697  28.533  1.00  0.00    -0.206 F 
ATOM     72  C   UNL A   1      44.294  35.745  31.510  1.00  0.00     0.060 A 
BRANCH  72  73
ATOM     73  S   UNL A   1      44.614  37.451  32.006  1.00  0.00     0.124 S 
ATOM     74  O   UNL A   1      44.295  37.405  33.429  1.00  0.00    -0.237 OA
ATOM     75  O   UNL A   1      46.027  37.613  31.678  1.00  0.00    -0.237 OA
ATOM     76  O   UNL A   1      43.690  38.223  31.180  1.00  0.00    -0.744 OA
ENDBRANCH  72  73
ENDBRANCH  51  65
BRANCH  52  77
ATOM     77  C   UNL A   1      42.464  23.685  27.660  1.00  0.00     0.058 A 
ATOM     78  C   UNL A   1      42.400  22.573  28.512  1.00  0.00     0.135 A 
ATOM     79  C   UNL A   1      42.398  23.453  26.277  1.00  0.00     0.135 A 
ATOM     80  F   UNL A   1      42.464  22.745  29.842  1.00  0.00    -0.206 F 
ATOM     81  C   UNL A   1      42.312  21.277  28.016  1.00  0.00     0.059 A 
ATOM     82  C   UNL A   1      42.285  22.167  25.757  1.00  0.00     0.059 A 
ATOM     83  F   UNL A   1      42.434  24.485  25.419  1.00  0.00    -0.206 F 
ATOM     84  C   UNL A   1      42.263  21.084  26.635  1.00  0.00     0.060 A 
BRANCH  84  85
ATOM     85  S   UNL A   1      42.141  19.398  25.994  1.00  0.00     0.124 S 
ATOM     86  O   UNL A   1      42.588  18.618  27.142  1.00  0.00    -0.237 OA
ATOM     87  O   UNL A   1      40.724  19.294  25.665  1.00  0.00    -0.237 OA
ATOM     88  O   UNL A   1      43.044  19.413  24.847  1.00  0.00    -0.744 OA
ENDBRANCH  84  85
ENDBRANCH  52  77
BRANCH  64  89
ATOM     89  C   UNL A   1      47.995  27.283  29.913  1.00  0.00     0.058 A 
ATOM     90  C   UNL A   1      48.928  27.394  28.872  1.00  0.00     0.135 A 
ATOM     91  C   UNL A   1      48.463  26.915  31.185  1.00  0.00     0.135 A 
ATOM     92  F   UNL A   1      48.525  27.736  27.637  1.00  0.00    -0.206 F 
ATOM     93  C   UNL A   1      50.280  27.150  29.085  1.00  0.00     0.059 A 
ATOM     94  C   UNL A   1      49.814  26.686  31.424  1.00  0.00     0.059 A 
ATOM     95  F   UNL A   1      47.608  26.805  32.214  1.00  0.00    -0.206 F 
ATOM     96  C   UNL A   1      50.714  26.802  30.366  1.00  0.00     0.060 A 
BRANCH  96  97
ATOM     97  S   UNL A   1      52.480  26.559  30.648  1.00  0.00     0.124 S 
ATOM     98  O   UNL A   1      52.849  27.810  31.301  1.00  0.00    -0.237 OA
ATOM     99  O   UNL A   1      52.503  25.370  31.496  1.00  0.00    -0.237 OA
ATOM    100  O   UNL A   1      53.015  26.369  29.302  1.00  0.00    -0.744 OA
ENDBRANCH  96  97
ENDBRANCH  64  89
ENDBRANCH  38  39
ENDBRANCH  30  33
ENDBRANCH  28  29
ENDBRANCH  27  28
ENDBRANCH   1  27
TORSDOF 17
ENDMDL
