MODEL 1
REMARK VINA RESULT:     -10.2      0.000      0.000
REMARK SMILES CCOc1cc(C(=O)NCCCCNC(=O)c2ccc(-c3c4nc(c(-c5c(F)cc(S(=O)(=O)[O-])cc5F)c5ccc([nH]5)c(-c5c(F)cc(S(=O)(=O)[O-])cc5F)c5nc(c(-c6c(F)cc(S(=O)(=O)[O-])cc6F)c6ccc3[nH]6)C=C5)C=C4)cc2)c(NC(=O)c2ccccc2OC)cc1OC
REMARK SMILES IDX 11 1 10 2 9 3 7 4 8 5 6 7 4 8 5 9 96 10 95 11 83 12 3 13
REMARK SMILES IDX 2 14 1 15 97 16 98 17 84 18 85 19 86 21 87 22 88 23 92 24
REMARK SMILES IDX 89 25 91 26 90 27 93 28 94 29 12 30 13 31 14 32 15 33 16 35
REMARK SMILES IDX 17 36 18 37 82 38 19 39 81 40 20 41 21 42 22 43 75 44 23 45
REMARK SMILES IDX 80 46 74 47 76 48 24 49 79 50 73 51 72 52 25 54 59 55 38 56
REMARK SMILES IDX 58 57 39 58 42 59 57 60 77 61 40 62 41 63 56 65 78 66 43 67
REMARK SMILES IDX 26 68 27 69 36 70 28 71 29 72 35 73 37 74 30 75 31 76 32 77
REMARK SMILES IDX 33 78 34 79 60 80 61 81 70 82 62 83 63 84 69 85 71 86 64 87
REMARK SMILES IDX 65 88 66 89 67 90 68 91 44 92 45 93 54 94 46 95 47 96 53 97
REMARK SMILES IDX 55 98 48 99 49 100 50 101 51 102 52 103
REMARK H PARENT 9 6 84 20 14 34 76 53 42 64
REMARK Flexibility Score: inf
ROOT
ATOM      1  C   UNL A   1      34.427  29.283  26.933  1.00  0.00     0.023 C 
ENDROOT
BRANCH   1   2
ATOM      2  C   UNL A   1      33.609  28.022  26.660  1.00  0.00     0.116 C 
BRANCH   2   3
ATOM      3  N   UNL A   1      33.896  27.362  25.396  1.00  0.00    -0.352 N 
ATOM      4  C   UNL A   1      33.046  27.035  24.353  1.00  0.00     0.253 C 
ATOM      5  O   UNL A   1      33.478  26.342  23.433  1.00  0.00    -0.269 OA
ATOM      6  H   UNL A   1      34.838  27.109  25.261  1.00  0.00     0.163 HD
BRANCH   4   7
ATOM      7  C   UNL A   1      31.598  27.395  24.375  1.00  0.00     0.067 A 
ATOM      8  C   UNL A   1      29.901  28.707  23.221  1.00  0.00     0.162 A 
ATOM      9  C   UNL A   1      31.231  28.516  23.604  1.00  0.00     0.066 A 
ATOM     10  C   UNL A   1      28.967  27.707  23.474  1.00  0.00     0.162 A 
ATOM     11  C   UNL A   1      29.304  26.700  24.384  1.00  0.00     0.077 A 
ATOM     12  C   UNL A   1      30.588  26.621  24.948  1.00  0.00     0.058 A 
BRANCH   8  13
ATOM     13  O   UNL A   1      29.580  29.836  22.519  1.00  0.00    -0.490 OA
BRANCH  13  14
ATOM     14  C   UNL A   1      29.212  30.918  23.392  1.00  0.00     0.226 C 
ATOM     15  C   UNL A   1      28.095  31.728  22.750  1.00  0.00     0.049 C 
ENDBRANCH  13  14
ENDBRANCH   8  13
BRANCH  10  16
ATOM     16  O   UNL A   1      27.695  27.625  22.982  1.00  0.00    -0.493 OA
ATOM     17  C   UNL A   1      26.697  28.410  23.633  1.00  0.00     0.278 C 
ENDBRANCH  10  16
BRANCH  12  18
ATOM     18  N   UNL A   1      30.694  25.785  26.080  1.00  0.00    -0.321 N 
ATOM     19  C   UNL A   1      31.213  24.519  26.260  1.00  0.00     0.259 C 
ATOM     20  H   UNL A   1      30.324  26.181  26.902  1.00  0.00     0.170 HD
ATOM     21  O   UNL A   1      31.062  23.975  27.354  1.00  0.00    -0.269 OA
BRANCH  19  22
ATOM     22  C   UNL A   1      31.968  23.794  25.220  1.00  0.00     0.082 A 
ATOM     23  C   UNL A   1      31.229  23.492  24.057  1.00  0.00     0.018 A 
ATOM     24  C   UNL A   1      33.310  23.404  25.308  1.00  0.00     0.131 A 
ATOM     25  C   UNL A   1      31.838  22.919  22.943  1.00  0.00     0.001 A 
ATOM     26  C   UNL A   1      33.906  22.822  24.176  1.00  0.00     0.047 A 
ATOM     27  C   UNL A   1      33.185  22.596  22.999  1.00  0.00     0.004 A 
BRANCH  24  28
ATOM     28  O   UNL A   1      34.187  23.541  26.347  1.00  0.00    -0.496 OA
ATOM     29  C   UNL A   1      34.289  22.500  27.308  1.00  0.00     0.278 C 
ENDBRANCH  24  28
ENDBRANCH  19  22
ENDBRANCH  12  18
ENDBRANCH   4   7
ENDBRANCH   2   3
ENDBRANCH   1   2
BRANCH   1  30
ATOM     30  C   UNL A   1      33.661  30.457  27.552  1.00  0.00     0.023 C 
BRANCH  30  31
ATOM     31  C   UNL A   1      34.491  31.660  28.000  1.00  0.00     0.116 C 
BRANCH  31  32
ATOM     32  N   UNL A   1      34.362  31.988  29.408  1.00  0.00    -0.352 N 
ATOM     33  C   UNL A   1      35.249  31.851  30.452  1.00  0.00     0.251 C 
ATOM     34  H   UNL A   1      33.492  32.375  29.660  1.00  0.00     0.163 HD
ATOM     35  O   UNL A   1      34.896  32.147  31.585  1.00  0.00    -0.269 OA
BRANCH  33  36
ATOM     36  C   UNL A   1      36.608  31.301  30.226  1.00  0.00     0.039 A 
ATOM     37  C   UNL A   1      37.298  31.697  29.076  1.00  0.00     0.014 A 
ATOM     38  C   UNL A   1      37.200  30.399  31.111  1.00  0.00     0.014 A 
ATOM     39  C   UNL A   1      38.608  31.259  28.862  1.00  0.00     0.010 A 
ATOM     40  C   UNL A   1      38.534  30.022  30.937  1.00  0.00     0.010 A 
ATOM     41  C   UNL A   1      39.257  30.456  29.815  1.00  0.00    -0.014 A 
BRANCH  41  42
ATOM     42  C   UNL A   1      40.694  30.092  29.655  1.00  0.00     0.031 A 
ATOM     43  C   UNL A   1      41.094  28.717  29.189  1.00  0.00     0.074 A 
ATOM     44  C   UNL A   1      41.647  30.990  29.979  1.00  0.00     0.049 A 
ATOM     45  N   UNL A   1      42.292  28.216  29.027  1.00  0.00    -0.248 NA
ATOM     46  C   UNL A   1      40.006  27.773  28.888  1.00  0.00     0.031 C 
ATOM     47  C   UNL A   1      41.396  32.340  30.490  1.00  0.00     0.029 A 
ATOM     48  N   UNL A   1      43.018  30.906  29.935  1.00  0.00    -0.354 N 
ATOM     49  C   UNL A   1      42.104  26.901  28.615  1.00  0.00     0.074 A 
ATOM     50  C   UNL A   1      40.677  26.666  28.603  1.00  0.00     0.031 C 
ATOM     51  C   UNL A   1      42.569  32.963  30.688  1.00  0.00     0.029 A 
ATOM     52  C   UNL A   1      43.658  32.048  30.359  1.00  0.00     0.049 A 
ATOM     53  H   UNL A   1      43.497  30.103  29.629  1.00  0.00     0.167 HD
ATOM     54  C   UNL A   1      43.034  25.981  28.259  1.00  0.00     0.037 A 
ATOM     55  C   UNL A   1      44.971  32.328  30.478  1.00  0.00     0.037 A 
ATOM     56  C   UNL A   1      44.454  26.224  28.256  1.00  0.00     0.049 A 
ATOM     57  C   UNL A   1      45.984  31.288  30.081  1.00  0.00     0.074 A 
ATOM     58  C   UNL A   1      45.471  25.374  27.857  1.00  0.00     0.029 A 
ATOM     59  N   UNL A   1      45.062  27.398  28.678  1.00  0.00    -0.354 N 
ATOM     60  N   UNL A   1      45.785  30.074  29.626  1.00  0.00    -0.248 NA
ATOM     61  C   UNL A   1      47.400  31.658  30.203  1.00  0.00     0.031 C 
ATOM     62  C   UNL A   1      46.694  26.012  28.087  1.00  0.00     0.029 A 
ATOM     63  C   UNL A   1      46.439  27.284  28.572  1.00  0.00     0.049 A 
ATOM     64  H   UNL A   1      44.584  28.194  29.005  1.00  0.00     0.167 HD
ATOM     65  C   UNL A   1      47.048  29.547  29.381  1.00  0.00     0.074 A 
ATOM     66  C   UNL A   1      48.004  30.579  29.726  1.00  0.00     0.031 C 
ATOM     67  C   UNL A   1      47.385  28.320  28.912  1.00  0.00     0.037 A 
BRANCH  54  68
ATOM     68  C   UNL A   1      42.546  24.619  27.841  1.00  0.00     0.058 A 
ATOM     69  C   UNL A   1      42.498  23.543  28.743  1.00  0.00     0.135 A 
ATOM     70  C   UNL A   1      42.078  24.396  26.536  1.00  0.00     0.135 A 
ATOM     71  F   UNL A   1      42.943  23.693  30.000  1.00  0.00    -0.206 F 
ATOM     72  C   UNL A   1      42.033  22.289  28.357  1.00  0.00     0.059 A 
ATOM     73  C   UNL A   1      41.579  23.158  26.137  1.00  0.00     0.059 A 
ATOM     74  F   UNL A   1      42.097  25.389  25.631  1.00  0.00    -0.206 F 
ATOM     75  C   UNL A   1      41.574  22.107  27.052  1.00  0.00     0.060 A 
BRANCH  75  76
ATOM     76  S   UNL A   1      40.966  20.476  26.572  1.00  0.00     0.124 S 
ATOM     77  O   UNL A   1      40.913  19.794  27.862  1.00  0.00    -0.237 OA
ATOM     78  O   UNL A   1      39.675  20.790  25.969  1.00  0.00    -0.237 OA
ATOM     79  O   UNL A   1      41.985  19.990  25.648  1.00  0.00    -0.744 OA
ENDBRANCH  75  76
ENDBRANCH  54  68
BRANCH  55  80
ATOM     80  C   UNL A   1      45.404  33.661  30.981  1.00  0.00     0.058 A 
ATOM     81  C   UNL A   1      45.628  34.730  30.101  1.00  0.00     0.135 A 
ATOM     82  C   UNL A   1      45.593  33.895  32.352  1.00  0.00     0.135 A 
ATOM     83  F   UNL A   1      45.470  34.555  28.780  1.00  0.00    -0.206 F 
ATOM     84  C   UNL A   1      46.041  35.978  30.558  1.00  0.00     0.059 A 
ATOM     85  C   UNL A   1      45.977  35.142  32.836  1.00  0.00     0.059 A 
ATOM     86  F   UNL A   1      45.375  32.911  33.239  1.00  0.00    -0.206 F 
ATOM     87  C   UNL A   1      46.209  36.175  31.929  1.00  0.00     0.060 A 
BRANCH  87  88
ATOM     88  S   UNL A   1      46.696  37.812  32.515  1.00  0.00     0.124 S 
ATOM     89  O   UNL A   1      46.875  38.533  31.260  1.00  0.00    -0.237 OA
ATOM     90  O   UNL A   1      45.543  38.205  33.319  1.00  0.00    -0.237 OA
ATOM     91  O   UNL A   1      47.917  37.548  33.271  1.00  0.00    -0.744 OA
ENDBRANCH  87  88
ENDBRANCH  55  80
BRANCH  67  92
ATOM     92  C   UNL A   1      48.847  28.033  28.703  1.00  0.00     0.058 A 
ATOM     93  C   UNL A   1      49.512  28.380  27.516  1.00  0.00     0.135 A 
ATOM     94  C   UNL A   1      49.607  27.438  29.726  1.00  0.00     0.135 A 
ATOM     95  F   UNL A   1      48.834  28.945  26.504  1.00  0.00    -0.206 F 
ATOM     96  C   UNL A   1      50.867  28.123  27.339  1.00  0.00     0.059 A 
ATOM     97  C   UNL A   1      50.970  27.201  29.582  1.00  0.00     0.059 A 
ATOM     98  F   UNL A   1      49.026  27.095  30.887  1.00  0.00    -0.206 F 
ATOM     99  C   UNL A   1      51.589  27.534  28.379  1.00  0.00     0.060 A 
BRANCH  99 100
ATOM    100  S   UNL A   1      53.353  27.229  28.144  1.00  0.00     0.124 S 
ATOM    101  O   UNL A   1      53.384  26.708  26.782  1.00  0.00    -0.237 OA
ATOM    102  O   UNL A   1      53.927  28.559  28.328  1.00  0.00    -0.237 OA
ATOM    103  O   UNL A   1      53.675  26.265  29.192  1.00  0.00    -0.744 OA
ENDBRANCH  99 100
ENDBRANCH  67  92
ENDBRANCH  41  42
ENDBRANCH  33  36
ENDBRANCH  31  32
ENDBRANCH  30  31
ENDBRANCH   1  30
TORSDOF 20
ENDMDL
MODEL 2
REMARK VINA RESULT:     -10.0      1.967      2.664
REMARK SMILES CCOc1cc(C(=O)NCCCCNC(=O)c2ccc(-c3c4nc(c(-c5c(F)cc(S(=O)(=O)[O-])cc5F)c5ccc([nH]5)c(-c5c(F)cc(S(=O)(=O)[O-])cc5F)c5nc(c(-c6c(F)cc(S(=O)(=O)[O-])cc6F)c6ccc3[nH]6)C=C5)C=C4)cc2)c(NC(=O)c2ccccc2OC)cc1OC
REMARK SMILES IDX 11 1 10 2 9 3 7 4 8 5 6 7 4 8 5 9 96 10 95 11 83 12 3 13
REMARK SMILES IDX 2 14 1 15 97 16 98 17 84 18 85 19 86 21 87 22 88 23 92 24
REMARK SMILES IDX 89 25 91 26 90 27 93 28 94 29 12 30 13 31 14 32 15 33 16 35
REMARK SMILES IDX 17 36 18 37 82 38 19 39 81 40 20 41 21 42 22 43 75 44 23 45
REMARK SMILES IDX 80 46 74 47 76 48 24 49 79 50 73 51 72 52 25 54 59 55 38 56
REMARK SMILES IDX 58 57 39 58 42 59 57 60 77 61 40 62 41 63 56 65 78 66 43 67
REMARK SMILES IDX 26 68 27 69 36 70 28 71 29 72 35 73 37 74 30 75 31 76 32 77
REMARK SMILES IDX 33 78 34 79 60 80 61 81 70 82 62 83 63 84 69 85 71 86 64 87
REMARK SMILES IDX 65 88 66 89 67 90 68 91 44 92 45 93 54 94 46 95 47 96 53 97
REMARK SMILES IDX 55 98 48 99 49 100 50 101 51 102 52 103
REMARK H PARENT 9 6 84 20 14 34 76 53 42 64
REMARK Flexibility Score: inf
ROOT
ATOM      1  C   UNL A   1      33.515  30.067  26.504  1.00  0.00     0.023 C 
ENDROOT
BRANCH   1   2
ATOM      2  C   UNL A   1      33.306  29.740  25.026  1.00  0.00     0.116 C 
BRANCH   2   3
ATOM      3  N   UNL A   1      33.700  28.396  24.630  1.00  0.00    -0.352 N 
ATOM      4  C   UNL A   1      32.924  27.267  24.430  1.00  0.00     0.253 C 
ATOM      5  O   UNL A   1      33.484  26.189  24.238  1.00  0.00    -0.269 OA
ATOM      6  H   UNL A   1      34.665  28.270  24.481  1.00  0.00     0.163 HD
BRANCH   4   7
ATOM      7  C   UNL A   1      31.437  27.301  24.562  1.00  0.00     0.067 A 
ATOM      8  C   UNL A   1      29.412  28.182  23.535  1.00  0.00     0.162 A 
ATOM      9  C   UNL A   1      30.776  28.296  23.816  1.00  0.00     0.066 A 
ATOM     10  C   UNL A   1      28.743  27.006  23.865  1.00  0.00     0.162 A 
ATOM     11  C   UNL A   1      29.361  26.118  24.751  1.00  0.00     0.077 A 
ATOM     12  C   UNL A   1      30.669  26.336  25.214  1.00  0.00     0.058 A 
BRANCH   8  13
ATOM     13  O   UNL A   1      28.798  29.197  22.855  1.00  0.00    -0.490 OA
BRANCH  13  14
ATOM     14  C   UNL A   1      29.463  30.454  23.063  1.00  0.00     0.226 C 
ATOM     15  C   UNL A   1      28.921  31.482  22.080  1.00  0.00     0.049 C 
ENDBRANCH  13  14
ENDBRANCH   8  13
BRANCH  10  16
ATOM     16  O   UNL A   1      27.488  26.635  23.473  1.00  0.00    -0.493 OA
ATOM     17  C   UNL A   1      26.393  27.332  24.065  1.00  0.00     0.278 C 
ENDBRANCH  10  16
BRANCH  12  18
ATOM     18  N   UNL A   1      31.040  25.568  26.339  1.00  0.00    -0.321 N 
ATOM     19  C   UNL A   1      31.607  24.317  26.469  1.00  0.00     0.259 C 
ATOM     20  H   UNL A   1      30.859  26.011  27.200  1.00  0.00     0.170 HD
ATOM     21  O   UNL A   1      31.714  23.838  27.598  1.00  0.00    -0.269 OA
BRANCH  19  22
ATOM     22  C   UNL A   1      32.120  23.534  25.328  1.00  0.00     0.082 A 
ATOM     23  C   UNL A   1      31.183  23.310  24.298  1.00  0.00     0.018 A 
ATOM     24  C   UNL A   1      33.417  23.022  25.207  1.00  0.00     0.131 A 
ATOM     25  C   UNL A   1      31.554  22.692  23.106  1.00  0.00     0.001 A 
ATOM     26  C   UNL A   1      33.773  22.396  24.000  1.00  0.00     0.047 A 
ATOM     27  C   UNL A   1      32.859  22.247  22.952  1.00  0.00     0.004 A 
BRANCH  24  28
ATOM     28  O   UNL A   1      34.455  23.070  26.095  1.00  0.00    -0.496 OA
ATOM     29  C   UNL A   1      35.197  21.888  26.357  1.00  0.00     0.278 C 
ENDBRANCH  24  28
ENDBRANCH  19  22
ENDBRANCH  12  18
ENDBRANCH   4   7
ENDBRANCH   2   3
ENDBRANCH   1   2
BRANCH   1  30
ATOM     30  C   UNL A   1      34.204  28.982  27.339  1.00  0.00     0.023 C 
BRANCH  30  31
ATOM     31  C   UNL A   1      35.574  29.329  27.921  1.00  0.00     0.116 C 
BRANCH  31  32
ATOM     32  N   UNL A   1      35.568  29.606  29.346  1.00  0.00    -0.352 N 
ATOM     33  C   UNL A   1      36.604  29.737  30.244  1.00  0.00     0.251 C 
ATOM     34  H   UNL A   1      34.672  29.720  29.737  1.00  0.00     0.163 HD
ATOM     35  O   UNL A   1      36.354  29.916  31.428  1.00  0.00    -0.269 OA
BRANCH  33  36
ATOM     36  C   UNL A   1      38.014  29.612  29.802  1.00  0.00     0.039 A 
ATOM     37  C   UNL A   1      38.971  29.229  30.748  1.00  0.00     0.014 A 
ATOM     38  C   UNL A   1      38.407  29.880  28.490  1.00  0.00     0.014 A 
ATOM     39  C   UNL A   1      40.298  29.030  30.356  1.00  0.00     0.010 A 
ATOM     40  C   UNL A   1      39.715  29.608  28.083  1.00  0.00     0.010 A 
ATOM     41  C   UNL A   1      40.675  29.170  29.010  1.00  0.00    -0.014 A 
BRANCH  41  42
ATOM     42  C   UNL A   1      42.058  28.836  28.565  1.00  0.00     0.031 A 
ATOM     43  C   UNL A   1      42.413  27.436  28.138  1.00  0.00     0.074 A 
ATOM     44  C   UNL A   1      43.013  29.788  28.594  1.00  0.00     0.049 A 
ATOM     45  N   UNL A   1      43.569  26.958  27.755  1.00  0.00    -0.248 NA
ATOM     46  C   UNL A   1      41.333  26.437  28.165  1.00  0.00     0.031 C 
ATOM     47  C   UNL A   1      42.814  31.171  29.035  1.00  0.00     0.029 A 
ATOM     48  N   UNL A   1      44.343  29.741  28.253  1.00  0.00    -0.354 N 
ATOM     49  C   UNL A   1      43.361  25.606  27.505  1.00  0.00     0.074 A 
ATOM     50  C   UNL A   1      41.979  25.329  27.831  1.00  0.00     0.031 C 
ATOM     51  C   UNL A   1      43.970  31.844  28.914  1.00  0.00     0.029 A 
ATOM     52  C   UNL A   1      45.003  30.935  28.428  1.00  0.00     0.049 A 
ATOM     53  H   UNL A   1      44.782  28.927  27.915  1.00  0.00     0.167 HD
ATOM     54  C   UNL A   1      44.234  24.686  27.029  1.00  0.00     0.037 A 
ATOM     55  C   UNL A   1      46.295  31.265  28.228  1.00  0.00     0.037 A 
ATOM     56  C   UNL A   1      45.606  24.969  26.690  1.00  0.00     0.049 A 
ATOM     57  C   UNL A   1      47.247  30.223  27.703  1.00  0.00     0.074 A 
ATOM     58  C   UNL A   1      46.551  24.117  26.145  1.00  0.00     0.029 A 
ATOM     59  N   UNL A   1      46.233  26.195  26.867  1.00  0.00    -0.354 N 
ATOM     60  N   UNL A   1      47.013  28.966  27.406  1.00  0.00    -0.248 NA
ATOM     61  C   UNL A   1      48.636  30.644  27.476  1.00  0.00     0.031 C 
ATOM     62  C   UNL A   1      47.762  24.810  26.044  1.00  0.00     0.029 A 
ATOM     63  C   UNL A   1      47.557  26.113  26.467  1.00  0.00     0.049 A 
ATOM     64  H   UNL A   1      45.800  27.003  27.225  1.00  0.00     0.167 HD
ATOM     65  C   UNL A   1      48.216  28.457  26.931  1.00  0.00     0.074 A 
ATOM     66  C   UNL A   1      49.173  29.545  26.967  1.00  0.00     0.031 C 
ATOM     67  C   UNL A   1      48.502  27.203  26.501  1.00  0.00     0.037 A 
BRANCH  54  68
ATOM     68  C   UNL A   1      43.735  23.277  26.844  1.00  0.00     0.058 A 
ATOM     69  C   UNL A   1      43.471  22.438  27.938  1.00  0.00     0.135 A 
ATOM     70  C   UNL A   1      43.472  22.773  25.559  1.00  0.00     0.135 A 
ATOM     71  F   UNL A   1      43.713  22.860  29.189  1.00  0.00    -0.206 F 
ATOM     72  C   UNL A   1      42.995  21.141  27.764  1.00  0.00     0.059 A 
ATOM     73  C   UNL A   1      42.967  21.491  25.363  1.00  0.00     0.059 A 
ATOM     74  F   UNL A   1      43.703  23.533  24.475  1.00  0.00    -0.206 F 
ATOM     75  C   UNL A   1      42.745  20.677  26.472  1.00  0.00     0.060 A 
BRANCH  75  76
ATOM     76  S   UNL A   1      42.119  18.996  26.266  1.00  0.00     0.124 S 
ATOM     77  O   UNL A   1      43.035  18.466  25.260  1.00  0.00    -0.237 OA
ATOM     78  O   UNL A   1      42.266  18.442  27.609  1.00  0.00    -0.237 OA
ATOM     79  O   UNL A   1      40.744  19.196  25.819  1.00  0.00    -0.744 OA
ENDBRANCH  75  76
ENDBRANCH  54  68
BRANCH  55  80
ATOM     80  C   UNL A   1      46.762  32.650  28.511  1.00  0.00     0.058 A 
ATOM     81  C   UNL A   1      47.227  33.012  29.784  1.00  0.00     0.135 A 
ATOM     82  C   UNL A   1      46.760  33.636  27.513  1.00  0.00     0.135 A 
ATOM     83  F   UNL A   1      47.241  32.108  30.775  1.00  0.00    -0.206 F 
ATOM     84  C   UNL A   1      47.659  34.306  30.063  1.00  0.00     0.059 A 
ATOM     85  C   UNL A   1      47.213  34.929  27.758  1.00  0.00     0.059 A 
ATOM     86  F   UNL A   1      46.340  33.338  26.272  1.00  0.00    -0.206 F 
ATOM     87  C   UNL A   1      47.651  35.257  29.041  1.00  0.00     0.060 A 
BRANCH  87  88
ATOM     88  S   UNL A   1      48.260  36.918  29.400  1.00  0.00     0.124 S 
ATOM     89  O   UNL A   1      48.647  36.793  30.801  1.00  0.00    -0.237 OA
ATOM     90  O   UNL A   1      49.354  37.056  28.445  1.00  0.00    -0.237 OA
ATOM     91  O   UNL A   1      47.099  37.764  29.139  1.00  0.00    -0.744 OA
ENDBRANCH  87  88
ENDBRANCH  55  80
BRANCH  67  92
ATOM     92  C   UNL A   1      49.896  26.941  25.996  1.00  0.00     0.058 A 
ATOM     93  C   UNL A   1      50.226  27.044  24.636  1.00  0.00     0.135 A 
ATOM     94  C   UNL A   1      50.928  26.625  26.896  1.00  0.00     0.135 A 
ATOM     95  F   UNL A   1      49.277  27.337  23.731  1.00  0.00    -0.206 F 
ATOM     96  C   UNL A   1      51.520  26.814  24.181  1.00  0.00     0.059 A 
ATOM     97  C   UNL A   1      52.236  26.423  26.467  1.00  0.00     0.059 A 
ATOM     98  F   UNL A   1      50.673  26.525  28.210  1.00  0.00    -0.206 F 
ATOM     99  C   UNL A   1      52.520  26.505  25.105  1.00  0.00     0.060 A 
BRANCH  99 100
ATOM    100  S   UNL A   1      54.200  26.234  24.505  1.00  0.00     0.124 S 
ATOM    101  O   UNL A   1      54.078  26.613  23.102  1.00  0.00    -0.237 OA
ATOM    102  O   UNL A   1      54.981  27.141  25.341  1.00  0.00    -0.237 OA
ATOM    103  O   UNL A   1      54.427  24.813  24.753  1.00  0.00    -0.744 OA
ENDBRANCH  99 100
ENDBRANCH  67  92
ENDBRANCH  41  42
ENDBRANCH  33  36
ENDBRANCH  31  32
ENDBRANCH  30  31
ENDBRANCH   1  30
TORSDOF 20
ENDMDL
MODEL 3
REMARK VINA RESULT:      -9.7      3.866      8.634
REMARK SMILES CCOc1cc(C(=O)NCCCCNC(=O)c2ccc(-c3c4nc(c(-c5c(F)cc(S(=O)(=O)[O-])cc5F)c5ccc([nH]5)c(-c5c(F)cc(S(=O)(=O)[O-])cc5F)c5nc(c(-c6c(F)cc(S(=O)(=O)[O-])cc6F)c6ccc3[nH]6)C=C5)C=C4)cc2)c(NC(=O)c2ccccc2OC)cc1OC
REMARK SMILES IDX 11 1 10 2 9 3 7 4 8 5 6 7 4 8 5 9 96 10 95 11 83 12 3 13
REMARK SMILES IDX 2 14 1 15 97 16 98 17 84 18 85 19 86 21 87 22 88 23 92 24
REMARK SMILES IDX 89 25 91 26 90 27 93 28 94 29 12 30 13 31 14 32 15 33 16 35
REMARK SMILES IDX 17 36 18 37 82 38 19 39 81 40 20 41 21 42 22 43 75 44 23 45
REMARK SMILES IDX 80 46 74 47 76 48 24 49 79 50 73 51 72 52 25 54 59 55 38 56
REMARK SMILES IDX 58 57 39 58 42 59 57 60 77 61 40 62 41 63 56 65 78 66 43 67
REMARK SMILES IDX 26 68 27 69 36 70 28 71 29 72 35 73 37 74 30 75 31 76 32 77
REMARK SMILES IDX 33 78 34 79 60 80 61 81 70 82 62 83 63 84 69 85 71 86 64 87
REMARK SMILES IDX 65 88 66 89 67 90 68 91 44 92 45 93 54 94 46 95 47 96 53 97
REMARK SMILES IDX 55 98 48 99 49 100 50 101 51 102 52 103
REMARK H PARENT 9 6 84 20 14 34 76 53 42 64
REMARK Flexibility Score: inf
ROOT
ATOM      1  C   UNL A   1      34.159  28.323  23.246  1.00  0.00     0.023 C 
ENDROOT
BRANCH   1   2
ATOM      2  C   UNL A   1      33.469  27.442  22.205  1.00  0.00     0.116 C 
BRANCH   2   3
ATOM      3  N   UNL A   1      34.010  26.096  22.080  1.00  0.00    -0.352 N 
ATOM      4  C   UNL A   1      33.936  25.026  22.954  1.00  0.00     0.253 C 
ATOM      5  O   UNL A   1      34.595  24.016  22.710  1.00  0.00    -0.269 OA
ATOM      6  H   UNL A   1      34.503  25.920  21.245  1.00  0.00     0.163 HD
BRANCH   4   7
ATOM      7  C   UNL A   1      33.180  25.109  24.239  1.00  0.00     0.067 A 
ATOM      8  C   UNL A   1      30.938  25.034  25.185  1.00  0.00     0.162 A 
ATOM      9  C   UNL A   1      31.795  25.335  24.124  1.00  0.00     0.066 A 
ATOM     10  C   UNL A   1      31.440  24.369  26.301  1.00  0.00     0.162 A 
ATOM     11  C   UNL A   1      32.826  24.317  26.473  1.00  0.00     0.077 A 
ATOM     12  C   UNL A   1      33.706  24.815  25.498  1.00  0.00     0.058 A 
BRANCH   8  13
ATOM     13  O   UNL A   1      29.606  25.319  25.051  1.00  0.00    -0.490 OA
BRANCH  13  14
ATOM     14  C   UNL A   1      29.294  25.783  23.727  1.00  0.00     0.226 C 
ATOM     15  C   UNL A   1      28.573  27.120  23.818  1.00  0.00     0.049 C 
ENDBRANCH  13  14
ENDBRANCH   8  13
BRANCH  10  16
ATOM     16  O   UNL A   1      30.720  23.806  27.317  1.00  0.00    -0.493 OA
ATOM     17  C   UNL A   1      29.875  22.707  26.979  1.00  0.00     0.278 C 
ENDBRANCH  10  16
BRANCH  12  18
ATOM     18  N   UNL A   1      35.035  25.008  25.932  1.00  0.00    -0.321 N 
ATOM     19  C   UNL A   1      36.105  24.147  26.070  1.00  0.00     0.259 C 
ATOM     20  H   UNL A   1      35.238  25.936  26.189  1.00  0.00     0.170 HD
ATOM     21  O   UNL A   1      37.134  24.574  26.595  1.00  0.00    -0.269 OA
BRANCH  19  22
ATOM     22  C   UNL A   1      36.093  22.751  25.594  1.00  0.00     0.082 A 
ATOM     23  C   UNL A   1      37.075  22.449  24.627  1.00  0.00     0.018 A 
ATOM     24  C   UNL A   1      35.211  21.751  26.020  1.00  0.00     0.131 A 
ATOM     25  C   UNL A   1      37.265  21.146  24.173  1.00  0.00     0.001 A 
ATOM     26  C   UNL A   1      35.414  20.443  25.547  1.00  0.00     0.047 A 
ATOM     27  C   UNL A   1      36.439  20.138  24.646  1.00  0.00     0.004 A 
BRANCH  24  28
ATOM     28  O   UNL A   1      34.162  21.834  26.892  1.00  0.00    -0.496 OA
ATOM     29  C   UNL A   1      33.216  20.776  26.939  1.00  0.00     0.278 C 
ENDBRANCH  24  28
ENDBRANCH  19  22
ENDBRANCH  12  18
ENDBRANCH   4   7
ENDBRANCH   2   3
ENDBRANCH   1   2
BRANCH   1  30
ATOM     30  C   UNL A   1      33.380  28.561  24.543  1.00  0.00     0.023 C 
BRANCH  30  31
ATOM     31  C   UNL A   1      34.205  28.837  25.800  1.00  0.00     0.116 C 
BRANCH  31  32
ATOM     32  N   UNL A   1      33.931  30.116  26.429  1.00  0.00    -0.352 N 
ATOM     33  C   UNL A   1      34.591  30.787  27.435  1.00  0.00     0.251 C 
ATOM     34  H   UNL A   1      33.140  30.584  26.077  1.00  0.00     0.163 HD
ATOM     35  O   UNL A   1      34.137  31.844  27.851  1.00  0.00    -0.269 OA
BRANCH  33  36
ATOM     36  C   UNL A   1      35.814  30.219  28.053  1.00  0.00     0.039 A 
ATOM     37  C   UNL A   1      37.031  30.389  27.385  1.00  0.00     0.014 A 
ATOM     38  C   UNL A   1      35.778  29.513  29.255  1.00  0.00     0.014 A 
ATOM     39  C   UNL A   1      38.216  29.932  27.968  1.00  0.00     0.010 A 
ATOM     40  C   UNL A   1      36.969  29.124  29.873  1.00  0.00     0.010 A 
ATOM     41  C   UNL A   1      38.204  29.338  29.241  1.00  0.00    -0.014 A 
BRANCH  41  42
ATOM     42  C   UNL A   1      39.476  28.964  29.922  1.00  0.00     0.031 A 
ATOM     43  C   UNL A   1      39.949  29.716  31.138  1.00  0.00     0.074 A 
ATOM     44  C   UNL A   1      40.237  27.974  29.411  1.00  0.00     0.049 A 
ATOM     45  N   UNL A   1      41.044  29.552  31.836  1.00  0.00    -0.248 NA
ATOM     46  C   UNL A   1      39.090  30.808  31.622  1.00  0.00     0.031 C 
ATOM     47  C   UNL A   1      39.920  27.200  28.208  1.00  0.00     0.029 A 
ATOM     48  N   UNL A   1      41.436  27.450  29.831  1.00  0.00    -0.354 N 
ATOM     49  C   UNL A   1      41.012  30.522  32.832  1.00  0.00     0.074 A 
ATOM     50  C   UNL A   1      39.814  31.304  32.615  1.00  0.00     0.031 C 
ATOM     51  C   UNL A   1      40.884  26.288  28.003  1.00  0.00     0.029 A 
ATOM     52  C   UNL A   1      41.908  26.435  29.032  1.00  0.00     0.049 A 
ATOM     53  H   UNL A   1      41.912  27.772  30.631  1.00  0.00     0.167 HD
ATOM     54  C   UNL A   1      41.887  30.728  33.845  1.00  0.00     0.037 A 
ATOM     55  C   UNL A   1      43.041  25.709  29.109  1.00  0.00     0.037 A 
ATOM     56  C   UNL A   1      43.071  29.937  34.068  1.00  0.00     0.049 A 
ATOM     57  C   UNL A   1      44.001  25.961  30.242  1.00  0.00     0.074 A 
ATOM     58  C   UNL A   1      43.988  30.032  35.100  1.00  0.00     0.029 A 
ATOM     59  N   UNL A   1      43.507  28.908  33.245  1.00  0.00    -0.354 N 
ATOM     60  N   UNL A   1      43.917  26.837  31.215  1.00  0.00    -0.248 NA
ATOM     61  C   UNL A   1      45.204  25.119  30.294  1.00  0.00     0.031 C 
ATOM     62  C   UNL A   1      45.005  29.100  34.873  1.00  0.00     0.029 A 
ATOM     63  C   UNL A   1      44.692  28.380  33.732  1.00  0.00     0.049 A 
ATOM     64  H   UNL A   1      43.043  28.600  32.433  1.00  0.00     0.167 HD
ATOM     65  C   UNL A   1      45.040  26.632  32.009  1.00  0.00     0.074 A 
ATOM     66  C   UNL A   1      45.781  25.541  31.410  1.00  0.00     0.031 C 
ATOM     67  C   UNL A   1      45.421  27.288  33.133  1.00  0.00     0.037 A 
BRANCH  54  68
ATOM     68  C   UNL A   1      41.602  31.860  34.797  1.00  0.00     0.058 A 
ATOM     69  C   UNL A   1      42.113  33.151  34.585  1.00  0.00     0.135 A 
ATOM     70  C   UNL A   1      40.769  31.665  35.912  1.00  0.00     0.135 A 
ATOM     71  F   UNL A   1      42.924  33.395  33.543  1.00  0.00    -0.206 F 
ATOM     72  C   UNL A   1      41.835  34.198  35.458  1.00  0.00     0.059 A 
ATOM     73  C   UNL A   1      40.452  32.705  36.781  1.00  0.00     0.059 A 
ATOM     74  F   UNL A   1      40.249  30.453  36.163  1.00  0.00    -0.206 F 
ATOM     75  C   UNL A   1      41.002  33.966  36.554  1.00  0.00     0.060 A 
BRANCH  75  76
ATOM     76  S   UNL A   1      40.645  35.338  37.671  1.00  0.00     0.124 S 
ATOM     77  O   UNL A   1      41.322  34.905  38.890  1.00  0.00    -0.237 OA
ATOM     78  O   UNL A   1      41.253  36.470  36.979  1.00  0.00    -0.237 OA
ATOM     79  O   UNL A   1      39.187  35.355  37.737  1.00  0.00    -0.744 OA
ENDBRANCH  75  76
ENDBRANCH  54  68
BRANCH  55  80
ATOM     80  C   UNL A   1      43.323  24.659  28.091  1.00  0.00     0.058 A 
ATOM     81  C   UNL A   1      43.986  24.969  26.895  1.00  0.00     0.135 A 
ATOM     82  C   UNL A   1      42.942  23.325  28.297  1.00  0.00     0.135 A 
ATOM     83  F   UNL A   1      44.364  26.233  26.646  1.00  0.00    -0.206 F 
ATOM     84  C   UNL A   1      44.248  23.999  25.932  1.00  0.00     0.059 A 
ATOM     85  C   UNL A   1      43.218  22.330  27.363  1.00  0.00     0.059 A 
ATOM     86  F   UNL A   1      42.318  22.970  29.433  1.00  0.00    -0.206 F 
ATOM     87  C   UNL A   1      43.862  22.681  26.178  1.00  0.00     0.060 A 
BRANCH  87  88
ATOM     88  S   UNL A   1      44.252  21.421  24.944  1.00  0.00     0.124 S 
ATOM     89  O   UNL A   1      44.113  22.172  23.702  1.00  0.00    -0.237 OA
ATOM     90  O   UNL A   1      45.612  21.042  25.312  1.00  0.00    -0.237 OA
ATOM     91  O   UNL A   1      43.238  20.396  25.180  1.00  0.00    -0.744 OA
ENDBRANCH  87  88
ENDBRANCH  55  80
BRANCH  67  92
ATOM     92  C   UNL A   1      46.677  26.822  33.818  1.00  0.00     0.058 A 
ATOM     93  C   UNL A   1      47.922  27.426  33.582  1.00  0.00     0.135 A 
ATOM     94  C   UNL A   1      46.625  25.780  34.761  1.00  0.00     0.135 A 
ATOM     95  F   UNL A   1      48.031  28.421  32.687  1.00  0.00    -0.206 F 
ATOM     96  C   UNL A   1      49.075  26.996  34.231  1.00  0.00     0.059 A 
ATOM     97  C   UNL A   1      47.760  25.356  35.446  1.00  0.00     0.059 A 
ATOM     98  F   UNL A   1      45.460  25.174  35.036  1.00  0.00    -0.206 F 
ATOM     99  C   UNL A   1      48.984  25.961  35.163  1.00  0.00     0.060 A 
BRANCH  99 100
ATOM    100  S   UNL A   1      50.483  25.430  36.017  1.00  0.00     0.124 S 
ATOM    101  O   UNL A   1      50.118  25.642  37.414  1.00  0.00    -0.237 OA
ATOM    102  O   UNL A   1      50.605  24.036  35.598  1.00  0.00    -0.237 OA
ATOM    103  O   UNL A   1      51.509  26.327  35.494  1.00  0.00    -0.744 OA
ENDBRANCH  99 100
ENDBRANCH  67  92
ENDBRANCH  41  42
ENDBRANCH  33  36
ENDBRANCH  31  32
ENDBRANCH  30  31
ENDBRANCH   1  30
TORSDOF 20
ENDMDL
