MODEL 1
REMARK VINA RESULT:     -10.1      0.000      0.000
REMARK SMILES O=C(Cc1ccc(NC(=O)c2ccc(N3C(=O)c4ccccc4C3=O)cc2)cc1)NCCCCNC(=O)c1ccc(-c2c3nc(c(-c4c(F)cc(S(=O)(=O)[O-])cc4F)c4ccc([nH]4)c(-c4c(F)cc(S(=O)(=O)[O-])cc4F)c4nc(c(-c5c(F)cc(S(=O)(=O)[O-])cc5F)c5ccc2[nH]5)C=C4)C=C3)cc1
REMARK SMILES IDX 32 1 31 2 30 3 1 4 2 5 3 7 4 8 5 9 29 10 6 11 28 12 7 13
REMARK SMILES IDX 8 14 9 15 10 17 11 18 12 19 27 20 13 21 26 22 14 23 15 24
REMARK SMILES IDX 16 25 24 26 17 27 18 28 23 29 25 30 19 31 22 32 20 33 21 34
REMARK SMILES IDX 33 35 34 36 35 37 36 38 37 40 38 41 39 42 103 43 40 44
REMARK SMILES IDX 102 45 41 46 42 47 43 48 96 49 44 50 101 51 95 52 97 53
REMARK SMILES IDX 45 54 100 55 94 56 93 57 46 59 80 60 59 61 79 62 60 63 63 64
REMARK SMILES IDX 78 65 98 66 61 67 62 68 77 70 99 71 64 72 47 73 48 74 57 75
REMARK SMILES IDX 49 76 50 77 56 78 58 79 51 80 52 81 53 82 54 83 55 84 81 85
REMARK SMILES IDX 82 86 91 87 83 88 84 89 90 90 92 91 85 92 86 93 87 94 88 95
REMARK SMILES IDX 89 96 65 97 66 98 75 99 67 100 68 101 74 102 76 103 69 104
REMARK SMILES IDX 70 105 71 106 72 107 73 108
REMARK H PARENT 30 6 8 16 35 39 97 58 63 69
REMARK Flexibility Score: inf
ROOT
ATOM      1  C   UNL A   1      34.469  34.395  29.148  1.00  0.00     0.023 C 
ENDROOT
BRANCH   1   2
ATOM      2  C   UNL A   1      35.739  34.179  28.324  1.00  0.00     0.116 C 
BRANCH   2   3
ATOM      3  N   UNL A   1      36.896  34.736  28.992  1.00  0.00    -0.356 N 
ATOM      4  O   UNL A   1      38.157  32.817  29.078  1.00  0.00    -0.275 OA
ATOM      5  C   UNL A   1      38.006  34.005  29.348  1.00  0.00     0.224 C 
ATOM      6  H   UNL A   1      36.887  35.698  29.205  1.00  0.00     0.163 HD
BRANCH   5   7
ATOM      7  C   UNL A   1      39.016  34.791  30.171  1.00  0.00     0.135 C 
BRANCH   7   8
ATOM      8  C   UNL A   1      39.103  34.358  31.615  1.00  0.00    -0.039 A 
ATOM      9  C   UNL A   1      40.301  34.505  32.314  1.00  0.00     0.006 A 
ATOM     10  C   UNL A   1      38.012  33.786  32.282  1.00  0.00     0.006 A 
ATOM     11  C   UNL A   1      40.394  34.123  33.656  1.00  0.00     0.026 A 
ATOM     12  C   UNL A   1      38.099  33.444  33.638  1.00  0.00     0.026 A 
ATOM     13  C   UNL A   1      39.279  33.654  34.353  1.00  0.00     0.041 A 
BRANCH  13  14
ATOM     14  N   UNL A   1      39.263  33.358  35.734  1.00  0.00    -0.322 N 
ATOM     15  C   UNL A   1      39.629  32.224  36.433  1.00  0.00     0.255 C 
ATOM     16  H   UNL A   1      38.932  34.091  36.300  1.00  0.00     0.170 HD
ATOM     17  O   UNL A   1      39.354  32.098  37.623  1.00  0.00    -0.269 OA
BRANCH  15  18
ATOM     18  C   UNL A   1      40.404  31.158  35.772  1.00  0.00     0.040 A 
ATOM     19  C   UNL A   1      41.658  30.824  36.274  1.00  0.00     0.016 A 
ATOM     20  C   UNL A   1      39.849  30.422  34.728  1.00  0.00     0.016 A 
ATOM     21  C   UNL A   1      42.291  29.657  35.822  1.00  0.00     0.028 A 
ATOM     22  C   UNL A   1      40.487  29.257  34.289  1.00  0.00     0.028 A 
ATOM     23  C   UNL A   1      41.693  28.817  34.864  1.00  0.00     0.052 A 
BRANCH  23  24
ATOM     24  N   UNL A   1      42.250  27.541  34.534  1.00  0.00    -0.242 N 
ATOM     25  C   UNL A   1      41.942  26.354  35.172  1.00  0.00     0.266 C 
ATOM     26  C   UNL A   1      43.227  27.323  33.580  1.00  0.00     0.266 C 
ATOM     27  O   UNL A   1      41.151  26.076  36.055  1.00  0.00    -0.268 OA
ATOM     28  C   UNL A   1      42.784  25.317  34.590  1.00  0.00     0.053 A 
ATOM     29  C   UNL A   1      43.561  25.903  33.619  1.00  0.00     0.053 A 
ATOM     30  O   UNL A   1      43.803  28.071  32.809  1.00  0.00    -0.268 OA
ATOM     31  C   UNL A   1      42.872  23.970  34.887  1.00  0.00     0.015 A 
ATOM     32  C   UNL A   1      44.478  25.176  32.882  1.00  0.00     0.015 A 
ATOM     33  C   UNL A   1      43.787  23.210  34.153  1.00  0.00     0.001 A 
ATOM     34  C   UNL A   1      44.584  23.809  33.158  1.00  0.00     0.001 A 
ENDBRANCH  23  24
ENDBRANCH  15  18
ENDBRANCH  13  14
ENDBRANCH   7   8
ENDBRANCH   5   7
ENDBRANCH   2   3
ENDBRANCH   1   2
BRANCH   1  35
ATOM     35  C   UNL A   1      34.319  33.478  30.369  1.00  0.00     0.023 C 
BRANCH  35  36
ATOM     36  C   UNL A   1      34.876  32.066  30.207  1.00  0.00     0.116 C 
BRANCH  36  37
ATOM     37  N   UNL A   1      34.312  31.371  29.063  1.00  0.00    -0.352 N 
ATOM     38  C   UNL A   1      34.909  30.486  28.197  1.00  0.00     0.251 C 
ATOM     39  H   UNL A   1      33.363  31.561  28.882  1.00  0.00     0.163 HD
ATOM     40  O   UNL A   1      34.303  30.123  27.192  1.00  0.00    -0.269 OA
BRANCH  38  41
ATOM     41  C   UNL A   1      36.283  29.991  28.451  1.00  0.00     0.039 A 
ATOM     42  C   UNL A   1      37.229  30.082  27.427  1.00  0.00     0.014 A 
ATOM     43  C   UNL A   1      36.639  29.425  29.679  1.00  0.00     0.014 A 
ATOM     44  C   UNL A   1      38.545  29.669  27.654  1.00  0.00     0.010 A 
ATOM     45  C   UNL A   1      37.966  29.071  29.924  1.00  0.00     0.010 A 
ATOM     46  C   UNL A   1      38.934  29.193  28.917  1.00  0.00    -0.014 A 
BRANCH  46  47
ATOM     47  C   UNL A   1      40.350  28.834  29.202  1.00  0.00     0.031 A 
ATOM     48  C   UNL A   1      41.281  29.839  29.827  1.00  0.00     0.074 A 
ATOM     49  C   UNL A   1      40.817  27.623  28.838  1.00  0.00     0.049 A 
ATOM     50  N   UNL A   1      42.561  29.737  30.073  1.00  0.00    -0.248 NA
ATOM     51  C   UNL A   1      40.699  31.136  30.203  1.00  0.00     0.031 C 
ATOM     52  C   UNL A   1      40.031  26.575  28.184  1.00  0.00     0.029 A 
ATOM     53  N   UNL A   1      42.071  27.073  28.953  1.00  0.00    -0.354 N 
ATOM     54  C   UNL A   1      42.942  30.957  30.619  1.00  0.00     0.074 A 
ATOM     55  C   UNL A   1      41.767  31.800  30.625  1.00  0.00     0.031 C 
ATOM     56  C   UNL A   1      40.815  25.507  27.966  1.00  0.00     0.029 A 
ATOM     57  C   UNL A   1      42.167  25.804  28.432  1.00  0.00     0.049 A 
ATOM     58  H   UNL A   1      42.829  27.544  29.369  1.00  0.00     0.167 HD
ATOM     59  C   UNL A   1      44.155  31.334  31.093  1.00  0.00     0.037 A 
ATOM     60  C   UNL A   1      43.225  24.975  28.330  1.00  0.00     0.037 A 
ATOM     61  C   UNL A   1      45.319  30.485  31.109  1.00  0.00     0.049 A 
ATOM     62  C   UNL A   1      44.559  25.412  28.868  1.00  0.00     0.074 A 
ATOM     63  C   UNL A   1      46.579  30.761  31.613  1.00  0.00     0.029 A 
ATOM     64  N   UNL A   1      45.368  29.195  30.602  1.00  0.00    -0.354 N 
ATOM     65  N   UNL A   1      44.888  26.552  29.428  1.00  0.00    -0.248 NA
ATOM     66  C   UNL A   1      45.665  24.451  28.767  1.00  0.00     0.031 C 
ATOM     67  C   UNL A   1      47.398  29.651  31.378  1.00  0.00     0.029 A 
ATOM     68  C   UNL A   1      46.638  28.668  30.766  1.00  0.00     0.049 A 
ATOM     69  H   UNL A   1      44.610  28.724  30.184  1.00  0.00     0.167 HD
ATOM     70  C   UNL A   1      46.231  26.435  29.768  1.00  0.00     0.074 A 
ATOM     71  C   UNL A   1      46.652  25.110  29.360  1.00  0.00     0.031 C 
ATOM     72  C   UNL A   1      47.042  27.344  30.363  1.00  0.00     0.037 A 
BRANCH  59  73
ATOM     73  C   UNL A   1      44.283  32.727  31.644  1.00  0.00     0.058 A 
ATOM     74  C   UNL A   1      44.015  33.012  32.992  1.00  0.00     0.135 A 
ATOM     75  C   UNL A   1      44.712  33.785  30.825  1.00  0.00     0.135 A 
ATOM     76  F   UNL A   1      43.589  32.040  33.816  1.00  0.00    -0.206 F 
ATOM     77  C   UNL A   1      44.134  34.299  33.503  1.00  0.00     0.059 A 
ATOM     78  C   UNL A   1      44.866  35.077  31.321  1.00  0.00     0.059 A 
ATOM     79  F   UNL A   1      44.985  33.569  29.529  1.00  0.00    -0.206 F 
ATOM     80  C   UNL A   1      44.558  35.327  32.659  1.00  0.00     0.060 A 
BRANCH  80  81
ATOM     81  S   UNL A   1      44.707  36.994  33.336  1.00  0.00     0.124 S 
ATOM     82  O   UNL A   1      43.940  36.873  34.572  1.00  0.00    -0.237 OA
ATOM     83  O   UNL A   1      46.150  37.138  33.497  1.00  0.00    -0.237 OA
ATOM     84  O   UNL A   1      44.108  37.834  32.305  1.00  0.00    -0.744 OA
ENDBRANCH  80  81
ENDBRANCH  59  73
BRANCH  60  85
ATOM     85  C   UNL A   1      43.057  23.636  27.704  1.00  0.00     0.058 A 
ATOM     86  C   UNL A   1      43.348  23.432  26.348  1.00  0.00     0.135 A 
ATOM     87  C   UNL A   1      42.620  22.533  28.454  1.00  0.00     0.135 A 
ATOM     88  F   UNL A   1      43.764  24.457  25.590  1.00  0.00    -0.206 F 
ATOM     89  C   UNL A   1      43.198  22.185  25.751  1.00  0.00     0.059 A 
ATOM     90  C   UNL A   1      42.484  21.271  27.886  1.00  0.00     0.059 A 
ATOM     91  F   UNL A   1      42.345  22.673  29.760  1.00  0.00    -0.206 F 
ATOM     92  C   UNL A   1      42.767  21.109  26.529  1.00  0.00     0.060 A 
BRANCH  92  93
ATOM     93  S   UNL A   1      42.627  19.481  25.760  1.00  0.00     0.124 S 
ATOM     94  O   UNL A   1      43.026  18.604  26.855  1.00  0.00    -0.237 OA
ATOM     95  O   UNL A   1      41.217  19.437  25.386  1.00  0.00    -0.237 OA
ATOM     96  O   UNL A   1      43.562  19.560  24.640  1.00  0.00    -0.744 OA
ENDBRANCH  92  93
ENDBRANCH  60  85
BRANCH  72  97
ATOM     97  C   UNL A   1      48.461  26.930  30.641  1.00  0.00     0.058 A 
ATOM     98  C   UNL A   1      49.510  27.265  29.772  1.00  0.00     0.135 A 
ATOM     99  C   UNL A   1      48.779  26.231  31.816  1.00  0.00     0.135 A 
ATOM    100  F   UNL A   1      49.257  27.925  28.630  1.00  0.00    -0.206 F 
ATOM    101  C   UNL A   1      50.825  26.905  30.048  1.00  0.00     0.059 A 
ATOM    102  C   UNL A   1      50.090  25.882  32.126  1.00  0.00     0.059 A 
ATOM    103  F   UNL A   1      47.813  25.894  32.686  1.00  0.00    -0.206 F 
ATOM    104  C   UNL A   1      51.105  26.213  31.229  1.00  0.00     0.060 A 
BRANCH 104 105
ATOM    105  S   UNL A   1      52.820  25.781  31.594  1.00  0.00     0.124 S 
ATOM    106  O   UNL A   1      53.432  25.864  30.273  1.00  0.00    -0.237 OA
ATOM    107  O   UNL A   1      53.211  26.821  32.541  1.00  0.00    -0.237 OA
ATOM    108  O   UNL A   1      52.719  24.438  32.157  1.00  0.00    -0.744 OA
ENDBRANCH 104 105
ENDBRANCH  72  97
ENDBRANCH  46  47
ENDBRANCH  38  41
ENDBRANCH  36  37
ENDBRANCH  35  36
ENDBRANCH   1  35
TORSDOF 18
ENDMDL
MODEL 2
REMARK VINA RESULT:     -10.1      4.297     11.303
REMARK SMILES O=C(Cc1ccc(NC(=O)c2ccc(N3C(=O)c4ccccc4C3=O)cc2)cc1)NCCCCNC(=O)c1ccc(-c2c3nc(c(-c4c(F)cc(S(=O)(=O)[O-])cc4F)c4ccc([nH]4)c(-c4c(F)cc(S(=O)(=O)[O-])cc4F)c4nc(c(-c5c(F)cc(S(=O)(=O)[O-])cc5F)c5ccc2[nH]5)C=C4)C=C3)cc1
REMARK SMILES IDX 32 1 31 2 30 3 1 4 2 5 3 7 4 8 5 9 29 10 6 11 28 12 7 13
REMARK SMILES IDX 8 14 9 15 10 17 11 18 12 19 27 20 13 21 26 22 14 23 15 24
REMARK SMILES IDX 16 25 24 26 17 27 18 28 23 29 25 30 19 31 22 32 20 33 21 34
REMARK SMILES IDX 33 35 34 36 35 37 36 38 37 40 38 41 39 42 103 43 40 44
REMARK SMILES IDX 102 45 41 46 42 47 43 48 96 49 44 50 101 51 95 52 97 53
REMARK SMILES IDX 45 54 100 55 94 56 93 57 46 59 80 60 59 61 79 62 60 63 63 64
REMARK SMILES IDX 78 65 98 66 61 67 62 68 77 70 99 71 64 72 47 73 48 74 57 75
REMARK SMILES IDX 49 76 50 77 56 78 58 79 51 80 52 81 53 82 54 83 55 84 81 85
REMARK SMILES IDX 82 86 91 87 83 88 84 89 90 90 92 91 85 92 86 93 87 94 88 95
REMARK SMILES IDX 89 96 65 97 66 98 75 99 67 100 68 101 74 102 76 103 69 104
REMARK SMILES IDX 70 105 71 106 72 107 73 108
REMARK H PARENT 30 6 8 16 35 39 97 58 63 69
REMARK Flexibility Score: inf
ROOT
ATOM      1  C   UNL A   1      40.787  21.932  28.006  1.00  0.00     0.023 C 
ENDROOT
BRANCH   1   2
ATOM      2  C   UNL A   1      41.232  20.469  28.009  1.00  0.00     0.116 C 
BRANCH   2   3
ATOM      3  N   UNL A   1      42.370  20.268  27.137  1.00  0.00    -0.356 N 
ATOM      4  O   UNL A   1      41.360  18.853  25.634  1.00  0.00    -0.275 OA
ATOM      5  C   UNL A   1      42.357  19.448  26.031  1.00  0.00     0.224 C 
ATOM      6  H   UNL A   1      43.204  20.746  27.349  1.00  0.00     0.163 HD
BRANCH   5   7
ATOM      7  C   UNL A   1      43.719  19.291  25.372  1.00  0.00     0.135 C 
BRANCH   7   8
ATOM      8  C   UNL A   1      44.434  20.597  25.119  1.00  0.00    -0.039 A 
ATOM      9  C   UNL A   1      45.826  20.619  25.018  1.00  0.00     0.006 A 
ATOM     10  C   UNL A   1      43.742  21.809  25.002  1.00  0.00     0.006 A 
ATOM     11  C   UNL A   1      46.503  21.817  24.771  1.00  0.00     0.026 A 
ATOM     12  C   UNL A   1      44.422  22.999  24.713  1.00  0.00     0.026 A 
ATOM     13  C   UNL A   1      45.808  23.007  24.546  1.00  0.00     0.041 A 
BRANCH  13  14
ATOM     14  N   UNL A   1      46.411  24.230  24.177  1.00  0.00    -0.322 N 
ATOM     15  C   UNL A   1      46.556  25.423  24.858  1.00  0.00     0.255 C 
ATOM     16  H   UNL A   1      46.796  24.233  23.272  1.00  0.00     0.170 HD
ATOM     17  O   UNL A   1      46.944  26.436  24.283  1.00  0.00    -0.269 OA
BRANCH  15  18
ATOM     18  C   UNL A   1      46.294  25.491  26.307  1.00  0.00     0.040 A 
ATOM     19  C   UNL A   1      45.039  25.899  26.749  1.00  0.00     0.016 A 
ATOM     20  C   UNL A   1      47.249  25.053  27.221  1.00  0.00     0.016 A 
ATOM     21  C   UNL A   1      44.695  25.729  28.097  1.00  0.00     0.028 A 
ATOM     22  C   UNL A   1      46.894  24.883  28.563  1.00  0.00     0.028 A 
ATOM     23  C   UNL A   1      45.593  25.162  29.022  1.00  0.00     0.052 A 
BRANCH  23  24
ATOM     24  N   UNL A   1      45.187  24.824  30.351  1.00  0.00    -0.242 N 
ATOM     25  C   UNL A   1      45.629  25.456  31.499  1.00  0.00     0.266 C 
ATOM     26  C   UNL A   1      44.350  23.775  30.684  1.00  0.00     0.266 C 
ATOM     27  O   UNL A   1      46.359  26.413  31.681  1.00  0.00    -0.268 OA
ATOM     28  C   UNL A   1      45.040  24.757  32.633  1.00  0.00     0.053 A 
ATOM     29  C   UNL A   1      44.259  23.738  32.140  1.00  0.00     0.053 A 
ATOM     30  O   UNL A   1      43.759  22.950  30.009  1.00  0.00    -0.268 OA
ATOM     31  C   UNL A   1      45.179  24.984  33.989  1.00  0.00     0.015 A 
ATOM     32  C   UNL A   1      43.566  22.881  32.974  1.00  0.00     0.015 A 
ATOM     33  C   UNL A   1      44.486  24.134  34.856  1.00  0.00     0.001 A 
ATOM     34  C   UNL A   1      43.684  23.091  34.353  1.00  0.00     0.001 A 
ENDBRANCH  23  24
ENDBRANCH  15  18
ENDBRANCH  13  14
ENDBRANCH   7   8
ENDBRANCH   5   7
ENDBRANCH   2   3
ENDBRANCH   1   2
BRANCH   1  35
ATOM     35  C   UNL A   1      39.811  22.314  26.886  1.00  0.00     0.023 C 
BRANCH  35  36
ATOM     36  C   UNL A   1      39.487  23.801  26.771  1.00  0.00     0.116 C 
BRANCH  36  37
ATOM     37  N   UNL A   1      40.360  24.492  25.839  1.00  0.00    -0.352 N 
ATOM     38  C   UNL A   1      40.972  25.717  25.959  1.00  0.00     0.251 C 
ATOM     39  H   UNL A   1      40.542  24.013  24.998  1.00  0.00     0.163 HD
ATOM     40  O   UNL A   1      41.551  26.201  24.990  1.00  0.00    -0.269 OA
BRANCH  38  41
ATOM     41  C   UNL A   1      40.914  26.469  27.236  1.00  0.00     0.039 A 
ATOM     42  C   UNL A   1      41.745  27.581  27.398  1.00  0.00     0.014 A 
ATOM     43  C   UNL A   1      40.064  26.078  28.274  1.00  0.00     0.014 A 
ATOM     44  C   UNL A   1      41.675  28.339  28.571  1.00  0.00     0.010 A 
ATOM     45  C   UNL A   1      39.951  26.869  29.417  1.00  0.00     0.010 A 
ATOM     46  C   UNL A   1      40.751  28.010  29.577  1.00  0.00    -0.014 A 
BRANCH  46  47
ATOM     47  C   UNL A   1      40.601  28.856  30.792  1.00  0.00     0.031 A 
ATOM     48  C   UNL A   1      39.566  29.948  30.837  1.00  0.00     0.074 A 
ATOM     49  C   UNL A   1      41.443  28.687  31.831  1.00  0.00     0.049 A 
ATOM     50  N   UNL A   1      39.343  30.837  31.771  1.00  0.00    -0.248 NA
ATOM     51  C   UNL A   1      38.680  30.070  29.670  1.00  0.00     0.031 C 
ATOM     52  C   UNL A   1      42.519  27.695  31.895  1.00  0.00     0.029 A 
ATOM     53  N   UNL A   1      41.535  29.352  33.029  1.00  0.00    -0.354 N 
ATOM     54  C   UNL A   1      38.304  31.631  31.302  1.00  0.00     0.074 A 
ATOM     55  C   UNL A   1      37.971  31.148  29.979  1.00  0.00     0.031 C 
ATOM     56  C   UNL A   1      43.154  27.809  33.072  1.00  0.00     0.029 A 
ATOM     57  C   UNL A   1      42.557  28.902  33.833  1.00  0.00     0.049 A 
ATOM     58  H   UNL A   1      40.928  30.082  33.287  1.00  0.00     0.167 HD
ATOM     59  C   UNL A   1      37.669  32.655  31.923  1.00  0.00     0.037 A 
ATOM     60  C   UNL A   1      42.973  29.328  35.043  1.00  0.00     0.037 A 
ATOM     61  C   UNL A   1      37.985  33.118  33.249  1.00  0.00     0.049 A 
ATOM     62  C   UNL A   1      42.250  30.462  35.715  1.00  0.00     0.074 A 
ATOM     63  C   UNL A   1      37.366  34.117  33.982  1.00  0.00     0.029 A 
ATOM     64  N   UNL A   1      39.004  32.616  34.045  1.00  0.00    -0.354 N 
ATOM     65  N   UNL A   1      41.236  31.167  35.276  1.00  0.00    -0.248 NA
ATOM     66  C   UNL A   1      42.722  30.854  37.050  1.00  0.00     0.031 C 
ATOM     67  C   UNL A   1      38.034  34.241  35.206  1.00  0.00     0.029 A 
ATOM     68  C   UNL A   1      39.042  33.293  35.253  1.00  0.00     0.049 A 
ATOM     69  H   UNL A   1      39.613  31.887  33.786  1.00  0.00     0.167 HD
ATOM     70  C   UNL A   1      40.933  32.070  36.289  1.00  0.00     0.074 A 
ATOM     71  C   UNL A   1      41.865  31.814  37.369  1.00  0.00     0.031 C 
ATOM     72  C   UNL A   1      39.970  33.024  36.322  1.00  0.00     0.037 A 
BRANCH  59  73
ATOM     73  C   UNL A   1      36.558  33.339  31.176  1.00  0.00     0.058 A 
ATOM     74  C   UNL A   1      36.819  34.194  30.093  1.00  0.00     0.135 A 
ATOM     75  C   UNL A   1      35.215  33.113  31.522  1.00  0.00     0.135 A 
ATOM     76  F   UNL A   1      38.085  34.456  29.729  1.00  0.00    -0.206 F 
ATOM     77  C   UNL A   1      35.793  34.827  29.400  1.00  0.00     0.059 A 
ATOM     78  C   UNL A   1      34.171  33.714  30.825  1.00  0.00     0.059 A 
ATOM     79  F   UNL A   1      34.909  32.304  32.546  1.00  0.00    -0.206 F 
ATOM     80  C   UNL A   1      34.470  34.583  29.775  1.00  0.00     0.060 A 
BRANCH  80  81
ATOM     81  S   UNL A   1      33.149  35.412  28.867  1.00  0.00     0.124 S 
ATOM     82  O   UNL A   1      32.546  34.294  28.149  1.00  0.00    -0.237 OA
ATOM     83  O   UNL A   1      32.343  35.985  29.940  1.00  0.00    -0.237 OA
ATOM     84  O   UNL A   1      33.862  36.379  28.039  1.00  0.00    -0.744 OA
ENDBRANCH  80  81
ENDBRANCH  59  73
BRANCH  60  85
ATOM     85  C   UNL A   1      44.129  28.663  35.702  1.00  0.00     0.058 A 
ATOM     86  C   UNL A   1      43.935  27.601  36.598  1.00  0.00     0.135 A 
ATOM     87  C   UNL A   1      45.447  29.066  35.438  1.00  0.00     0.135 A 
ATOM     88  F   UNL A   1      42.693  27.186  36.887  1.00  0.00    -0.206 F 
ATOM     89  C   UNL A   1      45.007  26.970  37.220  1.00  0.00     0.059 A 
ATOM     90  C   UNL A   1      46.536  28.435  36.030  1.00  0.00     0.059 A 
ATOM     91  F   UNL A   1      45.685  30.065  34.575  1.00  0.00    -0.206 F 
ATOM     92  C   UNL A   1      46.305  27.392  36.927  1.00  0.00     0.060 A 
BRANCH  92  93
ATOM     93  S   UNL A   1      47.693  26.531  37.697  1.00  0.00     0.124 S 
ATOM     94  O   UNL A   1      48.346  25.934  36.538  1.00  0.00    -0.237 OA
ATOM     95  O   UNL A   1      48.413  27.624  38.344  1.00  0.00    -0.237 OA
ATOM     96  O   UNL A   1      47.041  25.594  38.608  1.00  0.00    -0.744 OA
ENDBRANCH  92  93
ENDBRANCH  60  85
BRANCH  72  97
ATOM     97  C   UNL A   1      39.851  33.845  37.576  1.00  0.00     0.058 A 
ATOM     98  C   UNL A   1      40.537  35.060  37.729  1.00  0.00     0.135 A 
ATOM     99  C   UNL A   1      39.002  33.435  38.616  1.00  0.00     0.135 A 
ATOM    100  F   UNL A   1      41.368  35.493  36.768  1.00  0.00    -0.206 F 
ATOM    101  C   UNL A   1      40.400  35.831  38.880  1.00  0.00     0.059 A 
ATOM    102  C   UNL A   1      38.831  34.201  39.765  1.00  0.00     0.059 A 
ATOM    103  F   UNL A   1      38.315  32.285  38.516  1.00  0.00    -0.206 F 
ATOM    104  C   UNL A   1      39.543  35.393  39.892  1.00  0.00     0.060 A 
BRANCH 104 105
ATOM    105  S   UNL A   1      39.348  36.419  41.365  1.00  0.00     0.124 S 
ATOM    106  O   UNL A   1      38.271  35.727  42.064  1.00  0.00    -0.237 OA
ATOM    107  O   UNL A   1      40.666  36.332  41.986  1.00  0.00    -0.237 OA
ATOM    108  O   UNL A   1      39.004  37.730  40.822  1.00  0.00    -0.744 OA
ENDBRANCH 104 105
ENDBRANCH  72  97
ENDBRANCH  46  47
ENDBRANCH  38  41
ENDBRANCH  36  37
ENDBRANCH  35  36
ENDBRANCH   1  35
TORSDOF 18
ENDMDL
MODEL 3
REMARK VINA RESULT:     -10.0      3.114      5.140
REMARK SMILES O=C(Cc1ccc(NC(=O)c2ccc(N3C(=O)c4ccccc4C3=O)cc2)cc1)NCCCCNC(=O)c1ccc(-c2c3nc(c(-c4c(F)cc(S(=O)(=O)[O-])cc4F)c4ccc([nH]4)c(-c4c(F)cc(S(=O)(=O)[O-])cc4F)c4nc(c(-c5c(F)cc(S(=O)(=O)[O-])cc5F)c5ccc2[nH]5)C=C4)C=C3)cc1
REMARK SMILES IDX 32 1 31 2 30 3 1 4 2 5 3 7 4 8 5 9 29 10 6 11 28 12 7 13
REMARK SMILES IDX 8 14 9 15 10 17 11 18 12 19 27 20 13 21 26 22 14 23 15 24
REMARK SMILES IDX 16 25 24 26 17 27 18 28 23 29 25 30 19 31 22 32 20 33 21 34
REMARK SMILES IDX 33 35 34 36 35 37 36 38 37 40 38 41 39 42 103 43 40 44
REMARK SMILES IDX 102 45 41 46 42 47 43 48 96 49 44 50 101 51 95 52 97 53
REMARK SMILES IDX 45 54 100 55 94 56 93 57 46 59 80 60 59 61 79 62 60 63 63 64
REMARK SMILES IDX 78 65 98 66 61 67 62 68 77 70 99 71 64 72 47 73 48 74 57 75
REMARK SMILES IDX 49 76 50 77 56 78 58 79 51 80 52 81 53 82 54 83 55 84 81 85
REMARK SMILES IDX 82 86 91 87 83 88 84 89 90 90 92 91 85 92 86 93 87 94 88 95
REMARK SMILES IDX 89 96 65 97 66 98 75 99 67 100 68 101 74 102 76 103 69 104
REMARK SMILES IDX 70 105 71 106 72 107 73 108
REMARK H PARENT 30 6 8 16 35 39 97 58 63 69
REMARK Flexibility Score: inf
ROOT
ATOM      1  C   UNL A   1      34.744  34.742  28.641  1.00  0.00     0.023 C 
ENDROOT
BRANCH   1   2
ATOM      2  C   UNL A   1      33.731  34.669  29.785  1.00  0.00     0.116 C 
BRANCH   2   3
ATOM      3  N   UNL A   1      34.351  34.993  31.052  1.00  0.00    -0.356 N 
ATOM      4  O   UNL A   1      34.059  32.953  32.068  1.00  0.00    -0.275 OA
ATOM      5  C   UNL A   1      34.439  34.118  32.111  1.00  0.00     0.224 C 
ATOM      6  H   UNL A   1      34.731  35.895  31.162  1.00  0.00     0.163 HD
BRANCH   5   7
ATOM      7  C   UNL A   1      34.999  34.749  33.378  1.00  0.00     0.135 C 
BRANCH   7   8
ATOM      8  C   UNL A   1      35.985  33.877  34.116  1.00  0.00    -0.039 A 
ATOM      9  C   UNL A   1      36.609  32.819  33.453  1.00  0.00     0.006 A 
ATOM     10  C   UNL A   1      36.286  34.081  35.469  1.00  0.00     0.006 A 
ATOM     11  C   UNL A   1      37.536  32.010  34.118  1.00  0.00     0.026 A 
ATOM     12  C   UNL A   1      37.246  33.293  36.118  1.00  0.00     0.026 A 
ATOM     13  C   UNL A   1      37.918  32.278  35.434  1.00  0.00     0.041 A 
BRANCH  13  14
ATOM     14  N   UNL A   1      38.927  31.581  36.134  1.00  0.00    -0.322 N 
ATOM     15  C   UNL A   1      40.264  31.377  35.853  1.00  0.00     0.255 C 
ATOM     16  H   UNL A   1      38.623  31.167  36.973  1.00  0.00     0.170 HD
ATOM     17  O   UNL A   1      40.930  30.572  36.499  1.00  0.00    -0.269 OA
BRANCH  15  18
ATOM     18  C   UNL A   1      40.933  32.160  34.799  1.00  0.00     0.040 A 
ATOM     19  C   UNL A   1      41.419  31.504  33.673  1.00  0.00     0.016 A 
ATOM     20  C   UNL A   1      40.986  33.551  34.876  1.00  0.00     0.016 A 
ATOM     21  C   UNL A   1      41.825  32.254  32.560  1.00  0.00     0.028 A 
ATOM     22  C   UNL A   1      41.389  34.289  33.758  1.00  0.00     0.028 A 
ATOM     23  C   UNL A   1      41.763  33.660  32.556  1.00  0.00     0.052 A 
BRANCH  23  24
ATOM     24  N   UNL A   1      42.006  34.418  31.367  1.00  0.00    -0.242 N 
ATOM     25  C   UNL A   1      41.149  34.487  30.283  1.00  0.00     0.266 C 
ATOM     26  C   UNL A   1      43.160  35.131  31.101  1.00  0.00     0.266 C 
ATOM     27  O   UNL A   1      40.041  34.026  30.081  1.00  0.00    -0.268 OA
ATOM     28  C   UNL A   1      41.807  35.290  29.261  1.00  0.00     0.053 A 
ATOM     29  C   UNL A   1      43.027  35.686  29.758  1.00  0.00     0.053 A 
ATOM     30  O   UNL A   1      44.174  35.323  31.749  1.00  0.00    -0.268 OA
ATOM     31  C   UNL A   1      41.381  35.641  27.994  1.00  0.00     0.015 A 
ATOM     32  C   UNL A   1      43.899  36.462  29.017  1.00  0.00     0.015 A 
ATOM     33  C   UNL A   1      42.242  36.429  27.224  1.00  0.00     0.001 A 
ATOM     34  C   UNL A   1      43.491  36.837  27.732  1.00  0.00     0.001 A 
ENDBRANCH  23  24
ENDBRANCH  15  18
ENDBRANCH  13  14
ENDBRANCH   7   8
ENDBRANCH   5   7
ENDBRANCH   2   3
ENDBRANCH   1   2
BRANCH   1  35
ATOM     35  C   UNL A   1      35.337  33.394  28.208  1.00  0.00     0.023 C 
BRANCH  35  36
ATOM     36  C   UNL A   1      36.459  32.853  29.089  1.00  0.00     0.116 C 
BRANCH  36  37
ATOM     37  N   UNL A   1      36.000  31.832  30.014  1.00  0.00    -0.352 N 
ATOM     38  C   UNL A   1      36.606  30.656  30.389  1.00  0.00     0.251 C 
ATOM     39  H   UNL A   1      35.127  32.007  30.434  1.00  0.00     0.163 HD
ATOM     40  O   UNL A   1      35.983  29.845  31.069  1.00  0.00    -0.269 OA
BRANCH  38  41
ATOM     41  C   UNL A   1      37.991  30.348  29.956  1.00  0.00     0.039 A 
ATOM     42  C   UNL A   1      38.996  30.276  30.925  1.00  0.00     0.014 A 
ATOM     43  C   UNL A   1      38.306  30.149  28.609  1.00  0.00     0.014 A 
ATOM     44  C   UNL A   1      40.301  29.938  30.552  1.00  0.00     0.010 A 
ATOM     45  C   UNL A   1      39.594  29.753  28.247  1.00  0.00     0.010 A 
ATOM     46  C   UNL A   1      40.604  29.639  29.214  1.00  0.00    -0.014 A 
BRANCH  46  47
ATOM     47  C   UNL A   1      41.965  29.191  28.814  1.00  0.00     0.031 A 
ATOM     48  C   UNL A   1      43.100  30.177  28.735  1.00  0.00     0.074 A 
ATOM     49  C   UNL A   1      42.166  27.907  28.456  1.00  0.00     0.049 A 
ATOM     50  N   UNL A   1      44.329  29.990  28.328  1.00  0.00    -0.248 NA
ATOM     51  C   UNL A   1      42.808  31.558  29.146  1.00  0.00     0.031 C 
ATOM     52  C   UNL A   1      41.140  26.862  28.444  1.00  0.00     0.029 A 
ATOM     53  N   UNL A   1      43.299  27.263  28.019  1.00  0.00    -0.354 N 
ATOM     54  C   UNL A   1      44.953  31.228  28.421  1.00  0.00     0.074 A 
ATOM     55  C   UNL A   1      43.953  32.169  28.878  1.00  0.00     0.031 C 
ATOM     56  C   UNL A   1      41.692  25.708  28.033  1.00  0.00     0.029 A 
ATOM     57  C   UNL A   1      43.099  25.936  27.719  1.00  0.00     0.049 A 
ATOM     58  H   UNL A   1      44.170  27.711  27.928  1.00  0.00     0.167 HD
ATOM     59  C   UNL A   1      46.246  31.549  28.170  1.00  0.00     0.037 A 
ATOM     60  C   UNL A   1      43.949  25.008  27.236  1.00  0.00     0.037 A 
ATOM     61  C   UNL A   1      47.246  30.607  27.738  1.00  0.00     0.049 A 
ATOM     62  C   UNL A   1      45.380  25.386  26.970  1.00  0.00     0.074 A 
ATOM     63  C   UNL A   1      48.593  30.827  27.504  1.00  0.00     0.029 A 
ATOM     64  N   UNL A   1      47.012  29.265  27.476  1.00  0.00    -0.354 N 
ATOM     65  N   UNL A   1      45.964  26.551  27.113  1.00  0.00    -0.248 NA
ATOM     66  C   UNL A   1      46.270  24.323  26.484  1.00  0.00     0.031 C 
ATOM     67  C   UNL A   1      49.165  29.627  27.068  1.00  0.00     0.029 A 
ATOM     68  C   UNL A   1      48.185  28.649  27.070  1.00  0.00     0.049 A 
ATOM     69  H   UNL A   1      46.140  28.817  27.565  1.00  0.00     0.167 HD
ATOM     70  C   UNL A   1      47.294  26.356  26.758  1.00  0.00     0.074 A 
ATOM     71  C   UNL A   1      47.431  24.958  26.403  1.00  0.00     0.031 C 
ATOM     72  C   UNL A   1      48.309  27.254  26.727  1.00  0.00     0.037 A 
BRANCH  59  73
ATOM     73  C   UNL A   1      46.657  32.983  28.365  1.00  0.00     0.058 A 
ATOM     74  C   UNL A   1      46.603  33.912  27.314  1.00  0.00     0.135 A 
ATOM     75  C   UNL A   1      47.077  33.443  29.624  1.00  0.00     0.135 A 
ATOM     76  F   UNL A   1      46.221  33.523  26.087  1.00  0.00    -0.206 F 
ATOM     77  C   UNL A   1      46.981  35.238  27.495  1.00  0.00     0.059 A 
ATOM     78  C   UNL A   1      47.434  34.772  29.834  1.00  0.00     0.059 A 
ATOM     79  F   UNL A   1      47.145  32.598  30.664  1.00  0.00    -0.206 F 
ATOM     80  C   UNL A   1      47.398  35.659  28.759  1.00  0.00     0.060 A 
BRANCH  80  81
ATOM     81  S   UNL A   1      47.887  37.383  28.976  1.00  0.00     0.124 S 
ATOM     82  O   UNL A   1      46.890  37.847  29.935  1.00  0.00    -0.237 OA
ATOM     83  O   UNL A   1      49.248  37.261  29.486  1.00  0.00    -0.237 OA
ATOM     84  O   UNL A   1      47.772  37.940  27.633  1.00  0.00    -0.744 OA
ENDBRANCH  80  81
ENDBRANCH  59  73
BRANCH  60  85
ATOM     85  C   UNL A   1      43.468  23.623  26.987  1.00  0.00     0.058 A 
ATOM     86  C   UNL A   1      43.275  22.725  28.047  1.00  0.00     0.135 A 
ATOM     87  C   UNL A   1      43.176  23.177  25.689  1.00  0.00     0.135 A 
ATOM     88  F   UNL A   1      43.547  23.104  29.305  1.00  0.00    -0.206 F 
ATOM     89  C   UNL A   1      42.824  21.427  27.829  1.00  0.00     0.059 A 
ATOM     90  C   UNL A   1      42.701  21.892  25.447  1.00  0.00     0.059 A 
ATOM     91  F   UNL A   1      43.327  24.004  24.643  1.00  0.00    -0.206 F 
ATOM     92  C   UNL A   1      42.537  21.021  26.525  1.00  0.00     0.060 A 
BRANCH  92  93
ATOM     93  S   UNL A   1      41.899  19.353  26.255  1.00  0.00     0.124 S 
ATOM     94  O   UNL A   1      42.220  18.709  27.524  1.00  0.00    -0.237 OA
ATOM     95  O   UNL A   1      40.483  19.602  26.004  1.00  0.00    -0.237 OA
ATOM     96  O   UNL A   1      42.660  18.887  25.099  1.00  0.00    -0.744 OA
ENDBRANCH  92  93
ENDBRANCH  60  85
BRANCH  72  97
ATOM     97  C   UNL A   1      49.668  26.750  26.327  1.00  0.00     0.058 A 
ATOM     98  C   UNL A   1      50.147  26.884  25.015  1.00  0.00     0.135 A 
ATOM     99  C   UNL A   1      50.520  26.170  27.282  1.00  0.00     0.135 A 
ATOM    100  F   UNL A   1      49.369  27.424  24.064  1.00  0.00    -0.206 F 
ATOM    101  C   UNL A   1      51.417  26.443  24.657  1.00  0.00     0.059 A 
ATOM    102  C   UNL A   1      51.803  25.744  26.952  1.00  0.00     0.059 A 
ATOM    103  F   UNL A   1      50.114  26.027  28.553  1.00  0.00    -0.206 F 
ATOM    104  C   UNL A   1      52.239  25.874  25.634  1.00  0.00     0.060 A 
BRANCH 104 105
ATOM    105  S   UNL A   1      53.898  25.337  25.165  1.00  0.00     0.124 S 
ATOM    106  O   UNL A   1      54.710  25.945  26.212  1.00  0.00    -0.237 OA
ATOM    107  O   UNL A   1      53.782  23.883  25.215  1.00  0.00    -0.237 OA
ATOM    108  O   UNL A   1      54.071  25.899  23.829  1.00  0.00    -0.744 OA
ENDBRANCH 104 105
ENDBRANCH  72  97
ENDBRANCH  46  47
ENDBRANCH  38  41
ENDBRANCH  36  37
ENDBRANCH  35  36
ENDBRANCH   1  35
TORSDOF 18
ENDMDL
