MODEL 1
REMARK VINA RESULT:     -11.5      0.000      0.000
REMARK SMILES C/C(=N/[NH+]=C1\NC(=O)[C@H](CC(=O)NCCCCNC(=O)c2ccc(-c3c4nc(c(-c5c(F)cc(S(=O)(=O)[O-])cc5F)c5ccc([nH]5)c(-c5c(F)cc(S(=O)(=O)[O-])cc5F)c5nc(c(-c6c(F)cc(S(=O)(=O)[O-])cc6F)c6ccc3[nH]6)C=C5)C=C4)cc2)S1)c1ccc(OC(C)C)cc1
REMARK SMILES IDX 14 1 13 2 11 3 12 4 10 6 9 7 4 8 5 9 6 11 87 12 7 13 8 15
REMARK SMILES IDX 3 16 1 17 2 18 88 19 89 20 97 21 90 22 96 23 91 24 92 25
REMARK SMILES IDX 93 26 94 27 95 28 15 29 16 30 17 31 18 32 19 33 20 35 21 36
REMARK SMILES IDX 22 37 86 38 23 39 85 40 24 41 25 42 26 43 79 44 27 45 84 46
REMARK SMILES IDX 78 47 80 48 28 49 83 50 77 51 76 52 29 54 63 55 42 56 62 57
REMARK SMILES IDX 43 58 46 59 61 60 81 61 44 62 45 63 60 65 82 66 47 67 30 68
REMARK SMILES IDX 31 69 40 70 32 71 33 72 39 73 41 74 34 75 35 76 36 77 37 78
REMARK SMILES IDX 38 79 64 80 65 81 74 82 66 83 67 84 73 85 75 86 68 87 69 88
REMARK SMILES IDX 70 89 71 90 72 91 48 92 49 93 58 94 50 95 51 96 57 97 59 98
REMARK SMILES IDX 52 99 53 100 54 101 55 102 56 103
REMARK H PARENT 13 5 4 10 6 14 18 34 80 53 46 64
REMARK Flexibility Score: inf
ROOT
ATOM      1  C   UNL A   1      32.539  31.179  26.732  1.00  0.00     0.116 C 
ENDROOT
BRANCH   1   2
ATOM      2  N   UNL A   1      31.759  30.170  27.417  1.00  0.00    -0.356 N 
ATOM      3  C   UNL A   1      31.761  28.818  27.231  1.00  0.00     0.221 C 
ATOM      4  O   UNL A   1      31.053  28.107  27.943  1.00  0.00    -0.275 OA
ATOM      5  H   UNL A   1      31.146  30.503  28.111  1.00  0.00     0.163 HD
BRANCH   3   6
ATOM      6  C   UNL A   1      32.630  28.214  26.154  1.00  0.00     0.127 C 
BRANCH   6   7
ATOM      7  C   UNL A   1      31.938  27.048  25.451  1.00  0.00     0.183 C 
ATOM      8  N   UNL A   1      34.367  24.156  25.901  1.00  0.00    -0.142 N 
ATOM      9  C   UNL A   1      33.499  25.012  25.491  1.00  0.00     0.337 C 
ATOM     10  H   UNL A   1      34.283  23.707  26.774  1.00  0.00     0.343 HD
ATOM     11  N   UNL A   1      33.496  25.648  24.301  1.00  0.00    -0.202 N 
ATOM     12  S   UNL A   1      32.174  25.548  26.486  1.00  0.00    -0.020 SA
ATOM     13  C   UNL A   1      32.590  26.655  24.133  1.00  0.00     0.322 C 
ATOM     14  H   UNL A   1      34.122  25.397  23.584  1.00  0.00     0.316 HD
ATOM     15  O   UNL A   1      32.374  27.193  23.057  1.00  0.00    -0.246 OA
BRANCH   8  16
ATOM     16  N   UNL A   1      35.438  23.894  25.041  1.00  0.00    -0.090 NA
ATOM     17  C   UNL A   1      36.450  22.613  23.278  1.00  0.00     0.071 C 
ATOM     18  C   UNL A   1      35.362  22.809  24.314  1.00  0.00     0.088 C 
BRANCH  18  19
ATOM     19  C   UNL A   1      34.363  21.700  24.468  1.00  0.00    -0.000 A 
ATOM     20  C   UNL A   1      34.477  20.750  25.480  1.00  0.00     0.014 A 
ATOM     21  C   UNL A   1      33.366  21.531  23.497  1.00  0.00     0.014 A 
ATOM     22  C   UNL A   1      33.700  19.591  25.441  1.00  0.00     0.047 A 
ATOM     23  C   UNL A   1      32.573  20.369  23.475  1.00  0.00     0.047 A 
ATOM     24  C   UNL A   1      32.766  19.371  24.421  1.00  0.00     0.119 A 
BRANCH  24  25
ATOM     25  O   UNL A   1      32.172  18.153  24.495  1.00  0.00    -0.491 OA
BRANCH  25  26
ATOM     26  C   UNL A   1      32.715  16.916  24.030  1.00  0.00     0.167 C 
ATOM     27  C   UNL A   1      33.887  17.063  23.069  1.00  0.00     0.052 C 
ATOM     28  C   UNL A   1      32.950  15.887  25.128  1.00  0.00     0.052 C 
ENDBRANCH  25  26
ENDBRANCH  24  25
ENDBRANCH  18  19
ENDBRANCH   8  16
ENDBRANCH   6   7
ENDBRANCH   3   6
ENDBRANCH   1   2
BRANCH   1  29
ATOM     29  C   UNL A   1      33.658  31.767  27.582  1.00  0.00     0.023 C 
BRANCH  29  30
ATOM     30  C   UNL A   1      34.868  30.854  27.754  1.00  0.00     0.023 C 
BRANCH  30  31
ATOM     31  C   UNL A   1      35.972  31.391  28.658  1.00  0.00     0.116 C 
BRANCH  31  32
ATOM     32  N   UNL A   1      35.704  31.199  30.076  1.00  0.00    -0.352 N 
ATOM     33  C   UNL A   1      36.529  30.703  31.062  1.00  0.00     0.251 C 
ATOM     34  H   UNL A   1      34.804  31.462  30.374  1.00  0.00     0.163 HD
ATOM     35  O   UNL A   1      36.090  30.510  32.183  1.00  0.00    -0.269 OA
BRANCH  33  36
ATOM     36  C   UNL A   1      37.934  30.375  30.727  1.00  0.00     0.039 A 
ATOM     37  C   UNL A   1      38.493  29.199  31.232  1.00  0.00     0.014 A 
ATOM     38  C   UNL A   1      38.672  31.201  29.877  1.00  0.00     0.014 A 
ATOM     39  C   UNL A   1      39.771  28.812  30.819  1.00  0.00     0.010 A 
ATOM     40  C   UNL A   1      39.907  30.772  29.403  1.00  0.00     0.010 A 
ATOM     41  C   UNL A   1      40.472  29.574  29.871  1.00  0.00    -0.014 A 
BRANCH  41  42
ATOM     42  C   UNL A   1      41.802  29.148  29.363  1.00  0.00     0.031 A 
ATOM     43  C   UNL A   1      42.933  30.139  29.301  1.00  0.00     0.074 A 
ATOM     44  C   UNL A   1      41.976  27.894  28.898  1.00  0.00     0.049 A 
ATOM     45  N   UNL A   1      44.141  29.986  28.822  1.00  0.00    -0.248 NA
ATOM     46  C   UNL A   1      42.660  31.491  29.816  1.00  0.00     0.031 C 
ATOM     47  C   UNL A   1      40.942  26.856  28.850  1.00  0.00     0.029 A 
ATOM     48  N   UNL A   1      43.082  27.281  28.364  1.00  0.00    -0.354 N 
ATOM     49  C   UNL A   1      44.761  31.223  28.959  1.00  0.00     0.074 A 
ATOM     50  C   UNL A   1      43.779  32.129  29.511  1.00  0.00     0.031 C 
ATOM     51  C   UNL A   1      41.471  25.730  28.341  1.00  0.00     0.029 A 
ATOM     52  C   UNL A   1      42.868  25.974  27.995  1.00  0.00     0.049 A 
ATOM     53  H   UNL A   1      43.949  27.735  28.257  1.00  0.00     0.167 HD
ATOM     54  C   UNL A   1      46.041  31.565  28.679  1.00  0.00     0.037 A 
ATOM     55  C   UNL A   1      43.703  25.074  27.438  1.00  0.00     0.037 A 
ATOM     56  C   UNL A   1      47.025  30.649  28.167  1.00  0.00     0.049 A 
ATOM     57  C   UNL A   1      45.126  25.471  27.154  1.00  0.00     0.074 A 
ATOM     58  C   UNL A   1      48.365  30.882  27.908  1.00  0.00     0.029 A 
ATOM     59  N   UNL A   1      46.779  29.324  27.840  1.00  0.00    -0.354 N 
ATOM     60  N   UNL A   1      45.713  26.629  27.349  1.00  0.00    -0.248 NA
ATOM     61  C   UNL A   1      46.004  24.441  26.582  1.00  0.00     0.031 C 
ATOM     62  C   UNL A   1      48.920  29.706  27.391  1.00  0.00     0.029 A 
ATOM     63  C   UNL A   1      47.938  28.729  27.369  1.00  0.00     0.049 A 
ATOM     64  H   UNL A   1      45.909  28.873  27.929  1.00  0.00     0.167 HD
ATOM     65  C   UNL A   1      47.034  26.457  26.952  1.00  0.00     0.074 A 
ATOM     66  C   UNL A   1      47.163  25.082  26.514  1.00  0.00     0.031 C 
ATOM     67  C   UNL A   1      48.050  27.355  26.951  1.00  0.00     0.037 A 
BRANCH  54  68
ATOM     68  C   UNL A   1      46.450  32.990  28.934  1.00  0.00     0.058 A 
ATOM     69  C   UNL A   1      46.959  33.397  30.178  1.00  0.00     0.135 A 
ATOM     70  C   UNL A   1      46.351  33.956  27.920  1.00  0.00     0.135 A 
ATOM     71  F   UNL A   1      47.059  32.518  31.188  1.00  0.00    -0.206 F 
ATOM     72  C   UNL A   1      47.324  34.718  30.419  1.00  0.00     0.059 A 
ATOM     73  C   UNL A   1      46.737  35.277  28.128  1.00  0.00     0.059 A 
ATOM     74  F   UNL A   1      45.870  33.622  26.712  1.00  0.00    -0.206 F 
ATOM     75  C   UNL A   1      47.206  35.651  29.388  1.00  0.00     0.060 A 
BRANCH  75  76
ATOM     76  S   UNL A   1      47.677  37.361  29.718  1.00  0.00     0.124 S 
ATOM     77  O   UNL A   1      48.646  37.605  28.652  1.00  0.00    -0.237 OA
ATOM     78  O   UNL A   1      46.407  38.067  29.591  1.00  0.00    -0.237 OA
ATOM     79  O   UNL A   1      48.230  37.308  31.068  1.00  0.00    -0.744 OA
ENDBRANCH  75  76
ENDBRANCH  54  68
BRANCH  55  80
ATOM     80  C   UNL A   1      43.223  23.696  27.141  1.00  0.00     0.058 A 
ATOM     81  C   UNL A   1      43.117  22.737  28.159  1.00  0.00     0.135 A 
ATOM     82  C   UNL A   1      42.857  23.314  25.842  1.00  0.00     0.135 A 
ATOM     83  F   UNL A   1      43.461  23.053  29.417  1.00  0.00    -0.206 F 
ATOM     84  C   UNL A   1      42.681  21.442  27.899  1.00  0.00     0.059 A 
ATOM     85  C   UNL A   1      42.395  22.031  25.561  1.00  0.00     0.059 A 
ATOM     86  F   UNL A   1      42.924  24.199  24.836  1.00  0.00    -0.206 F 
ATOM     87  C   UNL A   1      42.322  21.099  26.595  1.00  0.00     0.060 A 
BRANCH  87  88
ATOM     88  S   UNL A   1      41.714  19.428  26.275  1.00  0.00     0.124 S 
ATOM     89  O   UNL A   1      40.293  19.669  26.056  1.00  0.00    -0.237 OA
ATOM     90  O   UNL A   1      42.486  19.042  25.098  1.00  0.00    -0.237 OA
ATOM     91  O   UNL A   1      42.052  18.708  27.500  1.00  0.00    -0.744 OA
ENDBRANCH  87  88
ENDBRANCH  55  80
BRANCH  67  92
ATOM     92  C   UNL A   1      49.400  26.875  26.498  1.00  0.00     0.058 A 
ATOM     93  C   UNL A   1      50.280  26.215  27.370  1.00  0.00     0.135 A 
ATOM     94  C   UNL A   1      49.792  27.024  25.158  1.00  0.00     0.135 A 
ATOM     95  F   UNL A   1      49.955  26.052  28.662  1.00  0.00    -0.206 F 
ATOM     96  C   UNL A   1      51.512  25.739  26.934  1.00  0.00     0.059 A 
ATOM     97  C   UNL A   1      51.008  26.533  24.694  1.00  0.00     0.059 A 
ATOM     98  F   UNL A   1      48.982  27.637  24.280  1.00  0.00    -0.206 F 
ATOM     99  C   UNL A   1      51.866  25.900  25.594  1.00  0.00     0.060 A 
BRANCH  99 100
ATOM    100  S   UNL A   1      53.451  25.243  25.030  1.00  0.00     0.124 S 
ATOM    101  O   UNL A   1      54.389  25.984  25.866  1.00  0.00    -0.237 OA
ATOM    102  O   UNL A   1      53.323  23.819  25.329  1.00  0.00    -0.237 OA
ATOM    103  O   UNL A   1      53.473  25.580  23.610  1.00  0.00    -0.744 OA
ENDBRANCH  99 100
ENDBRANCH  67  92
ENDBRANCH  41  42
ENDBRANCH  33  36
ENDBRANCH  31  32
ENDBRANCH  30  31
ENDBRANCH  29  30
ENDBRANCH   1  29
TORSDOF 19
ENDMDL
MODEL 2
REMARK VINA RESULT:     -11.1      5.962      8.144
REMARK SMILES C/C(=N/[NH+]=C1\NC(=O)[C@H](CC(=O)NCCCCNC(=O)c2ccc(-c3c4nc(c(-c5c(F)cc(S(=O)(=O)[O-])cc5F)c5ccc([nH]5)c(-c5c(F)cc(S(=O)(=O)[O-])cc5F)c5nc(c(-c6c(F)cc(S(=O)(=O)[O-])cc6F)c6ccc3[nH]6)C=C5)C=C4)cc2)S1)c1ccc(OC(C)C)cc1
REMARK SMILES IDX 14 1 13 2 11 3 12 4 10 6 9 7 4 8 5 9 6 11 87 12 7 13 8 15
REMARK SMILES IDX 3 16 1 17 2 18 88 19 89 20 97 21 90 22 96 23 91 24 92 25
REMARK SMILES IDX 93 26 94 27 95 28 15 29 16 30 17 31 18 32 19 33 20 35 21 36
REMARK SMILES IDX 22 37 86 38 23 39 85 40 24 41 25 42 26 43 79 44 27 45 84 46
REMARK SMILES IDX 78 47 80 48 28 49 83 50 77 51 76 52 29 54 63 55 42 56 62 57
REMARK SMILES IDX 43 58 46 59 61 60 81 61 44 62 45 63 60 65 82 66 47 67 30 68
REMARK SMILES IDX 31 69 40 70 32 71 33 72 39 73 41 74 34 75 35 76 36 77 37 78
REMARK SMILES IDX 38 79 64 80 65 81 74 82 66 83 67 84 73 85 75 86 68 87 69 88
REMARK SMILES IDX 70 89 71 90 72 91 48 92 49 93 58 94 50 95 51 96 57 97 59 98
REMARK SMILES IDX 52 99 53 100 54 101 55 102 56 103
REMARK H PARENT 13 5 4 10 6 14 18 34 80 53 46 64
REMARK Flexibility Score: inf
ROOT
ATOM      1  C   UNL A   1      32.335  30.452  26.148  1.00  0.00     0.116 C 
ENDROOT
BRANCH   1   2
ATOM      2  N   UNL A   1      33.152  29.315  26.519  1.00  0.00    -0.356 N 
ATOM      3  C   UNL A   1      33.330  28.138  25.852  1.00  0.00     0.221 C 
ATOM      4  O   UNL A   1      34.103  27.295  26.304  1.00  0.00    -0.275 OA
ATOM      5  H   UNL A   1      33.646  29.403  27.365  1.00  0.00     0.163 HD
BRANCH   3   6
ATOM      6  C   UNL A   1      32.575  27.886  24.569  1.00  0.00     0.127 C 
BRANCH   6   7
ATOM      7  C   UNL A   1      31.129  27.471  24.831  1.00  0.00     0.183 C 
ATOM      8  N   UNL A   1      31.240  23.672  24.680  1.00  0.00    -0.142 N 
ATOM      9  C   UNL A   1      30.944  24.922  24.606  1.00  0.00     0.337 C 
ATOM     10  H   UNL A   1      31.535  23.256  25.522  1.00  0.00     0.343 HD
ATOM     11  N   UNL A   1      30.491  25.579  23.519  1.00  0.00    -0.202 N 
ATOM     12  S   UNL A   1      31.157  26.012  25.948  1.00  0.00    -0.020 SA
ATOM     13  C   UNL A   1      30.412  26.939  23.599  1.00  0.00     0.322 C 
ATOM     14  H   UNL A   1      30.229  25.098  22.701  1.00  0.00     0.316 HD
ATOM     15  O   UNL A   1      29.866  27.632  22.752  1.00  0.00    -0.246 OA
BRANCH   8  16
ATOM     16  N   UNL A   1      31.121  22.934  23.498  1.00  0.00    -0.090 NA
ATOM     17  C   UNL A   1      31.962  21.300  21.950  1.00  0.00     0.071 C 
ATOM     18  C   UNL A   1      32.153  22.212  23.145  1.00  0.00     0.088 C 
BRANCH  18  19
ATOM     19  C   UNL A   1      33.527  22.265  23.744  1.00  0.00    -0.000 A 
ATOM     20  C   UNL A   1      34.495  23.149  23.274  1.00  0.00     0.014 A 
ATOM     21  C   UNL A   1      33.896  21.317  24.710  1.00  0.00     0.014 A 
ATOM     22  C   UNL A   1      35.828  22.997  23.662  1.00  0.00     0.047 A 
ATOM     23  C   UNL A   1      35.238  21.182  25.111  1.00  0.00     0.047 A 
ATOM     24  C   UNL A   1      36.220  21.993  24.555  1.00  0.00     0.119 A 
BRANCH  24  25
ATOM     25  O   UNL A   1      37.562  21.940  24.743  1.00  0.00    -0.491 OA
BRANCH  25  26
ATOM     26  C   UNL A   1      38.262  22.268  25.946  1.00  0.00     0.167 C 
ATOM     27  C   UNL A   1      39.615  21.585  26.095  1.00  0.00     0.052 C 
ATOM     28  C   UNL A   1      38.291  23.757  26.262  1.00  0.00     0.052 C 
ENDBRANCH  25  26
ENDBRANCH  24  25
ENDBRANCH  18  19
ENDBRANCH   8  16
ENDBRANCH   6   7
ENDBRANCH   3   6
ENDBRANCH   1   2
BRANCH   1  29
ATOM     29  C   UNL A   1      32.252  31.521  27.230  1.00  0.00     0.023 C 
BRANCH  29  30
ATOM     30  C   UNL A   1      33.597  31.924  27.827  1.00  0.00     0.023 C 
BRANCH  30  31
ATOM     31  C   UNL A   1      33.953  33.402  27.705  1.00  0.00     0.116 C 
BRANCH  31  32
ATOM     32  N   UNL A   1      33.153  34.263  28.563  1.00  0.00    -0.352 N 
ATOM     33  C   UNL A   1      33.323  34.571  29.895  1.00  0.00     0.251 C 
ATOM     34  H   UNL A   1      32.377  34.687  28.128  1.00  0.00     0.163 HD
ATOM     35  O   UNL A   1      32.480  35.231  30.479  1.00  0.00    -0.269 OA
BRANCH  33  36
ATOM     36  C   UNL A   1      34.518  34.060  30.605  1.00  0.00     0.039 A 
ATOM     37  C   UNL A   1      34.395  32.917  31.398  1.00  0.00     0.014 A 
ATOM     38  C   UNL A   1      35.759  34.678  30.441  1.00  0.00     0.014 A 
ATOM     39  C   UNL A   1      35.539  32.349  31.967  1.00  0.00     0.010 A 
ATOM     40  C   UNL A   1      36.904  34.064  30.938  1.00  0.00     0.010 A 
ATOM     41  C   UNL A   1      36.807  32.895  31.709  1.00  0.00    -0.014 A 
BRANCH  41  42
ATOM     42  C   UNL A   1      38.044  32.269  32.244  1.00  0.00     0.031 A 
ATOM     43  C   UNL A   1      38.486  32.568  33.651  1.00  0.00     0.074 A 
ATOM     44  C   UNL A   1      38.803  31.487  31.449  1.00  0.00     0.049 A 
ATOM     45  N   UNL A   1      39.570  32.186  34.276  1.00  0.00    -0.248 NA
ATOM     46  C   UNL A   1      37.611  33.441  34.451  1.00  0.00     0.031 C 
ATOM     47  C   UNL A   1      38.512  31.166  30.048  1.00  0.00     0.029 A 
ATOM     48  N   UNL A   1      39.980  30.828  31.701  1.00  0.00    -0.354 N 
ATOM     49  C   UNL A   1      39.515  32.785  35.529  1.00  0.00     0.074 A 
ATOM     50  C   UNL A   1      38.323  33.603  35.555  1.00  0.00     0.031 C 
ATOM     51  C   UNL A   1      39.471  30.353  29.575  1.00  0.00     0.029 A 
ATOM     52  C   UNL A   1      40.461  30.121  30.623  1.00  0.00     0.049 A 
ATOM     53  H   UNL A   1      40.438  30.858  32.572  1.00  0.00     0.167 HD
ATOM     54  C   UNL A   1      40.365  32.644  36.575  1.00  0.00     0.037 A 
ATOM     55  C   UNL A   1      41.575  29.373  30.494  1.00  0.00     0.037 A 
ATOM     56  C   UNL A   1      41.528  31.798  36.558  1.00  0.00     0.049 A 
ATOM     57  C   UNL A   1      42.493  29.215  31.675  1.00  0.00     0.074 A 
ATOM     58  C   UNL A   1      42.418  31.538  37.586  1.00  0.00     0.029 A 
ATOM     59  N   UNL A   1      41.961  31.070  35.460  1.00  0.00    -0.354 N 
ATOM     60  N   UNL A   1      42.391  29.740  32.874  1.00  0.00    -0.248 NA
ATOM     61  C   UNL A   1      43.673  28.358  31.492  1.00  0.00     0.031 C 
ATOM     62  C   UNL A   1      43.409  30.680  37.097  1.00  0.00     0.029 A 
ATOM     63  C   UNL A   1      43.113  30.371  35.780  1.00  0.00     0.049 A 
ATOM     64  H   UNL A   1      41.515  31.053  34.582  1.00  0.00     0.167 HD
ATOM     65  C   UNL A   1      43.476  29.253  33.595  1.00  0.00     0.074 A 
ATOM     66  C   UNL A   1      44.216  28.385  32.701  1.00  0.00     0.031 C 
ATOM     67  C   UNL A   1      43.828  29.501  34.881  1.00  0.00     0.037 A 
BRANCH  54  68
ATOM     68  C   UNL A   1      40.055  33.415  37.829  1.00  0.00     0.058 A 
ATOM     69  C   UNL A   1      40.721  34.612  38.139  1.00  0.00     0.135 A 
ATOM     70  C   UNL A   1      39.069  32.964  38.721  1.00  0.00     0.135 A 
ATOM     71  F   UNL A   1      41.684  35.079  37.330  1.00  0.00    -0.206 F 
ATOM     72  C   UNL A   1      40.445  35.317  39.306  1.00  0.00     0.059 A 
ATOM     73  C   UNL A   1      38.755  33.668  39.880  1.00  0.00     0.059 A 
ATOM     74  F   UNL A   1      38.403  31.825  38.474  1.00  0.00    -0.206 F 
ATOM     75  C   UNL A   1      39.462  34.834  40.172  1.00  0.00     0.060 A 
BRANCH  75  76
ATOM     76  S   UNL A   1      39.120  35.757  41.685  1.00  0.00     0.124 S 
ATOM     77  O   UNL A   1      39.660  34.858  42.701  1.00  0.00    -0.237 OA
ATOM     78  O   UNL A   1      39.865  36.994  41.474  1.00  0.00    -0.237 OA
ATOM     79  O   UNL A   1      37.667  35.895  41.678  1.00  0.00    -0.744 OA
ENDBRANCH  75  76
ENDBRANCH  54  68
BRANCH  55  80
ATOM     80  C   UNL A   1      41.868  28.689  29.205  1.00  0.00     0.058 A 
ATOM     81  C   UNL A   1      42.746  29.257  28.271  1.00  0.00     0.135 A 
ATOM     82  C   UNL A   1      41.283  27.454  28.885  1.00  0.00     0.135 A 
ATOM     83  F   UNL A   1      43.325  30.440  28.530  1.00  0.00    -0.206 F 
ATOM     84  C   UNL A   1      43.024  28.637  27.058  1.00  0.00     0.059 A 
ATOM     85  C   UNL A   1      41.564  26.802  27.687  1.00  0.00     0.059 A 
ATOM     86  F   UNL A   1      40.450  26.859  29.751  1.00  0.00    -0.206 F 
ATOM     87  C   UNL A   1      42.427  27.408  26.775  1.00  0.00     0.060 A 
BRANCH  87  88
ATOM     88  S   UNL A   1      42.828  26.588  25.216  1.00  0.00     0.124 S 
ATOM     89  O   UNL A   1      41.679  25.708  25.042  1.00  0.00    -0.237 OA
ATOM     90  O   UNL A   1      42.915  27.715  24.291  1.00  0.00    -0.237 OA
ATOM     91  O   UNL A   1      44.096  25.924  25.503  1.00  0.00    -0.744 OA
ENDBRANCH  87  88
ENDBRANCH  55  80
BRANCH  67  92
ATOM     92  C   UNL A   1      45.044  28.798  35.415  1.00  0.00     0.058 A 
ATOM     93  C   UNL A   1      44.964  27.526  36.002  1.00  0.00     0.135 A 
ATOM     94  C   UNL A   1      46.315  29.381  35.282  1.00  0.00     0.135 A 
ATOM     95  F   UNL A   1      43.772  26.928  36.158  1.00  0.00    -0.206 F 
ATOM     96  C   UNL A   1      46.099  26.865  36.459  1.00  0.00     0.059 A 
ATOM     97  C   UNL A   1      47.466  28.727  35.708  1.00  0.00     0.059 A 
ATOM     98  F   UNL A   1      46.448  30.591  34.717  1.00  0.00    -0.206 F 
ATOM     99  C   UNL A   1      47.346  27.472  36.306  1.00  0.00     0.060 A 
BRANCH  99 100
ATOM    100  S   UNL A   1      48.817  26.588  36.867  1.00  0.00     0.124 S 
ATOM    101  O   UNL A   1      48.930  27.053  38.245  1.00  0.00    -0.237 OA
ATOM    102  O   UNL A   1      48.425  25.192  36.698  1.00  0.00    -0.237 OA
ATOM    103  O   UNL A   1      49.861  27.054  35.959  1.00  0.00    -0.744 OA
ENDBRANCH  99 100
ENDBRANCH  67  92
ENDBRANCH  41  42
ENDBRANCH  33  36
ENDBRANCH  31  32
ENDBRANCH  30  31
ENDBRANCH  29  30
ENDBRANCH   1  29
TORSDOF 19
ENDMDL
MODEL 3
REMARK VINA RESULT:     -11.1      5.276     14.271
REMARK SMILES C/C(=N/[NH+]=C1\NC(=O)[C@H](CC(=O)NCCCCNC(=O)c2ccc(-c3c4nc(c(-c5c(F)cc(S(=O)(=O)[O-])cc5F)c5ccc([nH]5)c(-c5c(F)cc(S(=O)(=O)[O-])cc5F)c5nc(c(-c6c(F)cc(S(=O)(=O)[O-])cc6F)c6ccc3[nH]6)C=C5)C=C4)cc2)S1)c1ccc(OC(C)C)cc1
REMARK SMILES IDX 14 1 13 2 11 3 12 4 10 6 9 7 4 8 5 9 6 11 87 12 7 13 8 15
REMARK SMILES IDX 3 16 1 17 2 18 88 19 89 20 97 21 90 22 96 23 91 24 92 25
REMARK SMILES IDX 93 26 94 27 95 28 15 29 16 30 17 31 18 32 19 33 20 35 21 36
REMARK SMILES IDX 22 37 86 38 23 39 85 40 24 41 25 42 26 43 79 44 27 45 84 46
REMARK SMILES IDX 78 47 80 48 28 49 83 50 77 51 76 52 29 54 63 55 42 56 62 57
REMARK SMILES IDX 43 58 46 59 61 60 81 61 44 62 45 63 60 65 82 66 47 67 30 68
REMARK SMILES IDX 31 69 40 70 32 71 33 72 39 73 41 74 34 75 35 76 36 77 37 78
REMARK SMILES IDX 38 79 64 80 65 81 74 82 66 83 67 84 73 85 75 86 68 87 69 88
REMARK SMILES IDX 70 89 71 90 72 91 48 92 49 93 58 94 50 95 51 96 57 97 59 98
REMARK SMILES IDX 52 99 53 100 54 101 55 102 56 103
REMARK H PARENT 13 5 4 10 6 14 18 34 80 53 46 64
REMARK Flexibility Score: inf
ROOT
ATOM      1  C   UNL A   1      43.010  40.527  28.147  1.00  0.00     0.116 C 
ENDROOT
BRANCH   1   2
ATOM      2  N   UNL A   1      42.148  40.690  29.299  1.00  0.00    -0.356 N 
ATOM      3  C   UNL A   1      42.485  41.040  30.575  1.00  0.00     0.221 C 
ATOM      4  O   UNL A   1      41.602  41.170  31.422  1.00  0.00    -0.275 OA
ATOM      5  H   UNL A   1      41.191  40.525  29.142  1.00  0.00     0.163 HD
BRANCH   3   6
ATOM      6  C   UNL A   1      43.936  41.263  30.929  1.00  0.00     0.127 C 
BRANCH   6   7
ATOM      7  C   UNL A   1      44.160  42.629  31.574  1.00  0.00     0.183 C 
ATOM      8  N   UNL A   1      45.035  44.879  28.634  1.00  0.00    -0.142 N 
ATOM      9  C   UNL A   1      44.933  44.280  29.769  1.00  0.00     0.337 C 
ATOM     10  H   UNL A   1      44.246  45.213  28.150  1.00  0.00     0.343 HD
ATOM     11  N   UNL A   1      45.948  43.824  30.532  1.00  0.00    -0.202 N 
ATOM     12  S   UNL A   1      43.393  43.896  30.486  1.00  0.00    -0.020 SA
ATOM     13  C   UNL A   1      45.621  43.055  31.610  1.00  0.00     0.322 C 
ATOM     14  H   UNL A   1      46.885  44.036  30.319  1.00  0.00     0.316 HD
ATOM     15  O   UNL A   1      46.426  42.722  32.468  1.00  0.00    -0.246 OA
BRANCH   8  16
ATOM     16  N   UNL A   1      46.328  45.030  28.124  1.00  0.00    -0.090 NA
ATOM     17  C   UNL A   1      47.854  45.147  26.271  1.00  0.00     0.071 C 
ATOM     18  C   UNL A   1      46.484  44.834  26.840  1.00  0.00     0.088 C 
BRANCH  18  19
ATOM     19  C   UNL A   1      45.477  44.246  25.897  1.00  0.00    -0.000 A 
ATOM     20  C   UNL A   1      44.972  42.960  26.077  1.00  0.00     0.014 A 
ATOM     21  C   UNL A   1      45.129  44.947  24.734  1.00  0.00     0.014 A 
ATOM     22  C   UNL A   1      44.250  42.343  25.054  1.00  0.00     0.047 A 
ATOM     23  C   UNL A   1      44.383  44.326  23.715  1.00  0.00     0.047 A 
ATOM     24  C   UNL A   1      43.978  43.004  23.850  1.00  0.00     0.119 A 
BRANCH  24  25
ATOM     25  O   UNL A   1      43.346  42.219  22.941  1.00  0.00    -0.491 OA
BRANCH  25  26
ATOM     26  C   UNL A   1      42.033  42.422  22.415  1.00  0.00     0.167 C 
ATOM     27  C   UNL A   1      40.979  42.759  23.461  1.00  0.00     0.052 C 
ATOM     28  C   UNL A   1      41.987  43.324  21.188  1.00  0.00     0.052 C 
ENDBRANCH  25  26
ENDBRANCH  24  25
ENDBRANCH  18  19
ENDBRANCH   8  16
ENDBRANCH   6   7
ENDBRANCH   3   6
ENDBRANCH   1   2
BRANCH   1  29
ATOM     29  C   UNL A   1      43.231  39.072  27.752  1.00  0.00     0.023 C 
BRANCH  29  30
ATOM     30  C   UNL A   1      44.188  38.308  28.660  1.00  0.00     0.023 C 
BRANCH  30  31
ATOM     31  C   UNL A   1      45.140  37.350  27.953  1.00  0.00     0.116 C 
BRANCH  31  32
ATOM     32  N   UNL A   1      46.544  37.625  28.222  1.00  0.00    -0.352 N 
ATOM     33  C   UNL A   1      47.588  36.744  28.404  1.00  0.00     0.251 C 
ATOM     34  H   UNL A   1      46.782  38.578  28.282  1.00  0.00     0.163 HD
ATOM     35  O   UNL A   1      48.685  37.162  28.732  1.00  0.00    -0.269 OA
BRANCH  33  36
ATOM     36  C   UNL A   1      47.344  35.294  28.232  1.00  0.00     0.039 A 
ATOM     37  C   UNL A   1      47.266  34.482  29.366  1.00  0.00     0.014 A 
ATOM     38  C   UNL A   1      47.143  34.754  26.960  1.00  0.00     0.014 A 
ATOM     39  C   UNL A   1      46.907  33.139  29.227  1.00  0.00     0.010 A 
ATOM     40  C   UNL A   1      46.705  33.440  26.833  1.00  0.00     0.010 A 
ATOM     41  C   UNL A   1      46.585  32.617  27.964  1.00  0.00    -0.014 A 
BRANCH  41  42
ATOM     42  C   UNL A   1      46.133  31.211  27.798  1.00  0.00     0.031 A 
ATOM     43  C   UNL A   1      44.694  30.851  28.059  1.00  0.00     0.074 A 
ATOM     44  C   UNL A   1      47.023  30.249  27.480  1.00  0.00     0.049 A 
ATOM     45  N   UNL A   1      44.121  29.675  28.045  1.00  0.00    -0.248 NA
ATOM     46  C   UNL A   1      43.788  31.955  28.415  1.00  0.00     0.031 C 
ATOM     47  C   UNL A   1      48.456  30.460  27.258  1.00  0.00     0.029 A 
ATOM     48  N   UNL A   1      46.857  28.898  27.299  1.00  0.00    -0.354 N 
ATOM     49  C   UNL A   1      42.797  29.897  28.408  1.00  0.00     0.074 A 
ATOM     50  C   UNL A   1      42.667  31.308  28.692  1.00  0.00     0.031 C 
ATOM     51  C   UNL A   1      49.031  29.286  26.947  1.00  0.00     0.029 A 
ATOM     52  C   UNL A   1      48.018  28.235  26.979  1.00  0.00     0.049 A 
ATOM     53  H   UNL A   1      45.987  28.447  27.389  1.00  0.00     0.167 HD
ATOM     54  C   UNL A   1      41.775  29.009  28.469  1.00  0.00     0.037 A 
ATOM     55  C   UNL A   1      48.242  26.927  26.742  1.00  0.00     0.037 A 
ATOM     56  C   UNL A   1      41.901  27.613  28.146  1.00  0.00     0.049 A 
ATOM     57  C   UNL A   1      47.088  25.964  26.796  1.00  0.00     0.074 A 
ATOM     58  C   UNL A   1      40.913  26.644  28.118  1.00  0.00     0.029 A 
ATOM     59  N   UNL A   1      43.086  26.987  27.792  1.00  0.00    -0.354 N 
ATOM     60  N   UNL A   1      45.828  26.202  27.080  1.00  0.00    -0.248 NA
ATOM     61  C   UNL A   1      47.380  24.556  26.492  1.00  0.00     0.031 C 
ATOM     62  C   UNL A   1      41.508  25.424  27.780  1.00  0.00     0.029 A 
ATOM     63  C   UNL A   1      42.859  25.641  27.555  1.00  0.00     0.049 A 
ATOM     64  H   UNL A   1      43.961  27.433  27.719  1.00  0.00     0.167 HD
ATOM     65  C   UNL A   1      45.175  24.981  26.959  1.00  0.00     0.074 A 
ATOM     66  C   UNL A   1      46.175  24.009  26.568  1.00  0.00     0.031 C 
ATOM     67  C   UNL A   1      43.864  24.691  27.153  1.00  0.00     0.037 A 
BRANCH  54  68
ATOM     68  C   UNL A   1      40.428  29.531  28.890  1.00  0.00     0.058 A 
ATOM     69  C   UNL A   1      40.145  29.837  30.231  1.00  0.00     0.135 A 
ATOM     70  C   UNL A   1      39.416  29.746  27.942  1.00  0.00     0.135 A 
ATOM     71  F   UNL A   1      41.071  29.634  31.182  1.00  0.00    -0.206 F 
ATOM     72  C   UNL A   1      38.895  30.305  30.623  1.00  0.00     0.059 A 
ATOM     73  C   UNL A   1      38.167  30.242  28.306  1.00  0.00     0.059 A 
ATOM     74  F   UNL A   1      39.632  29.469  26.646  1.00  0.00    -0.206 F 
ATOM     75  C   UNL A   1      37.911  30.501  29.652  1.00  0.00     0.060 A 
BRANCH  75  76
ATOM     76  S   UNL A   1      36.293  31.104  30.177  1.00  0.00     0.124 S 
ATOM     77  O   UNL A   1      36.535  32.542  30.264  1.00  0.00    -0.237 OA
ATOM     78  O   UNL A   1      35.428  30.674  29.084  1.00  0.00    -0.237 OA
ATOM     79  O   UNL A   1      36.074  30.427  31.451  1.00  0.00    -0.744 OA
ENDBRANCH  75  76
ENDBRANCH  54  68
BRANCH  55  80
ATOM     80  C   UNL A   1      49.611  26.456  26.398  1.00  0.00     0.058 A 
ATOM     81  C   UNL A   1      50.045  26.417  25.064  1.00  0.00     0.135 A 
ATOM     82  C   UNL A   1      50.513  26.043  27.390  1.00  0.00     0.135 A 
ATOM     83  F   UNL A   1      49.217  26.796  24.079  1.00  0.00    -0.206 F 
ATOM     84  C   UNL A   1      51.317  25.970  24.723  1.00  0.00     0.059 A 
ATOM     85  C   UNL A   1      51.799  25.614  27.076  1.00  0.00     0.059 A 
ATOM     86  F   UNL A   1      50.154  26.077  28.682  1.00  0.00    -0.206 F 
ATOM     87  C   UNL A   1      52.188  25.570  25.737  1.00  0.00     0.060 A 
BRANCH  87  88
ATOM     88  S   UNL A   1      53.853  25.033  25.288  1.00  0.00     0.124 S 
ATOM     89  O   UNL A   1      54.188  25.973  24.224  1.00  0.00    -0.237 OA
ATOM     90  O   UNL A   1      54.579  25.204  26.542  1.00  0.00    -0.237 OA
ATOM     91  O   UNL A   1      53.657  23.648  24.869  1.00  0.00    -0.744 OA
ENDBRANCH  87  88
ENDBRANCH  55  80
BRANCH  67  92
ATOM     92  C   UNL A   1      43.424  23.275  26.910  1.00  0.00     0.058 A 
ATOM     93  C   UNL A   1      43.346  22.738  25.615  1.00  0.00     0.135 A 
ATOM     94  C   UNL A   1      43.135  22.427  27.991  1.00  0.00     0.135 A 
ATOM     95  F   UNL A   1      43.606  23.508  24.547  1.00  0.00    -0.206 F 
ATOM     96  C   UNL A   1      42.975  21.414  25.400  1.00  0.00     0.059 A 
ATOM     97  C   UNL A   1      42.787  21.094  27.801  1.00  0.00     0.059 A 
ATOM     98  F   UNL A   1      43.206  22.888  29.250  1.00  0.00    -0.206 F 
ATOM     99  C   UNL A   1      42.700  20.599  26.499  1.00  0.00     0.060 A 
BRANCH  99 100
ATOM    100  S   UNL A   1      42.258  18.873  26.210  1.00  0.00     0.124 S 
ATOM    101  O   UNL A   1      42.436  18.298  27.539  1.00  0.00    -0.237 OA
ATOM    102  O   UNL A   1      40.877  18.978  25.745  1.00  0.00    -0.237 OA
ATOM    103  O   UNL A   1      43.221  18.439  25.202  1.00  0.00    -0.744 OA
ENDBRANCH  99 100
ENDBRANCH  67  92
ENDBRANCH  41  42
ENDBRANCH  33  36
ENDBRANCH  31  32
ENDBRANCH  30  31
ENDBRANCH  29  30
ENDBRANCH   1  29
TORSDOF 19
ENDMDL
