MODEL 1
REMARK VINA RESULT:     -11.7      0.000      0.000
REMARK SMILES NS(=O)(=O)c1ccc(C#Cc2cc(Cl)cc3c2O[C@H](C(F)(F)F)C(C(=O)NCCCCNC(=O)c2ccc(-c4c5nc(c(-c6c(F)cc(S(=O)(=O)[O-])cc6F)c6ccc([nH]6)c(-c6c(F)cc(S(=O)(=O)[O-])cc6F)c6nc(c(-c7c(F)cc(S(=O)(=O)[O-])cc7F)c7ccc4[nH]7)C=C6)C=C5)cc2)=C3)cc1
REMARK SMILES IDX 29 1 28 2 27 3 25 4 26 5 24 7 11 8 12 9 17 10 13 11 16 12
REMARK SMILES IDX 18 13 14 14 15 15 101 16 19 17 10 18 9 19 8 20 5 21 6 22
REMARK SMILES IDX 103 23 7 24 102 25 2 26 3 27 4 28 1 29 20 32 21 33 22 34
REMARK SMILES IDX 23 35 30 36 31 37 32 38 33 39 34 41 35 42 36 43 100 44 37 45
REMARK SMILES IDX 99 46 38 47 39 48 40 49 93 50 41 51 98 52 92 53 94 54 42 55
REMARK SMILES IDX 97 56 91 57 90 58 43 60 77 61 56 62 76 63 57 64 60 65 75 66
REMARK SMILES IDX 95 67 58 68 59 69 74 71 96 72 61 73 44 74 45 75 54 76 46 77
REMARK SMILES IDX 47 78 53 79 55 80 48 81 49 82 50 83 51 84 52 85 78 86 79 87
REMARK SMILES IDX 88 88 80 89 81 90 87 91 89 92 82 93 83 94 84 95 85 96 86 97
REMARK SMILES IDX 62 98 63 99 72 100 64 101 65 102 71 103 73 104 66 105 67 106
REMARK SMILES IDX 68 107 69 108 70 109
REMARK H PARENT 27 6 1 30 1 31 32 40 94 59 60 70
REMARK Flexibility Score: inf
ROOT
ATOM      1  C   UNL A   1      32.332  30.854  26.115  1.00  0.00     0.023 C 
ENDROOT
BRANCH   1   2
ATOM      2  C   UNL A   1      32.657  29.819  25.046  1.00  0.00     0.116 C 
BRANCH   2   3
ATOM      3  N   UNL A   1      31.466  29.313  24.385  1.00  0.00    -0.352 N 
ATOM      4  C   UNL A   1      31.012  28.111  23.953  1.00  0.00     0.251 C 
ATOM      5  O   UNL A   1      29.875  28.101  23.473  1.00  0.00    -0.270 OA
ATOM      6  H   UNL A   1      30.818  30.031  24.204  1.00  0.00     0.163 HD
BRANCH   4   7
ATOM      7  C   UNL A   1      31.790  26.838  24.023  1.00  0.00     0.067 C 
ATOM      8  C   UNL A   1      34.057  23.297  23.976  1.00  0.00     0.069 A 
ATOM      9  C   UNL A   1      33.550  22.157  23.355  1.00  0.00     0.041 A 
ATOM     10  C   UNL A   1      33.309  24.481  23.956  1.00  0.00     0.143 A 
ATOM     11  C   UNL A   1      32.305  22.214  22.725  1.00  0.00     0.043 A 
ATOM     12  C   UNL A   1      32.061  24.541  23.326  1.00  0.00     0.020 A 
ATOM     13  O   UNL A   1      33.883  25.580  24.528  1.00  0.00    -0.474 OA
ATOM     14  Cl  UNL A   1      31.687  20.808  21.946  1.00  0.00    -0.084 Cl
ATOM     15  C   UNL A   1      31.558  23.395  22.708  1.00  0.00     0.032 A 
ATOM     16  C   UNL A   1      31.333  25.806  23.290  1.00  0.00     0.025 C 
ATOM     17  C   UNL A   1      33.008  26.674  24.878  1.00  0.00     0.314 C 
BRANCH   8  18
ATOM     18  C   UNL A   1      35.337  23.263  24.622  1.00  0.00    -0.058 C 
ATOM     19  C   UNL A   1      36.442  23.201  25.099  1.00  0.00    -0.062 C 
BRANCH  19  20
ATOM     20  C   UNL A   1      37.759  23.047  25.638  1.00  0.00     0.025 A 
ATOM     21  C   UNL A   1      40.245  22.705  26.859  1.00  0.00     0.082 A 
ATOM     22  C   UNL A   1      39.559  23.913  27.011  1.00  0.00     0.023 A 
ATOM     23  C   UNL A   1      39.715  21.680  26.069  1.00  0.00     0.023 A 
ATOM     24  C   UNL A   1      38.316  24.081  26.396  1.00  0.00     0.018 A 
ATOM     25  C   UNL A   1      38.467  21.852  25.462  1.00  0.00     0.018 A 
BRANCH  21  26
ATOM     26  S   UNL A   1      41.777  22.450  27.703  1.00  0.00     0.238 S 
ATOM     27  O   UNL A   1      41.783  23.216  28.927  1.00  0.00    -0.207 OA
ATOM     28  O   UNL A   1      42.848  22.508  26.736  1.00  0.00    -0.207 OA
BRANCH  26  29
ATOM     29  N   UNL A   1      41.697  20.843  28.200  1.00  0.00    -0.225 NA
ATOM     30  H   UNL A   1      42.595  20.565  28.595  1.00  0.00     0.137 HD
ATOM     31  H   UNL A   1      41.479  20.250  27.399  1.00  0.00     0.137 HD
ENDBRANCH  26  29
ENDBRANCH  21  26
ENDBRANCH  19  20
ENDBRANCH   8  18
BRANCH  17  32
ATOM     32  C   UNL A   1      32.670  26.584  26.378  1.00  0.00     0.429 C 
ATOM     33  F   UNL A   1      32.901  25.329  26.841  1.00  0.00    -0.167 F 
ATOM     34  F   UNL A   1      33.418  27.416  27.140  1.00  0.00    -0.167 F 
ATOM     35  F   UNL A   1      31.375  26.879  26.634  1.00  0.00    -0.167 F 
ENDBRANCH  17  32
ENDBRANCH   4   7
ENDBRANCH   2   3
ENDBRANCH   1   2
BRANCH   1  36
ATOM     36  C   UNL A   1      33.170  30.696  27.376  1.00  0.00     0.023 C 
BRANCH  36  37
ATOM     37  C   UNL A   1      34.021  31.910  27.728  1.00  0.00     0.116 C 
BRANCH  37  38
ATOM     38  N   UNL A   1      33.255  33.138  27.925  1.00  0.00    -0.352 N 
ATOM     39  C   UNL A   1      33.419  34.079  28.918  1.00  0.00     0.251 C 
ATOM     40  H   UNL A   1      32.539  33.313  27.272  1.00  0.00     0.163 HD
ATOM     41  O   UNL A   1      32.647  35.023  29.031  1.00  0.00    -0.269 OA
BRANCH  39  42
ATOM     42  C   UNL A   1      34.524  33.877  29.873  1.00  0.00     0.039 A 
ATOM     43  C   UNL A   1      35.761  34.471  29.618  1.00  0.00     0.014 A 
ATOM     44  C   UNL A   1      34.374  32.945  30.901  1.00  0.00     0.014 A 
ATOM     45  C   UNL A   1      36.892  33.968  30.243  1.00  0.00     0.010 A 
ATOM     46  C   UNL A   1      35.501  32.529  31.610  1.00  0.00     0.010 A 
ATOM     47  C   UNL A   1      36.778  32.986  31.242  1.00  0.00    -0.014 A 
BRANCH  47  48
ATOM     48  C   UNL A   1      38.003  32.439  31.881  1.00  0.00     0.031 A 
ATOM     49  C   UNL A   1      38.932  31.527  31.121  1.00  0.00     0.074 A 
ATOM     50  C   UNL A   1      38.293  32.799  33.147  1.00  0.00     0.049 A 
ATOM     51  N   UNL A   1      40.005  30.908  31.543  1.00  0.00    -0.248 NA
ATOM     52  C   UNL A   1      38.615  31.272  29.706  1.00  0.00     0.031 C 
ATOM     53  C   UNL A   1      37.489  33.704  33.972  1.00  0.00     0.029 A 
ATOM     54  N   UNL A   1      39.345  32.460  33.957  1.00  0.00    -0.354 N 
ATOM     55  C   UNL A   1      40.479  30.177  30.459  1.00  0.00     0.074 A 
ATOM     56  C   UNL A   1      39.558  30.402  29.367  1.00  0.00     0.031 C 
ATOM     57  C   UNL A   1      38.097  33.881  35.152  1.00  0.00     0.029 A 
ATOM     58  C   UNL A   1      39.283  33.036  35.203  1.00  0.00     0.049 A 
ATOM     59  H   UNL A   1      40.074  31.863  33.674  1.00  0.00     0.167 HD
ATOM     60  C   UNL A   1      41.588  29.401  30.381  1.00  0.00     0.037 A 
ATOM     61  C   UNL A   1      40.070  32.878  36.283  1.00  0.00     0.037 A 
ATOM     62  C   UNL A   1      42.506  29.196  31.474  1.00  0.00     0.049 A 
ATOM     63  C   UNL A   1      41.247  31.949  36.193  1.00  0.00     0.074 A 
ATOM     64  C   UNL A   1      43.663  28.434  31.495  1.00  0.00     0.029 A 
ATOM     65  N   UNL A   1      42.377  29.753  32.740  1.00  0.00    -0.354 N 
ATOM     66  N   UNL A   1      41.676  31.258  35.164  1.00  0.00    -0.248 NA
ATOM     67  C   UNL A   1      42.044  31.775  37.413  1.00  0.00     0.031 C 
ATOM     68  C   UNL A   1      44.197  28.482  32.785  1.00  0.00     0.029 A 
ATOM     69  C   UNL A   1      43.415  29.328  33.554  1.00  0.00     0.049 A 
ATOM     70  H   UNL A   1      41.653  30.359  33.018  1.00  0.00     0.167 HD
ATOM     71  C   UNL A   1      42.807  30.582  35.606  1.00  0.00     0.074 A 
ATOM     72  C   UNL A   1      43.008  30.969  36.988  1.00  0.00     0.031 C 
ATOM     73  C   UNL A   1      43.603  29.716  34.931  1.00  0.00     0.037 A 
BRANCH  60  74
ATOM     74  C   UNL A   1      41.875  28.699  29.078  1.00  0.00     0.058 A 
ATOM     75  C   UNL A   1      42.690  29.273  28.090  1.00  0.00     0.135 A 
ATOM     76  C   UNL A   1      41.386  27.402  28.844  1.00  0.00     0.135 A 
ATOM     77  F   UNL A   1      43.174  30.516  28.251  1.00  0.00    -0.206 F 
ATOM     78  C   UNL A   1      42.996  28.597  26.912  1.00  0.00     0.059 A 
ATOM     79  C   UNL A   1      41.704  26.694  27.688  1.00  0.00     0.059 A 
ATOM     80  F   UNL A   1      40.601  26.802  29.752  1.00  0.00    -0.206 F 
ATOM     81  C   UNL A   1      42.503  27.305  26.723  1.00  0.00     0.060 A 
BRANCH  81  82
ATOM     82  S   UNL A   1      42.925  26.441  25.195  1.00  0.00     0.124 S 
ATOM     83  O   UNL A   1      44.173  25.781  25.568  1.00  0.00    -0.237 OA
ATOM     84  O   UNL A   1      41.775  25.562  25.010  1.00  0.00    -0.237 OA
ATOM     85  O   UNL A   1      43.055  27.517  24.217  1.00  0.00    -0.744 OA
ENDBRANCH  81  82
ENDBRANCH  60  74
BRANCH  61  86
ATOM     86  C   UNL A   1      39.757  33.612  37.537  1.00  0.00     0.058 A 
ATOM     87  C   UNL A   1      40.415  34.808  37.853  1.00  0.00     0.135 A 
ATOM     88  C   UNL A   1      38.769  33.155  38.425  1.00  0.00     0.135 A 
ATOM     89  F   UNL A   1      41.371  35.284  37.038  1.00  0.00    -0.206 F 
ATOM     90  C   UNL A   1      40.116  35.521  39.009  1.00  0.00     0.059 A 
ATOM     91  C   UNL A   1      38.427  33.867  39.568  1.00  0.00     0.059 A 
ATOM     92  F   UNL A   1      38.097  32.023  38.161  1.00  0.00    -0.206 F 
ATOM     93  C   UNL A   1      39.113  35.045  39.856  1.00  0.00     0.060 A 
BRANCH  93  94
ATOM     94  S   UNL A   1      38.697  36.012  41.323  1.00  0.00     0.124 S 
ATOM     95  O   UNL A   1      39.907  35.867  42.123  1.00  0.00    -0.237 OA
ATOM     96  O   UNL A   1      38.460  37.336  40.755  1.00  0.00    -0.237 OA
ATOM     97  O   UNL A   1      37.511  35.339  41.845  1.00  0.00    -0.744 OA
ENDBRANCH  93  94
ENDBRANCH  61  86
BRANCH  73  98
ATOM     98  C   UNL A   1      44.783  29.145  35.670  1.00  0.00     0.058 A 
ATOM     99  C   UNL A   1      44.693  27.942  36.388  1.00  0.00     0.135 A 
ATOM    100  C   UNL A   1      46.032  29.789  35.630  1.00  0.00     0.135 A 
ATOM    101  F   UNL A   1      43.524  27.285  36.464  1.00  0.00    -0.206 F 
ATOM    102  C   UNL A   1      45.785  27.418  37.071  1.00  0.00     0.059 A 
ATOM    103  C   UNL A   1      47.147  29.263  36.275  1.00  0.00     0.059 A 
ATOM    104  F   UNL A   1      46.180  30.935  34.948  1.00  0.00    -0.206 F 
ATOM    105  C   UNL A   1      47.010  28.086  37.007  1.00  0.00     0.060 A 
BRANCH 105 106
ATOM    106  S   UNL A   1      48.418  27.387  37.893  1.00  0.00     0.124 S 
ATOM    107  O   UNL A   1      49.185  28.585  38.219  1.00  0.00    -0.237 OA
ATOM    108  O   UNL A   1      47.775  26.719  39.020  1.00  0.00    -0.237 OA
ATOM    109  O   UNL A   1      49.032  26.499  36.910  1.00  0.00    -0.744 OA
ENDBRANCH 105 106
ENDBRANCH  73  98
ENDBRANCH  47  48
ENDBRANCH  39  42
ENDBRANCH  37  38
ENDBRANCH  36  37
ENDBRANCH   1  36
TORSDOF 19
ENDMDL
MODEL 2
REMARK VINA RESULT:     -11.5      3.761      9.716
REMARK SMILES NS(=O)(=O)c1ccc(C#Cc2cc(Cl)cc3c2O[C@H](C(F)(F)F)C(C(=O)NCCCCNC(=O)c2ccc(-c4c5nc(c(-c6c(F)cc(S(=O)(=O)[O-])cc6F)c6ccc([nH]6)c(-c6c(F)cc(S(=O)(=O)[O-])cc6F)c6nc(c(-c7c(F)cc(S(=O)(=O)[O-])cc7F)c7ccc4[nH]7)C=C6)C=C5)cc2)=C3)cc1
REMARK SMILES IDX 29 1 28 2 27 3 25 4 26 5 24 7 11 8 12 9 17 10 13 11 16 12
REMARK SMILES IDX 18 13 14 14 15 15 101 16 19 17 10 18 9 19 8 20 5 21 6 22
REMARK SMILES IDX 103 23 7 24 102 25 2 26 3 27 4 28 1 29 20 32 21 33 22 34
REMARK SMILES IDX 23 35 30 36 31 37 32 38 33 39 34 41 35 42 36 43 100 44 37 45
REMARK SMILES IDX 99 46 38 47 39 48 40 49 93 50 41 51 98 52 92 53 94 54 42 55
REMARK SMILES IDX 97 56 91 57 90 58 43 60 77 61 56 62 76 63 57 64 60 65 75 66
REMARK SMILES IDX 95 67 58 68 59 69 74 71 96 72 61 73 44 74 45 75 54 76 46 77
REMARK SMILES IDX 47 78 53 79 55 80 48 81 49 82 50 83 51 84 52 85 78 86 79 87
REMARK SMILES IDX 88 88 80 89 81 90 87 91 89 92 82 93 83 94 84 95 85 96 86 97
REMARK SMILES IDX 62 98 63 99 72 100 64 101 65 102 71 103 73 104 66 105 67 106
REMARK SMILES IDX 68 107 69 108 70 109
REMARK H PARENT 27 6 1 30 1 31 32 40 94 59 60 70
REMARK Flexibility Score: inf
ROOT
ATOM      1  C   UNL A   1      46.999  24.355  27.252  1.00  0.00     0.023 C 
ENDROOT
BRANCH   1   2
ATOM      2  C   UNL A   1      45.780  23.488  27.541  1.00  0.00     0.116 C 
BRANCH   2   3
ATOM      3  N   UNL A   1      45.670  22.366  26.624  1.00  0.00    -0.352 N 
ATOM      4  C   UNL A   1      44.673  21.712  25.979  1.00  0.00     0.251 C 
ATOM      5  O   UNL A   1      45.022  20.807  25.217  1.00  0.00    -0.270 OA
ATOM      6  H   UNL A   1      46.551  21.979  26.415  1.00  0.00     0.163 HD
BRANCH   4   7
ATOM      7  C   UNL A   1      43.219  22.017  26.139  1.00  0.00     0.067 C 
ATOM      8  C   UNL A   1      39.146  23.030  26.382  1.00  0.00     0.069 A 
ATOM      9  C   UNL A   1      38.765  24.242  26.953  1.00  0.00     0.041 A 
ATOM     10  C   UNL A   1      40.507  22.716  26.275  1.00  0.00     0.143 A 
ATOM     11  C   UNL A   1      39.747  25.124  27.410  1.00  0.00     0.043 A 
ATOM     12  C   UNL A   1      41.493  23.598  26.732  1.00  0.00     0.020 A 
ATOM     13  O   UNL A   1      40.820  21.543  25.652  1.00  0.00    -0.474 OA
ATOM     14  Cl  UNL A   1      39.274  26.628  28.102  1.00  0.00    -0.084 Cl
ATOM     15  C   UNL A   1      41.104  24.811  27.305  1.00  0.00     0.032 A 
ATOM     16  C   UNL A   1      42.902  23.255  26.561  1.00  0.00     0.025 C 
ATOM     17  C   UNL A   1      42.143  21.009  25.878  1.00  0.00     0.314 C 
BRANCH   8  18
ATOM     18  C   UNL A   1      38.154  22.112  25.900  1.00  0.00    -0.058 C 
ATOM     19  C   UNL A   1      37.269  21.401  25.495  1.00  0.00    -0.062 C 
BRANCH  19  20
ATOM     20  C   UNL A   1      36.168  20.589  25.075  1.00  0.00     0.025 A 
ATOM     21  C   UNL A   1      34.009  18.940  24.437  1.00  0.00     0.082 A 
ATOM     22  C   UNL A   1      35.298  18.403  24.492  1.00  0.00     0.023 A 
ATOM     23  C   UNL A   1      33.795  20.303  24.660  1.00  0.00     0.023 A 
ATOM     24  C   UNL A   1      36.376  19.232  24.811  1.00  0.00     0.018 A 
ATOM     25  C   UNL A   1      34.879  21.127  24.984  1.00  0.00     0.018 A 
BRANCH  21  26
ATOM     26  S   UNL A   1      32.627  17.883  24.121  1.00  0.00     0.238 S 
ATOM     27  O   UNL A   1      32.047  18.222  22.843  1.00  0.00    -0.207 OA
ATOM     28  O   UNL A   1      31.848  17.773  25.332  1.00  0.00    -0.207 OA
BRANCH  26  29
ATOM     29  N   UNL A   1      33.328  16.369  23.888  1.00  0.00    -0.225 NA
ATOM     30  H   UNL A   1      33.078  15.756  24.664  1.00  0.00     0.137 HD
ATOM     31  H   UNL A   1      34.343  16.468  23.846  1.00  0.00     0.137 HD
ENDBRANCH  26  29
ENDBRANCH  21  26
ENDBRANCH  19  20
ENDBRANCH   8  18
BRANCH  17  32
ATOM     32  C   UNL A   1      42.066  19.928  26.972  1.00  0.00     0.429 C 
ATOM     33  F   UNL A   1      42.624  20.379  28.124  1.00  0.00    -0.167 F 
ATOM     34  F   UNL A   1      40.796  19.571  27.275  1.00  0.00    -0.167 F 
ATOM     35  F   UNL A   1      42.718  18.794  26.622  1.00  0.00    -0.167 F 
ENDBRANCH  17  32
ENDBRANCH   4   7
ENDBRANCH   2   3
ENDBRANCH   1   2
BRANCH   1  36
ATOM     36  C   UNL A   1      47.242  25.418  28.315  1.00  0.00     0.023 C 
BRANCH  36  37
ATOM     37  C   UNL A   1      46.762  26.814  27.937  1.00  0.00     0.116 C 
BRANCH  37  38
ATOM     38  N   UNL A   1      46.359  26.947  26.540  1.00  0.00    -0.352 N 
ATOM     39  C   UNL A   1      45.200  27.511  26.051  1.00  0.00     0.251 C 
ATOM     40  H   UNL A   1      46.988  26.593  25.870  1.00  0.00     0.163 HD
ATOM     41  O   UNL A   1      44.933  27.477  24.856  1.00  0.00    -0.269 OA
BRANCH  39  42
ATOM     42  C   UNL A   1      44.267  28.106  27.026  1.00  0.00     0.039 A 
ATOM     43  C   UNL A   1      44.284  29.488  27.227  1.00  0.00     0.014 A 
ATOM     44  C   UNL A   1      43.531  27.268  27.863  1.00  0.00     0.014 A 
ATOM     45  C   UNL A   1      43.747  30.004  28.396  1.00  0.00     0.010 A 
ATOM     46  C   UNL A   1      42.890  27.812  28.976  1.00  0.00     0.010 A 
ATOM     47  C   UNL A   1      43.050  29.173  29.290  1.00  0.00    -0.014 A 
BRANCH  47  48
ATOM     48  C   UNL A   1      42.505  29.739  30.551  1.00  0.00     0.031 A 
ATOM     49  C   UNL A   1      41.172  30.444  30.571  1.00  0.00     0.074 A 
ATOM     50  C   UNL A   1      43.206  29.585  31.691  1.00  0.00     0.049 A 
ATOM     51  N   UNL A   1      40.579  31.055  31.565  1.00  0.00    -0.248 NA
ATOM     52  C   UNL A   1      40.407  30.472  29.314  1.00  0.00     0.031 C 
ATOM     53  C   UNL A   1      44.491  28.890  31.803  1.00  0.00     0.029 A 
ATOM     54  N   UNL A   1      42.935  29.988  32.973  1.00  0.00    -0.354 N 
ATOM     55  C   UNL A   1      39.387  31.555  31.053  1.00  0.00     0.074 A 
ATOM     56  C   UNL A   1      39.354  31.207  29.650  1.00  0.00     0.031 C 
ATOM     57  C   UNL A   1      44.875  28.879  33.086  1.00  0.00     0.029 A 
ATOM     58  C   UNL A   1      43.914  29.640  33.873  1.00  0.00     0.049 A 
ATOM     59  H   UNL A   1      42.120  30.479  33.224  1.00  0.00     0.167 HD
ATOM     60  C   UNL A   1      38.405  32.232  31.699  1.00  0.00     0.037 A 
ATOM     61  C   UNL A   1      44.045  29.930  35.180  1.00  0.00     0.037 A 
ATOM     62  C   UNL A   1      38.443  32.560  33.103  1.00  0.00     0.049 A 
ATOM     63  C   UNL A   1      42.981  30.750  35.853  1.00  0.00     0.074 A 
ATOM     64  C   UNL A   1      37.496  33.237  33.854  1.00  0.00     0.029 A 
ATOM     65  N   UNL A   1      39.480  32.240  33.969  1.00  0.00    -0.354 N 
ATOM     66  N   UNL A   1      41.865  31.224  35.352  1.00  0.00    -0.248 NA
ATOM     67  C   UNL A   1      43.197  31.078  37.267  1.00  0.00     0.031 C 
ATOM     68  C   UNL A   1      37.986  33.377  35.155  1.00  0.00     0.029 A 
ATOM     69  C   UNL A   1      39.208  32.729  35.238  1.00  0.00     0.049 A 
ATOM     70  H   UNL A   1      40.290  31.739  33.719  1.00  0.00     0.167 HD
ATOM     71  C   UNL A   1      41.234  31.890  36.396  1.00  0.00     0.074 A 
ATOM     72  C   UNL A   1      42.082  31.734  37.560  1.00  0.00     0.031 C 
ATOM     73  C   UNL A   1      40.062  32.573  36.389  1.00  0.00     0.037 A 
BRANCH  60  74
ATOM     74  C   UNL A   1      37.206  32.678  30.903  1.00  0.00     0.058 A 
ATOM     75  C   UNL A   1      37.207  33.873  30.166  1.00  0.00     0.135 A 
ATOM     76  C   UNL A   1      36.062  31.864  30.818  1.00  0.00     0.135 A 
ATOM     77  F   UNL A   1      38.264  34.699  30.220  1.00  0.00    -0.206 F 
ATOM     78  C   UNL A   1      36.116  34.253  29.390  1.00  0.00     0.059 A 
ATOM     79  C   UNL A   1      34.972  32.208  30.024  1.00  0.00     0.059 A 
ATOM     80  F   UNL A   1      36.003  30.710  31.502  1.00  0.00    -0.206 F 
ATOM     81  C   UNL A   1      35.005  33.410  29.320  1.00  0.00     0.060 A 
BRANCH  81  82
ATOM     82  S   UNL A   1      33.608  33.915  28.294  1.00  0.00     0.124 S 
ATOM     83  O   UNL A   1      34.265  34.759  27.300  1.00  0.00    -0.237 OA
ATOM     84  O   UNL A   1      33.106  32.635  27.805  1.00  0.00    -0.237 OA
ATOM     85  O   UNL A   1      32.731  34.615  29.228  1.00  0.00    -0.744 OA
ENDBRANCH  81  82
ENDBRANCH  60  74
BRANCH  61  86
ATOM     86  C   UNL A   1      45.236  29.445  35.926  1.00  0.00     0.058 A 
ATOM     87  C   UNL A   1      46.408  30.210  35.983  1.00  0.00     0.135 A 
ATOM     88  C   UNL A   1      45.215  28.227  36.627  1.00  0.00     0.135 A 
ATOM     89  F   UNL A   1      46.479  31.379  35.326  1.00  0.00    -0.206 F 
ATOM     90  C   UNL A   1      47.522  29.784  36.697  1.00  0.00     0.059 A 
ATOM     91  C   UNL A   1      46.303  27.796  37.377  1.00  0.00     0.059 A 
ATOM     92  F   UNL A   1      44.111  27.464  36.619  1.00  0.00    -0.206 F 
ATOM     93  C   UNL A   1      47.456  28.578  37.398  1.00  0.00     0.060 A 
BRANCH  93  94
ATOM     94  S   UNL A   1      48.891  28.066  38.367  1.00  0.00     0.124 S 
ATOM     95  O   UNL A   1      48.588  26.664  38.624  1.00  0.00    -0.237 OA
ATOM     96  O   UNL A   1      49.988  28.325  37.439  1.00  0.00    -0.237 OA
ATOM     97  O   UNL A   1      48.842  28.946  39.532  1.00  0.00    -0.744 OA
ENDBRANCH  93  94
ENDBRANCH  61  86
BRANCH  73  98
ATOM     98  C   UNL A   1      39.613  33.184  37.689  1.00  0.00     0.058 A 
ATOM     99  C   UNL A   1      40.186  34.365  38.187  1.00  0.00     0.135 A 
ATOM    100  C   UNL A   1      38.570  32.601  38.430  1.00  0.00     0.135 A 
ATOM    101  F   UNL A   1      41.188  34.962  37.524  1.00  0.00    -0.206 F 
ATOM    102  C   UNL A   1      39.769  34.925  39.390  1.00  0.00     0.059 A 
ATOM    103  C   UNL A   1      38.112  33.166  39.617  1.00  0.00     0.059 A 
ATOM    104  F   UNL A   1      37.976  31.478  37.996  1.00  0.00    -0.206 F 
ATOM    105  C   UNL A   1      38.729  34.318  40.097  1.00  0.00     0.060 A 
BRANCH 105 106
ATOM    106  S   UNL A   1      38.196  35.065  41.651  1.00  0.00     0.124 S 
ATOM    107  O   UNL A   1      39.132  34.471  42.600  1.00  0.00    -0.237 OA
ATOM    108  O   UNL A   1      38.375  36.489  41.388  1.00  0.00    -0.237 OA
ATOM    109  O   UNL A   1      36.809  34.626  41.782  1.00  0.00    -0.744 OA
ENDBRANCH 105 106
ENDBRANCH  73  98
ENDBRANCH  47  48
ENDBRANCH  39  42
ENDBRANCH  37  38
ENDBRANCH  36  37
ENDBRANCH   1  36
TORSDOF 19
ENDMDL
MODEL 3
REMARK VINA RESULT:     -11.4      8.146     12.594
REMARK SMILES NS(=O)(=O)c1ccc(C#Cc2cc(Cl)cc3c2O[C@H](C(F)(F)F)C(C(=O)NCCCCNC(=O)c2ccc(-c4c5nc(c(-c6c(F)cc(S(=O)(=O)[O-])cc6F)c6ccc([nH]6)c(-c6c(F)cc(S(=O)(=O)[O-])cc6F)c6nc(c(-c7c(F)cc(S(=O)(=O)[O-])cc7F)c7ccc4[nH]7)C=C6)C=C5)cc2)=C3)cc1
REMARK SMILES IDX 29 1 28 2 27 3 25 4 26 5 24 7 11 8 12 9 17 10 13 11 16 12
REMARK SMILES IDX 18 13 14 14 15 15 101 16 19 17 10 18 9 19 8 20 5 21 6 22
REMARK SMILES IDX 103 23 7 24 102 25 2 26 3 27 4 28 1 29 20 32 21 33 22 34
REMARK SMILES IDX 23 35 30 36 31 37 32 38 33 39 34 41 35 42 36 43 100 44 37 45
REMARK SMILES IDX 99 46 38 47 39 48 40 49 93 50 41 51 98 52 92 53 94 54 42 55
REMARK SMILES IDX 97 56 91 57 90 58 43 60 77 61 56 62 76 63 57 64 60 65 75 66
REMARK SMILES IDX 95 67 58 68 59 69 74 71 96 72 61 73 44 74 45 75 54 76 46 77
REMARK SMILES IDX 47 78 53 79 55 80 48 81 49 82 50 83 51 84 52 85 78 86 79 87
REMARK SMILES IDX 88 88 80 89 81 90 87 91 89 92 82 93 83 94 84 95 85 96 86 97
REMARK SMILES IDX 62 98 63 99 72 100 64 101 65 102 71 103 73 104 66 105 67 106
REMARK SMILES IDX 68 107 69 108 70 109
REMARK H PARENT 27 6 1 30 1 31 32 40 94 59 60 70
REMARK Flexibility Score: inf
ROOT
ATOM      1  C   UNL A   1      45.729  41.979  30.217  1.00  0.00     0.023 C 
ENDROOT
BRANCH   1   2
ATOM      2  C   UNL A   1      44.370  42.349  29.640  1.00  0.00     0.116 C 
BRANCH   2   3
ATOM      3  N   UNL A   1      44.397  42.464  28.191  1.00  0.00    -0.352 N 
ATOM      4  C   UNL A   1      44.150  41.655  27.132  1.00  0.00     0.251 C 
ATOM      5  O   UNL A   1      44.240  42.178  26.017  1.00  0.00    -0.270 OA
ATOM      6  H   UNL A   1      44.664  43.367  27.903  1.00  0.00     0.163 HD
BRANCH   4   7
ATOM      7  C   UNL A   1      43.789  40.209  27.237  1.00  0.00     0.067 C 
ATOM      8  C   UNL A   1      42.934  36.123  27.734  1.00  0.00     0.069 A 
ATOM      9  C   UNL A   1      43.825  35.165  27.257  1.00  0.00     0.041 A 
ATOM     10  C   UNL A   1      43.244  37.482  27.594  1.00  0.00     0.143 A 
ATOM     11  C   UNL A   1      45.013  35.574  26.646  1.00  0.00     0.043 A 
ATOM     12  C   UNL A   1      44.433  37.895  26.982  1.00  0.00     0.020 A 
ATOM     13  O   UNL A   1      42.362  38.372  28.134  1.00  0.00    -0.474 OA
ATOM     14  Cl  UNL A   1      46.120  34.388  26.071  1.00  0.00    -0.084 Cl
ATOM     15  C   UNL A   1      45.321  36.929  26.505  1.00  0.00     0.032 A 
ATOM     16  C   UNL A   1      44.740  39.320  26.896  1.00  0.00     0.025 C 
ATOM     17  C   UNL A   1      42.436  39.737  27.670  1.00  0.00     0.314 C 
BRANCH   8  18
ATOM     18  C   UNL A   1      41.712  35.724  28.371  1.00  0.00    -0.058 C 
ATOM     19  C   UNL A   1      40.717  35.315  28.915  1.00  0.00    -0.062 C 
BRANCH  19  20
ATOM     20  C   UNL A   1      39.537  34.763  29.508  1.00  0.00     0.025 A 
ATOM     21  C   UNL A   1      37.162  33.864  30.664  1.00  0.00     0.082 A 
ATOM     22  C   UNL A   1      38.141  34.457  31.466  1.00  0.00     0.023 A 
ATOM     23  C   UNL A   1      37.377  33.681  29.295  1.00  0.00     0.023 A 
ATOM     24  C   UNL A   1      39.329  34.904  30.883  1.00  0.00     0.018 A 
ATOM     25  C   UNL A   1      38.567  34.137  28.717  1.00  0.00     0.018 A 
BRANCH  21  26
ATOM     26  S   UNL A   1      35.619  33.374  31.375  1.00  0.00     0.238 S 
ATOM     27  O   UNL A   1      35.039  32.319  30.578  1.00  0.00    -0.207 OA
ATOM     28  O   UNL A   1      34.892  34.562  31.755  1.00  0.00    -0.207 OA
BRANCH  26  29
ATOM     29  N   UNL A   1      36.064  32.628  32.818  1.00  0.00    -0.225 NA
ATOM     30  H   UNL A   1      37.071  32.721  32.952  1.00  0.00     0.137 HD
ATOM     31  H   UNL A   1      35.816  31.640  32.780  1.00  0.00     0.137 HD
ENDBRANCH  26  29
ENDBRANCH  21  26
ENDBRANCH  19  20
ENDBRANCH   8  18
BRANCH  17  32
ATOM     32  C   UNL A   1      41.359  39.958  26.591  1.00  0.00     0.429 C 
ATOM     33  F   UNL A   1      40.385  40.781  27.056  1.00  0.00    -0.167 F 
ATOM     34  F   UNL A   1      41.845  40.538  25.469  1.00  0.00    -0.167 F 
ATOM     35  F   UNL A   1      40.767  38.803  26.210  1.00  0.00    -0.167 F 
ENDBRANCH  17  32
ENDBRANCH   4   7
ENDBRANCH   2   3
ENDBRANCH   1   2
BRANCH   1  36
ATOM     36  C   UNL A   1      46.100  42.799  31.446  1.00  0.00     0.023 C 
BRANCH  36  37
ATOM     37  C   UNL A   1      45.817  42.111  32.776  1.00  0.00     0.116 C 
BRANCH  37  38
ATOM     38  N   UNL A   1      44.557  42.512  33.397  1.00  0.00    -0.352 N 
ATOM     39  C   UNL A   1      43.411  41.758  33.530  1.00  0.00     0.251 C 
ATOM     40  H   UNL A   1      44.523  43.425  33.762  1.00  0.00     0.163 HD
ATOM     41  O   UNL A   1      42.383  42.242  33.988  1.00  0.00    -0.269 OA
BRANCH  39  42
ATOM     42  C   UNL A   1      43.451  40.364  33.050  1.00  0.00     0.039 A 
ATOM     43  C   UNL A   1      44.051  39.387  33.846  1.00  0.00     0.014 A 
ATOM     44  C   UNL A   1      43.069  40.086  31.737  1.00  0.00     0.014 A 
ATOM     45  C   UNL A   1      44.471  38.204  33.257  1.00  0.00     0.010 A 
ATOM     46  C   UNL A   1      43.389  38.846  31.185  1.00  0.00     0.010 A 
ATOM     47  C   UNL A   1      44.152  37.920  31.918  1.00  0.00    -0.014 A 
BRANCH  47  48
ATOM     48  C   UNL A   1      44.635  36.659  31.297  1.00  0.00     0.031 A 
ATOM     49  C   UNL A   1      45.943  36.615  30.550  1.00  0.00     0.074 A 
ATOM     50  C   UNL A   1      43.899  35.540  31.439  1.00  0.00     0.049 A 
ATOM     51  N   UNL A   1      46.482  35.621  29.892  1.00  0.00    -0.248 NA
ATOM     52  C   UNL A   1      46.751  37.845  30.535  1.00  0.00     0.031 C 
ATOM     53  C   UNL A   1      42.632  35.451  32.171  1.00  0.00     0.029 A 
ATOM     54  N   UNL A   1      44.111  34.262  30.990  1.00  0.00    -0.354 N 
ATOM     55  C   UNL A   1      47.676  36.106  29.369  1.00  0.00     0.074 A 
ATOM     56  C   UNL A   1      47.768  37.496  29.758  1.00  0.00     0.031 C 
ATOM     57  C   UNL A   1      42.203  34.182  32.156  1.00  0.00     0.029 A 
ATOM     58  C   UNL A   1      43.112  33.386  31.341  1.00  0.00     0.049 A 
ATOM     59  H   UNL A   1      44.901  33.999  30.466  1.00  0.00     0.167 HD
ATOM     60  C   UNL A   1      48.613  35.448  28.643  1.00  0.00     0.037 A 
ATOM     61  C   UNL A   1      42.926  32.094  31.017  1.00  0.00     0.037 A 
ATOM     62  C   UNL A   1      48.515  34.057  28.274  1.00  0.00     0.049 A 
ATOM     63  C   UNL A   1      43.940  31.411  30.144  1.00  0.00     0.074 A 
ATOM     64  C   UNL A   1      49.413  33.295  27.545  1.00  0.00     0.029 A 
ATOM     65  N   UNL A   1      47.458  33.218  28.601  1.00  0.00    -0.354 N 
ATOM     66  N   UNL A   1      45.057  31.887  29.650  1.00  0.00    -0.248 NA
ATOM     67  C   UNL A   1      43.663  30.016  29.780  1.00  0.00     0.031 C 
ATOM     68  C   UNL A   1      48.873  32.017  27.382  1.00  0.00     0.029 A 
ATOM     69  C   UNL A   1      47.670  31.957  28.066  1.00  0.00     0.049 A 
ATOM     70  H   UNL A   1      46.673  33.480  29.134  1.00  0.00     0.167 HD
ATOM     71  C   UNL A   1      45.630  30.843  28.933  1.00  0.00     0.074 A 
ATOM     72  C   UNL A   1      44.747  29.704  29.081  1.00  0.00     0.031 C 
ATOM     73  C   UNL A   1      46.781  30.831  28.215  1.00  0.00     0.037 A 
BRANCH  60  74
ATOM     74  C   UNL A   1      49.825  36.216  28.183  1.00  0.00     0.058 A 
ATOM     75  C   UNL A   1      49.790  37.056  27.059  1.00  0.00     0.135 A 
ATOM     76  C   UNL A   1      51.023  36.166  28.918  1.00  0.00     0.135 A 
ATOM     77  F   UNL A   1      48.679  37.133  26.307  1.00  0.00    -0.206 F 
ATOM     78  C   UNL A   1      50.897  37.804  26.671  1.00  0.00     0.059 A 
ATOM     79  C   UNL A   1      52.133  36.929  28.568  1.00  0.00     0.059 A 
ATOM     80  F   UNL A   1      51.117  35.380  30.002  1.00  0.00    -0.206 F 
ATOM     81  C   UNL A   1      52.063  37.738  27.436  1.00  0.00     0.060 A 
BRANCH  81  82
ATOM     82  S   UNL A   1      53.482  38.729  26.923  1.00  0.00     0.124 S 
ATOM     83  O   UNL A   1      53.346  38.706  25.470  1.00  0.00    -0.237 OA
ATOM     84  O   UNL A   1      53.212  40.011  27.565  1.00  0.00    -0.237 OA
ATOM     85  O   UNL A   1      54.626  37.993  27.455  1.00  0.00    -0.744 OA
ENDBRANCH  81  82
ENDBRANCH  60  74
BRANCH  61  86
ATOM     86  C   UNL A   1      41.724  31.375  31.517  1.00  0.00     0.058 A 
ATOM     87  C   UNL A   1      41.706  30.813  32.800  1.00  0.00     0.135 A 
ATOM     88  C   UNL A   1      40.560  31.267  30.739  1.00  0.00     0.135 A 
ATOM     89  F   UNL A   1      42.796  30.885  33.580  1.00  0.00    -0.206 F 
ATOM     90  C   UNL A   1      40.582  30.160  33.293  1.00  0.00     0.059 A 
ATOM     91  C   UNL A   1      39.412  30.651  31.222  1.00  0.00     0.059 A 
ATOM     92  F   UNL A   1      40.519  31.803  29.509  1.00  0.00    -0.206 F 
ATOM     93  C   UNL A   1      39.436  30.092  32.498  1.00  0.00     0.060 A 
BRANCH  93  94
ATOM     94  S   UNL A   1      37.966  29.291  33.175  1.00  0.00     0.124 S 
ATOM     95  O   UNL A   1      38.298  27.881  33.010  1.00  0.00    -0.237 OA
ATOM     96  O   UNL A   1      37.955  29.790  34.546  1.00  0.00    -0.237 OA
ATOM     97  O   UNL A   1      36.889  29.788  32.324  1.00  0.00    -0.744 OA
ENDBRANCH  93  94
ENDBRANCH  61  86
BRANCH  73  98
ATOM     98  C   UNL A   1      47.165  29.535  27.551  1.00  0.00     0.058 A 
ATOM     99  C   UNL A   1      47.864  28.531  28.240  1.00  0.00     0.135 A 
ATOM    100  C   UNL A   1      46.797  29.278  26.219  1.00  0.00     0.135 A 
ATOM    101  F   UNL A   1      48.244  28.724  29.513  1.00  0.00    -0.206 F 
ATOM    102  C   UNL A   1      48.217  27.337  27.623  1.00  0.00     0.059 A 
ATOM    103  C   UNL A   1      47.108  28.074  25.594  1.00  0.00     0.059 A 
ATOM    104  F   UNL A   1      46.116  30.196  25.515  1.00  0.00    -0.206 F 
ATOM    105  C   UNL A   1      47.834  27.117  26.299  1.00  0.00     0.060 A 
BRANCH 105 106
ATOM    106  S   UNL A   1      48.295  25.557  25.517  1.00  0.00     0.124 S 
ATOM    107  O   UNL A   1      49.600  25.884  24.954  1.00  0.00    -0.237 OA
ATOM    108  O   UNL A   1      48.304  24.635  26.649  1.00  0.00    -0.237 OA
ATOM    109  O   UNL A   1      47.230  25.336  24.543  1.00  0.00    -0.744 OA
ENDBRANCH 105 106
ENDBRANCH  73  98
ENDBRANCH  47  48
ENDBRANCH  39  42
ENDBRANCH  37  38
ENDBRANCH  36  37
ENDBRANCH   1  36
TORSDOF 19
ENDMDL
