MODEL 1
REMARK VINA RESULT:     -11.1      0.000      0.000
REMARK SMILES O=C(NCCCCNC(=O)[C@@H]1C=C[C@@H]([NH+]2CC3(CCOCC3)C2)C1)c1ccc(-c2c3nc(c(-c4c(F)cc(S(=O)(=O)[O-])cc4F)c4ccc([nH]4)c(-c4c(F)cc(S(=O)(=O)[O-])cc4F)c4nc(c(-c5c(F)cc(S(=O)(=O)[O-])cc5F)c5ccc2[nH]5)C=C4)C=C3)cc1
REMARK SMILES IDX 4 1 3 2 1 3 2 4 25 6 26 7 90 8 27 9 89 10 28 11 29 12 30 13
REMARK SMILES IDX 83 14 31 15 88 16 82 17 84 18 32 19 87 20 81 21 80 22 33 24
REMARK SMILES IDX 67 25 46 26 66 27 47 28 50 29 65 30 85 31 48 32 49 33 64 35
REMARK SMILES IDX 86 36 51 37 34 38 35 39 44 40 36 41 37 42 43 43 45 44 38 45
REMARK SMILES IDX 39 46 40 47 41 48 42 49 68 50 69 51 78 52 70 53 71 54 77 55
REMARK SMILES IDX 79 56 72 57 73 58 74 59 75 60 76 61 52 62 53 63 62 64 54 65
REMARK SMILES IDX 55 66 61 67 63 68 56 69 57 70 58 71 59 72 60 73 5 74 6 75
REMARK SMILES IDX 7 76 8 77 9 78 10 80 11 81 12 82 24 83 13 84 14 85 15 86
REMARK SMILES IDX 16 87 23 88 17 90 18 91 22 92 19 93 21 94 20 95
REMARK H PARENT 3 5 84 23 50 34 8 79 15 89
REMARK Flexibility Score: inf
ROOT
ATOM      1  C   UNL A   1      34.067  27.979  26.586  1.00  0.00     0.116 C 
ENDROOT
BRANCH   1   2
ATOM      2  N   UNL A   1      33.671  29.306  27.029  1.00  0.00    -0.352 N 
ATOM      3  O   UNL A   1      33.831  31.231  28.189  1.00  0.00    -0.269 OA
ATOM      4  C   UNL A   1      34.381  30.219  27.778  1.00  0.00     0.251 C 
ATOM      5  H   UNL A   1      32.769  29.592  26.755  1.00  0.00     0.163 HD
BRANCH   4   6
ATOM      6  C   UNL A   1      35.802  29.955  28.102  1.00  0.00     0.039 A 
ATOM      7  C   UNL A   1      36.799  30.136  27.141  1.00  0.00     0.014 A 
ATOM      8  C   UNL A   1      36.140  29.519  29.387  1.00  0.00     0.014 A 
ATOM      9  C   UNL A   1      38.106  29.746  27.416  1.00  0.00     0.010 A 
ATOM     10  C   UNL A   1      37.471  29.213  29.689  1.00  0.00     0.010 A 
ATOM     11  C   UNL A   1      38.461  29.298  28.698  1.00  0.00    -0.014 A 
BRANCH  11  12
ATOM     12  C   UNL A   1      39.886  29.006  29.000  1.00  0.00     0.031 A 
ATOM     13  C   UNL A   1      40.777  30.032  29.645  1.00  0.00     0.074 A 
ATOM     14  C   UNL A   1      40.371  27.786  28.691  1.00  0.00     0.049 A 
ATOM     15  N   UNL A   1      42.043  29.937  29.963  1.00  0.00    -0.248 NA
ATOM     16  C   UNL A   1      40.175  31.334  29.968  1.00  0.00     0.031 C 
ATOM     17  C   UNL A   1      39.603  26.713  28.052  1.00  0.00     0.029 A 
ATOM     18  N   UNL A   1      41.614  27.237  28.874  1.00  0.00    -0.354 N 
ATOM     19  C   UNL A   1      42.396  31.166  30.508  1.00  0.00     0.074 A 
ATOM     20  C   UNL A   1      41.215  32.001  30.455  1.00  0.00     0.031 C 
ATOM     21  C   UNL A   1      40.379  25.629  27.926  1.00  0.00     0.029 A 
ATOM     22  C   UNL A   1      41.717  25.946  28.412  1.00  0.00     0.049 A 
ATOM     23  H   UNL A   1      42.360  27.720  29.297  1.00  0.00     0.167 HD
ATOM     24  C   UNL A   1      43.594  31.556  31.010  1.00  0.00     0.037 A 
ATOM     25  C   UNL A   1      42.776  25.116  28.355  1.00  0.00     0.037 A 
ATOM     26  C   UNL A   1      44.761  30.710  31.065  1.00  0.00     0.049 A 
ATOM     27  C   UNL A   1      44.099  25.587  28.884  1.00  0.00     0.074 A 
ATOM     28  C   UNL A   1      46.007  30.998  31.595  1.00  0.00     0.029 A 
ATOM     29  N   UNL A   1      44.833  29.418  30.564  1.00  0.00    -0.354 N 
ATOM     30  N   UNL A   1      44.401  26.737  29.437  1.00  0.00    -0.248 NA
ATOM     31  C   UNL A   1      45.226  24.652  28.779  1.00  0.00     0.031 C 
ATOM     32  C   UNL A   1      46.846  29.904  31.365  1.00  0.00     0.029 A 
ATOM     33  C   UNL A   1      46.109  28.908  30.744  1.00  0.00     0.049 A 
ATOM     34  H   UNL A   1      44.085  28.933  30.143  1.00  0.00     0.167 HD
ATOM     35  C   UNL A   1      45.750  26.658  29.762  1.00  0.00     0.074 A 
ATOM     36  C   UNL A   1      46.199  25.340  29.360  1.00  0.00     0.031 C 
ATOM     37  C   UNL A   1      46.543  27.594  30.340  1.00  0.00     0.037 A 
BRANCH  24  38
ATOM     38  C   UNL A   1      43.719  32.966  31.525  1.00  0.00     0.058 A 
ATOM     39  C   UNL A   1      44.034  34.040  30.678  1.00  0.00     0.135 A 
ATOM     40  C   UNL A   1      43.459  33.256  32.875  1.00  0.00     0.135 A 
ATOM     41  F   UNL A   1      44.303  33.822  29.381  1.00  0.00    -0.206 F 
ATOM     42  C   UNL A   1      44.112  35.345  31.155  1.00  0.00     0.059 A 
ATOM     43  C   UNL A   1      43.505  34.557  33.369  1.00  0.00     0.059 A 
ATOM     44  F   UNL A   1      43.149  32.268  33.730  1.00  0.00    -0.206 F 
ATOM     45  C   UNL A   1      43.846  35.594  32.503  1.00  0.00     0.060 A 
BRANCH  45  46
ATOM     46  S   UNL A   1      43.946  37.295  33.103  1.00  0.00     0.124 S 
ATOM     47  O   UNL A   1      45.230  37.282  33.797  1.00  0.00    -0.237 OA
ATOM     48  O   UNL A   1      43.903  38.066  31.865  1.00  0.00    -0.237 OA
ATOM     49  O   UNL A   1      42.773  37.424  33.960  1.00  0.00    -0.744 OA
ENDBRANCH  45  46
ENDBRANCH  24  38
BRANCH  25  50
ATOM     50  C   UNL A   1      42.620  23.765  27.754  1.00  0.00     0.058 A 
ATOM     51  C   UNL A   1      42.673  23.579  26.365  1.00  0.00     0.135 A 
ATOM     52  C   UNL A   1      42.441  22.629  28.560  1.00  0.00     0.135 A 
ATOM     53  F   UNL A   1      42.837  24.634  25.552  1.00  0.00    -0.206 F 
ATOM     54  C   UNL A   1      42.539  22.317  25.795  1.00  0.00     0.059 A 
ATOM     55  C   UNL A   1      42.337  21.354  28.016  1.00  0.00     0.059 A 
ATOM     56  F   UNL A   1      42.403  22.752  29.896  1.00  0.00    -0.206 F 
ATOM     57  C   UNL A   1      42.376  21.210  26.631  1.00  0.00     0.060 A 
BRANCH  57  58
ATOM     58  S   UNL A   1      42.252  19.571  25.883  1.00  0.00     0.124 S 
ATOM     59  O   UNL A   1      43.235  19.664  24.811  1.00  0.00    -0.237 OA
ATOM     60  O   UNL A   1      42.603  18.698  26.999  1.00  0.00    -0.237 OA
ATOM     61  O   UNL A   1      40.857  19.502  25.458  1.00  0.00    -0.744 OA
ENDBRANCH  57  58
ENDBRANCH  25  50
BRANCH  37  62
ATOM     62  C   UNL A   1      47.976  27.218  30.598  1.00  0.00     0.058 A 
ATOM     63  C   UNL A   1      48.977  27.421  29.636  1.00  0.00     0.135 A 
ATOM     64  C   UNL A   1      48.360  26.694  31.843  1.00  0.00     0.135 A 
ATOM     65  F   UNL A   1      48.663  27.908  28.425  1.00  0.00    -0.206 F 
ATOM     66  C   UNL A   1      50.307  27.102  29.892  1.00  0.00     0.059 A 
ATOM     67  C   UNL A   1      49.688  26.395  32.132  1.00  0.00     0.059 A 
ATOM     68  F   UNL A   1      47.443  26.485  32.801  1.00  0.00    -0.206 F 
ATOM     69  C   UNL A   1      50.653  26.594  31.146  1.00  0.00     0.060 A 
BRANCH  69  70
ATOM     70  S   UNL A   1      52.389  26.227  31.480  1.00  0.00     0.124 S 
ATOM     71  O   UNL A   1      52.698  27.196  32.528  1.00  0.00    -0.237 OA
ATOM     72  O   UNL A   1      52.336  24.831  31.902  1.00  0.00    -0.237 OA
ATOM     73  O   UNL A   1      53.040  26.463  30.195  1.00  0.00    -0.744 OA
ENDBRANCH  69  70
ENDBRANCH  37  62
ENDBRANCH  11  12
ENDBRANCH   4   6
ENDBRANCH   1   2
BRANCH   1  74
ATOM     74  C   UNL A   1      33.894  27.778  25.086  1.00  0.00     0.023 C 
BRANCH  74  75
ATOM     75  C   UNL A   1      32.642  28.420  24.492  1.00  0.00     0.023 C 
BRANCH  75  76
ATOM     76  C   UNL A   1      31.584  27.425  24.027  1.00  0.00     0.116 C 
BRANCH  76  77
ATOM     77  N   UNL A   1      30.679  27.024  25.098  1.00  0.00    -0.356 N 
ATOM     78  C   UNL A   1      30.532  25.791  25.696  1.00  0.00     0.227 C 
ATOM     79  H   UNL A   1      30.091  27.734  25.444  1.00  0.00     0.163 HD
ATOM     80  O   UNL A   1      29.700  25.650  26.587  1.00  0.00    -0.274 OA
BRANCH  78  81
ATOM     81  C   UNL A   1      31.451  24.671  25.215  1.00  0.00     0.107 C 
ATOM     82  C   UNL A   1      30.877  23.315  24.961  1.00  0.00    -0.012 C 
ATOM     83  C   UNL A   1      32.502  24.392  26.291  1.00  0.00     0.087 C 
ATOM     84  C   UNL A   1      31.424  22.372  25.741  1.00  0.00     0.033 C 
ATOM     85  C   UNL A   1      32.349  22.945  26.773  1.00  0.00     0.208 C 
BRANCH  85  86
ATOM     86  N   UNL A   1      33.550  22.136  27.030  1.00  0.00    -0.328 N 
ATOM     87  C   UNL A   1      34.797  22.817  26.634  1.00  0.00     0.275 C 
ATOM     88  C   UNL A   1      33.802  21.043  26.084  1.00  0.00     0.275 C 
ATOM     89  H   UNL A   1      33.369  21.897  28.005  1.00  0.00     0.348 HD
ATOM     90  C   UNL A   1      34.971  21.851  25.426  1.00  0.00     0.073 C 
ATOM     91  C   UNL A   1      36.240  20.982  25.372  1.00  0.00     0.047 C 
ATOM     92  C   UNL A   1      34.731  22.494  24.047  1.00  0.00     0.047 C 
ATOM     93  C   UNL A   1      37.399  21.765  24.772  1.00  0.00     0.161 C 
ATOM     94  C   UNL A   1      35.993  23.160  23.520  1.00  0.00     0.161 C 
ATOM     95  O   UNL A   1      37.060  22.222  23.464  1.00  0.00    -0.381 OA
ENDBRANCH  85  86
ENDBRANCH  78  81
ENDBRANCH  76  77
ENDBRANCH  75  76
ENDBRANCH  74  75
ENDBRANCH   1  74
TORSDOF 15
ENDMDL
MODEL 2
REMARK VINA RESULT:     -11.1      0.730      8.397
REMARK SMILES O=C(NCCCCNC(=O)[C@@H]1C=C[C@@H]([NH+]2CC3(CCOCC3)C2)C1)c1ccc(-c2c3nc(c(-c4c(F)cc(S(=O)(=O)[O-])cc4F)c4ccc([nH]4)c(-c4c(F)cc(S(=O)(=O)[O-])cc4F)c4nc(c(-c5c(F)cc(S(=O)(=O)[O-])cc5F)c5ccc2[nH]5)C=C4)C=C3)cc1
REMARK SMILES IDX 4 1 3 2 1 3 2 4 25 6 26 7 90 8 27 9 89 10 28 11 29 12 30 13
REMARK SMILES IDX 83 14 31 15 88 16 82 17 84 18 32 19 87 20 81 21 80 22 33 24
REMARK SMILES IDX 67 25 46 26 66 27 47 28 50 29 65 30 85 31 48 32 49 33 64 35
REMARK SMILES IDX 86 36 51 37 34 38 35 39 44 40 36 41 37 42 43 43 45 44 38 45
REMARK SMILES IDX 39 46 40 47 41 48 42 49 68 50 69 51 78 52 70 53 71 54 77 55
REMARK SMILES IDX 79 56 72 57 73 58 74 59 75 60 76 61 52 62 53 63 62 64 54 65
REMARK SMILES IDX 55 66 61 67 63 68 56 69 57 70 58 71 59 72 60 73 5 74 6 75
REMARK SMILES IDX 7 76 8 77 9 78 10 80 11 81 12 82 24 83 13 84 14 85 15 86
REMARK SMILES IDX 16 87 23 88 17 90 18 91 22 92 19 93 21 94 20 95
REMARK H PARENT 3 5 84 23 50 34 8 79 15 89
REMARK Flexibility Score: inf
ROOT
ATOM      1  C   UNL A   1      34.198  28.001  26.542  1.00  0.00     0.116 C 
ENDROOT
BRANCH   1   2
ATOM      2  N   UNL A   1      33.799  29.294  27.073  1.00  0.00    -0.352 N 
ATOM      3  O   UNL A   1      33.960  31.143  28.351  1.00  0.00    -0.269 OA
ATOM      4  C   UNL A   1      34.512  30.164  27.869  1.00  0.00     0.251 C 
ATOM      5  H   UNL A   1      32.891  29.590  26.829  1.00  0.00     0.163 HD
BRANCH   4   6
ATOM      6  C   UNL A   1      35.939  29.890  28.159  1.00  0.00     0.039 A 
ATOM      7  C   UNL A   1      36.920  30.118  27.191  1.00  0.00     0.014 A 
ATOM      8  C   UNL A   1      36.299  29.397  29.417  1.00  0.00     0.014 A 
ATOM      9  C   UNL A   1      38.232  29.721  27.428  1.00  0.00     0.010 A 
ATOM     10  C   UNL A   1      37.635  29.083  29.684  1.00  0.00     0.010 A 
ATOM     11  C   UNL A   1      38.609  29.216  28.682  1.00  0.00    -0.014 A 
BRANCH  11  12
ATOM     12  C   UNL A   1      40.040  28.916  28.949  1.00  0.00     0.031 A 
ATOM     13  C   UNL A   1      40.644  27.590  28.580  1.00  0.00     0.074 A 
ATOM     14  C   UNL A   1      40.799  29.870  29.525  1.00  0.00     0.049 A 
ATOM     15  N   UNL A   1      41.871  27.169  28.755  1.00  0.00    -0.248 NA
ATOM     16  C   UNL A   1      39.760  26.604  27.940  1.00  0.00     0.031 C 
ATOM     17  C   UNL A   1      40.318  31.192  29.938  1.00  0.00     0.029 A 
ATOM     18  N   UNL A   1      42.129  29.885  29.859  1.00  0.00    -0.354 N 
ATOM     19  C   UNL A   1      41.906  25.869  28.264  1.00  0.00     0.074 A 
ATOM     20  C   UNL A   1      40.569  25.560  27.805  1.00  0.00     0.031 C 
ATOM     21  C   UNL A   1      41.341  31.898  30.438  1.00  0.00     0.029 A 
ATOM     22  C   UNL A   1      42.534  31.060  30.446  1.00  0.00     0.049 A 
ATOM     23  H   UNL A   1      42.735  29.127  29.695  1.00  0.00     0.167 HD
ATOM     24  C   UNL A   1      42.960  25.018  28.198  1.00  0.00     0.037 A 
ATOM     25  C   UNL A   1      43.725  31.419  30.962  1.00  0.00     0.037 A 
ATOM     26  C   UNL A   1      44.291  25.342  28.651  1.00  0.00     0.049 A 
ATOM     27  C   UNL A   1      44.864  30.443  30.909  1.00  0.00     0.074 A 
ATOM     28  C   UNL A   1      45.434  24.565  28.586  1.00  0.00     0.029 A 
ATOM     29  N   UNL A   1      44.656  26.534  29.262  1.00  0.00    -0.354 N 
ATOM     30  N   UNL A   1      44.889  29.235  30.399  1.00  0.00    -0.248 NA
ATOM     31  C   UNL A   1      46.136  30.874  31.504  1.00  0.00     0.031 C 
ATOM     32  C   UNL A   1      46.475  25.262  29.208  1.00  0.00     0.029 A 
ATOM     33  C   UNL A   1      45.998  26.500  29.608  1.00  0.00     0.049 A 
ATOM     34  H   UNL A   1      44.050  27.294  29.425  1.00  0.00     0.167 HD
ATOM     35  C   UNL A   1      46.183  28.767  30.597  1.00  0.00     0.074 A 
ATOM     36  C   UNL A   1      46.914  29.831  31.255  1.00  0.00     0.031 C 
ATOM     37  C   UNL A   1      46.715  27.566  30.263  1.00  0.00     0.037 A 
BRANCH  24  38
ATOM     38  C   UNL A   1      42.722  23.641  27.635  1.00  0.00     0.058 A 
ATOM     39  C   UNL A   1      42.827  23.373  26.261  1.00  0.00     0.135 A 
ATOM     40  C   UNL A   1      42.446  22.561  28.491  1.00  0.00     0.135 A 
ATOM     41  F   UNL A   1      43.078  24.368  25.395  1.00  0.00    -0.206 F 
ATOM     42  C   UNL A   1      42.641  22.091  25.753  1.00  0.00     0.059 A 
ATOM     43  C   UNL A   1      42.283  21.266  28.008  1.00  0.00     0.059 A 
ATOM     44  F   UNL A   1      42.339  22.759  29.814  1.00  0.00    -0.206 F 
ATOM     45  C   UNL A   1      42.370  21.043  26.635  1.00  0.00     0.060 A 
BRANCH  45  46
ATOM     46  S   UNL A   1      42.138  19.384  25.958  1.00  0.00     0.124 S 
ATOM     47  O   UNL A   1      40.697  19.364  25.725  1.00  0.00    -0.237 OA
ATOM     48  O   UNL A   1      42.973  19.414  24.762  1.00  0.00    -0.237 OA
ATOM     49  O   UNL A   1      42.611  18.510  27.028  1.00  0.00    -0.744 OA
ENDBRANCH  45  46
ENDBRANCH  24  38
BRANCH  25  50
ATOM     50  C   UNL A   1      43.882  32.758  31.588  1.00  0.00     0.058 A 
ATOM     51  C   UNL A   1      43.647  32.951  32.956  1.00  0.00     0.135 A 
ATOM     52  C   UNL A   1      44.298  33.867  30.833  1.00  0.00     0.135 A 
ATOM     53  F   UNL A   1      43.244  31.923  33.719  1.00  0.00    -0.206 F 
ATOM     54  C   UNL A   1      43.803  34.198  33.553  1.00  0.00     0.059 A 
ATOM     55  C   UNL A   1      44.492  35.116  31.412  1.00  0.00     0.059 A 
ATOM     56  F   UNL A   1      44.555  33.731  29.523  1.00  0.00    -0.206 F 
ATOM     57  C   UNL A   1      44.230  35.273  32.771  1.00  0.00     0.060 A 
BRANCH  57  58
ATOM     58  S   UNL A   1      44.476  36.877  33.565  1.00  0.00     0.124 S 
ATOM     59  O   UNL A   1      45.516  37.461  32.728  1.00  0.00    -0.237 OA
ATOM     60  O   UNL A   1      43.151  37.480  33.453  1.00  0.00    -0.237 OA
ATOM     61  O   UNL A   1      44.881  36.520  34.922  1.00  0.00    -0.744 OA
ENDBRANCH  57  58
ENDBRANCH  25  50
BRANCH  37  62
ATOM     62  C   UNL A   1      48.167  27.343  30.580  1.00  0.00     0.058 A 
ATOM     63  C   UNL A   1      48.578  26.764  31.791  1.00  0.00     0.135 A 
ATOM     64  C   UNL A   1      49.158  27.666  29.639  1.00  0.00     0.135 A 
ATOM     65  F   UNL A   1      47.672  26.447  32.731  1.00  0.00    -0.206 F 
ATOM     66  C   UNL A   1      49.922  26.530  32.066  1.00  0.00     0.059 A 
ATOM     67  C   UNL A   1      50.505  27.414  29.880  1.00  0.00     0.059 A 
ATOM     68  F   UNL A   1      48.819  28.216  28.462  1.00  0.00    -0.206 F 
ATOM     69  C   UNL A   1      50.877  26.854  31.101  1.00  0.00     0.060 A 
BRANCH  69  70
ATOM     70  S   UNL A   1      52.613  26.503  31.453  1.00  0.00     0.124 S 
ATOM     71  O   UNL A   1      53.191  26.507  30.112  1.00  0.00    -0.237 OA
ATOM     72  O   UNL A   1      52.990  27.623  32.310  1.00  0.00    -0.237 OA
ATOM     73  O   UNL A   1      52.569  25.202  32.114  1.00  0.00    -0.744 OA
ENDBRANCH  69  70
ENDBRANCH  37  62
ENDBRANCH  11  12
ENDBRANCH   4   6
ENDBRANCH   1   2
BRANCH   1  74
ATOM     74  C   UNL A   1      33.055  26.996  26.504  1.00  0.00     0.023 C 
BRANCH  74  75
ATOM     75  C   UNL A   1      31.679  27.597  26.227  1.00  0.00     0.023 C 
BRANCH  75  76
ATOM     76  C   UNL A   1      30.736  26.684  25.450  1.00  0.00     0.116 C 
BRANCH  76  77
ATOM     77  N   UNL A   1      30.079  25.698  26.302  1.00  0.00    -0.356 N 
ATOM     78  C   UNL A   1      30.391  24.371  26.495  1.00  0.00     0.227 C 
ATOM     79  H   UNL A   1      29.304  26.029  26.811  1.00  0.00     0.163 HD
ATOM     80  O   UNL A   1      29.704  23.695  27.256  1.00  0.00    -0.274 OA
BRANCH  78  81
ATOM     81  C   UNL A   1      31.608  23.826  25.751  1.00  0.00     0.107 C 
ATOM     82  C   UNL A   1      31.404  22.959  24.552  1.00  0.00    -0.012 C 
ATOM     83  C   UNL A   1      32.399  22.915  26.691  1.00  0.00     0.087 C 
ATOM     84  C   UNL A   1      31.924  21.735  24.709  1.00  0.00     0.033 C 
ATOM     85  C   UNL A   1      32.432  21.500  26.101  1.00  0.00     0.208 C 
BRANCH  85  86
ATOM     86  N   UNL A   1      33.673  20.714  26.172  1.00  0.00    -0.328 N 
ATOM     87  C   UNL A   1      34.817  21.492  26.687  1.00  0.00     0.275 C 
ATOM     88  C   UNL A   1      34.358  20.481  24.896  1.00  0.00     0.275 C 
ATOM     89  H   UNL A   1      33.315  19.907  26.682  1.00  0.00     0.348 HD
ATOM     90  C   UNL A   1      35.465  21.523  25.272  1.00  0.00     0.073 C 
ATOM     91  C   UNL A   1      36.857  20.890  25.101  1.00  0.00     0.047 C 
ATOM     92  C   UNL A   1      35.439  22.900  24.583  1.00  0.00     0.047 C 
ATOM     93  C   UNL A   1      37.946  21.876  25.502  1.00  0.00     0.161 C 
ATOM     94  C   UNL A   1      36.631  23.749  24.997  1.00  0.00     0.161 C 
ATOM     95  O   UNL A   1      37.845  23.064  24.719  1.00  0.00    -0.381 OA
ENDBRANCH  85  86
ENDBRANCH  78  81
ENDBRANCH  76  77
ENDBRANCH  75  76
ENDBRANCH  74  75
ENDBRANCH   1  74
TORSDOF 15
ENDMDL
MODEL 3
REMARK VINA RESULT:     -11.1      4.804     10.483
REMARK SMILES O=C(NCCCCNC(=O)[C@@H]1C=C[C@@H]([NH+]2CC3(CCOCC3)C2)C1)c1ccc(-c2c3nc(c(-c4c(F)cc(S(=O)(=O)[O-])cc4F)c4ccc([nH]4)c(-c4c(F)cc(S(=O)(=O)[O-])cc4F)c4nc(c(-c5c(F)cc(S(=O)(=O)[O-])cc5F)c5ccc2[nH]5)C=C4)C=C3)cc1
REMARK SMILES IDX 4 1 3 2 1 3 2 4 25 6 26 7 90 8 27 9 89 10 28 11 29 12 30 13
REMARK SMILES IDX 83 14 31 15 88 16 82 17 84 18 32 19 87 20 81 21 80 22 33 24
REMARK SMILES IDX 67 25 46 26 66 27 47 28 50 29 65 30 85 31 48 32 49 33 64 35
REMARK SMILES IDX 86 36 51 37 34 38 35 39 44 40 36 41 37 42 43 43 45 44 38 45
REMARK SMILES IDX 39 46 40 47 41 48 42 49 68 50 69 51 78 52 70 53 71 54 77 55
REMARK SMILES IDX 79 56 72 57 73 58 74 59 75 60 76 61 52 62 53 63 62 64 54 65
REMARK SMILES IDX 55 66 61 67 63 68 56 69 57 70 58 71 59 72 60 73 5 74 6 75
REMARK SMILES IDX 7 76 8 77 9 78 10 80 11 81 12 82 24 83 13 84 14 85 15 86
REMARK SMILES IDX 16 87 23 88 17 90 18 91 22 92 19 93 21 94 20 95
REMARK H PARENT 3 5 84 23 50 34 8 79 15 89
REMARK Flexibility Score: inf
ROOT
ATOM      1  C   UNL A   1      38.385  24.209  26.498  1.00  0.00     0.116 C 
ENDROOT
BRANCH   1   2
ATOM      2  N   UNL A   1      39.762  23.940  26.114  1.00  0.00    -0.352 N 
ATOM      3  O   UNL A   1      41.985  24.297  26.007  1.00  0.00    -0.269 OA
ATOM      4  C   UNL A   1      40.919  24.547  26.553  1.00  0.00     0.251 C 
ATOM      5  H   UNL A   1      39.885  23.224  25.449  1.00  0.00     0.163 HD
BRANCH   4   6
ATOM      6  C   UNL A   1      40.860  25.521  27.668  1.00  0.00     0.039 A 
ATOM      7  C   UNL A   1      39.805  25.493  28.583  1.00  0.00     0.014 A 
ATOM      8  C   UNL A   1      41.874  26.474  27.798  1.00  0.00     0.014 A 
ATOM      9  C   UNL A   1      39.687  26.501  29.535  1.00  0.00     0.010 A 
ATOM     10  C   UNL A   1      41.800  27.433  28.812  1.00  0.00     0.010 A 
ATOM     11  C   UNL A   1      40.692  27.472  29.673  1.00  0.00    -0.014 A 
BRANCH  11  12
ATOM     12  C   UNL A   1      40.603  28.462  30.777  1.00  0.00     0.031 A 
ATOM     13  C   UNL A   1      41.500  28.377  31.981  1.00  0.00     0.074 A 
ATOM     14  C   UNL A   1      39.699  29.457  30.676  1.00  0.00     0.049 A 
ATOM     15  N   UNL A   1      41.540  29.155  33.033  1.00  0.00    -0.248 NA
ATOM     16  C   UNL A   1      42.473  27.274  32.016  1.00  0.00     0.031 C 
ATOM     17  C   UNL A   1      38.766  29.634  29.558  1.00  0.00     0.029 A 
ATOM     18  N   UNL A   1      39.415  30.508  31.510  1.00  0.00    -0.354 N 
ATOM     19  C   UNL A   1      42.526  28.631  33.862  1.00  0.00     0.074 A 
ATOM     20  C   UNL A   1      43.044  27.452  33.201  1.00  0.00     0.031 C 
ATOM     21  C   UNL A   1      38.040  30.742  29.761  1.00  0.00     0.029 A 
ATOM     22  C   UNL A   1      38.404  31.316  31.051  1.00  0.00     0.049 A 
ATOM     23  H   UNL A   1      39.891  30.667  32.357  1.00  0.00     0.167 HD
ATOM     24  C   UNL A   1      42.959  29.098  35.059  1.00  0.00     0.037 A 
ATOM     25  C   UNL A   1      37.809  32.386  31.614  1.00  0.00     0.037 A 
ATOM     26  C   UNL A   1      42.440  30.280  35.702  1.00  0.00     0.049 A 
ATOM     27  C   UNL A   1      38.284  32.858  32.957  1.00  0.00     0.074 A 
ATOM     28  C   UNL A   1      42.843  30.858  36.893  1.00  0.00     0.029 A 
ATOM     29  N   UNL A   1      41.397  31.058  35.217  1.00  0.00    -0.354 N 
ATOM     30  N   UNL A   1      39.250  32.377  33.704  1.00  0.00    -0.248 NA
ATOM     31  C   UNL A   1      37.590  34.014  33.538  1.00  0.00     0.031 C 
ATOM     32  C   UNL A   1      42.011  31.950  37.156  1.00  0.00     0.029 A 
ATOM     33  C   UNL A   1      41.124  32.091  36.100  1.00  0.00     0.049 A 
ATOM     34  H   UNL A   1      40.922  30.900  34.369  1.00  0.00     0.167 HD
ATOM     35  C   UNL A   1      39.290  33.182  34.836  1.00  0.00     0.074 A 
ATOM     36  C   UNL A   1      38.264  34.192  34.665  1.00  0.00     0.031 C 
ATOM     37  C   UNL A   1      40.102  33.091  35.918  1.00  0.00     0.037 A 
BRANCH  24  38
ATOM     38  C   UNL A   1      44.037  28.323  35.771  1.00  0.00     0.058 A 
ATOM     39  C   UNL A   1      45.400  28.597  35.577  1.00  0.00     0.135 A 
ATOM     40  C   UNL A   1      43.699  27.332  36.709  1.00  0.00     0.135 A 
ATOM     41  F   UNL A   1      45.782  29.525  34.686  1.00  0.00    -0.206 F 
ATOM     42  C   UNL A   1      46.388  27.901  36.266  1.00  0.00     0.059 A 
ATOM     43  C   UNL A   1      44.669  26.642  37.430  1.00  0.00     0.059 A 
ATOM     44  F   UNL A   1      42.410  27.031  36.938  1.00  0.00    -0.206 F 
ATOM     45  C   UNL A   1      46.013  26.924  37.191  1.00  0.00     0.060 A 
BRANCH  45  46
ATOM     46  S   UNL A   1      47.309  26.035  38.081  1.00  0.00     0.124 S 
ATOM     47  O   UNL A   1      46.800  26.074  39.450  1.00  0.00    -0.237 OA
ATOM     48  O   UNL A   1      47.290  24.726  37.436  1.00  0.00    -0.237 OA
ATOM     49  O   UNL A   1      48.503  26.836  37.835  1.00  0.00    -0.744 OA
ENDBRANCH  45  46
ENDBRANCH  24  38
BRANCH  25  50
ATOM     50  C   UNL A   1      36.689  33.061  30.909  1.00  0.00     0.058 A 
ATOM     51  C   UNL A   1      35.367  32.935  31.360  1.00  0.00     0.135 A 
ATOM     52  C   UNL A   1      36.922  33.869  29.784  1.00  0.00     0.135 A 
ATOM     53  F   UNL A   1      35.093  32.171  32.428  1.00  0.00    -0.206 F 
ATOM     54  C   UNL A   1      34.314  33.573  30.713  1.00  0.00     0.059 A 
ATOM     55  C   UNL A   1      35.890  34.542  29.139  1.00  0.00     0.059 A 
ATOM     56  F   UNL A   1      38.171  34.038  29.324  1.00  0.00    -0.206 F 
ATOM     57  C   UNL A   1      34.588  34.378  29.605  1.00  0.00     0.060 A 
BRANCH  57  58
ATOM     58  S   UNL A   1      33.219  35.240  28.802  1.00  0.00     0.124 S 
ATOM     59  O   UNL A   1      32.463  35.723  29.951  1.00  0.00    -0.237 OA
ATOM     60  O   UNL A   1      33.914  36.258  28.020  1.00  0.00    -0.237 OA
ATOM     61  O   UNL A   1      32.575  34.189  28.019  1.00  0.00    -0.744 OA
ENDBRANCH  57  58
ENDBRANCH  25  50
BRANCH  37  62
ATOM     62  C   UNL A   1      39.935  34.128  36.994  1.00  0.00     0.058 A 
ATOM     63  C   UNL A   1      40.552  35.386  36.909  1.00  0.00     0.135 A 
ATOM     64  C   UNL A   1      39.105  33.879  38.099  1.00  0.00     0.135 A 
ATOM     65  F   UNL A   1      41.365  35.672  35.879  1.00  0.00    -0.206 F 
ATOM     66  C   UNL A   1      40.368  36.354  37.891  1.00  0.00     0.059 A 
ATOM     67  C   UNL A   1      38.883  34.842  39.078  1.00  0.00     0.059 A 
ATOM     68  F   UNL A   1      38.486  32.694  38.226  1.00  0.00    -0.206 F 
ATOM     69  C   UNL A   1      39.527  36.074  38.969  1.00  0.00     0.060 A 
BRANCH  69  70
ATOM     70  S   UNL A   1      39.261  37.355  40.213  1.00  0.00     0.124 S 
ATOM     71  O   UNL A   1      38.556  36.613  41.254  1.00  0.00    -0.237 OA
ATOM     72  O   UNL A   1      40.624  37.763  40.537  1.00  0.00    -0.237 OA
ATOM     73  O   UNL A   1      38.464  38.354  39.506  1.00  0.00    -0.744 OA
ENDBRANCH  69  70
ENDBRANCH  37  62
ENDBRANCH  11  12
ENDBRANCH   4   6
ENDBRANCH   1   2
BRANCH   1  74
ATOM     74  C   UNL A   1      37.384  23.311  25.782  1.00  0.00     0.023 C 
BRANCH  74  75
ATOM     75  C   UNL A   1      36.138  24.024  25.262  1.00  0.00     0.023 C 
BRANCH  75  76
ATOM     76  C   UNL A   1      34.953  23.103  24.989  1.00  0.00     0.116 C 
BRANCH  76  77
ATOM     77  N   UNL A   1      34.678  22.949  23.564  1.00  0.00    -0.356 N 
ATOM     78  C   UNL A   1      33.754  23.604  22.782  1.00  0.00     0.227 C 
ATOM     79  H   UNL A   1      35.232  22.282  23.096  1.00  0.00     0.163 HD
ATOM     80  O   UNL A   1      33.668  23.324  21.589  1.00  0.00    -0.274 OA
BRANCH  78  81
ATOM     81  C   UNL A   1      32.899  24.672  23.460  1.00  0.00     0.107 C 
ATOM     82  C   UNL A   1      31.478  24.850  23.033  1.00  0.00    -0.012 C 
ATOM     83  C   UNL A   1      33.506  26.048  23.180  1.00  0.00     0.087 C 
ATOM     84  C   UNL A   1      31.238  26.075  22.546  1.00  0.00     0.033 C 
ATOM     85  C   UNL A   1      32.488  26.893  22.406  1.00  0.00     0.208 C 
BRANCH  85  86
ATOM     86  N   UNL A   1      32.324  28.316  22.741  1.00  0.00    -0.328 N 
ATOM     87  C   UNL A   1      33.079  28.714  23.945  1.00  0.00     0.275 C 
ATOM     88  C   UNL A   1      31.052  28.684  23.372  1.00  0.00     0.275 C 
ATOM     89  H   UNL A   1      32.543  28.715  21.828  1.00  0.00     0.348 HD
ATOM     90  C   UNL A   1      31.760  28.848  24.759  1.00  0.00     0.073 C 
ATOM     91  C   UNL A   1      31.419  30.223  25.360  1.00  0.00     0.047 C 
ATOM     92  C   UNL A   1      31.546  27.756  25.823  1.00  0.00     0.047 C 
ATOM     93  C   UNL A   1      32.131  30.417  26.691  1.00  0.00     0.161 C 
ATOM     94  C   UNL A   1      32.230  28.118  27.133  1.00  0.00     0.161 C 
ATOM     95  O   UNL A   1      31.768  29.379  27.599  1.00  0.00    -0.381 OA
ENDBRANCH  85  86
ENDBRANCH  78  81
ENDBRANCH  76  77
ENDBRANCH  75  76
ENDBRANCH  74  75
ENDBRANCH   1  74
TORSDOF 15
ENDMDL
