MODEL 1
REMARK VINA RESULT:     -11.3      0.000      0.000
REMARK SMILES CCOc1ccc(C(=O)NCC(=O)NCCCCNC(=O)c2ccc(-c3c4nc(c(-c5c(F)cc(S(=O)(=O)[O-])cc5F)c5ccc([nH]5)c(-c5c(F)cc(S(=O)(=O)[O-])cc5F)c5nc(c(-c6c(F)cc(S(=O)(=O)[O-])cc6F)c6ccc3[nH]6)C=C5)C=C4)cc2)c2ccccc12
REMARK SMILES IDX 16 1 15 2 14 3 12 4 13 5 11 7 10 8 8 9 9 10 7 12 4 13 5 14
REMARK SMILES IDX 93 15 6 16 88 17 92 18 89 19 91 20 90 21 3 22 2 23 1 24
REMARK SMILES IDX 17 25 18 26 19 27 20 28 21 30 22 31 23 32 87 33 24 34 86 35
REMARK SMILES IDX 25 36 26 37 27 38 80 39 28 40 85 41 79 42 81 43 29 44 84 45
REMARK SMILES IDX 78 46 77 47 30 49 64 50 43 51 63 52 44 53 47 54 62 55 82 56
REMARK SMILES IDX 45 57 46 58 61 60 83 61 48 62 31 63 32 64 41 65 33 66 34 67
REMARK SMILES IDX 40 68 42 69 35 70 36 71 37 72 38 73 39 74 65 75 66 76 75 77
REMARK SMILES IDX 67 78 68 79 74 80 76 81 69 82 70 83 71 84 72 85 73 86 49 87
REMARK SMILES IDX 50 88 59 89 51 90 52 91 58 92 60 93 53 94 54 95 55 96 56 97
REMARK SMILES IDX 57 98
REMARK H PARENT 14 6 10 11 19 29 81 48 47 59
REMARK Flexibility Score: inf
ROOT
ATOM      1  C   UNL A   1      33.921  28.183  24.648  1.00  0.00     0.023 C 
ENDROOT
BRANCH   1   2
ATOM      2  C   UNL A   1      33.292  28.003  23.273  1.00  0.00     0.116 C 
BRANCH   2   3
ATOM      3  N   UNL A   1      33.629  26.746  22.644  1.00  0.00    -0.355 N 
ATOM      4  C   UNL A   1      32.931  25.586  22.523  1.00  0.00     0.239 C 
ATOM      5  O   UNL A   1      33.398  24.738  21.753  1.00  0.00    -0.273 OA
ATOM      6  H   UNL A   1      34.522  26.727  22.229  1.00  0.00     0.163 HD
BRANCH   4   7
ATOM      7  C   UNL A   1      31.556  25.330  23.166  1.00  0.00     0.216 C 
BRANCH   7   8
ATOM      8  N   UNL A   1      31.422  25.077  24.591  1.00  0.00    -0.343 N 
ATOM      9  C   UNL A   1      31.952  24.215  25.518  1.00  0.00     0.252 C 
ATOM     10  O   UNL A   1      31.771  24.591  26.677  1.00  0.00    -0.269 OA
ATOM     11  H   UNL A   1      30.774  25.692  25.005  1.00  0.00     0.164 HD
BRANCH   9  12
ATOM     12  C   UNL A   1      32.659  22.903  25.225  1.00  0.00     0.047 A 
ATOM     13  C   UNL A   1      33.909  20.417  24.723  1.00  0.00     0.127 A 
ATOM     14  C   UNL A   1      32.549  20.479  24.973  1.00  0.00     0.048 A 
ATOM     15  C   UNL A   1      34.707  21.573  24.805  1.00  0.00     0.025 A 
ATOM     16  C   UNL A   1      31.935  21.704  25.191  1.00  0.00     0.018 A 
ATOM     17  C   UNL A   1      34.097  22.839  25.071  1.00  0.00    -0.002 A 
ATOM     18  C   UNL A   1      36.109  21.475  24.655  1.00  0.00     0.012 A 
ATOM     19  C   UNL A   1      34.997  23.936  25.202  1.00  0.00     0.010 A 
ATOM     20  C   UNL A   1      36.941  22.582  24.783  1.00  0.00     0.001 A 
ATOM     21  C   UNL A   1      36.384  23.814  25.065  1.00  0.00     0.001 A 
BRANCH  13  22
ATOM     22  O   UNL A   1      34.477  19.181  24.527  1.00  0.00    -0.493 OA
BRANCH  22  23
ATOM     23  C   UNL A   1      33.510  18.179  24.182  1.00  0.00     0.226 C 
ATOM     24  C   UNL A   1      34.170  16.902  23.681  1.00  0.00     0.049 C 
ENDBRANCH  22  23
ENDBRANCH  13  22
ENDBRANCH   9  12
ENDBRANCH   7   8
ENDBRANCH   4   7
ENDBRANCH   2   3
ENDBRANCH   1   2
BRANCH   1  25
ATOM     25  C   UNL A   1      32.927  28.120  25.807  1.00  0.00     0.023 C 
BRANCH  25  26
ATOM     26  C   UNL A   1      33.506  28.423  27.188  1.00  0.00     0.116 C 
BRANCH  26  27
ATOM     27  N   UNL A   1      33.424  29.827  27.561  1.00  0.00    -0.352 N 
ATOM     28  C   UNL A   1      34.399  30.620  28.128  1.00  0.00     0.251 C 
ATOM     29  H   UNL A   1      32.562  30.268  27.385  1.00  0.00     0.163 HD
ATOM     30  O   UNL A   1      34.141  31.765  28.476  1.00  0.00    -0.269 OA
BRANCH  28  31
ATOM     31  C   UNL A   1      35.748  30.056  28.350  1.00  0.00     0.039 A 
ATOM     32  C   UNL A   1      36.675  30.096  27.306  1.00  0.00     0.014 A 
ATOM     33  C   UNL A   1      36.110  29.540  29.597  1.00  0.00     0.014 A 
ATOM     34  C   UNL A   1      37.994  29.695  27.539  1.00  0.00     0.010 A 
ATOM     35  C   UNL A   1      37.438  29.205  29.845  1.00  0.00     0.010 A 
ATOM     36  C   UNL A   1      38.396  29.289  28.822  1.00  0.00    -0.014 A 
BRANCH  36  37
ATOM     37  C   UNL A   1      39.815  28.970  29.124  1.00  0.00     0.031 A 
ATOM     38  C   UNL A   1      40.715  30.019  29.717  1.00  0.00     0.074 A 
ATOM     39  C   UNL A   1      40.313  27.763  28.788  1.00  0.00     0.049 A 
ATOM     40  N   UNL A   1      41.998  29.964  29.960  1.00  0.00    -0.248 NA
ATOM     41  C   UNL A   1      40.094  31.310  30.056  1.00  0.00     0.031 C 
ATOM     42  C   UNL A   1      39.555  26.679  28.159  1.00  0.00     0.029 A 
ATOM     43  N   UNL A   1      41.581  27.250  28.912  1.00  0.00    -0.354 N 
ATOM     44  C   UNL A   1      42.343  31.214  30.460  1.00  0.00     0.074 A 
ATOM     45  C   UNL A   1      41.142  32.021  30.444  1.00  0.00     0.031 C 
ATOM     46  C   UNL A   1      40.368  25.627  27.968  1.00  0.00     0.029 A 
ATOM     47  C   UNL A   1      41.711  25.971  28.425  1.00  0.00     0.049 A 
ATOM     48  H   UNL A   1      42.327  27.752  29.313  1.00  0.00     0.167 HD
ATOM     49  C   UNL A   1      43.547  31.642  30.912  1.00  0.00     0.037 A 
ATOM     50  C   UNL A   1      42.791  25.170  28.344  1.00  0.00     0.037 A 
ATOM     51  C   UNL A   1      44.730  30.825  30.956  1.00  0.00     0.049 A 
ATOM     52  C   UNL A   1      44.113  25.664  28.863  1.00  0.00     0.074 A 
ATOM     53  C   UNL A   1      45.980  31.147  31.457  1.00  0.00     0.029 A 
ATOM     54  N   UNL A   1      44.813  29.523  30.483  1.00  0.00    -0.354 N 
ATOM     55  N   UNL A   1      44.407  26.828  29.392  1.00  0.00    -0.248 NA
ATOM     56  C   UNL A   1      45.250  24.736  28.779  1.00  0.00     0.031 C 
ATOM     57  C   UNL A   1      46.828  30.053  31.255  1.00  0.00     0.029 A 
ATOM     58  C   UNL A   1      46.096  29.035  30.664  1.00  0.00     0.049 A 
ATOM     59  H   UNL A   1      44.070  29.022  30.078  1.00  0.00     0.167 HD
ATOM     60  C   UNL A   1      45.755  26.765  29.724  1.00  0.00     0.074 A 
ATOM     61  C   UNL A   1      46.217  25.445  29.347  1.00  0.00     0.031 C 
ATOM     62  C   UNL A   1      46.539  27.714  30.291  1.00  0.00     0.037 A 
BRANCH  49  63
ATOM     63  C   UNL A   1      43.640  33.060  31.402  1.00  0.00     0.058 A 
ATOM     64  C   UNL A   1      43.393  33.391  32.745  1.00  0.00     0.135 A 
ATOM     65  C   UNL A   1      44.009  34.096  30.529  1.00  0.00     0.135 A 
ATOM     66  F   UNL A   1      43.022  32.441  33.618  1.00  0.00    -0.206 F 
ATOM     67  C   UNL A   1      43.482  34.703  33.198  1.00  0.00     0.059 A 
ATOM     68  C   UNL A   1      44.128  35.411  30.967  1.00  0.00     0.059 A 
ATOM     69  F   UNL A   1      44.255  33.835  29.236  1.00  0.00    -0.206 F 
ATOM     70  C   UNL A   1      43.847  35.707  32.301  1.00  0.00     0.060 A 
BRANCH  70  71
ATOM     71  S   UNL A   1      43.957  37.406  32.904  1.00  0.00     0.124 S 
ATOM     72  O   UNL A   1      45.293  37.418  33.491  1.00  0.00    -0.237 OA
ATOM     73  O   UNL A   1      43.797  38.184  31.679  1.00  0.00    -0.237 OA
ATOM     74  O   UNL A   1      42.852  37.501  33.852  1.00  0.00    -0.744 OA
ENDBRANCH  70  71
ENDBRANCH  49  63
BRANCH  50  75
ATOM     75  C   UNL A   1      42.661  23.805  27.768  1.00  0.00     0.058 A 
ATOM     76  C   UNL A   1      42.485  22.687  28.596  1.00  0.00     0.135 A 
ATOM     77  C   UNL A   1      42.696  23.593  26.381  1.00  0.00     0.135 A 
ATOM     78  F   UNL A   1      42.452  22.839  29.928  1.00  0.00    -0.206 F 
ATOM     79  C   UNL A   1      42.363  21.404  28.073  1.00  0.00     0.059 A 
ATOM     80  C   UNL A   1      42.553  22.322  25.833  1.00  0.00     0.059 A 
ATOM     81  F   UNL A   1      42.845  24.632  25.545  1.00  0.00    -0.206 F 
ATOM     82  C   UNL A   1      42.396  21.232  26.688  1.00  0.00     0.060 A 
BRANCH  82  83
ATOM     83  S   UNL A   1      42.186  19.569  26.016  1.00  0.00     0.124 S 
ATOM     84  O   UNL A   1      43.038  19.620  24.834  1.00  0.00    -0.237 OA
ATOM     85  O   UNL A   1      42.662  18.731  27.113  1.00  0.00    -0.237 OA
ATOM     86  O   UNL A   1      40.751  19.492  25.758  1.00  0.00    -0.744 OA
ENDBRANCH  82  83
ENDBRANCH  50  75
BRANCH  62  87
ATOM     87  C   UNL A   1      47.971  27.355  30.569  1.00  0.00     0.058 A 
ATOM     88  C   UNL A   1      48.351  26.717  31.760  1.00  0.00     0.135 A 
ATOM     89  C   UNL A   1      48.965  27.596  29.607  1.00  0.00     0.135 A 
ATOM     90  F   UNL A   1      47.440  26.471  32.714  1.00  0.00    -0.206 F 
ATOM     91  C   UNL A   1      49.670  26.345  31.994  1.00  0.00     0.059 A 
ATOM     92  C   UNL A   1      50.286  27.211  29.810  1.00  0.00     0.059 A 
ATOM     93  F   UNL A   1      48.651  28.196  28.447  1.00  0.00    -0.206 F 
ATOM     94  C   UNL A   1      50.631  26.593  31.012  1.00  0.00     0.060 A 
BRANCH  94  95
ATOM     95  S   UNL A   1      52.332  26.065  31.308  1.00  0.00     0.124 S 
ATOM     96  O   UNL A   1      52.132  24.740  31.885  1.00  0.00    -0.237 OA
ATOM     97  O   UNL A   1      52.906  26.091  29.966  1.00  0.00    -0.237 OA
ATOM     98  O   UNL A   1      52.848  27.078  32.223  1.00  0.00    -0.744 OA
ENDBRANCH  94  95
ENDBRANCH  62  87
ENDBRANCH  36  37
ENDBRANCH  28  31
ENDBRANCH  26  27
ENDBRANCH  25  26
ENDBRANCH   1  25
TORSDOF 18
ENDMDL
MODEL 2
REMARK VINA RESULT:     -11.3      4.201     10.705
REMARK SMILES CCOc1ccc(C(=O)NCC(=O)NCCCCNC(=O)c2ccc(-c3c4nc(c(-c5c(F)cc(S(=O)(=O)[O-])cc5F)c5ccc([nH]5)c(-c5c(F)cc(S(=O)(=O)[O-])cc5F)c5nc(c(-c6c(F)cc(S(=O)(=O)[O-])cc6F)c6ccc3[nH]6)C=C5)C=C4)cc2)c2ccccc12
REMARK SMILES IDX 16 1 15 2 14 3 12 4 13 5 11 7 10 8 8 9 9 10 7 12 4 13 5 14
REMARK SMILES IDX 93 15 6 16 88 17 92 18 89 19 91 20 90 21 3 22 2 23 1 24
REMARK SMILES IDX 17 25 18 26 19 27 20 28 21 30 22 31 23 32 87 33 24 34 86 35
REMARK SMILES IDX 25 36 26 37 27 38 80 39 28 40 85 41 79 42 81 43 29 44 84 45
REMARK SMILES IDX 78 46 77 47 30 49 64 50 43 51 63 52 44 53 47 54 62 55 82 56
REMARK SMILES IDX 45 57 46 58 61 60 83 61 48 62 31 63 32 64 41 65 33 66 34 67
REMARK SMILES IDX 40 68 42 69 35 70 36 71 37 72 38 73 39 74 65 75 66 76 75 77
REMARK SMILES IDX 67 78 68 79 74 80 76 81 69 82 70 83 71 84 72 85 73 86 49 87
REMARK SMILES IDX 50 88 59 89 51 90 52 91 58 92 60 93 53 94 54 95 55 96 56 97
REMARK SMILES IDX 57 98
REMARK H PARENT 14 6 10 11 19 29 81 48 47 59
REMARK Flexibility Score: inf
ROOT
ATOM      1  C   UNL A   1      41.456  19.328  25.958  1.00  0.00     0.023 C 
ENDROOT
BRANCH   1   2
ATOM      2  C   UNL A   1      42.811  18.846  26.456  1.00  0.00     0.116 C 
BRANCH   2   3
ATOM      3  N   UNL A   1      43.730  18.505  25.394  1.00  0.00    -0.355 N 
ATOM      4  C   UNL A   1      44.732  19.213  24.811  1.00  0.00     0.239 C 
ATOM      5  O   UNL A   1      45.485  18.585  24.056  1.00  0.00    -0.273 OA
ATOM      6  H   UNL A   1      43.608  17.599  25.028  1.00  0.00     0.163 HD
BRANCH   4   7
ATOM      7  C   UNL A   1      45.060  20.682  25.136  1.00  0.00     0.216 C 
BRANCH   7   8
ATOM      8  N   UNL A   1      44.112  21.748  24.856  1.00  0.00    -0.343 N 
ATOM      9  C   UNL A   1      43.758  22.955  25.407  1.00  0.00     0.252 C 
ATOM     10  O   UNL A   1      43.116  23.663  24.629  1.00  0.00    -0.269 OA
ATOM     11  H   UNL A   1      43.579  21.552  24.053  1.00  0.00     0.164 HD
BRANCH   9  12
ATOM     12  C   UNL A   1      44.051  23.418  26.823  1.00  0.00     0.047 A 
ATOM     13  C   UNL A   1      44.511  24.300  29.470  1.00  0.00     0.127 A 
ATOM     14  C   UNL A   1      43.252  23.871  29.083  1.00  0.00     0.048 A 
ATOM     15  C   UNL A   1      45.556  24.393  28.533  1.00  0.00     0.025 A 
ATOM     16  C   UNL A   1      43.039  23.412  27.792  1.00  0.00     0.018 A 
ATOM     17  C   UNL A   1      45.342  23.964  27.186  1.00  0.00    -0.002 A 
ATOM     18  C   UNL A   1      46.803  24.936  28.919  1.00  0.00     0.012 A 
ATOM     19  C   UNL A   1      46.440  24.162  26.299  1.00  0.00     0.010 A 
ATOM     20  C   UNL A   1      47.846  25.098  28.012  1.00  0.00     0.001 A 
ATOM     21  C   UNL A   1      47.661  24.717  26.698  1.00  0.00     0.001 A 
BRANCH  13  22
ATOM     22  O   UNL A   1      44.673  24.760  30.754  1.00  0.00    -0.493 OA
BRANCH  22  23
ATOM     23  C   UNL A   1      44.035  26.027  30.971  1.00  0.00     0.226 C 
ATOM     24  C   UNL A   1      45.036  27.106  31.361  1.00  0.00     0.049 C 
ENDBRANCH  22  23
ENDBRANCH  13  22
ENDBRANCH   9  12
ENDBRANCH   7   8
ENDBRANCH   4   7
ENDBRANCH   2   3
ENDBRANCH   1   2
BRANCH   1  25
ATOM     25  C   UNL A   1      40.727  20.265  26.921  1.00  0.00     0.023 C 
BRANCH  25  26
ATOM     26  C   UNL A   1      40.601  21.715  26.459  1.00  0.00     0.116 C 
BRANCH  26  27
ATOM     27  N   UNL A   1      39.240  22.105  26.122  1.00  0.00    -0.352 N 
ATOM     28  C   UNL A   1      38.636  23.333  26.283  1.00  0.00     0.251 C 
ATOM     29  H   UNL A   1      38.678  21.400  25.726  1.00  0.00     0.163 HD
ATOM     30  O   UNL A   1      37.445  23.475  26.039  1.00  0.00    -0.269 OA
BRANCH  28  31
ATOM     31  C   UNL A   1      39.435  24.468  26.795  1.00  0.00     0.039 A 
ATOM     32  C   UNL A   1      40.156  25.248  25.888  1.00  0.00     0.014 A 
ATOM     33  C   UNL A   1      39.428  24.789  28.155  1.00  0.00     0.014 A 
ATOM     34  C   UNL A   1      40.803  26.403  26.335  1.00  0.00     0.010 A 
ATOM     35  C   UNL A   1      40.018  25.974  28.586  1.00  0.00     0.010 A 
ATOM     36  C   UNL A   1      40.702  26.799  27.679  1.00  0.00    -0.014 A 
BRANCH  36  37
ATOM     37  C   UNL A   1      41.282  28.081  28.154  1.00  0.00     0.031 A 
ATOM     38  C   UNL A   1      42.767  28.309  28.090  1.00  0.00     0.074 A 
ATOM     39  C   UNL A   1      40.479  29.007  28.719  1.00  0.00     0.049 A 
ATOM     40  N   UNL A   1      43.468  29.316  28.542  1.00  0.00    -0.248 NA
ATOM     41  C   UNL A   1      43.573  27.251  27.459  1.00  0.00     0.031 C 
ATOM     42  C   UNL A   1      39.030  28.882  28.887  1.00  0.00     0.029 A 
ATOM     43  N   UNL A   1      40.772  30.229  29.273  1.00  0.00    -0.354 N 
ATOM     44  C   UNL A   1      44.795  29.007  28.269  1.00  0.00     0.074 A 
ATOM     45  C   UNL A   1      44.805  27.698  27.652  1.00  0.00     0.031 C 
ATOM     46  C   UNL A   1      38.559  29.988  29.487  1.00  0.00     0.029 A 
ATOM     47  C   UNL A   1      39.674  30.884  29.778  1.00  0.00     0.049 A 
ATOM     48  H   UNL A   1      41.682  30.602  29.303  1.00  0.00     0.167 HD
ATOM     49  C   UNL A   1      45.902  29.755  28.492  1.00  0.00     0.037 A 
ATOM     50  C   UNL A   1      39.576  32.067  30.416  1.00  0.00     0.037 A 
ATOM     51  C   UNL A   1      45.883  31.070  29.077  1.00  0.00     0.049 A 
ATOM     52  C   UNL A   1      40.818  32.885  30.642  1.00  0.00     0.074 A 
ATOM     53  C   UNL A   1      46.945  31.935  29.283  1.00  0.00     0.029 A 
ATOM     54  N   UNL A   1      44.747  31.713  29.547  1.00  0.00    -0.354 N 
ATOM     55  N   UNL A   1      42.059  32.604  30.320  1.00  0.00    -0.248 NA
ATOM     56  C   UNL A   1      40.649  34.181  31.314  1.00  0.00     0.031 C 
ATOM     57  C   UNL A   1      46.455  33.086  29.911  1.00  0.00     0.029 A 
ATOM     58  C   UNL A   1      45.084  32.955  30.059  1.00  0.00     0.049 A 
ATOM     59  H   UNL A   1      43.837  31.341  29.521  1.00  0.00     0.167 HD
ATOM     60  C   UNL A   1      42.814  33.697  30.728  1.00  0.00     0.074 A 
ATOM     61  C   UNL A   1      41.890  34.649  31.311  1.00  0.00     0.031 C 
ATOM     62  C   UNL A   1      44.151  33.895  30.629  1.00  0.00     0.037 A 
BRANCH  49  63
ATOM     63  C   UNL A   1      47.228  29.169  28.096  1.00  0.00     0.058 A 
ATOM     64  C   UNL A   1      47.644  29.135  26.755  1.00  0.00     0.135 A 
ATOM     65  C   UNL A   1      48.107  28.665  29.068  1.00  0.00     0.135 A 
ATOM     66  F   UNL A   1      46.836  29.590  25.784  1.00  0.00    -0.206 F 
ATOM     67  C   UNL A   1      48.872  28.594  26.390  1.00  0.00     0.059 A 
ATOM     68  C   UNL A   1      49.351  28.143  28.727  1.00  0.00     0.059 A 
ATOM     69  F   UNL A   1      47.758  28.674  30.365  1.00  0.00    -0.206 F 
ATOM     70  C   UNL A   1      49.718  28.098  27.382  1.00  0.00     0.060 A 
BRANCH  70  71
ATOM     71  S   UNL A   1      51.309  27.399  26.892  1.00  0.00     0.124 S 
ATOM     72  O   UNL A   1      51.901  27.087  28.189  1.00  0.00    -0.237 OA
ATOM     73  O   UNL A   1      50.911  26.249  26.085  1.00  0.00    -0.237 OA
ATOM     74  O   UNL A   1      51.945  28.487  26.156  1.00  0.00    -0.744 OA
ENDBRANCH  70  71
ENDBRANCH  49  63
BRANCH  50  75
ATOM     75  C   UNL A   1      38.247  32.559  30.867  1.00  0.00     0.058 A 
ATOM     76  C   UNL A   1      37.780  32.287  32.160  1.00  0.00     0.135 A 
ATOM     77  C   UNL A   1      37.427  33.322  30.021  1.00  0.00     0.135 A 
ATOM     78  F   UNL A   1      38.526  31.556  33.002  1.00  0.00    -0.206 F 
ATOM     79  C   UNL A   1      36.539  32.739  32.597  1.00  0.00     0.059 A 
ATOM     80  C   UNL A   1      36.192  33.805  30.443  1.00  0.00     0.059 A 
ATOM     81  F   UNL A   1      37.836  33.624  28.779  1.00  0.00    -0.206 F 
ATOM     82  C   UNL A   1      35.753  33.500  31.731  1.00  0.00     0.060 A 
BRANCH  82  83
ATOM     83  S   UNL A   1      34.165  34.126  32.324  1.00  0.00     0.124 S 
ATOM     84  O   UNL A   1      33.593  32.936  32.941  1.00  0.00    -0.237 OA
ATOM     85  O   UNL A   1      34.575  35.187  33.239  1.00  0.00    -0.237 OA
ATOM     86  O   UNL A   1      33.509  34.582  31.102  1.00  0.00    -0.744 OA
ENDBRANCH  82  83
ENDBRANCH  50  75
BRANCH  62  87
ATOM     87  C   UNL A   1      44.697  35.201  31.132  1.00  0.00     0.058 A 
ATOM     88  C   UNL A   1      44.755  36.339  30.312  1.00  0.00     0.135 A 
ATOM     89  C   UNL A   1      45.110  35.332  32.468  1.00  0.00     0.135 A 
ATOM     90  F   UNL A   1      44.379  36.263  29.026  1.00  0.00    -0.206 F 
ATOM     91  C   UNL A   1      45.220  37.557  30.795  1.00  0.00     0.059 A 
ATOM     92  C   UNL A   1      45.554  36.547  32.978  1.00  0.00     0.059 A 
ATOM     93  F   UNL A   1      45.065  34.276  33.296  1.00  0.00    -0.206 F 
ATOM     94  C   UNL A   1      45.615  37.653  32.130  1.00  0.00     0.060 A 
BRANCH  94  95
ATOM     95  S   UNL A   1      46.173  39.251  32.758  1.00  0.00     0.124 S 
ATOM     96  O   UNL A   1      45.699  39.207  34.137  1.00  0.00    -0.237 OA
ATOM     97  O   UNL A   1      47.620  39.169  32.583  1.00  0.00    -0.237 OA
ATOM     98  O   UNL A   1      45.497  40.212  31.892  1.00  0.00    -0.744 OA
ENDBRANCH  94  95
ENDBRANCH  62  87
ENDBRANCH  36  37
ENDBRANCH  28  31
ENDBRANCH  26  27
ENDBRANCH  25  26
ENDBRANCH   1  25
TORSDOF 18
ENDMDL
MODEL 3
REMARK VINA RESULT:     -11.2      2.817      9.567
REMARK SMILES CCOc1ccc(C(=O)NCC(=O)NCCCCNC(=O)c2ccc(-c3c4nc(c(-c5c(F)cc(S(=O)(=O)[O-])cc5F)c5ccc([nH]5)c(-c5c(F)cc(S(=O)(=O)[O-])cc5F)c5nc(c(-c6c(F)cc(S(=O)(=O)[O-])cc6F)c6ccc3[nH]6)C=C5)C=C4)cc2)c2ccccc12
REMARK SMILES IDX 16 1 15 2 14 3 12 4 13 5 11 7 10 8 8 9 9 10 7 12 4 13 5 14
REMARK SMILES IDX 93 15 6 16 88 17 92 18 89 19 91 20 90 21 3 22 2 23 1 24
REMARK SMILES IDX 17 25 18 26 19 27 20 28 21 30 22 31 23 32 87 33 24 34 86 35
REMARK SMILES IDX 25 36 26 37 27 38 80 39 28 40 85 41 79 42 81 43 29 44 84 45
REMARK SMILES IDX 78 46 77 47 30 49 64 50 43 51 63 52 44 53 47 54 62 55 82 56
REMARK SMILES IDX 45 57 46 58 61 60 83 61 48 62 31 63 32 64 41 65 33 66 34 67
REMARK SMILES IDX 40 68 42 69 35 70 36 71 37 72 38 73 39 74 65 75 66 76 75 77
REMARK SMILES IDX 67 78 68 79 74 80 76 81 69 82 70 83 71 84 72 85 73 86 49 87
REMARK SMILES IDX 50 88 59 89 51 90 52 91 58 92 60 93 53 94 54 95 55 96 56 97
REMARK SMILES IDX 57 98
REMARK H PARENT 14 6 10 11 19 29 81 48 47 59
REMARK Flexibility Score: inf
ROOT
ATOM      1  C   UNL A   1      35.175  21.945  24.266  1.00  0.00     0.023 C 
ENDROOT
BRANCH   1   2
ATOM      2  C   UNL A   1      33.664  21.963  24.078  1.00  0.00     0.116 C 
BRANCH   2   3
ATOM      3  N   UNL A   1      32.979  22.854  24.988  1.00  0.00    -0.355 N 
ATOM      4  C   UNL A   1      31.922  23.687  24.805  1.00  0.00     0.239 C 
ATOM      5  O   UNL A   1      31.425  24.180  25.824  1.00  0.00    -0.273 OA
ATOM      6  H   UNL A   1      33.343  22.856  25.903  1.00  0.00     0.163 HD
BRANCH   4   7
ATOM      7  C   UNL A   1      31.238  23.935  23.448  1.00  0.00     0.216 C 
BRANCH   7   8
ATOM      8  N   UNL A   1      31.928  24.621  22.367  1.00  0.00    -0.343 N 
ATOM      9  C   UNL A   1      32.667  25.766  22.208  1.00  0.00     0.252 C 
ATOM     10  O   UNL A   1      33.321  25.769  21.163  1.00  0.00    -0.269 OA
ATOM     11  H   UNL A   1      31.840  24.131  21.518  1.00  0.00     0.164 HD
BRANCH   9  12
ATOM     12  C   UNL A   1      32.695  26.958  23.149  1.00  0.00     0.047 A 
ATOM     13  C   UNL A   1      32.799  29.129  24.956  1.00  0.00     0.127 A 
ATOM     14  C   UNL A   1      33.787  28.161  24.969  1.00  0.00     0.048 A 
ATOM     15  C   UNL A   1      31.680  29.003  24.112  1.00  0.00     0.025 A 
ATOM     16  C   UNL A   1      33.748  27.113  24.060  1.00  0.00     0.018 A 
ATOM     17  C   UNL A   1      31.601  27.905  23.199  1.00  0.00    -0.002 A 
ATOM     18  C   UNL A   1      30.627  29.942  24.190  1.00  0.00     0.012 A 
ATOM     19  C   UNL A   1      30.400  27.829  22.437  1.00  0.00     0.010 A 
ATOM     20  C   UNL A   1      29.478  29.824  23.414  1.00  0.00     0.001 A 
ATOM     21  C   UNL A   1      29.361  28.761  22.541  1.00  0.00     0.001 A 
BRANCH  13  22
ATOM     22  O   UNL A   1      32.870  30.141  25.883  1.00  0.00    -0.493 OA
BRANCH  22  23
ATOM     23  C   UNL A   1      33.632  29.773  27.043  1.00  0.00     0.226 C 
ATOM     24  C   UNL A   1      34.454  30.938  27.575  1.00  0.00     0.049 C 
ENDBRANCH  22  23
ENDBRANCH  13  22
ENDBRANCH   9  12
ENDBRANCH   7   8
ENDBRANCH   4   7
ENDBRANCH   2   3
ENDBRANCH   1   2
BRANCH   1  25
ATOM     25  C   UNL A   1      35.859  23.285  23.992  1.00  0.00     0.023 C 
BRANCH  25  26
ATOM     26  C   UNL A   1      36.867  23.737  25.046  1.00  0.00     0.116 C 
BRANCH  26  27
ATOM     27  N   UNL A   1      37.914  22.761  25.311  1.00  0.00    -0.352 N 
ATOM     28  C   UNL A   1      39.079  22.928  26.027  1.00  0.00     0.251 C 
ATOM     29  H   UNL A   1      37.771  21.865  24.929  1.00  0.00     0.163 HD
ATOM     30  O   UNL A   1      39.911  22.032  26.076  1.00  0.00    -0.269 OA
BRANCH  28  31
ATOM     31  C   UNL A   1      39.332  24.221  26.701  1.00  0.00     0.039 A 
ATOM     32  C   UNL A   1      38.825  24.420  27.987  1.00  0.00     0.014 A 
ATOM     33  C   UNL A   1      40.109  25.206  26.087  1.00  0.00     0.014 A 
ATOM     34  C   UNL A   1      39.169  25.577  28.692  1.00  0.00     0.010 A 
ATOM     35  C   UNL A   1      40.504  26.326  26.814  1.00  0.00     0.010 A 
ATOM     36  C   UNL A   1      40.047  26.518  28.127  1.00  0.00    -0.014 A 
BRANCH  36  37
ATOM     37  C   UNL A   1      40.520  27.695  28.899  1.00  0.00     0.031 A 
ATOM     38  C   UNL A   1      41.865  27.667  29.571  1.00  0.00     0.074 A 
ATOM     39  C   UNL A   1      39.705  28.757  29.062  1.00  0.00     0.049 A 
ATOM     40  N   UNL A   1      42.410  28.552  30.365  1.00  0.00    -0.248 NA
ATOM     41  C   UNL A   1      42.694  26.472  29.344  1.00  0.00     0.031 C 
ATOM     42  C   UNL A   1      38.357  28.883  28.504  1.00  0.00     0.029 A 
ATOM     43  N   UNL A   1      39.883  29.926  29.760  1.00  0.00    -0.354 N 
ATOM     44  C   UNL A   1      43.634  28.016  30.746  1.00  0.00     0.074 A 
ATOM     45  C   UNL A   1      43.732  26.709  30.133  1.00  0.00     0.031 C 
ATOM     46  C   UNL A   1      37.838  30.068  28.868  1.00  0.00     0.029 A 
ATOM     47  C   UNL A   1      38.799  30.770  29.714  1.00  0.00     0.049 A 
ATOM     48  H   UNL A   1      40.711  30.140  30.248  1.00  0.00     0.167 HD
ATOM     49  C   UNL A   1      44.598  28.573  31.519  1.00  0.00     0.037 A 
ATOM     50  C   UNL A   1      38.595  31.968  30.295  1.00  0.00     0.037 A 
ATOM     51  C   UNL A   1      44.509  29.886  32.100  1.00  0.00     0.049 A 
ATOM     52  C   UNL A   1      39.685  32.569  31.140  1.00  0.00     0.074 A 
ATOM     53  C   UNL A   1      45.460  30.564  32.843  1.00  0.00     0.029 A 
ATOM     54  N   UNL A   1      43.407  30.723  32.003  1.00  0.00    -0.354 N 
ATOM     55  N   UNL A   1      40.863  32.075  31.438  1.00  0.00    -0.248 NA
ATOM     56  C   UNL A   1      39.421  33.892  31.723  1.00  0.00     0.031 C 
ATOM     57  C   UNL A   1      44.920  31.796  33.226  1.00  0.00     0.029 A 
ATOM     58  C   UNL A   1      43.647  31.903  32.687  1.00  0.00     0.049 A 
ATOM     59  H   UNL A   1      42.577  30.510  31.520  1.00  0.00     0.167 HD
ATOM     60  C   UNL A   1      41.489  33.035  32.224  1.00  0.00     0.074 A 
ATOM     61  C   UNL A   1      40.565  34.144  32.347  1.00  0.00     0.031 C 
ATOM     62  C   UNL A   1      42.719  33.002  32.793  1.00  0.00     0.037 A 
BRANCH  49  63
ATOM     63  C   UNL A   1      45.837  27.761  31.775  1.00  0.00     0.058 A 
ATOM     64  C   UNL A   1      46.941  27.812  30.909  1.00  0.00     0.135 A 
ATOM     65  C   UNL A   1      45.936  26.947  32.915  1.00  0.00     0.135 A 
ATOM     66  F   UNL A   1      46.893  28.562  29.796  1.00  0.00    -0.206 F 
ATOM     67  C   UNL A   1      48.087  27.062  31.148  1.00  0.00     0.059 A 
ATOM     68  C   UNL A   1      47.083  26.208  33.187  1.00  0.00     0.059 A 
ATOM     69  F   UNL A   1      44.909  26.862  33.776  1.00  0.00    -0.206 F 
ATOM     70  C   UNL A   1      48.148  26.261  32.288  1.00  0.00     0.060 A 
BRANCH  70  71
ATOM     71  S   UNL A   1      49.644  25.293  32.585  1.00  0.00     0.124 S 
ATOM     72  O   UNL A   1      50.504  26.279  33.231  1.00  0.00    -0.237 OA
ATOM     73  O   UNL A   1      49.157  24.218  33.444  1.00  0.00    -0.237 OA
ATOM     74  O   UNL A   1      50.054  24.883  31.246  1.00  0.00    -0.744 OA
ENDBRANCH  70  71
ENDBRANCH  49  63
BRANCH  50  75
ATOM     75  C   UNL A   1      37.313  32.689  30.079  1.00  0.00     0.058 A 
ATOM     76  C   UNL A   1      37.187  33.645  29.061  1.00  0.00     0.135 A 
ATOM     77  C   UNL A   1      36.187  32.429  30.876  1.00  0.00     0.135 A 
ATOM     78  F   UNL A   1      38.238  33.932  28.279  1.00  0.00    -0.206 F 
ATOM     79  C   UNL A   1      35.995  34.329  28.846  1.00  0.00     0.059 A 
ATOM     80  C   UNL A   1      34.977  33.083  30.666  1.00  0.00     0.059 A 
ATOM     81  F   UNL A   1      36.251  31.511  31.853  1.00  0.00    -0.206 F 
ATOM     82  C   UNL A   1      34.894  34.039  29.654  1.00  0.00     0.060 A 
BRANCH  82  83
ATOM     83  S   UNL A   1      33.336  34.896  29.336  1.00  0.00     0.124 S 
ATOM     84  O   UNL A   1      32.758  34.961  30.672  1.00  0.00    -0.237 OA
ATOM     85  O   UNL A   1      33.791  36.164  28.773  1.00  0.00    -0.237 OA
ATOM     86  O   UNL A   1      32.655  34.011  28.395  1.00  0.00    -0.744 OA
ENDBRANCH  82  83
ENDBRANCH  50  75
BRANCH  62  87
ATOM     87  C   UNL A   1      43.154  34.209  33.574  1.00  0.00     0.058 A 
ATOM     88  C   UNL A   1      43.760  35.310  32.950  1.00  0.00     0.135 A 
ATOM     89  C   UNL A   1      42.907  34.290  34.954  1.00  0.00     0.135 A 
ATOM     90  F   UNL A   1      44.025  35.278  31.634  1.00  0.00    -0.206 F 
ATOM     91  C   UNL A   1      44.120  36.444  33.669  1.00  0.00     0.059 A 
ATOM     92  C   UNL A   1      43.236  35.424  35.689  1.00  0.00     0.059 A 
ATOM     93  F   UNL A   1      42.321  33.267  35.597  1.00  0.00    -0.206 F 
ATOM     94  C   UNL A   1      43.852  36.494  35.039  1.00  0.00     0.060 A 
BRANCH  94  95
ATOM     95  S   UNL A   1      44.283  37.989  35.954  1.00  0.00     0.124 S 
ATOM     96  O   UNL A   1      43.458  37.849  37.150  1.00  0.00    -0.237 OA
ATOM     97  O   UNL A   1      45.720  37.831  36.155  1.00  0.00    -0.237 OA
ATOM     98  O   UNL A   1      43.897  39.065  35.047  1.00  0.00    -0.744 OA
ENDBRANCH  94  95
ENDBRANCH  62  87
ENDBRANCH  36  37
ENDBRANCH  28  31
ENDBRANCH  26  27
ENDBRANCH  25  26
ENDBRANCH   1  25
TORSDOF 18
ENDMDL
