MODEL 1
REMARK VINA RESULT:     -11.9      0.000      0.000
REMARK SMILES O=C(NCCCCNC(=O)c1cccc(N[C@H]2CCCC[C@@H]2O)c1)c1ccc(-c2c3nc(c(-c4c(F)cc(S(=O)(=O)[O-])cc4F)c4ccc([nH]4)c(-c4c(F)cc(S(=O)(=O)[O-])cc4F)c4nc(c(-c5c(F)cc(S(=O)(=O)[O-])cc5F)c5ccc2[nH]5)C=C4)C=C3)cc1
REMARK SMILES IDX 5 1 4 2 3 3 1 4 2 5 25 7 26 8 90 9 27 10 89 11 28 12 29 13
REMARK SMILES IDX 30 14 83 15 31 16 88 17 82 18 84 19 32 20 87 21 81 22 80 23
REMARK SMILES IDX 33 25 67 26 46 27 66 28 47 29 50 30 65 31 85 32 48 33 49 34
REMARK SMILES IDX 64 36 86 37 51 38 34 39 35 40 44 41 36 42 37 43 43 44 45 45
REMARK SMILES IDX 38 46 39 47 40 48 41 49 42 50 68 51 69 52 78 53 70 54 71 55
REMARK SMILES IDX 77 56 79 57 72 58 73 59 74 60 75 61 76 62 52 63 53 64 62 65
REMARK SMILES IDX 54 66 55 67 61 68 63 69 56 70 57 71 58 72 59 73 60 74 6 75
REMARK SMILES IDX 7 76 8 77 9 78 10 80 11 81 12 82 24 83 13 84 15 85 14 86
REMARK SMILES IDX 16 87 17 89 18 90 22 91 19 92 21 93 20 94 23 95
REMARK H PARENT 3 6 84 24 50 35 8 79 16 88 23 96
REMARK Flexibility Score: inf
ROOT
ATOM      1  C   UNL A   1      35.347  32.394  27.994  1.00  0.00     0.023 C 
ENDROOT
BRANCH   1   2
ATOM      2  C   UNL A   1      36.229  32.520  29.228  1.00  0.00     0.116 C 
BRANCH   2   3
ATOM      3  N   UNL A   1      35.882  31.576  30.279  1.00  0.00    -0.352 N 
ATOM      4  O   UNL A   1      36.092  29.726  31.555  1.00  0.00    -0.269 OA
ATOM      5  C   UNL A   1      36.597  30.496  30.743  1.00  0.00     0.251 C 
ATOM      6  H   UNL A   1      35.015  31.731  30.719  1.00  0.00     0.163 HD
BRANCH   5   7
ATOM      7  C   UNL A   1      37.965  30.253  30.234  1.00  0.00     0.039 A 
ATOM      8  C   UNL A   1      38.187  30.042  28.872  1.00  0.00     0.014 A 
ATOM      9  C   UNL A   1      39.033  30.210  31.135  1.00  0.00     0.014 A 
ATOM     10  C   UNL A   1      39.441  29.636  28.433  1.00  0.00     0.010 A 
ATOM     11  C   UNL A   1      40.315  29.890  30.676  1.00  0.00     0.010 A 
ATOM     12  C   UNL A   1      40.523  29.565  29.327  1.00  0.00    -0.014 A 
BRANCH  12  13
ATOM     13  C   UNL A   1      41.868  29.206  28.807  1.00  0.00     0.031 A 
ATOM     14  C   UNL A   1      42.984  30.214  28.761  1.00  0.00     0.074 A 
ATOM     15  C   UNL A   1      42.084  27.935  28.415  1.00  0.00     0.049 A 
ATOM     16  N   UNL A   1      44.219  30.053  28.357  1.00  0.00    -0.248 NA
ATOM     17  C   UNL A   1      42.678  31.578  29.218  1.00  0.00     0.031 C 
ATOM     18  C   UNL A   1      41.072  26.874  28.405  1.00  0.00     0.029 A 
ATOM     19  N   UNL A   1      43.221  27.311  27.971  1.00  0.00    -0.354 N 
ATOM     20  C   UNL A   1      44.836  31.291  28.503  1.00  0.00     0.074 A 
ATOM     21  C   UNL A   1      43.829  32.203  29.004  1.00  0.00     0.031 C 
ATOM     22  C   UNL A   1      41.644  25.724  28.021  1.00  0.00     0.029 A 
ATOM     23  C   UNL A   1      43.043  25.975  27.700  1.00  0.00     0.049 A 
ATOM     24  H   UNL A   1      44.082  27.774  27.857  1.00  0.00     0.167 HD
ATOM     25  C   UNL A   1      46.124  31.629  28.253  1.00  0.00     0.037 A 
ATOM     26  C   UNL A   1      43.904  25.054  27.227  1.00  0.00     0.037 A 
ATOM     27  C   UNL A   1      47.122  30.712  27.761  1.00  0.00     0.049 A 
ATOM     28  C   UNL A   1      45.319  25.463  26.941  1.00  0.00     0.074 A 
ATOM     29  C   UNL A   1      48.456  30.957  27.482  1.00  0.00     0.029 A 
ATOM     30  N   UNL A   1      46.897  29.372  27.479  1.00  0.00    -0.354 N 
ATOM     31  N   UNL A   1      45.885  26.636  27.095  1.00  0.00    -0.248 NA
ATOM     32  C   UNL A   1      46.213  24.425  26.412  1.00  0.00     0.031 C 
ATOM     33  C   UNL A   1      49.029  29.775  26.999  1.00  0.00     0.029 A 
ATOM     34  C   UNL A   1      48.064  28.781  27.018  1.00  0.00     0.049 A 
ATOM     35  H   UNL A   1      46.036  28.908  27.591  1.00  0.00     0.167 HD
ATOM     36  C   UNL A   1      47.204  26.476  26.695  1.00  0.00     0.074 A 
ATOM     37  C   UNL A   1      47.359  25.086  26.312  1.00  0.00     0.031 C 
ATOM     38  C   UNL A   1      48.199  27.396  26.642  1.00  0.00     0.037 A 
BRANCH  25  39
ATOM     39  C   UNL A   1      46.534  33.057  28.499  1.00  0.00     0.058 A 
ATOM     40  C   UNL A   1      46.444  34.031  27.492  1.00  0.00     0.135 A 
ATOM     41  C   UNL A   1      46.971  33.469  29.770  1.00  0.00     0.135 A 
ATOM     42  F   UNL A   1      46.045  33.692  26.256  1.00  0.00    -0.206 F 
ATOM     43  C   UNL A   1      46.795  35.357  27.728  1.00  0.00     0.059 A 
ATOM     44  C   UNL A   1      47.305  34.794  30.034  1.00  0.00     0.059 A 
ATOM     45  F   UNL A   1      47.073  32.579  30.769  1.00  0.00    -0.206 F 
ATOM     46  C   UNL A   1      47.226  35.730  29.003  1.00  0.00     0.060 A 
BRANCH  46  47
ATOM     47  S   UNL A   1      47.671  37.455  29.296  1.00  0.00     0.124 S 
ATOM     48  O   UNL A   1      48.560  37.333  30.446  1.00  0.00    -0.237 OA
ATOM     49  O   UNL A   1      48.309  37.831  28.039  1.00  0.00    -0.237 OA
ATOM     50  O   UNL A   1      46.388  38.099  29.560  1.00  0.00    -0.744 OA
ENDBRANCH  46  47
ENDBRANCH  25  39
BRANCH  26  51
ATOM     51  C   UNL A   1      43.439  23.664  26.988  1.00  0.00     0.058 A 
ATOM     52  C   UNL A   1      43.315  22.748  28.041  1.00  0.00     0.135 A 
ATOM     53  C   UNL A   1      43.094  23.231  25.697  1.00  0.00     0.135 A 
ATOM     54  F   UNL A   1      43.635  23.115  29.291  1.00  0.00    -0.206 F 
ATOM     55  C   UNL A   1      42.880  21.445  27.824  1.00  0.00     0.059 A 
ATOM     56  C   UNL A   1      42.630  21.943  25.459  1.00  0.00     0.059 A 
ATOM     57  F   UNL A   1      43.176  24.077  24.658  1.00  0.00    -0.206 F 
ATOM     58  C   UNL A   1      42.540  21.051  26.527  1.00  0.00     0.060 A 
BRANCH  58  59
ATOM     59  S   UNL A   1      41.939  19.370  26.256  1.00  0.00     0.124 S 
ATOM     60  O   UNL A   1      40.521  19.603  26.012  1.00  0.00    -0.237 OA
ATOM     61  O   UNL A   1      42.726  18.943  25.102  1.00  0.00    -0.237 OA
ATOM     62  O   UNL A   1      42.265  18.695  27.509  1.00  0.00    -0.744 OA
ENDBRANCH  58  59
ENDBRANCH  26  51
BRANCH  38  63
ATOM     63  C   UNL A   1      49.544  26.918  26.175  1.00  0.00     0.058 A 
ATOM     64  C   UNL A   1      50.443  26.288  27.049  1.00  0.00     0.135 A 
ATOM     65  C   UNL A   1      49.928  27.072  24.834  1.00  0.00     0.135 A 
ATOM     66  F   UNL A   1      50.127  26.126  28.343  1.00  0.00    -0.206 F 
ATOM     67  C   UNL A   1      51.691  25.852  26.615  1.00  0.00     0.059 A 
ATOM     68  C   UNL A   1      51.160  26.621  24.373  1.00  0.00     0.059 A 
ATOM     69  F   UNL A   1      49.099  27.662  23.957  1.00  0.00    -0.206 F 
ATOM     70  C   UNL A   1      52.041  26.025  25.275  1.00  0.00     0.060 A 
BRANCH  70  71
ATOM     71  S   UNL A   1      53.655  25.439  24.717  1.00  0.00     0.124 S 
ATOM     72  O   UNL A   1      54.545  26.065  25.688  1.00  0.00    -0.237 OA
ATOM     73  O   UNL A   1      53.517  23.990  24.826  1.00  0.00    -0.237 OA
ATOM     74  O   UNL A   1      53.749  25.952  23.354  1.00  0.00    -0.744 OA
ENDBRANCH  70  71
ENDBRANCH  38  63
ENDBRANCH  12  13
ENDBRANCH   5   7
ENDBRANCH   2   3
ENDBRANCH   1   2
BRANCH   1  75
ATOM     75  C   UNL A   1      34.884  30.977  27.668  1.00  0.00     0.023 C 
BRANCH  75  76
ATOM     76  C   UNL A   1      33.459  30.865  27.138  1.00  0.00     0.116 C 
BRANCH  76  77
ATOM     77  N   UNL A   1      32.725  29.751  27.718  1.00  0.00    -0.352 N 
ATOM     78  C   UNL A   1      32.224  28.630  27.106  1.00  0.00     0.251 C 
ATOM     79  H   UNL A   1      32.563  29.811  28.687  1.00  0.00     0.163 HD
ATOM     80  O   UNL A   1      31.509  27.845  27.722  1.00  0.00    -0.269 OA
BRANCH  78  81
ATOM     81  C   UNL A   1      32.527  28.382  25.685  1.00  0.00     0.041 A 
ATOM     82  C   UNL A   1      33.480  27.420  25.363  1.00  0.00     0.014 A 
ATOM     83  C   UNL A   1      31.858  29.093  24.680  1.00  0.00     0.039 A 
ATOM     84  C   UNL A   1      33.717  27.135  24.025  1.00  0.00     0.003 A 
ATOM     85  C   UNL A   1      32.039  28.782  23.329  1.00  0.00     0.035 A 
ATOM     86  C   UNL A   1      32.996  27.805  23.027  1.00  0.00     0.026 A 
BRANCH  85  87
ATOM     87  N   UNL A   1      31.283  29.466  22.398  1.00  0.00    -0.380 N 
ATOM     88  H   UNL A   1      31.791  29.984  21.731  1.00  0.00     0.160 HD
BRANCH  87  89
ATOM     89  C   UNL A   1      29.825  29.525  22.270  1.00  0.00     0.107 C 
ATOM     90  C   UNL A   1      29.178  28.277  22.886  1.00  0.00     0.027 C 
ATOM     91  C   UNL A   1      29.241  30.887  22.736  1.00  0.00     0.136 C 
ATOM     92  C   UNL A   1      27.660  28.369  22.956  1.00  0.00     0.002 C 
ATOM     93  C   UNL A   1      27.716  30.866  22.820  1.00  0.00     0.034 C 
ATOM     94  C   UNL A   1      27.212  29.668  23.612  1.00  0.00     0.003 C 
BRANCH  91  95
ATOM     95  O   UNL A   1      29.620  31.954  21.854  1.00  0.00    -0.391 OA
ATOM     96  H   UNL A   1      30.318  32.484  22.268  1.00  0.00     0.211 HD
ENDBRANCH  91  95
ENDBRANCH  87  89
ENDBRANCH  85  87
ENDBRANCH  78  81
ENDBRANCH  76  77
ENDBRANCH  75  76
ENDBRANCH   1  75
TORSDOF 17
ENDMDL
MODEL 2
REMARK VINA RESULT:     -11.9      7.229     12.690
REMARK SMILES O=C(NCCCCNC(=O)c1cccc(N[C@H]2CCCC[C@@H]2O)c1)c1ccc(-c2c3nc(c(-c4c(F)cc(S(=O)(=O)[O-])cc4F)c4ccc([nH]4)c(-c4c(F)cc(S(=O)(=O)[O-])cc4F)c4nc(c(-c5c(F)cc(S(=O)(=O)[O-])cc5F)c5ccc2[nH]5)C=C4)C=C3)cc1
REMARK SMILES IDX 5 1 4 2 3 3 1 4 2 5 25 7 26 8 90 9 27 10 89 11 28 12 29 13
REMARK SMILES IDX 30 14 83 15 31 16 88 17 82 18 84 19 32 20 87 21 81 22 80 23
REMARK SMILES IDX 33 25 67 26 46 27 66 28 47 29 50 30 65 31 85 32 48 33 49 34
REMARK SMILES IDX 64 36 86 37 51 38 34 39 35 40 44 41 36 42 37 43 43 44 45 45
REMARK SMILES IDX 38 46 39 47 40 48 41 49 42 50 68 51 69 52 78 53 70 54 71 55
REMARK SMILES IDX 77 56 79 57 72 58 73 59 74 60 75 61 76 62 52 63 53 64 62 65
REMARK SMILES IDX 54 66 55 67 61 68 63 69 56 70 57 71 58 72 59 73 60 74 6 75
REMARK SMILES IDX 7 76 8 77 9 78 10 80 11 81 12 82 24 83 13 84 15 85 14 86
REMARK SMILES IDX 16 87 17 89 18 90 22 91 19 92 21 93 20 94 23 95
REMARK H PARENT 3 6 84 24 50 35 8 79 16 88 23 96
REMARK Flexibility Score: inf
ROOT
ATOM      1  C   UNL A   1      40.116  22.721  27.421  1.00  0.00     0.023 C 
ENDROOT
BRANCH   1   2
ATOM      2  C   UNL A   1      41.522  23.302  27.413  1.00  0.00     0.116 C 
BRANCH   2   3
ATOM      3  N   UNL A   1      41.826  24.049  26.202  1.00  0.00    -0.352 N 
ATOM      4  O   UNL A   1      41.944  25.858  24.859  1.00  0.00    -0.269 OA
ATOM      5  C   UNL A   1      41.776  25.407  25.988  1.00  0.00     0.251 C 
ATOM      6  H   UNL A   1      42.106  23.507  25.429  1.00  0.00     0.163 HD
BRANCH   5   7
ATOM      7  C   UNL A   1      41.487  26.314  27.120  1.00  0.00     0.039 A 
ATOM      8  C   UNL A   1      42.333  27.388  27.402  1.00  0.00     0.014 A 
ATOM      9  C   UNL A   1      40.369  26.071  27.924  1.00  0.00     0.014 A 
ATOM     10  C   UNL A   1      42.154  28.118  28.570  1.00  0.00     0.010 A 
ATOM     11  C   UNL A   1      40.139  26.867  29.051  1.00  0.00     0.010 A 
ATOM     12  C   UNL A   1      41.049  27.875  29.403  1.00  0.00    -0.014 A 
BRANCH  12  13
ATOM     13  C   UNL A   1      40.845  28.730  30.601  1.00  0.00     0.031 A 
ATOM     14  C   UNL A   1      41.726  28.601  31.814  1.00  0.00     0.074 A 
ATOM     15  C   UNL A   1      39.874  29.664  30.562  1.00  0.00     0.049 A 
ATOM     16  N   UNL A   1      41.692  29.287  32.929  1.00  0.00    -0.248 NA
ATOM     17  C   UNL A   1      42.774  27.570  31.778  1.00  0.00     0.031 C 
ATOM     18  C   UNL A   1      38.950  29.872  29.443  1.00  0.00     0.029 A 
ATOM     19  N   UNL A   1      39.511  30.623  31.472  1.00  0.00    -0.354 N 
ATOM     20  C   UNL A   1      42.704  28.768  33.730  1.00  0.00     0.074 A 
ATOM     21  C   UNL A   1      43.315  27.688  32.984  1.00  0.00     0.031 C 
ATOM     22  C   UNL A   1      38.161  30.921  29.713  1.00  0.00     0.029 A 
ATOM     23  C   UNL A   1      38.478  31.422  31.044  1.00  0.00     0.049 A 
ATOM     24  H   UNL A   1      39.949  30.730  32.348  1.00  0.00     0.167 HD
ATOM     25  C   UNL A   1      43.092  29.165  34.966  1.00  0.00     0.037 A 
ATOM     26  C   UNL A   1      37.840  32.435  31.660  1.00  0.00     0.037 A 
ATOM     27  C   UNL A   1      42.483  30.247  35.699  1.00  0.00     0.049 A 
ATOM     28  C   UNL A   1      38.279  32.840  33.037  1.00  0.00     0.074 A 
ATOM     29  C   UNL A   1      42.808  30.729  36.955  1.00  0.00     0.029 A 
ATOM     30  N   UNL A   1      41.424  31.018  35.240  1.00  0.00    -0.354 N 
ATOM     31  N   UNL A   1      39.245  32.343  33.772  1.00  0.00    -0.248 NA
ATOM     32  C   UNL A   1      37.540  33.939  33.670  1.00  0.00     0.031 C 
ATOM     33  C   UNL A   1      41.926  31.769  37.270  1.00  0.00     0.029 A 
ATOM     34  C   UNL A   1      41.077  31.964  36.192  1.00  0.00     0.049 A 
ATOM     35  H   UNL A   1      40.984  30.910  34.365  1.00  0.00     0.167 HD
ATOM     36  C   UNL A   1      39.239  33.077  34.951  1.00  0.00     0.074 A 
ATOM     37  C   UNL A   1      38.188  34.067  34.821  1.00  0.00     0.031 C 
ATOM     38  C   UNL A   1      40.028  32.942  36.045  1.00  0.00     0.037 A 
BRANCH  25  39
ATOM     39  C   UNL A   1      44.229  28.422  35.616  1.00  0.00     0.058 A 
ATOM     40  C   UNL A   1      44.003  27.312  36.446  1.00  0.00     0.135 A 
ATOM     41  C   UNL A   1      45.562  28.789  35.365  1.00  0.00     0.135 A 
ATOM     42  F   UNL A   1      42.750  26.925  36.730  1.00  0.00    -0.206 F 
ATOM     43  C   UNL A   1      45.055  26.608  37.023  1.00  0.00     0.059 A 
ATOM     44  C   UNL A   1      46.631  28.083  35.912  1.00  0.00     0.059 A 
ATOM     45  F   UNL A   1      45.836  29.840  34.577  1.00  0.00    -0.206 F 
ATOM     46  C   UNL A   1      46.367  27.001  36.751  1.00  0.00     0.060 A 
BRANCH  46  47
ATOM     47  S   UNL A   1      47.722  26.073  37.501  1.00  0.00     0.124 S 
ATOM     48  O   UNL A   1      47.474  26.295  38.922  1.00  0.00    -0.237 OA
ATOM     49  O   UNL A   1      47.477  24.717  37.020  1.00  0.00    -0.237 OA
ATOM     50  O   UNL A   1      48.916  26.718  36.964  1.00  0.00    -0.744 OA
ENDBRANCH  46  47
ENDBRANCH  25  39
BRANCH  26  51
ATOM     51  C   UNL A   1      36.713  33.121  30.977  1.00  0.00     0.058 A 
ATOM     52  C   UNL A   1      36.941  34.025  29.931  1.00  0.00     0.135 A 
ATOM     53  C   UNL A   1      35.383  32.870  31.351  1.00  0.00     0.135 A 
ATOM     54  F   UNL A   1      38.195  34.299  29.541  1.00  0.00    -0.206 F 
ATOM     55  C   UNL A   1      35.890  34.672  29.287  1.00  0.00     0.059 A 
ATOM     56  C   UNL A   1      34.315  33.482  30.704  1.00  0.00     0.059 A 
ATOM     57  F   UNL A   1      35.113  31.997  32.334  1.00  0.00    -0.206 F 
ATOM     58  C   UNL A   1      34.580  34.392  29.682  1.00  0.00     0.060 A 
BRANCH  58  59
ATOM     59  S   UNL A   1      33.218  35.204  28.817  1.00  0.00     0.124 S 
ATOM     60  O   UNL A   1      32.664  34.099  28.044  1.00  0.00    -0.237 OA
ATOM     61  O   UNL A   1      32.396  35.689  29.922  1.00  0.00    -0.237 OA
ATOM     62  O   UNL A   1      33.890  36.245  28.043  1.00  0.00    -0.744 OA
ENDBRANCH  58  59
ENDBRANCH  26  51
BRANCH  38  63
ATOM     63  C   UNL A   1      39.795  33.904  37.175  1.00  0.00     0.058 A 
ATOM     64  C   UNL A   1      38.991  33.565  38.274  1.00  0.00     0.135 A 
ATOM     65  C   UNL A   1      40.402  35.169  37.168  1.00  0.00     0.135 A 
ATOM     66  F   UNL A   1      38.382  32.370  38.324  1.00  0.00    -0.206 F 
ATOM     67  C   UNL A   1      38.773  34.460  39.316  1.00  0.00     0.059 A 
ATOM     68  C   UNL A   1      40.218  36.071  38.211  1.00  0.00     0.059 A 
ATOM     69  F   UNL A   1      41.186  35.538  36.143  1.00  0.00    -0.206 F 
ATOM     70  C   UNL A   1      39.390  35.712  39.275  1.00  0.00     0.060 A 
BRANCH  70  71
ATOM     71  S   UNL A   1      39.115  36.860  40.641  1.00  0.00     0.124 S 
ATOM     72  O   UNL A   1      38.399  36.018  41.592  1.00  0.00    -0.237 OA
ATOM     73  O   UNL A   1      40.475  37.229  41.019  1.00  0.00    -0.237 OA
ATOM     74  O   UNL A   1      38.329  37.929  40.031  1.00  0.00    -0.744 OA
ENDBRANCH  70  71
ENDBRANCH  38  63
ENDBRANCH  12  13
ENDBRANCH   5   7
ENDBRANCH   2   3
ENDBRANCH   1   2
BRANCH   1  75
ATOM     75  C   UNL A   1      39.726  21.944  26.167  1.00  0.00     0.023 C 
BRANCH  75  76
ATOM     76  C   UNL A   1      38.229  21.869  25.887  1.00  0.00     0.116 C 
BRANCH  76  77
ATOM     77  N   UNL A   1      37.858  22.486  24.623  1.00  0.00    -0.352 N 
ATOM     78  C   UNL A   1      36.609  22.765  24.127  1.00  0.00     0.251 C 
ATOM     79  H   UNL A   1      38.610  22.738  24.038  1.00  0.00     0.163 HD
ATOM     80  O   UNL A   1      36.466  23.170  22.978  1.00  0.00    -0.269 OA
BRANCH  78  81
ATOM     81  C   UNL A   1      35.425  22.548  24.979  1.00  0.00     0.041 A 
ATOM     82  C   UNL A   1      35.360  23.195  26.209  1.00  0.00     0.014 A 
ATOM     83  C   UNL A   1      34.382  21.717  24.550  1.00  0.00     0.039 A 
ATOM     84  C   UNL A   1      34.217  23.049  26.982  1.00  0.00     0.003 A 
ATOM     85  C   UNL A   1      33.198  21.601  25.285  1.00  0.00     0.035 A 
ATOM     86  C   UNL A   1      33.150  22.268  26.516  1.00  0.00     0.026 A 
BRANCH  85  87
ATOM     87  N   UNL A   1      32.180  20.831  24.758  1.00  0.00    -0.380 N 
ATOM     88  H   UNL A   1      31.321  21.294  24.624  1.00  0.00     0.160 HD
BRANCH  87  89
ATOM     89  C   UNL A   1      32.207  19.419  24.374  1.00  0.00     0.107 C 
ATOM     90  C   UNL A   1      32.410  19.275  22.859  1.00  0.00     0.027 C 
ATOM     91  C   UNL A   1      33.161  18.577  25.266  1.00  0.00     0.136 C 
ATOM     92  C   UNL A   1      32.638  17.833  22.426  1.00  0.00     0.002 C 
ATOM     93  C   UNL A   1      33.364  17.163  24.724  1.00  0.00     0.034 C 
ATOM     94  C   UNL A   1      33.737  17.173  23.248  1.00  0.00     0.003 C 
BRANCH  91  95
ATOM     95  O   UNL A   1      32.669  18.469  26.609  1.00  0.00    -0.391 OA
ATOM     96  H   UNL A   1      32.942  19.248  27.118  1.00  0.00     0.211 HD
ENDBRANCH  91  95
ENDBRANCH  87  89
ENDBRANCH  85  87
ENDBRANCH  78  81
ENDBRANCH  76  77
ENDBRANCH  75  76
ENDBRANCH   1  75
TORSDOF 17
ENDMDL
MODEL 3
REMARK VINA RESULT:     -11.7      6.941     12.240
REMARK SMILES O=C(NCCCCNC(=O)c1cccc(N[C@H]2CCCC[C@@H]2O)c1)c1ccc(-c2c3nc(c(-c4c(F)cc(S(=O)(=O)[O-])cc4F)c4ccc([nH]4)c(-c4c(F)cc(S(=O)(=O)[O-])cc4F)c4nc(c(-c5c(F)cc(S(=O)(=O)[O-])cc5F)c5ccc2[nH]5)C=C4)C=C3)cc1
REMARK SMILES IDX 5 1 4 2 3 3 1 4 2 5 25 7 26 8 90 9 27 10 89 11 28 12 29 13
REMARK SMILES IDX 30 14 83 15 31 16 88 17 82 18 84 19 32 20 87 21 81 22 80 23
REMARK SMILES IDX 33 25 67 26 46 27 66 28 47 29 50 30 65 31 85 32 48 33 49 34
REMARK SMILES IDX 64 36 86 37 51 38 34 39 35 40 44 41 36 42 37 43 43 44 45 45
REMARK SMILES IDX 38 46 39 47 40 48 41 49 42 50 68 51 69 52 78 53 70 54 71 55
REMARK SMILES IDX 77 56 79 57 72 58 73 59 74 60 75 61 76 62 52 63 53 64 62 65
REMARK SMILES IDX 54 66 55 67 61 68 63 69 56 70 57 71 58 72 59 73 60 74 6 75
REMARK SMILES IDX 7 76 8 77 9 78 10 80 11 81 12 82 24 83 13 84 15 85 14 86
REMARK SMILES IDX 16 87 17 89 18 90 22 91 19 92 21 93 20 94 23 95
REMARK H PARENT 3 6 84 24 50 35 8 79 16 88 23 96
REMARK Flexibility Score: inf
ROOT
ATOM      1  C   UNL A   1      37.362  23.578  25.459  1.00  0.00     0.023 C 
ENDROOT
BRANCH   1   2
ATOM      2  C   UNL A   1      38.323  24.068  26.533  1.00  0.00     0.116 C 
BRANCH   2   3
ATOM      3  N   UNL A   1      39.719  23.984  26.134  1.00  0.00    -0.352 N 
ATOM      4  O   UNL A   1      41.877  24.631  25.995  1.00  0.00    -0.269 OA
ATOM      5  C   UNL A   1      40.781  24.762  26.533  1.00  0.00     0.251 C 
ATOM      6  H   UNL A   1      39.934  23.272  25.488  1.00  0.00     0.163 HD
BRANCH   5   7
ATOM      7  C   UNL A   1      40.586  25.776  27.592  1.00  0.00     0.039 A 
ATOM      8  C   UNL A   1      41.391  26.915  27.640  1.00  0.00     0.014 A 
ATOM      9  C   UNL A   1      39.602  25.571  28.563  1.00  0.00     0.014 A 
ATOM     10  C   UNL A   1      41.321  27.763  28.738  1.00  0.00     0.010 A 
ATOM     11  C   UNL A   1      39.470  26.476  29.621  1.00  0.00     0.010 A 
ATOM     12  C   UNL A   1      40.352  27.562  29.736  1.00  0.00    -0.014 A 
BRANCH  12  13
ATOM     13  C   UNL A   1      40.252  28.536  30.854  1.00  0.00     0.031 A 
ATOM     14  C   UNL A   1      41.168  28.457  32.045  1.00  0.00     0.074 A 
ATOM     15  C   UNL A   1      39.346  29.528  30.758  1.00  0.00     0.049 A 
ATOM     16  N   UNL A   1      41.224  29.242  33.091  1.00  0.00    -0.248 NA
ATOM     17  C   UNL A   1      42.142  27.355  32.073  1.00  0.00     0.031 C 
ATOM     18  C   UNL A   1      38.397  29.698  29.654  1.00  0.00     0.029 A 
ATOM     19  N   UNL A   1      39.084  30.590  31.585  1.00  0.00    -0.354 N 
ATOM     20  C   UNL A   1      42.228  28.729  33.905  1.00  0.00     0.074 A 
ATOM     21  C   UNL A   1      42.736  27.544  33.245  1.00  0.00     0.031 C 
ATOM     22  C   UNL A   1      37.690  30.821  29.849  1.00  0.00     0.029 A 
ATOM     23  C   UNL A   1      38.092  31.417  31.117  1.00  0.00     0.049 A 
ATOM     24  H   UNL A   1      39.561  30.746  32.431  1.00  0.00     0.167 HD
ATOM     25  C   UNL A   1      42.690  29.209  35.085  1.00  0.00     0.037 A 
ATOM     26  C   UNL A   1      37.548  32.526  31.654  1.00  0.00     0.037 A 
ATOM     27  C   UNL A   1      42.183  30.395  35.731  1.00  0.00     0.049 A 
ATOM     28  C   UNL A   1      38.065  33.023  32.971  1.00  0.00     0.074 A 
ATOM     29  C   UNL A   1      42.588  30.966  36.925  1.00  0.00     0.029 A 
ATOM     30  N   UNL A   1      41.162  31.193  35.235  1.00  0.00    -0.354 N 
ATOM     31  N   UNL A   1      39.023  32.529  33.719  1.00  0.00    -0.248 NA
ATOM     32  C   UNL A   1      37.428  34.226  33.522  1.00  0.00     0.031 C 
ATOM     33  C   UNL A   1      41.791  32.090  37.168  1.00  0.00     0.029 A 
ATOM     34  C   UNL A   1      40.917  32.245  36.105  1.00  0.00     0.049 A 
ATOM     35  H   UNL A   1      40.683  31.037  34.389  1.00  0.00     0.167 HD
ATOM     36  C   UNL A   1      39.112  33.367  34.823  1.00  0.00     0.074 A 
ATOM     37  C   UNL A   1      38.126  34.412  34.634  1.00  0.00     0.031 C 
ATOM     38  C   UNL A   1      39.931  33.277  35.900  1.00  0.00     0.037 A 
BRANCH  25  39
ATOM     39  C   UNL A   1      43.797  28.450  35.765  1.00  0.00     0.058 A 
ATOM     40  C   UNL A   1      45.148  28.750  35.528  1.00  0.00     0.135 A 
ATOM     41  C   UNL A   1      43.506  27.445  36.705  1.00  0.00     0.135 A 
ATOM     42  F   UNL A   1      45.484  29.691  34.632  1.00  0.00    -0.206 F 
ATOM     43  C   UNL A   1      46.171  28.068  36.180  1.00  0.00     0.059 A 
ATOM     44  C   UNL A   1      44.514  26.766  37.385  1.00  0.00     0.059 A 
ATOM     45  F   UNL A   1      42.232  27.119  36.971  1.00  0.00    -0.206 F 
ATOM     46  C   UNL A   1      45.844  27.076  37.107  1.00  0.00     0.060 A 
BRANCH  46  47
ATOM     47  S   UNL A   1      47.183  26.204  37.949  1.00  0.00     0.124 S 
ATOM     48  O   UNL A   1      48.357  26.839  37.361  1.00  0.00    -0.237 OA
ATOM     49  O   UNL A   1      46.928  26.518  39.351  1.00  0.00    -0.237 OA
ATOM     50  O   UNL A   1      46.970  24.809  37.574  1.00  0.00    -0.744 OA
ENDBRANCH  46  47
ENDBRANCH  25  39
BRANCH  26  51
ATOM     51  C   UNL A   1      36.445  33.225  30.946  1.00  0.00     0.058 A 
ATOM     52  C   UNL A   1      35.121  33.134  31.394  1.00  0.00     0.135 A 
ATOM     53  C   UNL A   1      36.701  34.014  29.812  1.00  0.00     0.135 A 
ATOM     54  F   UNL A   1      34.827  32.389  32.471  1.00  0.00    -0.206 F 
ATOM     55  C   UNL A   1      34.083  33.786  30.736  1.00  0.00     0.059 A 
ATOM     56  C   UNL A   1      35.686  34.699  29.154  1.00  0.00     0.059 A 
ATOM     57  F   UNL A   1      37.957  34.150  29.356  1.00  0.00    -0.206 F 
ATOM     58  C   UNL A   1      34.377  34.567  29.615  1.00  0.00     0.060 A 
BRANCH  58  59
ATOM     59  S   UNL A   1      33.033  35.443  28.788  1.00  0.00     0.124 S 
ATOM     60  O   UNL A   1      32.275  35.955  29.923  1.00  0.00    -0.237 OA
ATOM     61  O   UNL A   1      33.753  36.437  27.997  1.00  0.00    -0.237 OA
ATOM     62  O   UNL A   1      32.380  34.392  28.012  1.00  0.00    -0.744 OA
ENDBRANCH  58  59
ENDBRANCH  26  51
BRANCH  38  63
ATOM     63  C   UNL A   1      39.808  34.353  36.941  1.00  0.00     0.058 A 
ATOM     64  C   UNL A   1      40.510  35.563  36.833  1.00  0.00     0.135 A 
ATOM     65  C   UNL A   1      38.960  34.180  38.046  1.00  0.00     0.135 A 
ATOM     66  F   UNL A   1      41.340  35.773  35.800  1.00  0.00    -0.206 F 
ATOM     67  C   UNL A   1      40.398  36.555  37.802  1.00  0.00     0.059 A 
ATOM     68  C   UNL A   1      38.813  35.168  39.013  1.00  0.00     0.059 A 
ATOM     69  F   UNL A   1      38.260  33.043  38.190  1.00  0.00    -0.206 F 
ATOM     70  C   UNL A   1      39.547  36.347  38.889  1.00  0.00     0.060 A 
BRANCH  70  71
ATOM     71  S   UNL A   1      39.395  37.648  40.132  1.00  0.00     0.124 S 
ATOM     72  O   UNL A   1      40.697  38.299  40.036  1.00  0.00    -0.237 OA
ATOM     73  O   UNL A   1      38.261  38.423  39.636  1.00  0.00    -0.237 OA
ATOM     74  O   UNL A   1      39.149  36.910  41.366  1.00  0.00    -0.744 OA
ENDBRANCH  70  71
ENDBRANCH  38  63
ENDBRANCH  12  13
ENDBRANCH   5   7
ENDBRANCH   2   3
ENDBRANCH   1   2
BRANCH   1  75
ATOM     75  C   UNL A   1      37.591  22.145  24.988  1.00  0.00     0.023 C 
BRANCH  75  76
ATOM     76  C   UNL A   1      36.367  21.238  25.046  1.00  0.00     0.116 C 
BRANCH  76  77
ATOM     77  N   UNL A   1      35.669  21.310  26.321  1.00  0.00    -0.352 N 
ATOM     78  C   UNL A   1      34.520  21.987  26.643  1.00  0.00     0.251 C 
ATOM     79  H   UNL A   1      36.080  20.801  27.057  1.00  0.00     0.163 HD
ATOM     80  O   UNL A   1      34.134  22.050  27.807  1.00  0.00    -0.269 OA
BRANCH  78  81
ATOM     81  C   UNL A   1      33.757  22.669  25.582  1.00  0.00     0.041 A 
ATOM     82  C   UNL A   1      33.209  21.904  24.557  1.00  0.00     0.014 A 
ATOM     83  C   UNL A   1      33.577  24.058  25.616  1.00  0.00     0.039 A 
ATOM     84  C   UNL A   1      32.432  22.534  23.595  1.00  0.00     0.003 A 
ATOM     85  C   UNL A   1      32.752  24.705  24.691  1.00  0.00     0.035 A 
ATOM     86  C   UNL A   1      32.203  23.914  23.672  1.00  0.00     0.026 A 
BRANCH  85  87
ATOM     87  N   UNL A   1      32.553  26.064  24.836  1.00  0.00    -0.380 N 
ATOM     88  H   UNL A   1      32.281  26.545  24.021  1.00  0.00     0.160 HD
BRANCH  87  89
ATOM     89  C   UNL A   1      32.694  26.884  26.041  1.00  0.00     0.107 C 
ATOM     90  C   UNL A   1      33.904  27.820  25.918  1.00  0.00     0.027 C 
ATOM     91  C   UNL A   1      31.359  27.557  26.462  1.00  0.00     0.136 C 
ATOM     92  C   UNL A   1      33.990  28.830  27.055  1.00  0.00     0.002 C 
ATOM     93  C   UNL A   1      31.555  28.587  27.573  1.00  0.00     0.034 C 
ATOM     94  C   UNL A   1      32.671  29.568  27.242  1.00  0.00     0.003 C 
BRANCH  91  95
ATOM     95  O   UNL A   1      30.402  26.592  26.919  1.00  0.00    -0.391 OA
ATOM     96  H   UNL A   1      30.332  25.873  26.272  1.00  0.00     0.211 HD
ENDBRANCH  91  95
ENDBRANCH  87  89
ENDBRANCH  85  87
ENDBRANCH  78  81
ENDBRANCH  76  77
ENDBRANCH  75  76
ENDBRANCH   1  75
TORSDOF 17
ENDMDL
