MODEL 1
REMARK VINA RESULT:     -14.3      0.000      0.000
REMARK SMILES Cc1cccc(S(=O)(=O)Nc2cc(C(=O)NCCCCNC(=O)c3ccc(-c4c5nc(c(-c6c(F)cc(S(=O)(=O)[O-])cc6F)c6ccc([nH]6)c(-c6c(F)cc(S(=O)(=O)[O-])cc6F)c6nc(c(-c7c(F)cc(S(=O)(=O)[O-])cc7F)c7ccc4[nH]7)C=C6)C=C5)cc3)ccc2N2CCC[C@H](C[NH+]3CCCC3)C2)c1
REMARK SMILES IDX 18 1 17 2 16 3 14 4 15 5 13 7 11 8 12 9 92 10 91 11 90 12
REMARK SMILES IDX 10 13 7 15 8 16 9 17 6 18 1 19 2 20 3 21 105 22 4 23 5 24
REMARK SMILES IDX 93 25 94 26 104 27 95 28 97 29 96 30 98 31 99 32 100 33
REMARK SMILES IDX 103 34 101 36 102 37 19 38 20 39 21 40 22 41 23 43 24 44
REMARK SMILES IDX 25 45 89 46 26 47 88 48 27 49 28 50 29 51 82 52 30 53 87 54
REMARK SMILES IDX 81 55 83 56 31 57 86 58 80 59 79 60 32 62 66 63 45 64 65 65
REMARK SMILES IDX 46 66 49 67 64 68 84 69 47 70 48 71 63 73 85 74 50 75 33 76
REMARK SMILES IDX 34 77 43 78 35 79 36 80 42 81 44 82 37 83 38 84 39 85 40 86
REMARK SMILES IDX 41 87 67 88 68 89 77 90 69 91 70 92 76 93 78 94 71 95 72 96
REMARK SMILES IDX 73 97 74 98 75 99 51 100 52 101 61 102 53 103 54 104 60 105
REMARK SMILES IDX 62 106 55 107 56 108 57 109 58 110 59 111
REMARK H PARENT 16 6 10 14 99 35 21 42 83 61 49 72
REMARK Flexibility Score: inf
ROOT
ATOM      1  C   UNL A   1      32.054  28.432  27.093  1.00  0.00     0.023 C 
ENDROOT
BRANCH   1   2
ATOM      2  C   UNL A   1      31.789  27.058  26.466  1.00  0.00     0.116 C 
BRANCH   2   3
ATOM      3  N   UNL A   1      30.473  26.542  26.816  1.00  0.00    -0.352 N 
ATOM      4  C   UNL A   1      29.825  25.362  26.560  1.00  0.00     0.251 C 
ATOM      5  O   UNL A   1      28.697  25.219  27.038  1.00  0.00    -0.269 OA
ATOM      6  H   UNL A   1      29.936  27.173  27.349  1.00  0.00     0.163 HD
BRANCH   4   7
ATOM      7  C   UNL A   1      30.420  24.228  25.795  1.00  0.00     0.042 A 
ATOM      8  C   UNL A   1      31.349  23.187  23.812  1.00  0.00     0.073 A 
ATOM      9  C   UNL A   1      30.615  24.212  24.419  1.00  0.00     0.042 A 
ATOM     10  C   UNL A   1      31.770  22.055  24.537  1.00  0.00     0.061 A 
ATOM     11  C   UNL A   1      31.477  22.031  25.906  1.00  0.00     0.029 A 
ATOM     12  C   UNL A   1      30.842  23.110  26.532  1.00  0.00     0.016 A 
BRANCH   8  13
ATOM     13  N   UNL A   1      31.710  23.366  22.437  1.00  0.00    -0.277 N 
ATOM     14  H   UNL A   1      31.146  22.989  21.724  1.00  0.00     0.180 HD
BRANCH  13  15
ATOM     15  S   UNL A   1      33.129  24.242  22.038  1.00  0.00     0.261 S 
ATOM     16  O   UNL A   1      32.704  25.626  21.979  1.00  0.00    -0.201 OA
ATOM     17  O   UNL A   1      33.680  23.621  20.851  1.00  0.00    -0.201 OA
BRANCH  15  18
ATOM     18  C   UNL A   1      34.368  24.101  23.313  1.00  0.00     0.088 A 
ATOM     19  C   UNL A   1      37.299  21.905  24.400  1.00  0.00     0.044 C 
ATOM     20  C   UNL A   1      36.290  23.013  24.348  1.00  0.00    -0.050 A 
ATOM     21  C   UNL A   1      36.146  23.842  25.459  1.00  0.00     0.003 A 
ATOM     22  C   UNL A   1      35.443  23.201  23.243  1.00  0.00     0.025 A 
ATOM     23  C   UNL A   1      35.137  24.797  25.484  1.00  0.00     0.002 A 
ATOM     24  C   UNL A   1      34.240  24.926  24.429  1.00  0.00     0.022 A 
ENDBRANCH  15  18
ENDBRANCH  13  15
ENDBRANCH   8  13
BRANCH  10  25
ATOM     25  N   UNL A   1      32.443  20.979  23.986  1.00  0.00    -0.369 N 
ATOM     26  C   UNL A   1      32.105  20.586  22.625  1.00  0.00     0.116 C 
ATOM     27  C   UNL A   1      33.687  20.471  24.556  1.00  0.00     0.126 C 
ATOM     28  C   UNL A   1      32.123  19.063  22.522  1.00  0.00     0.022 C 
ATOM     29  C   UNL A   1      33.721  18.935  24.510  1.00  0.00     0.064 C 
ATOM     30  C   UNL A   1      33.430  18.484  23.068  1.00  0.00     0.013 C 
BRANCH  29  31
ATOM     31  C   UNL A   1      32.782  18.378  25.612  1.00  0.00     0.267 C 
BRANCH  31  32
ATOM     32  N   UNL A   1      33.065  17.078  26.226  1.00  0.00    -0.335 N 
ATOM     33  C   UNL A   1      34.316  16.448  25.814  1.00  0.00     0.262 C 
ATOM     34  C   UNL A   1      32.002  16.085  26.146  1.00  0.00     0.262 C 
ATOM     35  H   UNL A   1      33.151  17.370  27.200  1.00  0.00     0.348 HD
ATOM     36  C   UNL A   1      33.908  15.364  24.837  1.00  0.00     0.067 C 
ATOM     37  C   UNL A   1      32.553  14.909  25.348  1.00  0.00     0.067 C 
ENDBRANCH  31  32
ENDBRANCH  29  31
ENDBRANCH  10  25
ENDBRANCH   4   7
ENDBRANCH   2   3
ENDBRANCH   1   2
BRANCH   1  38
ATOM     38  C   UNL A   1      33.248  29.164  26.480  1.00  0.00     0.023 C 
BRANCH  38  39
ATOM     39  C   UNL A   1      34.384  29.356  27.474  1.00  0.00     0.116 C 
BRANCH  39  40
ATOM     40  N   UNL A   1      35.152  30.571  27.257  1.00  0.00    -0.352 N 
ATOM     41  C   UNL A   1      36.396  30.825  27.809  1.00  0.00     0.251 C 
ATOM     42  H   UNL A   1      34.760  31.263  26.676  1.00  0.00     0.163 HD
ATOM     43  O   UNL A   1      36.783  31.940  28.133  1.00  0.00    -0.269 OA
BRANCH  41  44
ATOM     44  C   UNL A   1      37.322  29.675  27.833  1.00  0.00     0.039 A 
ATOM     45  C   UNL A   1      37.243  28.801  28.926  1.00  0.00     0.014 A 
ATOM     46  C   UNL A   1      38.404  29.645  26.960  1.00  0.00     0.014 A 
ATOM     47  C   UNL A   1      38.337  28.002  29.242  1.00  0.00     0.010 A 
ATOM     48  C   UNL A   1      39.521  28.924  27.327  1.00  0.00     0.010 A 
ATOM     49  C   UNL A   1      39.503  28.141  28.491  1.00  0.00    -0.014 A 
BRANCH  49  50
ATOM     50  C   UNL A   1      40.792  27.571  28.865  1.00  0.00     0.031 A 
ATOM     51  C   UNL A   1      41.086  26.156  28.558  1.00  0.00     0.074 A 
ATOM     52  C   UNL A   1      41.759  28.374  29.355  1.00  0.00     0.049 A 
ATOM     53  N   UNL A   1      42.103  25.501  29.001  1.00  0.00    -0.248 NA
ATOM     54  C   UNL A   1      40.181  25.335  27.765  1.00  0.00     0.031 C 
ATOM     55  C   UNL A   1      43.188  28.090  29.425  1.00  0.00     0.029 A 
ATOM     56  N   UNL A   1      41.604  29.529  30.120  1.00  0.00    -0.354 N 
ATOM     57  C   UNL A   1      42.165  24.305  28.320  1.00  0.00     0.074 A 
ATOM     58  C   UNL A   1      40.888  24.208  27.660  1.00  0.00     0.031 C 
ATOM     59  C   UNL A   1      43.720  28.820  30.415  1.00  0.00     0.029 A 
ATOM     60  C   UNL A   1      42.618  29.494  31.086  1.00  0.00     0.049 A 
ATOM     61  H   UNL A   1      40.920  30.228  30.004  1.00  0.00     0.167 HD
ATOM     62  C   UNL A   1      43.355  23.633  28.292  1.00  0.00     0.037 A 
ATOM     63  C   UNL A   1      42.418  29.519  32.433  1.00  0.00     0.037 A 
ATOM     64  C   UNL A   1      44.277  24.190  29.297  1.00  0.00     0.049 A 
ATOM     65  C   UNL A   1      43.059  28.320  33.088  1.00  0.00     0.074 A 
ATOM     66  C   UNL A   1      45.379  25.027  29.218  1.00  0.00     0.029 A 
ATOM     67  N   UNL A   1      43.922  24.146  30.650  1.00  0.00    -0.354 N 
ATOM     68  N   UNL A   1      43.336  27.216  32.444  1.00  0.00    -0.248 NA
ATOM     69  C   UNL A   1      43.485  28.274  34.481  1.00  0.00     0.031 C 
ATOM     70  C   UNL A   1      45.620  25.563  30.514  1.00  0.00     0.029 A 
ATOM     71  C   UNL A   1      44.691  25.026  31.391  1.00  0.00     0.049 A 
ATOM     72  H   UNL A   1      43.219  23.568  31.023  1.00  0.00     0.167 HD
ATOM     73  C   UNL A   1      44.015  26.361  33.267  1.00  0.00     0.074 A 
ATOM     74  C   UNL A   1      44.061  27.058  34.542  1.00  0.00     0.031 C 
ATOM     75  C   UNL A   1      44.515  25.165  32.834  1.00  0.00     0.037 A 
BRANCH  62  76
ATOM     76  C   UNL A   1      43.780  22.687  27.163  1.00  0.00     0.058 A 
ATOM     77  C   UNL A   1      43.065  21.493  26.905  1.00  0.00     0.135 A 
ATOM     78  C   UNL A   1      44.933  22.833  26.360  1.00  0.00     0.135 A 
ATOM     79  F   UNL A   1      41.905  21.228  27.521  1.00  0.00    -0.206 F 
ATOM     80  C   UNL A   1      43.504  20.504  26.011  1.00  0.00     0.059 A 
ATOM     81  C   UNL A   1      45.412  21.847  25.490  1.00  0.00     0.059 A 
ATOM     82  F   UNL A   1      45.647  23.958  26.331  1.00  0.00    -0.206 F 
ATOM     83  C   UNL A   1      44.698  20.677  25.326  1.00  0.00     0.060 A 
BRANCH  83  84
ATOM     84  S   UNL A   1      45.294  19.391  24.212  1.00  0.00     0.124 S 
ATOM     85  O   UNL A   1      44.906  18.173  24.916  1.00  0.00    -0.237 OA
ATOM     86  O   UNL A   1      44.557  19.682  22.987  1.00  0.00    -0.237 OA
ATOM     87  O   UNL A   1      46.732  19.635  24.146  1.00  0.00    -0.744 OA
ENDBRANCH  83  84
ENDBRANCH  62  76
BRANCH  63  88
ATOM     88  C   UNL A   1      41.189  30.246  32.849  1.00  0.00     0.058 A 
ATOM     89  C   UNL A   1      40.079  29.455  33.213  1.00  0.00     0.135 A 
ATOM     90  C   UNL A   1      41.253  31.545  33.370  1.00  0.00     0.135 A 
ATOM     91  F   UNL A   1      39.956  28.214  32.714  1.00  0.00    -0.206 F 
ATOM     92  C   UNL A   1      39.191  29.849  34.209  1.00  0.00     0.059 A 
ATOM     93  C   UNL A   1      40.362  31.968  34.361  1.00  0.00     0.059 A 
ATOM     94  F   UNL A   1      42.290  32.342  33.074  1.00  0.00    -0.206 F 
ATOM     95  C   UNL A   1      39.392  31.079  34.832  1.00  0.00     0.060 A 
BRANCH  95  96
ATOM     96  S   UNL A   1      38.499  31.415  36.374  1.00  0.00     0.124 S 
ATOM     97  O   UNL A   1      37.420  32.285  35.924  1.00  0.00    -0.237 OA
ATOM     98  O   UNL A   1      38.105  30.070  36.795  1.00  0.00    -0.237 OA
ATOM     99  O   UNL A   1      39.515  32.049  37.208  1.00  0.00    -0.744 OA
ENDBRANCH  95  96
ENDBRANCH  63  88
BRANCH  75 100
ATOM    100  C   UNL A   1      45.004  24.063  33.744  1.00  0.00     0.058 A 
ATOM    101  C   UNL A   1      44.164  23.061  34.262  1.00  0.00     0.135 A 
ATOM    102  C   UNL A   1      46.387  23.889  33.990  1.00  0.00     0.135 A 
ATOM    103  F   UNL A   1      42.849  23.049  34.003  1.00  0.00    -0.206 F 
ATOM    104  C   UNL A   1      44.649  21.997  35.024  1.00  0.00     0.059 A 
ATOM    105  C   UNL A   1      46.896  22.804  34.699  1.00  0.00     0.059 A 
ATOM    106  F   UNL A   1      47.296  24.758  33.526  1.00  0.00    -0.206 F 
ATOM    107  C   UNL A   1      46.017  21.874  35.233  1.00  0.00     0.060 A 
BRANCH 107 108
ATOM    108  S   UNL A   1      46.661  20.453  36.133  1.00  0.00     0.124 S 
ATOM    109  O   UNL A   1      48.099  20.682  36.048  1.00  0.00    -0.237 OA
ATOM    110  O   UNL A   1      46.076  20.616  37.462  1.00  0.00    -0.237 OA
ATOM    111  O   UNL A   1      46.150  19.319  35.369  1.00  0.00    -0.744 OA
ENDBRANCH 107 108
ENDBRANCH  75 100
ENDBRANCH  49  50
ENDBRANCH  41  44
ENDBRANCH  39  40
ENDBRANCH  38  39
ENDBRANCH   1  38
TORSDOF 20
ENDMDL
MODEL 2
REMARK VINA RESULT:     -13.9      1.409      2.305
REMARK SMILES Cc1cccc(S(=O)(=O)Nc2cc(C(=O)NCCCCNC(=O)c3ccc(-c4c5nc(c(-c6c(F)cc(S(=O)(=O)[O-])cc6F)c6ccc([nH]6)c(-c6c(F)cc(S(=O)(=O)[O-])cc6F)c6nc(c(-c7c(F)cc(S(=O)(=O)[O-])cc7F)c7ccc4[nH]7)C=C6)C=C5)cc3)ccc2N2CCC[C@H](C[NH+]3CCCC3)C2)c1
REMARK SMILES IDX 18 1 17 2 16 3 14 4 15 5 13 7 11 8 12 9 92 10 91 11 90 12
REMARK SMILES IDX 10 13 7 15 8 16 9 17 6 18 1 19 2 20 3 21 105 22 4 23 5 24
REMARK SMILES IDX 93 25 94 26 104 27 95 28 97 29 96 30 98 31 99 32 100 33
REMARK SMILES IDX 103 34 101 36 102 37 19 38 20 39 21 40 22 41 23 43 24 44
REMARK SMILES IDX 25 45 89 46 26 47 88 48 27 49 28 50 29 51 82 52 30 53 87 54
REMARK SMILES IDX 81 55 83 56 31 57 86 58 80 59 79 60 32 62 66 63 45 64 65 65
REMARK SMILES IDX 46 66 49 67 64 68 84 69 47 70 48 71 63 73 85 74 50 75 33 76
REMARK SMILES IDX 34 77 43 78 35 79 36 80 42 81 44 82 37 83 38 84 39 85 40 86
REMARK SMILES IDX 41 87 67 88 68 89 77 90 69 91 70 92 76 93 78 94 71 95 72 96
REMARK SMILES IDX 73 97 74 98 75 99 51 100 52 101 61 102 53 103 54 104 60 105
REMARK SMILES IDX 62 106 55 107 56 108 57 109 58 110 59 111
REMARK H PARENT 16 6 10 14 99 35 21 42 83 61 49 72
REMARK Flexibility Score: inf
ROOT
ATOM      1  C   UNL A   1      31.980  28.906  27.514  1.00  0.00     0.023 C 
ENDROOT
BRANCH   1   2
ATOM      2  C   UNL A   1      31.991  27.708  26.556  1.00  0.00     0.116 C 
BRANCH   2   3
ATOM      3  N   UNL A   1      30.711  27.012  26.539  1.00  0.00    -0.352 N 
ATOM      4  C   UNL A   1      30.352  25.706  26.336  1.00  0.00     0.251 C 
ATOM      5  O   UNL A   1      29.153  25.427  26.419  1.00  0.00    -0.269 OA
ATOM      6  H   UNL A   1      29.943  27.605  26.707  1.00  0.00     0.163 HD
BRANCH   4   7
ATOM      7  C   UNL A   1      31.320  24.599  26.082  1.00  0.00     0.042 A 
ATOM      8  C   UNL A   1      32.571  23.082  24.663  1.00  0.00     0.073 A 
ATOM      9  C   UNL A   1      31.513  23.978  24.853  1.00  0.00     0.042 A 
ATOM     10  C   UNL A   1      33.370  22.649  25.740  1.00  0.00     0.061 A 
ATOM     11  C   UNL A   1      33.100  23.203  26.997  1.00  0.00     0.029 A 
ATOM     12  C   UNL A   1      32.115  24.184  27.162  1.00  0.00     0.016 A 
BRANCH   8  13
ATOM     13  N   UNL A   1      32.849  22.673  23.319  1.00  0.00    -0.277 N 
ATOM     14  H   UNL A   1      32.583  21.777  23.009  1.00  0.00     0.180 HD
BRANCH  13  15
ATOM     15  S   UNL A   1      33.647  23.750  22.250  1.00  0.00     0.261 S 
ATOM     16  O   UNL A   1      33.346  23.245  20.926  1.00  0.00    -0.201 OA
ATOM     17  O   UNL A   1      35.028  23.818  22.683  1.00  0.00    -0.201 OA
BRANCH  15  18
ATOM     18  C   UNL A   1      32.990  25.403  22.372  1.00  0.00     0.088 A 
ATOM     19  C   UNL A   1      33.896  28.893  23.636  1.00  0.00     0.044 C 
ATOM     20  C   UNL A   1      33.154  27.754  23.002  1.00  0.00    -0.050 A 
ATOM     21  C   UNL A   1      31.802  27.916  22.704  1.00  0.00     0.003 A 
ATOM     22  C   UNL A   1      33.761  26.510  22.760  1.00  0.00     0.025 A 
ATOM     23  C   UNL A   1      31.063  26.839  22.230  1.00  0.00     0.002 A 
ATOM     24  C   UNL A   1      31.640  25.583  22.073  1.00  0.00     0.022 A 
ENDBRANCH  15  18
ENDBRANCH  13  15
ENDBRANCH   8  13
BRANCH  10  25
ATOM     25  N   UNL A   1      34.390  21.719  25.633  1.00  0.00    -0.369 N 
ATOM     26  C   UNL A   1      35.740  22.212  25.395  1.00  0.00     0.116 C 
ATOM     27  C   UNL A   1      34.234  20.344  26.096  1.00  0.00     0.126 C 
ATOM     28  C   UNL A   1      36.456  21.269  24.430  1.00  0.00     0.022 C 
ATOM     29  C   UNL A   1      34.906  19.362  25.123  1.00  0.00     0.064 C 
ATOM     30  C   UNL A   1      36.359  19.816  24.897  1.00  0.00     0.013 C 
BRANCH  29  31
ATOM     31  C   UNL A   1      34.020  19.223  23.858  1.00  0.00     0.267 C 
BRANCH  31  32
ATOM     32  N   UNL A   1      33.266  17.988  23.625  1.00  0.00    -0.335 N 
ATOM     33  C   UNL A   1      32.183  17.725  24.568  1.00  0.00     0.262 C 
ATOM     34  C   UNL A   1      34.056  16.771  23.481  1.00  0.00     0.262 C 
ATOM     35  H   UNL A   1      32.862  18.210  22.715  1.00  0.00     0.348 HD
ATOM     36  C   UNL A   1      32.722  16.658  25.499  1.00  0.00     0.067 C 
ATOM     37  C   UNL A   1      33.645  15.840  24.616  1.00  0.00     0.067 C 
ENDBRANCH  31  32
ENDBRANCH  29  31
ENDBRANCH  10  25
ENDBRANCH   4   7
ENDBRANCH   2   3
ENDBRANCH   1   2
BRANCH   1  38
ATOM     38  C   UNL A   1      32.886  30.054  27.066  1.00  0.00     0.023 C 
BRANCH  38  39
ATOM     39  C   UNL A   1      34.360  29.753  27.294  1.00  0.00     0.116 C 
BRANCH  39  40
ATOM     40  N   UNL A   1      35.205  30.935  27.288  1.00  0.00    -0.352 N 
ATOM     41  C   UNL A   1      36.361  31.079  28.037  1.00  0.00     0.251 C 
ATOM     42  H   UNL A   1      34.938  31.686  26.710  1.00  0.00     0.163 HD
ATOM     43  O   UNL A   1      36.744  32.146  28.500  1.00  0.00    -0.269 OA
BRANCH  41  44
ATOM     44  C   UNL A   1      37.220  29.880  28.109  1.00  0.00     0.039 A 
ATOM     45  C   UNL A   1      37.204  29.141  29.300  1.00  0.00     0.014 A 
ATOM     46  C   UNL A   1      38.206  29.682  27.147  1.00  0.00     0.014 A 
ATOM     47  C   UNL A   1      38.279  28.311  29.603  1.00  0.00     0.010 A 
ATOM     48  C   UNL A   1      39.312  28.933  27.490  1.00  0.00     0.010 A 
ATOM     49  C   UNL A   1      39.369  28.288  28.735  1.00  0.00    -0.014 A 
BRANCH  49  50
ATOM     50  C   UNL A   1      40.655  27.679  29.051  1.00  0.00     0.031 A 
ATOM     51  C   UNL A   1      40.901  26.263  28.710  1.00  0.00     0.074 A 
ATOM     52  C   UNL A   1      41.661  28.449  29.517  1.00  0.00     0.049 A 
ATOM     53  N   UNL A   1      41.917  25.575  29.104  1.00  0.00    -0.248 NA
ATOM     54  C   UNL A   1      39.946  25.479  27.939  1.00  0.00     0.031 C 
ATOM     55  C   UNL A   1      43.084  28.127  29.528  1.00  0.00     0.029 A 
ATOM     56  N   UNL A   1      41.564  29.595  30.305  1.00  0.00    -0.354 N 
ATOM     57  C   UNL A   1      41.922  24.389  28.403  1.00  0.00     0.074 A 
ATOM     58  C   UNL A   1      40.619  24.336  27.789  1.00  0.00     0.031 C 
ATOM     59  C   UNL A   1      43.671  28.827  30.508  1.00  0.00     0.029 A 
ATOM     60  C   UNL A   1      42.613  29.517  31.231  1.00  0.00     0.049 A 
ATOM     61  H   UNL A   1      40.895  30.313  30.226  1.00  0.00     0.167 HD
ATOM     62  C   UNL A   1      43.092  23.687  28.319  1.00  0.00     0.037 A 
ATOM     63  C   UNL A   1      42.464  29.525  32.585  1.00  0.00     0.037 A 
ATOM     64  C   UNL A   1      44.065  24.204  29.297  1.00  0.00     0.049 A 
ATOM     65  C   UNL A   1      43.098  28.299  33.196  1.00  0.00     0.074 A 
ATOM     66  C   UNL A   1      45.185  25.014  29.190  1.00  0.00     0.029 A 
ATOM     67  N   UNL A   1      43.761  24.147  30.661  1.00  0.00    -0.354 N 
ATOM     68  N   UNL A   1      43.322  27.199  32.524  1.00  0.00    -0.248 NA
ATOM     69  C   UNL A   1      43.574  28.219  34.572  1.00  0.00     0.031 C 
ATOM     70  C   UNL A   1      45.488  25.522  30.483  1.00  0.00     0.029 A 
ATOM     71  C   UNL A   1      44.579  24.994  31.386  1.00  0.00     0.049 A 
ATOM     72  H   UNL A   1      43.057  23.580  31.052  1.00  0.00     0.167 HD
ATOM     73  C   UNL A   1      44.008  26.314  33.308  1.00  0.00     0.074 A 
ATOM     74  C   UNL A   1      44.121  26.988  34.591  1.00  0.00     0.031 C 
ATOM     75  C   UNL A   1      44.461  25.113  32.837  1.00  0.00     0.037 A 
BRANCH  62  76
ATOM     76  C   UNL A   1      43.450  22.751  27.159  1.00  0.00     0.058 A 
ATOM     77  C   UNL A   1      42.795  21.506  27.001  1.00  0.00     0.135 A 
ATOM     78  C   UNL A   1      44.491  22.958  26.226  1.00  0.00     0.135 A 
ATOM     79  F   UNL A   1      41.735  21.174  27.750  1.00  0.00    -0.206 F 
ATOM     80  C   UNL A   1      43.197  20.531  26.074  1.00  0.00     0.059 A 
ATOM     81  C   UNL A   1      44.934  21.990  25.318  1.00  0.00     0.059 A 
ATOM     82  F   UNL A   1      45.115  24.129  26.101  1.00  0.00    -0.206 F 
ATOM     83  C   UNL A   1      44.290  20.771  25.253  1.00  0.00     0.060 A 
BRANCH  83  84
ATOM     84  S   UNL A   1      44.842  19.506  24.093  1.00  0.00     0.124 S 
ATOM     85  O   UNL A   1      44.107  18.331  24.550  1.00  0.00    -0.237 OA
ATOM     86  O   UNL A   1      44.423  20.063  22.811  1.00  0.00    -0.237 OA
ATOM     87  O   UNL A   1      46.286  19.454  24.306  1.00  0.00    -0.744 OA
ENDBRANCH  83  84
ENDBRANCH  62  76
BRANCH  63  88
ATOM     88  C   UNL A   1      41.271  30.276  33.059  1.00  0.00     0.058 A 
ATOM     89  C   UNL A   1      41.434  31.665  33.249  1.00  0.00     0.135 A 
ATOM     90  C   UNL A   1      39.973  29.806  32.822  1.00  0.00     0.135 A 
ATOM     91  F   UNL A   1      42.654  32.162  33.510  1.00  0.00    -0.206 F 
ATOM     92  C   UNL A   1      40.401  32.565  33.004  1.00  0.00     0.059 A 
ATOM     93  C   UNL A   1      38.917  30.693  32.588  1.00  0.00     0.059 A 
ATOM     94  F   UNL A   1      39.755  28.499  32.619  1.00  0.00    -0.206 F 
ATOM     95  C   UNL A   1      39.166  32.068  32.596  1.00  0.00     0.060 A 
BRANCH  95  96
ATOM     96  S   UNL A   1      37.960  33.230  31.902  1.00  0.00     0.124 S 
ATOM     97  O   UNL A   1      36.761  32.408  31.800  1.00  0.00    -0.237 OA
ATOM     98  O   UNL A   1      37.932  34.281  32.919  1.00  0.00    -0.237 OA
ATOM     99  O   UNL A   1      38.571  33.615  30.634  1.00  0.00    -0.744 OA
ENDBRANCH  95  96
ENDBRANCH  63  88
BRANCH  75 100
ATOM    100  C   UNL A   1      44.954  23.984  33.711  1.00  0.00     0.058 A 
ATOM    101  C   UNL A   1      44.155  22.887  34.079  1.00  0.00     0.135 A 
ATOM    102  C   UNL A   1      46.320  23.892  34.069  1.00  0.00     0.135 A 
ATOM    103  F   UNL A   1      42.871  22.800  33.701  1.00  0.00    -0.206 F 
ATOM    104  C   UNL A   1      44.654  21.807  34.808  1.00  0.00     0.059 A 
ATOM    105  C   UNL A   1      46.851  22.797  34.746  1.00  0.00     0.059 A 
ATOM    106  F   UNL A   1      47.195  24.857  33.752  1.00  0.00    -0.206 F 
ATOM    107  C   UNL A   1      46.005  21.767  35.133  1.00  0.00     0.060 A 
BRANCH 107 108
ATOM    108  S   UNL A   1      46.678  20.333  35.988  1.00  0.00     0.124 S 
ATOM    109  O   UNL A   1      48.088  20.410  35.621  1.00  0.00    -0.237 OA
ATOM    110  O   UNL A   1      46.376  20.617  37.389  1.00  0.00    -0.237 OA
ATOM    111  O   UNL A   1      45.930  19.221  35.409  1.00  0.00    -0.744 OA
ENDBRANCH 107 108
ENDBRANCH  75 100
ENDBRANCH  49  50
ENDBRANCH  41  44
ENDBRANCH  39  40
ENDBRANCH  38  39
ENDBRANCH   1  38
TORSDOF 20
ENDMDL
MODEL 3
REMARK VINA RESULT:     -13.8      2.436      3.536
REMARK SMILES Cc1cccc(S(=O)(=O)Nc2cc(C(=O)NCCCCNC(=O)c3ccc(-c4c5nc(c(-c6c(F)cc(S(=O)(=O)[O-])cc6F)c6ccc([nH]6)c(-c6c(F)cc(S(=O)(=O)[O-])cc6F)c6nc(c(-c7c(F)cc(S(=O)(=O)[O-])cc7F)c7ccc4[nH]7)C=C6)C=C5)cc3)ccc2N2CCC[C@H](C[NH+]3CCCC3)C2)c1
REMARK SMILES IDX 18 1 17 2 16 3 14 4 15 5 13 7 11 8 12 9 92 10 91 11 90 12
REMARK SMILES IDX 10 13 7 15 8 16 9 17 6 18 1 19 2 20 3 21 105 22 4 23 5 24
REMARK SMILES IDX 93 25 94 26 104 27 95 28 97 29 96 30 98 31 99 32 100 33
REMARK SMILES IDX 103 34 101 36 102 37 19 38 20 39 21 40 22 41 23 43 24 44
REMARK SMILES IDX 25 45 89 46 26 47 88 48 27 49 28 50 29 51 82 52 30 53 87 54
REMARK SMILES IDX 81 55 83 56 31 57 86 58 80 59 79 60 32 62 66 63 45 64 65 65
REMARK SMILES IDX 46 66 49 67 64 68 84 69 47 70 48 71 63 73 85 74 50 75 33 76
REMARK SMILES IDX 34 77 43 78 35 79 36 80 42 81 44 82 37 83 38 84 39 85 40 86
REMARK SMILES IDX 41 87 67 88 68 89 77 90 69 91 70 92 76 93 78 94 71 95 72 96
REMARK SMILES IDX 73 97 74 98 75 99 51 100 52 101 61 102 53 103 54 104 60 105
REMARK SMILES IDX 62 106 55 107 56 108 57 109 58 110 59 111
REMARK H PARENT 16 6 10 14 99 35 21 42 83 61 49 72
REMARK Flexibility Score: inf
ROOT
ATOM      1  C   UNL A   1      31.546  29.463  25.115  1.00  0.00     0.023 C 
ENDROOT
BRANCH   1   2
ATOM      2  C   UNL A   1      31.207  29.189  23.644  1.00  0.00     0.116 C 
BRANCH   2   3
ATOM      3  N   UNL A   1      29.832  28.739  23.476  1.00  0.00    -0.352 N 
ATOM      4  C   UNL A   1      29.201  27.540  23.681  1.00  0.00     0.251 C 
ATOM      5  O   UNL A   1      27.987  27.493  23.468  1.00  0.00    -0.269 OA
ATOM      6  H   UNL A   1      29.228  29.444  23.144  1.00  0.00     0.163 HD
BRANCH   4   7
ATOM      7  C   UNL A   1      29.877  26.316  24.201  1.00  0.00     0.042 A 
ATOM      8  C   UNL A   1      31.543  24.555  24.138  1.00  0.00     0.073 A 
ATOM      9  C   UNL A   1      30.827  25.576  23.504  1.00  0.00     0.042 A 
ATOM     10  C   UNL A   1      31.218  24.127  25.440  1.00  0.00     0.061 A 
ATOM     11  C   UNL A   1      30.187  24.811  26.097  1.00  0.00     0.029 A 
ATOM     12  C   UNL A   1      29.548  25.906  25.502  1.00  0.00     0.016 A 
BRANCH   8  13
ATOM     13  N   UNL A   1      32.664  24.006  23.434  1.00  0.00    -0.277 N 
ATOM     14  H   UNL A   1      32.575  23.153  22.951  1.00  0.00     0.180 HD
BRANCH  13  15
ATOM     15  S   UNL A   1      34.160  24.843  23.433  1.00  0.00     0.261 S 
ATOM     16  O   UNL A   1      33.947  25.981  24.303  1.00  0.00    -0.201 OA
ATOM     17  O   UNL A   1      34.508  25.069  22.045  1.00  0.00    -0.201 OA
BRANCH  15  18
ATOM     18  C   UNL A   1      35.467  23.851  24.133  1.00  0.00     0.088 A 
ATOM     19  C   UNL A   1      38.258  23.994  26.738  1.00  0.00     0.044 C 
ATOM     20  C   UNL A   1      37.322  23.498  25.677  1.00  0.00    -0.050 A 
ATOM     21  C   UNL A   1      37.616  22.298  25.031  1.00  0.00     0.003 A 
ATOM     22  C   UNL A   1      36.195  24.233  25.271  1.00  0.00     0.025 A 
ATOM     23  C   UNL A   1      36.833  21.877  23.962  1.00  0.00     0.002 A 
ATOM     24  C   UNL A   1      35.770  22.647  23.500  1.00  0.00     0.022 A 
ENDBRANCH  15  18
ENDBRANCH  13  15
ENDBRANCH   8  13
BRANCH  10  25
ATOM     25  N   UNL A   1      31.843  23.084  26.101  1.00  0.00    -0.369 N 
ATOM     26  C   UNL A   1      32.788  23.415  27.159  1.00  0.00     0.116 C 
ATOM     27  C   UNL A   1      31.342  21.715  26.034  1.00  0.00     0.126 C 
ATOM     28  C   UNL A   1      33.967  22.447  27.101  1.00  0.00     0.022 C 
ATOM     29  C   UNL A   1      32.503  20.714  25.930  1.00  0.00     0.064 C 
ATOM     30  C   UNL A   1      33.493  20.993  27.074  1.00  0.00     0.013 C 
BRANCH  29  31
ATOM     31  C   UNL A   1      33.079  20.760  24.491  1.00  0.00     0.267 C 
BRANCH  31  32
ATOM     32  N   UNL A   1      33.484  19.520  23.824  1.00  0.00    -0.335 N 
ATOM     33  C   UNL A   1      32.393  18.649  23.399  1.00  0.00     0.262 C 
ATOM     34  C   UNL A   1      34.474  18.709  24.523  1.00  0.00     0.262 C 
ATOM     35  H   UNL A   1      33.931  19.915  22.996  1.00  0.00     0.348 HD
ATOM     36  C   UNL A   1      32.360  17.530  24.420  1.00  0.00     0.067 C 
ATOM     37  C   UNL A   1      33.814  17.368  24.825  1.00  0.00     0.067 C 
ENDBRANCH  31  32
ENDBRANCH  29  31
ENDBRANCH  10  25
ENDBRANCH   4   7
ENDBRANCH   2   3
ENDBRANCH   1   2
BRANCH   1  38
ATOM     38  C   UNL A   1      32.800  28.734  25.599  1.00  0.00     0.023 C 
BRANCH  38  39
ATOM     39  C   UNL A   1      33.319  29.286  26.918  1.00  0.00     0.116 C 
BRANCH  39  40
ATOM     40  N   UNL A   1      33.852  30.635  26.818  1.00  0.00    -0.352 N 
ATOM     41  C   UNL A   1      34.809  31.167  27.666  1.00  0.00     0.251 C 
ATOM     42  H   UNL A   1      33.510  31.210  26.096  1.00  0.00     0.163 HD
ATOM     43  O   UNL A   1      34.852  32.347  27.989  1.00  0.00    -0.269 OA
BRANCH  41  44
ATOM     44  C   UNL A   1      35.904  30.248  28.037  1.00  0.00     0.039 A 
ATOM     45  C   UNL A   1      35.914  29.746  29.346  1.00  0.00     0.014 A 
ATOM     46  C   UNL A   1      37.018  30.137  27.211  1.00  0.00     0.014 A 
ATOM     47  C   UNL A   1      37.105  29.273  29.887  1.00  0.00     0.010 A 
ATOM     48  C   UNL A   1      38.216  29.756  27.778  1.00  0.00     0.010 A 
ATOM     49  C   UNL A   1      38.268  29.370  29.126  1.00  0.00    -0.014 A 
BRANCH  49  50
ATOM     50  C   UNL A   1      39.612  29.162  29.652  1.00  0.00     0.031 A 
ATOM     51  C   UNL A   1      40.342  27.919  29.331  1.00  0.00     0.074 A 
ATOM     52  C   UNL A   1      40.235  30.166  30.304  1.00  0.00     0.049 A 
ATOM     53  N   UNL A   1      41.444  27.548  29.885  1.00  0.00    -0.248 NA
ATOM     54  C   UNL A   1      39.820  26.940  28.387  1.00  0.00     0.031 C 
ATOM     55  C   UNL A   1      41.665  30.296  30.561  1.00  0.00     0.029 A 
ATOM     56  N   UNL A   1      39.656  31.165  31.086  1.00  0.00    -0.354 N 
ATOM     57  C   UNL A   1      41.936  26.476  29.172  1.00  0.00     0.074 A 
ATOM     58  C   UNL A   1      40.833  26.073  28.336  1.00  0.00     0.031 C 
ATOM     59  C   UNL A   1      41.836  31.066  31.644  1.00  0.00     0.029 A 
ATOM     60  C   UNL A   1      40.512  31.343  32.182  1.00  0.00     0.049 A 
ATOM     61  H   UNL A   1      38.817  31.647  30.905  1.00  0.00     0.167 HD
ATOM     62  C   UNL A   1      43.264  26.175  29.282  1.00  0.00     0.037 A 
ATOM     63  C   UNL A   1      40.151  31.203  33.488  1.00  0.00     0.037 A 
ATOM     64  C   UNL A   1      43.853  26.890  30.428  1.00  0.00     0.049 A 
ATOM     65  C   UNL A   1      41.030  30.188  34.177  1.00  0.00     0.074 A 
ATOM     66  C   UNL A   1      44.664  28.009  30.537  1.00  0.00     0.029 A 
ATOM     67  N   UNL A   1      43.366  26.640  31.715  1.00  0.00    -0.354 N 
ATOM     68  N   UNL A   1      41.694  29.263  33.533  1.00  0.00    -0.248 NA
ATOM     69  C   UNL A   1      41.278  30.155  35.613  1.00  0.00     0.031 C 
ATOM     70  C   UNL A   1      44.578  28.487  31.874  1.00  0.00     0.029 A 
ATOM     71  C   UNL A   1      43.748  27.640  32.590  1.00  0.00     0.049 A 
ATOM     72  H   UNL A   1      42.823  25.857  31.963  1.00  0.00     0.167 HD
ATOM     73  C   UNL A   1      42.488  28.575  34.407  1.00  0.00     0.074 A 
ATOM     74  C   UNL A   1      42.173  29.153  35.703  1.00  0.00     0.031 C 
ATOM     75  C   UNL A   1      43.365  27.608  34.000  1.00  0.00     0.037 A 
BRANCH  62  76
ATOM     76  C   UNL A   1      44.082  25.482  28.185  1.00  0.00     0.058 A 
ATOM     77  C   UNL A   1      44.330  26.124  26.948  1.00  0.00     0.135 A 
ATOM     78  C   UNL A   1      44.565  24.156  28.235  1.00  0.00     0.135 A 
ATOM     79  F   UNL A   1      44.007  27.410  26.751  1.00  0.00    -0.206 F 
ATOM     80  C   UNL A   1      44.912  25.481  25.844  1.00  0.00     0.059 A 
ATOM     81  C   UNL A   1      45.115  23.481  27.139  1.00  0.00     0.059 A 
ATOM     82  F   UNL A   1      44.580  23.442  29.359  1.00  0.00    -0.206 F 
ATOM     83  C   UNL A   1      45.277  24.146  25.940  1.00  0.00     0.060 A 
BRANCH  83  84
ATOM     84  S   UNL A   1      45.982  23.299  24.513  1.00  0.00     0.124 S 
ATOM     85  O   UNL A   1      46.960  24.270  24.033  1.00  0.00    -0.237 OA
ATOM     86  O   UNL A   1      46.528  22.087  25.116  1.00  0.00    -0.237 OA
ATOM     87  O   UNL A   1      44.833  23.093  23.636  1.00  0.00    -0.744 OA
ENDBRANCH  83  84
ENDBRANCH  62  76
BRANCH  63  88
ATOM     88  C   UNL A   1      38.722  31.516  33.758  1.00  0.00     0.058 A 
ATOM     89  C   UNL A   1      38.398  32.876  33.948  1.00  0.00     0.135 A 
ATOM     90  C   UNL A   1      37.696  30.663  33.330  1.00  0.00     0.135 A 
ATOM     91  F   UNL A   1      39.338  33.728  34.388  1.00  0.00    -0.206 F 
ATOM     92  C   UNL A   1      37.181  33.406  33.531  1.00  0.00     0.059 A 
ATOM     93  C   UNL A   1      36.460  31.172  32.920  1.00  0.00     0.059 A 
ATOM     94  F   UNL A   1      37.944  29.363  33.116  1.00  0.00    -0.206 F 
ATOM     95  C   UNL A   1      36.249  32.553  32.945  1.00  0.00     0.060 A 
BRANCH  95  96
ATOM     96  S   UNL A   1      34.853  33.292  32.052  1.00  0.00     0.124 S 
ATOM     97  O   UNL A   1      34.561  32.280  31.044  1.00  0.00    -0.237 OA
ATOM     98  O   UNL A   1      33.860  33.443  33.115  1.00  0.00    -0.237 OA
ATOM     99  O   UNL A   1      35.413  34.541  31.548  1.00  0.00    -0.744 OA
ENDBRANCH  95  96
ENDBRANCH  63  88
BRANCH  75 100
ATOM    100  C   UNL A   1      44.040  26.623  34.923  1.00  0.00     0.058 A 
ATOM    101  C   UNL A   1      45.275  26.872  35.549  1.00  0.00     0.135 A 
ATOM    102  C   UNL A   1      43.369  25.449  35.342  1.00  0.00     0.135 A 
ATOM    103  F   UNL A   1      45.955  28.005  35.324  1.00  0.00    -0.206 F 
ATOM    104  C   UNL A   1      45.838  25.991  36.472  1.00  0.00     0.059 A 
ATOM    105  C   UNL A   1      43.888  24.586  36.304  1.00  0.00     0.059 A 
ATOM    106  F   UNL A   1      42.171  25.111  34.845  1.00  0.00    -0.206 F 
ATOM    107  C   UNL A   1      45.136  24.852  36.849  1.00  0.00     0.060 A 
BRANCH 107 108
ATOM    108  S   UNL A   1      45.810  23.760  38.111  1.00  0.00     0.124 S 
ATOM    109  O   UNL A   1      47.189  24.231  38.197  1.00  0.00    -0.237 OA
ATOM    110  O   UNL A   1      44.974  24.048  39.273  1.00  0.00    -0.237 OA
ATOM    111  O   UNL A   1      45.627  22.433  37.532  1.00  0.00    -0.744 OA
ENDBRANCH 107 108
ENDBRANCH  75 100
ENDBRANCH  49  50
ENDBRANCH  41  44
ENDBRANCH  39  40
ENDBRANCH  38  39
ENDBRANCH   1  38
TORSDOF 20
ENDMDL
