MODEL 1
REMARK VINA RESULT:     -12.5      0.000      0.000
REMARK SMILES CN(c1ccccc1)c1nc(OCC(=O)NCCCCNC(=O)c2ccc(-c3c4nc(c(-c5c(F)cc(S(=O)(=O)[O-])cc5F)c5ccc([nH]5)c(-c5c(F)cc(S(=O)(=O)[O-])cc5F)c5nc(c(-c6c(F)cc(S(=O)(=O)[O-])cc6F)c6ccc3[nH]6)C=C5)C=C4)cc2)cc(-c2ccncc2)n1
REMARK SMILES IDX 18 1 17 2 16 3 14 4 15 5 13 7 12 8 11 9 9 10 10 11 98 12
REMARK SMILES IDX 91 13 90 14 2 15 1 16 3 17 4 18 8 19 5 20 7 21 6 22 92 23
REMARK SMILES IDX 93 24 97 25 94 26 96 27 95 28 19 29 20 30 21 31 22 32 23 34
REMARK SMILES IDX 24 35 25 36 89 37 26 38 88 39 27 40 28 41 29 42 82 43 30 44
REMARK SMILES IDX 87 45 81 46 83 47 31 48 86 49 80 50 79 51 32 53 66 54 45 55
REMARK SMILES IDX 65 56 46 57 49 58 64 59 84 60 47 61 48 62 63 64 85 65 50 66
REMARK SMILES IDX 33 67 34 68 43 69 35 70 36 71 42 72 44 73 37 74 38 75 39 76
REMARK SMILES IDX 40 77 41 78 67 79 68 80 77 81 69 82 70 83 76 84 78 85 71 86
REMARK SMILES IDX 72 87 73 88 74 89 75 90 51 91 52 92 61 93 53 94 54 95 60 96
REMARK SMILES IDX 62 97 55 98 56 99 57 100 58 101 59 102
REMARK H PARENT 16 6 21 33 83 52 49 63
REMARK Flexibility Score: inf
ROOT
ATOM      1  C   UNL A   1      35.855  23.630  25.706  1.00  0.00     0.023 C 
ENDROOT
BRANCH   1   2
ATOM      2  C   UNL A   1      34.945  24.522  24.864  1.00  0.00     0.116 C 
BRANCH   2   3
ATOM      3  N   UNL A   1      34.494  23.859  23.655  1.00  0.00    -0.353 N 
ATOM      4  C   UNL A   1      33.805  24.388  22.606  1.00  0.00     0.258 C 
ATOM      5  O   UNL A   1      33.494  23.653  21.666  1.00  0.00    -0.271 OA
ATOM      6  H   UNL A   1      34.715  22.902  23.583  1.00  0.00     0.163 HD
BRANCH   4   7
ATOM      7  C   UNL A   1      33.440  25.880  22.598  1.00  0.00     0.331 C 
BRANCH   7   8
ATOM      8  O   UNL A   1      32.077  26.222  22.430  1.00  0.00    -0.467 OA
BRANCH   8   9
ATOM      9  C   UNL A   1      31.613  27.343  23.054  1.00  0.00     0.219 A 
ATOM     10  C   UNL A   1      31.627  28.478  25.065  1.00  0.00     0.233 A 
ATOM     11  N   UNL A   1      32.076  27.464  24.305  1.00  0.00    -0.177 NA
ATOM     12  N   UNL A   1      30.747  29.386  24.611  1.00  0.00    -0.212 NA
ATOM     13  C   UNL A   1      30.346  29.279  23.329  1.00  0.00     0.080 A 
ATOM     14  C   UNL A   1      30.766  28.264  22.500  1.00  0.00     0.097 A 
BRANCH  10  15
ATOM     15  N   UNL A   1      32.106  28.588  26.379  1.00  0.00    -0.314 N 
ATOM     16  C   UNL A   1      31.563  27.598  27.298  1.00  0.00     0.153 C 
BRANCH  15  17
ATOM     17  C   UNL A   1      33.122  29.453  26.809  1.00  0.00     0.043 A 
ATOM     18  C   UNL A   1      32.806  30.780  27.152  1.00  0.00     0.026 A 
ATOM     19  C   UNL A   1      34.459  29.054  26.938  1.00  0.00     0.026 A 
ATOM     20  C   UNL A   1      33.775  31.665  27.632  1.00  0.00     0.002 A 
ATOM     21  C   UNL A   1      35.439  29.941  27.400  1.00  0.00     0.002 A 
ATOM     22  C   UNL A   1      35.095  31.243  27.755  1.00  0.00     0.000 A 
ENDBRANCH  15  17
ENDBRANCH  10  15
BRANCH  13  23
ATOM     23  C   UNL A   1      29.459  30.330  22.830  1.00  0.00     0.004 A 
ATOM     24  C   UNL A   1      29.053  30.361  21.491  1.00  0.00     0.030 A 
ATOM     25  C   UNL A   1      29.051  31.373  23.667  1.00  0.00     0.030 A 
ATOM     26  C   UNL A   1      28.285  31.427  21.051  1.00  0.00     0.111 A 
ATOM     27  C   UNL A   1      28.294  32.401  23.131  1.00  0.00     0.111 A 
ATOM     28  N   UNL A   1      27.907  32.454  21.839  1.00  0.00    -0.265 NA
ENDBRANCH  13  23
ENDBRANCH   8   9
ENDBRANCH   7   8
ENDBRANCH   4   7
ENDBRANCH   2   3
ENDBRANCH   1   2
BRANCH   1  29
ATOM     29  C   UNL A   1      37.348  23.708  25.367  1.00  0.00     0.023 C 
BRANCH  29  30
ATOM     30  C   UNL A   1      38.276  24.137  26.502  1.00  0.00     0.116 C 
BRANCH  30  31
ATOM     31  N   UNL A   1      39.684  24.030  26.162  1.00  0.00    -0.352 N 
ATOM     32  C   UNL A   1      40.758  24.755  26.614  1.00  0.00     0.251 C 
ATOM     33  H   UNL A   1      39.902  23.330  25.506  1.00  0.00     0.163 HD
ATOM     34  O   UNL A   1      41.865  24.555  26.104  1.00  0.00    -0.269 OA
BRANCH  32  35
ATOM     35  C   UNL A   1      40.612  25.785  27.669  1.00  0.00     0.039 A 
ATOM     36  C   UNL A   1      39.569  25.646  28.589  1.00  0.00     0.014 A 
ATOM     37  C   UNL A   1      41.458  26.895  27.748  1.00  0.00     0.014 A 
ATOM     38  C   UNL A   1      39.409  26.583  29.613  1.00  0.00     0.010 A 
ATOM     39  C   UNL A   1      41.340  27.792  28.812  1.00  0.00     0.010 A 
ATOM     40  C   UNL A   1      40.311  27.650  29.754  1.00  0.00    -0.014 A 
BRANCH  40  41
ATOM     41  C   UNL A   1      40.184  28.597  30.894  1.00  0.00     0.031 A 
ATOM     42  C   UNL A   1      41.085  28.490  32.095  1.00  0.00     0.074 A 
ATOM     43  C   UNL A   1      39.234  29.552  30.855  1.00  0.00     0.049 A 
ATOM     44  N   UNL A   1      41.154  29.268  33.147  1.00  0.00    -0.248 NA
ATOM     45  C   UNL A   1      42.013  27.350  32.132  1.00  0.00     0.031 C 
ATOM     46  C   UNL A   1      38.257  29.726  29.778  1.00  0.00     0.029 A 
ATOM     47  N   UNL A   1      38.941  30.565  31.734  1.00  0.00    -0.354 N 
ATOM     48  C   UNL A   1      42.130  28.714  33.967  1.00  0.00     0.074 A 
ATOM     49  C   UNL A   1      42.579  27.499  33.321  1.00  0.00     0.031 C 
ATOM     50  C   UNL A   1      37.507  30.809  30.035  1.00  0.00     0.029 A 
ATOM     51  C   UNL A   1      37.931  31.393  31.304  1.00  0.00     0.049 A 
ATOM     52  H   UNL A   1      39.410  30.688  32.591  1.00  0.00     0.167 HD
ATOM     53  C   UNL A   1      42.626  29.185  35.138  1.00  0.00     0.037 A 
ATOM     54  C   UNL A   1      37.417  32.508  31.857  1.00  0.00     0.037 A 
ATOM     55  C   UNL A   1      42.181  30.398  35.777  1.00  0.00     0.049 A 
ATOM     56  C   UNL A   1      37.992  33.024  33.145  1.00  0.00     0.074 A 
ATOM     57  C   UNL A   1      42.649  30.983  36.941  1.00  0.00     0.029 A 
ATOM     58  N   UNL A   1      41.159  31.211  35.308  1.00  0.00    -0.354 N 
ATOM     59  N   UNL A   1      38.962  32.525  33.874  1.00  0.00    -0.248 NA
ATOM     60  C   UNL A   1      37.413  34.263  33.679  1.00  0.00     0.031 C 
ATOM     61  C   UNL A   1      41.885  32.129  37.195  1.00  0.00     0.029 A 
ATOM     62  C   UNL A   1      40.972  32.284  36.165  1.00  0.00     0.049 A 
ATOM     63  H   UNL A   1      40.642  31.050  34.486  1.00  0.00     0.167 HD
ATOM     64  C   UNL A   1      39.130  33.406  34.938  1.00  0.00     0.074 A 
ATOM     65  C   UNL A   1      38.168  34.472  34.749  1.00  0.00     0.031 C 
ATOM     66  C   UNL A   1      40.006  33.339  35.971  1.00  0.00     0.037 A 
BRANCH  53  67
ATOM     67  C   UNL A   1      43.710  28.375  35.799  1.00  0.00     0.058 A 
ATOM     68  C   UNL A   1      45.070  28.605  35.529  1.00  0.00     0.135 A 
ATOM     69  C   UNL A   1      43.391  27.353  36.708  1.00  0.00     0.135 A 
ATOM     70  F   UNL A   1      45.434  29.562  34.661  1.00  0.00    -0.206 F 
ATOM     71  C   UNL A   1      46.069  27.818  36.093  1.00  0.00     0.059 A 
ATOM     72  C   UNL A   1      44.377  26.573  37.308  1.00  0.00     0.059 A 
ATOM     73  F   UNL A   1      42.109  27.092  37.010  1.00  0.00    -0.206 F 
ATOM     74  C   UNL A   1      45.712  26.796  36.974  1.00  0.00     0.060 A 
BRANCH  74  75
ATOM     75  S   UNL A   1      47.015  25.756  37.666  1.00  0.00     0.124 S 
ATOM     76  O   UNL A   1      48.138  26.687  37.705  1.00  0.00    -0.237 OA
ATOM     77  O   UNL A   1      46.460  25.378  38.963  1.00  0.00    -0.237 OA
ATOM     78  O   UNL A   1      47.131  24.670  36.699  1.00  0.00    -0.744 OA
ENDBRANCH  74  75
ENDBRANCH  53  67
BRANCH  54  79
ATOM     79  C   UNL A   1      36.342  33.250  31.146  1.00  0.00     0.058 A 
ATOM     80  C   UNL A   1      35.033  33.270  31.649  1.00  0.00     0.135 A 
ATOM     81  C   UNL A   1      36.609  33.988  29.983  1.00  0.00     0.135 A 
ATOM     82  F   UNL A   1      34.728  32.575  32.756  1.00  0.00    -0.206 F 
ATOM     83  C   UNL A   1      34.024  33.994  31.024  1.00  0.00     0.059 A 
ATOM     84  C   UNL A   1      35.622  34.738  29.353  1.00  0.00     0.059 A 
ATOM     85  F   UNL A   1      37.850  34.013  29.473  1.00  0.00    -0.206 F 
ATOM     86  C   UNL A   1      34.330  34.733  29.879  1.00  0.00     0.060 A 
BRANCH  86  87
ATOM     87  S   UNL A   1      33.032  35.735  29.123  1.00  0.00     0.124 S 
ATOM     88  O   UNL A   1      32.378  34.763  28.255  1.00  0.00    -0.237 OA
ATOM     89  O   UNL A   1      32.265  36.171  30.286  1.00  0.00    -0.237 OA
ATOM     90  O   UNL A   1      33.777  36.789  28.443  1.00  0.00    -0.744 OA
ENDBRANCH  86  87
ENDBRANCH  54  79
BRANCH  66  91
ATOM     91  C   UNL A   1      39.984  34.471  36.962  1.00  0.00     0.058 A 
ATOM     92  C   UNL A   1      40.852  35.569  36.852  1.00  0.00     0.135 A 
ATOM     93  C   UNL A   1      39.073  34.461  38.031  1.00  0.00     0.135 A 
ATOM     94  F   UNL A   1      41.745  35.627  35.852  1.00  0.00    -0.206 F 
ATOM     95  C   UNL A   1      40.846  36.597  37.791  1.00  0.00     0.059 A 
ATOM     96  C   UNL A   1      39.032  35.490  38.966  1.00  0.00     0.059 A 
ATOM     97  F   UNL A   1      38.211  33.441  38.176  1.00  0.00    -0.206 F 
ATOM     98  C   UNL A   1      39.936  36.545  38.848  1.00  0.00     0.060 A 
BRANCH  98  99
ATOM     99  S   UNL A   1      39.938  37.880  40.064  1.00  0.00     0.124 S 
ATOM    100  O   UNL A   1      40.033  37.136  41.316  1.00  0.00    -0.237 OA
ATOM    101  O   UNL A   1      41.125  38.644  39.689  1.00  0.00    -0.237 OA
ATOM    102  O   UNL A   1      38.666  38.555  39.828  1.00  0.00    -0.744 OA
ENDBRANCH  98  99
ENDBRANCH  66  91
ENDBRANCH  40  41
ENDBRANCH  32  35
ENDBRANCH  30  31
ENDBRANCH  29  30
ENDBRANCH   1  29
TORSDOF 19
ENDMDL
MODEL 2
REMARK VINA RESULT:     -12.1      5.388     10.666
REMARK SMILES CN(c1ccccc1)c1nc(OCC(=O)NCCCCNC(=O)c2ccc(-c3c4nc(c(-c5c(F)cc(S(=O)(=O)[O-])cc5F)c5ccc([nH]5)c(-c5c(F)cc(S(=O)(=O)[O-])cc5F)c5nc(c(-c6c(F)cc(S(=O)(=O)[O-])cc6F)c6ccc3[nH]6)C=C5)C=C4)cc2)cc(-c2ccncc2)n1
REMARK SMILES IDX 18 1 17 2 16 3 14 4 15 5 13 7 12 8 11 9 9 10 10 11 98 12
REMARK SMILES IDX 91 13 90 14 2 15 1 16 3 17 4 18 8 19 5 20 7 21 6 22 92 23
REMARK SMILES IDX 93 24 97 25 94 26 96 27 95 28 19 29 20 30 21 31 22 32 23 34
REMARK SMILES IDX 24 35 25 36 89 37 26 38 88 39 27 40 28 41 29 42 82 43 30 44
REMARK SMILES IDX 87 45 81 46 83 47 31 48 86 49 80 50 79 51 32 53 66 54 45 55
REMARK SMILES IDX 65 56 46 57 49 58 64 59 84 60 47 61 48 62 63 64 85 65 50 66
REMARK SMILES IDX 33 67 34 68 43 69 35 70 36 71 42 72 44 73 37 74 38 75 39 76
REMARK SMILES IDX 40 77 41 78 67 79 68 80 77 81 69 82 70 83 76 84 78 85 71 86
REMARK SMILES IDX 72 87 73 88 74 89 75 90 51 91 52 92 61 93 53 94 54 95 60 96
REMARK SMILES IDX 62 97 55 98 56 99 57 100 58 101 59 102
REMARK H PARENT 16 6 21 33 83 52 49 63
REMARK Flexibility Score: inf
ROOT
ATOM      1  C   UNL A   1      33.331  26.963  24.731  1.00  0.00     0.023 C 
ENDROOT
BRANCH   1   2
ATOM      2  C   UNL A   1      31.812  27.062  24.615  1.00  0.00     0.116 C 
BRANCH   2   3
ATOM      3  N   UNL A   1      31.253  25.999  23.801  1.00  0.00    -0.353 N 
ATOM      4  C   UNL A   1      30.821  24.769  24.193  1.00  0.00     0.258 C 
ATOM      5  O   UNL A   1      30.390  23.989  23.342  1.00  0.00    -0.271 OA
ATOM      6  H   UNL A   1      31.175  26.193  22.838  1.00  0.00     0.163 HD
BRANCH   4   7
ATOM      7  C   UNL A   1      30.864  24.375  25.678  1.00  0.00     0.331 C 
BRANCH   7   8
ATOM      8  O   UNL A   1      31.004  23.002  25.989  1.00  0.00    -0.467 OA
BRANCH   8   9
ATOM      9  C   UNL A   1      32.169  22.379  25.644  1.00  0.00     0.219 A 
ATOM     10  C   UNL A   1      33.023  20.466  24.673  1.00  0.00     0.233 A 
ATOM     11  N   UNL A   1      31.962  21.226  24.993  1.00  0.00    -0.177 NA
ATOM     12  N   UNL A   1      34.285  20.828  24.962  1.00  0.00    -0.212 NA
ATOM     13  C   UNL A   1      34.469  22.021  25.559  1.00  0.00     0.080 A 
ATOM     14  C   UNL A   1      33.426  22.845  25.916  1.00  0.00     0.097 A 
BRANCH  10  15
ATOM     15  N   UNL A   1      32.796  19.254  24.005  1.00  0.00    -0.314 N 
ATOM     16  C   UNL A   1      32.221  19.401  22.676  1.00  0.00     0.153 C 
BRANCH  15  17
ATOM     17  C   UNL A   1      33.191  17.986  24.455  1.00  0.00     0.043 A 
ATOM     18  C   UNL A   1      32.309  17.219  25.238  1.00  0.00     0.026 A 
ATOM     19  C   UNL A   1      34.436  17.422  24.145  1.00  0.00     0.026 A 
ATOM     20  C   UNL A   1      32.640  15.931  25.667  1.00  0.00     0.002 A 
ATOM     21  C   UNL A   1      34.781  16.139  24.589  1.00  0.00     0.002 A 
ATOM     22  C   UNL A   1      33.879  15.392  25.343  1.00  0.00     0.000 A 
ENDBRANCH  15  17
ENDBRANCH  10  15
BRANCH  13  23
ATOM     23  C   UNL A   1      35.855  22.435  25.782  1.00  0.00     0.004 A 
ATOM     24  C   UNL A   1      36.173  23.758  26.112  1.00  0.00     0.030 A 
ATOM     25  C   UNL A   1      36.905  21.529  25.603  1.00  0.00     0.030 A 
ATOM     26  C   UNL A   1      37.507  24.115  26.225  1.00  0.00     0.111 A 
ATOM     27  C   UNL A   1      38.207  21.985  25.727  1.00  0.00     0.111 A 
ATOM     28  N   UNL A   1      38.531  23.260  26.027  1.00  0.00    -0.265 NA
ENDBRANCH  13  23
ENDBRANCH   8   9
ENDBRANCH   7   8
ENDBRANCH   4   7
ENDBRANCH   2   3
ENDBRANCH   1   2
BRANCH   1  29
ATOM     29  C   UNL A   1      34.013  28.127  25.458  1.00  0.00     0.023 C 
BRANCH  29  30
ATOM     30  C   UNL A   1      33.765  28.221  26.963  1.00  0.00     0.116 C 
BRANCH  30  31
ATOM     31  N   UNL A   1      33.589  29.584  27.430  1.00  0.00    -0.352 N 
ATOM     32  C   UNL A   1      34.469  30.414  28.077  1.00  0.00     0.251 C 
ATOM     33  H   UNL A   1      32.702  29.973  27.256  1.00  0.00     0.163 HD
ATOM     34  O   UNL A   1      34.066  31.512  28.476  1.00  0.00    -0.269 OA
BRANCH  32  35
ATOM     35  C   UNL A   1      35.872  30.012  28.335  1.00  0.00     0.039 A 
ATOM     36  C   UNL A   1      36.789  30.104  27.284  1.00  0.00     0.014 A 
ATOM     37  C   UNL A   1      36.291  29.521  29.575  1.00  0.00     0.014 A 
ATOM     38  C   UNL A   1      38.127  29.756  27.490  1.00  0.00     0.010 A 
ATOM     39  C   UNL A   1      37.641  29.240  29.799  1.00  0.00     0.010 A 
ATOM     40  C   UNL A   1      38.573  29.349  28.758  1.00  0.00    -0.014 A 
BRANCH  40  41
ATOM     41  C   UNL A   1      40.014  29.060  28.991  1.00  0.00     0.031 A 
ATOM     42  C   UNL A   1      40.602  27.719  28.643  1.00  0.00     0.074 A 
ATOM     43  C   UNL A   1      40.797  30.011  29.538  1.00  0.00     0.049 A 
ATOM     44  N   UNL A   1      41.847  27.319  28.719  1.00  0.00    -0.248 NA
ATOM     45  C   UNL A   1      39.669  26.686  28.170  1.00  0.00     0.031 C 
ATOM     46  C   UNL A   1      40.339  31.331  29.977  1.00  0.00     0.029 A 
ATOM     47  N   UNL A   1      42.143  30.022  29.806  1.00  0.00    -0.354 N 
ATOM     48  C   UNL A   1      41.847  25.992  28.305  1.00  0.00     0.074 A 
ATOM     49  C   UNL A   1      40.469  25.637  28.040  1.00  0.00     0.031 C 
ATOM     50  C   UNL A   1      41.392  32.040  30.411  1.00  0.00     0.029 A 
ATOM     51  C   UNL A   1      42.595  31.220  30.307  1.00  0.00     0.049 A 
ATOM     52  H   UNL A   1      42.730  29.246  29.653  1.00  0.00     0.167 HD
ATOM     53  C   UNL A   1      42.899  25.153  28.135  1.00  0.00     0.037 A 
ATOM     54  C   UNL A   1      43.840  31.622  30.627  1.00  0.00     0.037 A 
ATOM     55  C   UNL A   1      44.271  25.510  28.394  1.00  0.00     0.049 A 
ATOM     56  C   UNL A   1      44.995  30.684  30.415  1.00  0.00     0.074 A 
ATOM     57  C   UNL A   1      45.411  24.748  28.213  1.00  0.00     0.029 A 
ATOM     58  N   UNL A   1      44.689  26.735  28.896  1.00  0.00    -0.354 N 
ATOM     59  N   UNL A   1      44.986  29.454  29.956  1.00  0.00    -0.248 NA
ATOM     60  C   UNL A   1      46.331  31.193  30.749  1.00  0.00     0.031 C 
ATOM     61  C   UNL A   1      46.514  25.497  28.641  1.00  0.00     0.029 A 
ATOM     62  C   UNL A   1      46.066  26.744  29.046  1.00  0.00     0.049 A 
ATOM     63  H   UNL A   1      44.093  27.487  29.116  1.00  0.00     0.167 HD
ATOM     64  C   UNL A   1      46.317  29.053  29.918  1.00  0.00     0.074 A 
ATOM     65  C   UNL A   1      47.102  30.175  30.391  1.00  0.00     0.031 C 
ATOM     66  C   UNL A   1      46.839  27.865  29.523  1.00  0.00     0.037 A 
BRANCH  53  67
ATOM     67  C   UNL A   1      42.594  23.762  27.644  1.00  0.00     0.058 A 
ATOM     68  C   UNL A   1      42.467  22.679  28.530  1.00  0.00     0.135 A 
ATOM     69  C   UNL A   1      42.434  23.503  26.272  1.00  0.00     0.135 A 
ATOM     70  F   UNL A   1      42.620  22.865  29.850  1.00  0.00    -0.206 F 
ATOM     71  C   UNL A   1      42.245  21.384  28.072  1.00  0.00     0.059 A 
ATOM     72  C   UNL A   1      42.181  22.220  25.795  1.00  0.00     0.059 A 
ATOM     73  F   UNL A   1      42.538  24.500  25.379  1.00  0.00    -0.206 F 
ATOM     74  C   UNL A   1      42.114  21.162  26.700  1.00  0.00     0.060 A 
BRANCH  74  75
ATOM     75  S   UNL A   1      41.869  19.472  26.117  1.00  0.00     0.124 S 
ATOM     76  O   UNL A   1      40.436  19.466  25.841  1.00  0.00    -0.237 OA
ATOM     77  O   UNL A   1      42.739  19.414  24.946  1.00  0.00    -0.237 OA
ATOM     78  O   UNL A   1      42.294  18.657  27.250  1.00  0.00    -0.744 OA
ENDBRANCH  74  75
ENDBRANCH  53  67
BRANCH  54  79
ATOM     79  C   UNL A   1      44.060  33.010  31.112  1.00  0.00     0.058 A 
ATOM     80  C   UNL A   1      44.234  34.066  30.206  1.00  0.00     0.135 A 
ATOM     81  C   UNL A   1      44.054  33.316  32.481  1.00  0.00     0.135 A 
ATOM     82  F   UNL A   1      44.252  33.822  28.886  1.00  0.00    -0.206 F 
ATOM     83  C   UNL A   1      44.395  35.377  30.638  1.00  0.00     0.059 A 
ATOM     84  C   UNL A   1      44.191  34.622  32.938  1.00  0.00     0.059 A 
ATOM     85  F   UNL A   1      43.874  32.341  33.388  1.00  0.00    -0.206 F 
ATOM     86  C   UNL A   1      44.365  35.648  32.008  1.00  0.00     0.060 A 
BRANCH  86  87
ATOM     87  S   UNL A   1      44.494  37.364  32.555  1.00  0.00     0.124 S 
ATOM     88  O   UNL A   1      44.234  38.088  31.316  1.00  0.00    -0.237 OA
ATOM     89  O   UNL A   1      43.449  37.441  33.571  1.00  0.00    -0.237 OA
ATOM     90  O   UNL A   1      45.860  37.451  33.062  1.00  0.00    -0.744 OA
ENDBRANCH  86  87
ENDBRANCH  54  79
BRANCH  66  91
ATOM     91  C   UNL A   1      48.337  27.732  29.554  1.00  0.00     0.058 A 
ATOM     92  C   UNL A   1      49.009  27.175  30.654  1.00  0.00     0.135 A 
ATOM     93  C   UNL A   1      49.111  28.160  28.463  1.00  0.00     0.135 A 
ATOM     94  F   UNL A   1      48.318  26.753  31.725  1.00  0.00    -0.206 F 
ATOM     95  C   UNL A   1      50.397  27.084  30.688  1.00  0.00     0.059 A 
ATOM     96  C   UNL A   1      50.499  28.056  28.465  1.00  0.00     0.059 A 
ATOM     97  F   UNL A   1      48.520  28.690  27.381  1.00  0.00    -0.206 F 
ATOM     98  C   UNL A   1      51.134  27.534  29.591  1.00  0.00     0.060 A 
BRANCH  98  99
ATOM     99  S   UNL A   1      52.935  27.418  29.646  1.00  0.00     0.124 S 
ATOM    100  O   UNL A   1      53.245  27.034  28.273  1.00  0.00    -0.237 OA
ATOM    101  O   UNL A   1      53.326  28.771  30.029  1.00  0.00    -0.237 OA
ATOM    102  O   UNL A   1      53.178  26.392  30.656  1.00  0.00    -0.744 OA
ENDBRANCH  98  99
ENDBRANCH  66  91
ENDBRANCH  40  41
ENDBRANCH  32  35
ENDBRANCH  30  31
ENDBRANCH  29  30
ENDBRANCH   1  29
TORSDOF 19
ENDMDL
MODEL 3
REMARK VINA RESULT:     -12.1      4.822      5.979
REMARK SMILES CN(c1ccccc1)c1nc(OCC(=O)NCCCCNC(=O)c2ccc(-c3c4nc(c(-c5c(F)cc(S(=O)(=O)[O-])cc5F)c5ccc([nH]5)c(-c5c(F)cc(S(=O)(=O)[O-])cc5F)c5nc(c(-c6c(F)cc(S(=O)(=O)[O-])cc6F)c6ccc3[nH]6)C=C5)C=C4)cc2)cc(-c2ccncc2)n1
REMARK SMILES IDX 18 1 17 2 16 3 14 4 15 5 13 7 12 8 11 9 9 10 10 11 98 12
REMARK SMILES IDX 91 13 90 14 2 15 1 16 3 17 4 18 8 19 5 20 7 21 6 22 92 23
REMARK SMILES IDX 93 24 97 25 94 26 96 27 95 28 19 29 20 30 21 31 22 32 23 34
REMARK SMILES IDX 24 35 25 36 89 37 26 38 88 39 27 40 28 41 29 42 82 43 30 44
REMARK SMILES IDX 87 45 81 46 83 47 31 48 86 49 80 50 79 51 32 53 66 54 45 55
REMARK SMILES IDX 65 56 46 57 49 58 64 59 84 60 47 61 48 62 63 64 85 65 50 66
REMARK SMILES IDX 33 67 34 68 43 69 35 70 36 71 42 72 44 73 37 74 38 75 39 76
REMARK SMILES IDX 40 77 41 78 67 79 68 80 77 81 69 82 70 83 76 84 78 85 71 86
REMARK SMILES IDX 72 87 73 88 74 89 75 90 51 91 52 92 61 93 53 94 54 95 60 96
REMARK SMILES IDX 62 97 55 98 56 99 57 100 58 101 59 102
REMARK H PARENT 16 6 21 33 83 52 49 63
REMARK Flexibility Score: inf
ROOT
ATOM      1  C   UNL A   1      34.792  22.384  24.420  1.00  0.00     0.023 C 
ENDROOT
BRANCH   1   2
ATOM      2  C   UNL A   1      33.418  22.696  23.833  1.00  0.00     0.116 C 
BRANCH   2   3
ATOM      3  N   UNL A   1      33.485  23.014  22.420  1.00  0.00    -0.353 N 
ATOM      4  C   UNL A   1      33.164  24.182  21.798  1.00  0.00     0.258 C 
ATOM      5  O   UNL A   1      33.272  24.254  20.572  1.00  0.00    -0.271 OA
ATOM      6  H   UNL A   1      33.804  22.291  21.832  1.00  0.00     0.163 HD
BRANCH   4   7
ATOM      7  C   UNL A   1      32.689  25.388  22.622  1.00  0.00     0.331 C 
BRANCH   7   8
ATOM      8  O   UNL A   1      31.784  26.287  22.010  1.00  0.00    -0.467 OA
BRANCH   8   9
ATOM      9  C   UNL A   1      31.386  27.384  22.719  1.00  0.00     0.219 A 
ATOM     10  C   UNL A   1      31.451  28.351  24.815  1.00  0.00     0.233 A 
ATOM     11  N   UNL A   1      31.843  27.374  23.979  1.00  0.00    -0.177 NA
ATOM     12  N   UNL A   1      30.636  29.347  24.431  1.00  0.00    -0.212 NA
ATOM     13  C   UNL A   1      30.243  29.368  23.142  1.00  0.00     0.080 A 
ATOM     14  C   UNL A   1      30.605  28.398  22.236  1.00  0.00     0.097 A 
BRANCH  10  15
ATOM     15  N   UNL A   1      31.922  28.324  26.136  1.00  0.00    -0.314 N 
ATOM     16  C   UNL A   1      31.387  27.235  26.940  1.00  0.00     0.153 C 
BRANCH  15  17
ATOM     17  C   UNL A   1      32.925  29.150  26.663  1.00  0.00     0.043 A 
ATOM     18  C   UNL A   1      34.240  28.661  26.778  1.00  0.00     0.026 A 
ATOM     19  C   UNL A   1      32.689  30.469  27.071  1.00  0.00     0.026 A 
ATOM     20  C   UNL A   1      35.282  29.463  27.251  1.00  0.00     0.002 A 
ATOM     21  C   UNL A   1      33.726  31.272  27.564  1.00  0.00     0.002 A 
ATOM     22  C   UNL A   1      35.023  30.771  27.645  1.00  0.00     0.000 A 
ENDBRANCH  15  17
ENDBRANCH  10  15
BRANCH  13  23
ATOM     23  C   UNL A   1      29.430  30.512  22.724  1.00  0.00     0.004 A 
ATOM     24  C   UNL A   1      28.964  30.627  21.409  1.00  0.00     0.030 A 
ATOM     25  C   UNL A   1      29.158  31.555  23.615  1.00  0.00     0.030 A 
ATOM     26  C   UNL A   1      28.274  31.773  21.045  1.00  0.00     0.111 A 
ATOM     27  C   UNL A   1      28.471  32.664  23.152  1.00  0.00     0.111 A 
ATOM     28  N   UNL A   1      28.028  32.799  21.885  1.00  0.00    -0.265 NA
ENDBRANCH  13  23
ENDBRANCH   8   9
ENDBRANCH   7   8
ENDBRANCH   4   7
ENDBRANCH   2   3
ENDBRANCH   1   2
BRANCH   1  29
ATOM     29  C   UNL A   1      35.675  23.602  24.714  1.00  0.00     0.023 C 
BRANCH  29  30
ATOM     30  C   UNL A   1      36.379  23.615  26.069  1.00  0.00     0.116 C 
BRANCH  30  31
ATOM     31  N   UNL A   1      37.441  22.629  26.173  1.00  0.00    -0.352 N 
ATOM     32  C   UNL A   1      38.763  22.790  26.500  1.00  0.00     0.251 C 
ATOM     33  H   UNL A   1      37.170  21.704  25.979  1.00  0.00     0.163 HD
ATOM     34  O   UNL A   1      39.516  21.813  26.425  1.00  0.00    -0.269 OA
BRANCH  32  35
ATOM     35  C   UNL A   1      39.310  24.106  26.906  1.00  0.00     0.039 A 
ATOM     36  C   UNL A   1      39.263  24.452  28.259  1.00  0.00     0.014 A 
ATOM     37  C   UNL A   1      39.835  25.012  25.979  1.00  0.00     0.014 A 
ATOM     38  C   UNL A   1      39.788  25.675  28.688  1.00  0.00     0.010 A 
ATOM     39  C   UNL A   1      40.422  26.202  26.417  1.00  0.00     0.010 A 
ATOM     40  C   UNL A   1      40.401  26.550  27.775  1.00  0.00    -0.014 A 
BRANCH  40  41
ATOM     41  C   UNL A   1      41.031  27.811  28.250  1.00  0.00     0.031 A 
ATOM     42  C   UNL A   1      42.515  28.029  28.131  1.00  0.00     0.074 A 
ATOM     43  C   UNL A   1      40.259  28.763  28.811  1.00  0.00     0.049 A 
ATOM     44  N   UNL A   1      43.220  29.091  28.434  1.00  0.00    -0.248 NA
ATOM     45  C   UNL A   1      43.315  26.903  27.628  1.00  0.00     0.031 C 
ATOM     46  C   UNL A   1      38.816  28.651  29.041  1.00  0.00     0.029 A 
ATOM     47  N   UNL A   1      40.572  30.015  29.276  1.00  0.00    -0.354 N 
ATOM     48  C   UNL A   1      44.542  28.762  28.159  1.00  0.00     0.074 A 
ATOM     49  C   UNL A   1      44.547  27.380  27.726  1.00  0.00     0.031 C 
ATOM     50  C   UNL A   1      38.363  29.804  29.557  1.00  0.00     0.029 A 
ATOM     51  C   UNL A   1      39.482  30.728  29.718  1.00  0.00     0.049 A 
ATOM     52  H   UNL A   1      41.490  30.370  29.293  1.00  0.00     0.167 HD
ATOM     53  C   UNL A   1      45.648  29.543  28.235  1.00  0.00     0.037 A 
ATOM     54  C   UNL A   1      39.389  31.989  30.181  1.00  0.00     0.037 A 
ATOM     55  C   UNL A   1      45.639  30.920  28.661  1.00  0.00     0.049 A 
ATOM     56  C   UNL A   1      40.622  32.845  30.240  1.00  0.00     0.074 A 
ATOM     57  C   UNL A   1      46.697  31.809  28.731  1.00  0.00     0.029 A 
ATOM     58  N   UNL A   1      44.514  31.608  29.095  1.00  0.00    -0.354 N 
ATOM     59  N   UNL A   1      41.855  32.540  29.911  1.00  0.00    -0.248 NA
ATOM     60  C   UNL A   1      40.449  34.222  30.720  1.00  0.00     0.031 C 
ATOM     61  C   UNL A   1      46.220  33.022  29.244  1.00  0.00     0.029 A 
ATOM     62  C   UNL A   1      44.855  32.904  29.449  1.00  0.00     0.049 A 
ATOM     63  H   UNL A   1      43.607  31.230  29.146  1.00  0.00     0.167 HD
ATOM     64  C   UNL A   1      42.600  33.697  30.115  1.00  0.00     0.074 A 
ATOM     65  C   UNL A   1      41.675  34.708  30.586  1.00  0.00     0.031 C 
ATOM     66  C   UNL A   1      43.927  33.902  29.923  1.00  0.00     0.037 A 
BRANCH  53  67
ATOM     67  C   UNL A   1      46.960  28.915  27.844  1.00  0.00     0.058 A 
ATOM     68  C   UNL A   1      47.815  28.341  28.800  1.00  0.00     0.135 A 
ATOM     69  C   UNL A   1      47.374  28.891  26.502  1.00  0.00     0.135 A 
ATOM     70  F   UNL A   1      47.475  28.344  30.099  1.00  0.00    -0.206 F 
ATOM     71  C   UNL A   1      49.054  27.814  28.448  1.00  0.00     0.059 A 
ATOM     72  C   UNL A   1      48.597  28.342  26.124  1.00  0.00     0.059 A 
ATOM     73  F   UNL A   1      46.596  29.419  25.545  1.00  0.00    -0.206 F 
ATOM     74  C   UNL A   1      49.441  27.829  27.108  1.00  0.00     0.060 A 
BRANCH  74  75
ATOM     75  S   UNL A   1      51.068  27.181  26.670  1.00  0.00     0.124 S 
ATOM     76  O   UNL A   1      50.822  26.664  25.328  1.00  0.00    -0.237 OA
ATOM     77  O   UNL A   1      51.911  28.371  26.745  1.00  0.00    -0.237 OA
ATOM     78  O   UNL A   1      51.319  26.175  27.696  1.00  0.00    -0.744 OA
ENDBRANCH  74  75
ENDBRANCH  53  67
BRANCH  54  79
ATOM     79  C   UNL A   1      38.057  32.536  30.552  1.00  0.00     0.058 A 
ATOM     80  C   UNL A   1      37.558  32.383  31.854  1.00  0.00     0.135 A 
ATOM     81  C   UNL A   1      37.282  33.260  29.635  1.00  0.00     0.135 A 
ATOM     82  F   UNL A   1      38.262  31.694  32.766  1.00  0.00    -0.206 F 
ATOM     83  C   UNL A   1      36.336  32.926  32.234  1.00  0.00     0.059 A 
ATOM     84  C   UNL A   1      36.066  33.832  29.997  1.00  0.00     0.059 A 
ATOM     85  F   UNL A   1      37.724  33.448  28.381  1.00  0.00    -0.206 F 
ATOM     86  C   UNL A   1      35.600  33.656  31.300  1.00  0.00     0.060 A 
BRANCH  86  87
ATOM     87  S   UNL A   1      34.053  34.426  31.827  1.00  0.00     0.124 S 
ATOM     88  O   UNL A   1      33.570  33.469  32.816  1.00  0.00    -0.237 OA
ATOM     89  O   UNL A   1      34.513  35.709  32.351  1.00  0.00    -0.237 OA
ATOM     90  O   UNL A   1      33.280  34.503  30.592  1.00  0.00    -0.744 OA
ENDBRANCH  86  87
ENDBRANCH  54  79
BRANCH  66  91
ATOM     91  C   UNL A   1      44.451  35.286  30.194  1.00  0.00     0.058 A 
ATOM     92  C   UNL A   1      44.954  35.655  31.452  1.00  0.00     0.135 A 
ATOM     93  C   UNL A   1      44.460  36.254  29.176  1.00  0.00     0.135 A 
ATOM     94  F   UNL A   1      44.966  34.771  32.461  1.00  0.00    -0.206 F 
ATOM     95  C   UNL A   1      45.408  36.947  31.702  1.00  0.00     0.059 A 
ATOM     96  C   UNL A   1      44.933  37.543  29.397  1.00  0.00     0.059 A 
ATOM     97  F   UNL A   1      44.002  35.951  27.950  1.00  0.00    -0.206 F 
ATOM     98  C   UNL A   1      45.386  37.886  30.670  1.00  0.00     0.060 A 
BRANCH  98  99
ATOM     99  S   UNL A   1      45.973  39.561  31.005  1.00  0.00     0.124 S 
ATOM    100  O   UNL A   1      46.631  39.898  29.747  1.00  0.00    -0.237 OA
ATOM    101  O   UNL A   1      44.732  40.279  31.283  1.00  0.00    -0.237 OA
ATOM    102  O   UNL A   1      46.859  39.386  32.151  1.00  0.00    -0.744 OA
ENDBRANCH  98  99
ENDBRANCH  66  91
ENDBRANCH  40  41
ENDBRANCH  32  35
ENDBRANCH  30  31
ENDBRANCH  29  30
ENDBRANCH   1  29
TORSDOF 19
ENDMDL
