MODEL 1
REMARK VINA RESULT:     -12.8      0.000      0.000
REMARK SMILES O=C(COc1c(Cl)cc(/C=C2/C(=O)NC(=O)N=C2O)cc1Cl)NCCCCNC(=O)c1ccc(-c2c3nc(c(-c4c(F)cc(S(=O)(=O)[O-])cc4F)c4ccc([nH]4)c(-c4c(F)cc(S(=O)(=O)[O-])cc4F)c4nc(c(-c5c(F)cc(S(=O)(=O)[O-])cc5F)c5ccc2[nH]5)C=C4)C=C3)cc1
REMARK SMILES IDX 25 1 24 2 23 3 1 4 2 5 3 7 4 8 5 9 6 10 21 11 7 12 8 13
REMARK SMILES IDX 20 14 22 15 9 16 10 17 11 18 12 19 18 20 13 21 14 22 17 23
REMARK SMILES IDX 15 24 16 26 19 27 26 29 27 30 28 31 29 32 30 34 31 35 32 36
REMARK SMILES IDX 96 37 33 38 95 39 34 40 35 41 36 42 89 43 37 44 94 45 88 46
REMARK SMILES IDX 90 47 38 48 93 49 87 50 86 51 39 53 73 54 52 55 72 56 53 57
REMARK SMILES IDX 56 58 71 59 91 60 54 61 55 62 70 64 92 65 57 66 40 67 41 68
REMARK SMILES IDX 50 69 42 70 43 71 49 72 51 73 44 74 45 75 46 76 47 77 48 78
REMARK SMILES IDX 74 79 75 80 84 81 76 82 77 83 83 84 85 85 78 86 79 87 80 88
REMARK SMILES IDX 81 89 82 90 58 91 59 92 68 93 60 94 61 95 67 96 69 97 62 98
REMARK SMILES IDX 63 99 64 100 65 101 66 102
REMARK H PARENT 23 6 14 25 19 28 28 33 90 52 56 63
REMARK Flexibility Score: inf
ROOT
ATOM      1  C   UNL A   1      38.689  23.401  26.556  1.00  0.00     0.023 C 
ENDROOT
BRANCH   1   2
ATOM      2  C   UNL A   1      37.714  22.892  25.502  1.00  0.00     0.116 C 
BRANCH   2   3
ATOM      3  N   UNL A   1      36.480  23.648  25.445  1.00  0.00    -0.353 N 
ATOM      4  O   UNL A   1      35.063  21.925  26.025  1.00  0.00    -0.271 OA
ATOM      5  C   UNL A   1      35.263  23.118  25.822  1.00  0.00     0.257 C 
ATOM      6  H   UNL A   1      36.510  24.578  25.124  1.00  0.00     0.163 HD
BRANCH   5   7
ATOM      7  C   UNL A   1      34.158  24.166  25.967  1.00  0.00     0.329 C 
BRANCH   7   8
ATOM      8  O   UNL A   1      34.275  25.204  24.984  1.00  0.00    -0.481 OA
BRANCH   8   9
ATOM      9  C   UNL A   1      33.051  25.713  24.622  1.00  0.00     0.157 A 
ATOM     10  C   UNL A   1      32.508  26.791  25.325  1.00  0.00     0.085 A 
ATOM     11  C   UNL A   1      32.370  25.243  23.491  1.00  0.00     0.085 A 
ATOM     12  Cl  UNL A   1      33.317  27.551  26.641  1.00  0.00    -0.080 Cl
ATOM     13  C   UNL A   1      31.283  27.342  24.944  1.00  0.00     0.032 A 
ATOM     14  C   UNL A   1      31.136  25.798  23.114  1.00  0.00     0.032 A 
ATOM     15  Cl  UNL A   1      33.040  24.004  22.487  1.00  0.00    -0.080 Cl
ATOM     16  C   UNL A   1      30.596  26.877  23.816  1.00  0.00    -0.021 A 
BRANCH  16  17
ATOM     17  C   UNL A   1      29.329  27.563  23.509  1.00  0.00     0.027 C 
ATOM     18  C   UNL A   1      29.027  28.673  22.805  1.00  0.00     0.102 C 
ATOM     19  C   UNL A   1      27.594  29.076  22.832  1.00  0.00     0.264 C 
ATOM     20  C   UNL A   1      29.871  29.579  22.023  1.00  0.00     0.228 C 
ATOM     21  O   UNL A   1      26.739  28.542  23.531  1.00  0.00    -0.269 OA
ATOM     22  N   UNL A   1      27.283  30.104  21.994  1.00  0.00    -0.272 N 
ATOM     23  N   UNL A   1      29.479  30.525  21.253  1.00  0.00    -0.157 NA
ATOM     24  C   UNL A   1      28.136  30.755  21.147  1.00  0.00     0.351 C 
ATOM     25  H   UNL A   1      26.347  30.410  21.999  1.00  0.00     0.175 HD
ATOM     26  O   UNL A   1      27.664  31.530  20.317  1.00  0.00    -0.246 OA
BRANCH  20  27
ATOM     27  O   UNL A   1      31.189  29.420  22.141  1.00  0.00    -0.493 OA
ATOM     28  H   UNL A   1      31.760  29.702  21.453  1.00  0.00     0.295 HD
ENDBRANCH  20  27
ENDBRANCH  16  17
ENDBRANCH   8   9
ENDBRANCH   7   8
ENDBRANCH   5   7
ENDBRANCH   2   3
ENDBRANCH   1   2
BRANCH   1  29
ATOM     29  C   UNL A   1      39.831  22.444  26.908  1.00  0.00     0.023 C 
BRANCH  29  30
ATOM     30  C   UNL A   1      41.207  23.082  27.090  1.00  0.00     0.116 C 
BRANCH  30  31
ATOM     31  N   UNL A   1      41.575  23.960  25.990  1.00  0.00    -0.352 N 
ATOM     32  C   UNL A   1      41.675  25.331  25.953  1.00  0.00     0.251 C 
ATOM     33  H   UNL A   1      41.785  23.503  25.144  1.00  0.00     0.163 HD
ATOM     34  O   UNL A   1      41.848  25.899  24.876  1.00  0.00    -0.269 OA
BRANCH  32  35
ATOM     35  C   UNL A   1      41.548  26.130  27.195  1.00  0.00     0.039 A 
ATOM     36  C   UNL A   1      42.564  27.029  27.526  1.00  0.00     0.014 A 
ATOM     37  C   UNL A   1      40.440  25.990  28.035  1.00  0.00     0.014 A 
ATOM     38  C   UNL A   1      42.432  27.844  28.655  1.00  0.00     0.010 A 
ATOM     39  C   UNL A   1      40.273  26.857  29.114  1.00  0.00     0.010 A 
ATOM     40  C   UNL A   1      41.264  27.797  29.436  1.00  0.00    -0.014 A 
BRANCH  40  41
ATOM     41  C   UNL A   1      41.061  28.732  30.576  1.00  0.00     0.031 A 
ATOM     42  C   UNL A   1      41.894  28.610  31.824  1.00  0.00     0.074 A 
ATOM     43  C   UNL A   1      40.081  29.657  30.513  1.00  0.00     0.049 A 
ATOM     44  N   UNL A   1      41.816  29.290  32.940  1.00  0.00    -0.248 NA
ATOM     45  C   UNL A   1      42.936  27.571  31.829  1.00  0.00     0.031 C 
ATOM     46  C   UNL A   1      39.171  29.849  29.381  1.00  0.00     0.029 A 
ATOM     47  N   UNL A   1      39.674  30.601  31.424  1.00  0.00    -0.354 N 
ATOM     48  C   UNL A   1      42.791  28.760  33.777  1.00  0.00     0.074 A 
ATOM     49  C   UNL A   1      43.406  27.661  33.064  1.00  0.00     0.031 C 
ATOM     50  C   UNL A   1      38.331  30.859  29.655  1.00  0.00     0.029 A 
ATOM     51  C   UNL A   1      38.607  31.359  30.998  1.00  0.00     0.049 A 
ATOM     52  H   UNL A   1      40.107  30.725  32.300  1.00  0.00     0.167 HD
ATOM     53  C   UNL A   1      43.158  29.165  35.018  1.00  0.00     0.037 A 
ATOM     54  C   UNL A   1      37.917  32.336  31.621  1.00  0.00     0.037 A 
ATOM     55  C   UNL A   1      42.548  30.266  35.721  1.00  0.00     0.049 A 
ATOM     56  C   UNL A   1      38.328  32.755  33.007  1.00  0.00     0.074 A 
ATOM     57  C   UNL A   1      42.879  30.783  36.961  1.00  0.00     0.029 A 
ATOM     58  N   UNL A   1      41.479  31.016  35.250  1.00  0.00    -0.354 N 
ATOM     59  N   UNL A   1      39.293  32.283  33.759  1.00  0.00    -0.248 NA
ATOM     60  C   UNL A   1      37.562  33.845  33.627  1.00  0.00     0.031 C 
ATOM     61  C   UNL A   1      41.975  31.806  37.266  1.00  0.00     0.029 A 
ATOM     62  C   UNL A   1      41.122  31.973  36.187  1.00  0.00     0.049 A 
ATOM     63  H   UNL A   1      41.039  30.886  34.379  1.00  0.00     0.167 HD
ATOM     64  C   UNL A   1      39.268  33.036  34.928  1.00  0.00     0.074 A 
ATOM     65  C   UNL A   1      38.202  34.004  34.777  1.00  0.00     0.031 C 
ATOM     66  C   UNL A   1      40.060  32.937  36.026  1.00  0.00     0.037 A 
BRANCH  53  67
ATOM     67  C   UNL A   1      44.273  28.415  35.697  1.00  0.00     0.058 A 
ATOM     68  C   UNL A   1      44.020  27.340  36.564  1.00  0.00     0.135 A 
ATOM     69  C   UNL A   1      45.616  28.749  35.451  1.00  0.00     0.135 A 
ATOM     70  F   UNL A   1      42.757  26.982  36.848  1.00  0.00    -0.206 F 
ATOM     71  C   UNL A   1      45.052  26.647  37.189  1.00  0.00     0.059 A 
ATOM     72  C   UNL A   1      46.665  28.049  36.038  1.00  0.00     0.059 A 
ATOM     73  F   UNL A   1      45.920  29.766  34.628  1.00  0.00    -0.206 F 
ATOM     74  C   UNL A   1      46.373  27.009  36.920  1.00  0.00     0.060 A 
BRANCH  74  75
ATOM     75  S   UNL A   1      47.699  26.100  37.739  1.00  0.00     0.124 S 
ATOM     76  O   UNL A   1      48.733  26.102  36.708  1.00  0.00    -0.237 OA
ATOM     77  O   UNL A   1      47.969  26.931  38.908  1.00  0.00    -0.237 OA
ATOM     78  O   UNL A   1      47.098  24.800  38.022  1.00  0.00    -0.744 OA
ENDBRANCH  74  75
ENDBRANCH  53  67
BRANCH  54  79
ATOM     79  C   UNL A   1      36.771  32.991  30.931  1.00  0.00     0.058 A 
ATOM     80  C   UNL A   1      35.448  32.715  31.303  1.00  0.00     0.135 A 
ATOM     81  C   UNL A   1      36.979  33.915  29.895  1.00  0.00     0.135 A 
ATOM     82  F   UNL A   1      35.195  31.832  32.282  1.00  0.00    -0.206 F 
ATOM     83  C   UNL A   1      34.369  33.319  30.664  1.00  0.00     0.059 A 
ATOM     84  C   UNL A   1      35.918  34.555  29.261  1.00  0.00     0.059 A 
ATOM     85  F   UNL A   1      38.226  34.227  29.511  1.00  0.00    -0.206 F 
ATOM     86  C   UNL A   1      34.616  34.243  29.647  1.00  0.00     0.060 A 
BRANCH  86  87
ATOM     87  S   UNL A   1      33.210  35.060  28.859  1.00  0.00     0.124 S 
ATOM     88  O   UNL A   1      33.848  36.220  28.249  1.00  0.00    -0.237 OA
ATOM     89  O   UNL A   1      32.737  34.031  27.938  1.00  0.00    -0.237 OA
ATOM     90  O   UNL A   1      32.319  35.347  29.979  1.00  0.00    -0.744 OA
ENDBRANCH  86  87
ENDBRANCH  54  79
BRANCH  66  91
ATOM     91  C   UNL A   1      39.832  33.922  37.141  1.00  0.00     0.058 A 
ATOM     92  C   UNL A   1      39.078  33.595  38.279  1.00  0.00     0.135 A 
ATOM     93  C   UNL A   1      40.423  35.196  37.094  1.00  0.00     0.135 A 
ATOM     94  F   UNL A   1      38.485  32.394  38.374  1.00  0.00    -0.206 F 
ATOM     95  C   UNL A   1      38.896  34.503  39.318  1.00  0.00     0.059 A 
ATOM     96  C   UNL A   1      40.283  36.108  38.135  1.00  0.00     0.059 A 
ATOM     97  F   UNL A   1      41.164  35.558  36.034  1.00  0.00    -0.206 F 
ATOM     98  C   UNL A   1      39.508  35.757  39.238  1.00  0.00     0.060 A 
BRANCH  98  99
ATOM     99  S   UNL A   1      39.294  36.911  40.609  1.00  0.00     0.124 S 
ATOM    100  O   UNL A   1      40.671  37.099  41.054  1.00  0.00    -0.237 OA
ATOM    101  O   UNL A   1      38.676  38.061  39.955  1.00  0.00    -0.237 OA
ATOM    102  O   UNL A   1      38.430  36.185  41.535  1.00  0.00    -0.744 OA
ENDBRANCH  98  99
ENDBRANCH  66  91
ENDBRANCH  40  41
ENDBRANCH  32  35
ENDBRANCH  30  31
ENDBRANCH  29  30
ENDBRANCH   1  29
TORSDOF 18
ENDMDL
MODEL 2
REMARK VINA RESULT:     -12.2      5.372      8.221
REMARK SMILES O=C(COc1c(Cl)cc(/C=C2/C(=O)NC(=O)N=C2O)cc1Cl)NCCCCNC(=O)c1ccc(-c2c3nc(c(-c4c(F)cc(S(=O)(=O)[O-])cc4F)c4ccc([nH]4)c(-c4c(F)cc(S(=O)(=O)[O-])cc4F)c4nc(c(-c5c(F)cc(S(=O)(=O)[O-])cc5F)c5ccc2[nH]5)C=C4)C=C3)cc1
REMARK SMILES IDX 25 1 24 2 23 3 1 4 2 5 3 7 4 8 5 9 6 10 21 11 7 12 8 13
REMARK SMILES IDX 20 14 22 15 9 16 10 17 11 18 12 19 18 20 13 21 14 22 17 23
REMARK SMILES IDX 15 24 16 26 19 27 26 29 27 30 28 31 29 32 30 34 31 35 32 36
REMARK SMILES IDX 96 37 33 38 95 39 34 40 35 41 36 42 89 43 37 44 94 45 88 46
REMARK SMILES IDX 90 47 38 48 93 49 87 50 86 51 39 53 73 54 52 55 72 56 53 57
REMARK SMILES IDX 56 58 71 59 91 60 54 61 55 62 70 64 92 65 57 66 40 67 41 68
REMARK SMILES IDX 50 69 42 70 43 71 49 72 51 73 44 74 45 75 46 76 47 77 48 78
REMARK SMILES IDX 74 79 75 80 84 81 76 82 77 83 83 84 85 85 78 86 79 87 80 88
REMARK SMILES IDX 81 89 82 90 58 91 59 92 68 93 60 94 61 95 67 96 69 97 62 98
REMARK SMILES IDX 63 99 64 100 65 101 66 102
REMARK H PARENT 23 6 14 25 19 28 28 33 90 52 56 63
REMARK Flexibility Score: inf
ROOT
ATOM      1  C   UNL A   1      42.574  20.407  26.067  1.00  0.00     0.023 C 
ENDROOT
BRANCH   1   2
ATOM      2  C   UNL A   1      43.943  20.575  25.420  1.00  0.00     0.116 C 
BRANCH   2   3
ATOM      3  N   UNL A   1      44.685  21.712  25.926  1.00  0.00    -0.353 N 
ATOM      4  O   UNL A   1      46.551  21.448  24.598  1.00  0.00    -0.271 OA
ATOM      5  C   UNL A   1      45.889  22.116  25.387  1.00  0.00     0.257 C 
ATOM      6  H   UNL A   1      44.314  22.218  26.685  1.00  0.00     0.163 HD
BRANCH   5   7
ATOM      7  C   UNL A   1      46.342  23.496  25.867  1.00  0.00     0.329 C 
BRANCH   7   8
ATOM      8  O   UNL A   1      46.144  24.501  24.863  1.00  0.00    -0.481 OA
BRANCH   8   9
ATOM      9  C   UNL A   1      45.764  25.706  25.405  1.00  0.00     0.157 A 
ATOM     10  C   UNL A   1      44.410  26.042  25.478  1.00  0.00     0.085 A 
ATOM     11  C   UNL A   1      46.700  26.573  25.984  1.00  0.00     0.085 A 
ATOM     12  Cl  UNL A   1      43.156  24.997  24.934  1.00  0.00    -0.080 Cl
ATOM     13  C   UNL A   1      44.010  27.247  26.061  1.00  0.00     0.032 A 
ATOM     14  C   UNL A   1      46.293  27.785  26.565  1.00  0.00     0.032 A 
ATOM     15  Cl  UNL A   1      48.380  26.166  26.057  1.00  0.00    -0.080 Cl
ATOM     16  C   UNL A   1      44.939  28.119  26.641  1.00  0.00    -0.021 A 
BRANCH  16  17
ATOM     17  C   UNL A   1      44.382  29.341  27.244  1.00  0.00     0.027 C 
ATOM     18  C   UNL A   1      44.647  30.653  27.086  1.00  0.00     0.102 C 
ATOM     19  C   UNL A   1      43.899  31.570  27.990  1.00  0.00     0.264 C 
ATOM     20  C   UNL A   1      45.566  31.350  26.184  1.00  0.00     0.228 C 
ATOM     21  O   UNL A   1      43.181  31.197  28.912  1.00  0.00    -0.269 OA
ATOM     22  N   UNL A   1      44.063  32.893  27.711  1.00  0.00    -0.272 N 
ATOM     23  N   UNL A   1      45.643  32.613  25.987  1.00  0.00    -0.157 NA
ATOM     24  C   UNL A   1      44.808  33.429  26.697  1.00  0.00     0.351 C 
ATOM     25  H   UNL A   1      43.598  33.530  28.300  1.00  0.00     0.175 HD
ATOM     26  O   UNL A   1      44.701  34.630  26.459  1.00  0.00    -0.246 OA
BRANCH  20  27
ATOM     27  O   UNL A   1      46.434  30.592  25.513  1.00  0.00    -0.493 OA
ATOM     28  H   UNL A   1      46.155  30.123  24.750  1.00  0.00     0.295 HD
ENDBRANCH  20  27
ENDBRANCH  16  17
ENDBRANCH   8   9
ENDBRANCH   7   8
ENDBRANCH   5   7
ENDBRANCH   2   3
ENDBRANCH   1   2
BRANCH   1  29
ATOM     29  C   UNL A   1      41.997  21.668  26.716  1.00  0.00     0.023 C 
BRANCH  29  30
ATOM     30  C   UNL A   1      40.601  21.531  27.321  1.00  0.00     0.116 C 
BRANCH  30  31
ATOM     31  N   UNL A   1      39.539  21.782  26.359  1.00  0.00    -0.352 N 
ATOM     32  C   UNL A   1      38.814  22.928  26.127  1.00  0.00     0.251 C 
ATOM     33  H   UNL A   1      39.304  21.016  25.787  1.00  0.00     0.163 HD
ATOM     34  O   UNL A   1      37.844  22.890  25.373  1.00  0.00    -0.269 OA
BRANCH  32  35
ATOM     35  C   UNL A   1      39.175  24.197  26.801  1.00  0.00     0.039 A 
ATOM     36  C   UNL A   1      38.703  24.434  28.094  1.00  0.00     0.014 A 
ATOM     37  C   UNL A   1      39.967  25.156  26.162  1.00  0.00     0.014 A 
ATOM     38  C   UNL A   1      39.089  25.593  28.775  1.00  0.00     0.010 A 
ATOM     39  C   UNL A   1      40.415  26.271  26.871  1.00  0.00     0.010 A 
ATOM     40  C   UNL A   1      39.984  26.501  28.186  1.00  0.00    -0.014 A 
BRANCH  40  41
ATOM     41  C   UNL A   1      40.490  27.682  28.938  1.00  0.00     0.031 A 
ATOM     42  C   UNL A   1      41.860  27.661  29.564  1.00  0.00     0.074 A 
ATOM     43  C   UNL A   1      39.692  28.755  29.110  1.00  0.00     0.049 A 
ATOM     44  N   UNL A   1      42.443  28.566  30.308  1.00  0.00    -0.248 NA
ATOM     45  C   UNL A   1      42.672  26.453  29.346  1.00  0.00     0.031 C 
ATOM     46  C   UNL A   1      38.326  28.884  28.597  1.00  0.00     0.029 A 
ATOM     47  N   UNL A   1      39.904  29.938  29.776  1.00  0.00    -0.354 N 
ATOM     48  C   UNL A   1      43.683  28.038  30.650  1.00  0.00     0.074 A 
ATOM     49  C   UNL A   1      43.742  26.708  30.083  1.00  0.00     0.031 C 
ATOM     50  C   UNL A   1      37.833  30.083  28.946  1.00  0.00     0.029 A 
ATOM     51  C   UNL A   1      38.826  30.792  29.748  1.00  0.00     0.049 A 
ATOM     52  H   UNL A   1      40.751  30.155  30.231  1.00  0.00     0.167 HD
ATOM     53  C   UNL A   1      44.689  28.616  31.350  1.00  0.00     0.037 A 
ATOM     54  C   UNL A   1      38.646  32.002  30.314  1.00  0.00     0.037 A 
ATOM     55  C   UNL A   1      44.627  29.945  31.905  1.00  0.00     0.049 A 
ATOM     56  C   UNL A   1      39.769  32.616  31.107  1.00  0.00     0.074 A 
ATOM     57  C   UNL A   1      45.610  30.636  32.591  1.00  0.00     0.029 A 
ATOM     58  N   UNL A   1      43.522  30.782  31.843  1.00  0.00    -0.354 N 
ATOM     59  N   UNL A   1      40.958  32.126  31.367  1.00  0.00    -0.248 NA
ATOM     60  C   UNL A   1      39.531  33.949  31.677  1.00  0.00     0.031 C 
ATOM     61  C   UNL A   1      45.082  31.867  32.994  1.00  0.00     0.029 A 
ATOM     62  C   UNL A   1      43.790  31.972  32.501  1.00  0.00     0.049 A 
ATOM     63  H   UNL A   1      42.671  30.563  31.398  1.00  0.00     0.167 HD
ATOM     64  C   UNL A   1      41.618  33.102  32.106  1.00  0.00     0.074 A 
ATOM     65  C   UNL A   1      40.702  34.215  32.238  1.00  0.00     0.031 C 
ATOM     66  C   UNL A   1      42.872  33.078  32.624  1.00  0.00     0.037 A 
BRANCH  53  67
ATOM     67  C   UNL A   1      45.946  27.814  31.558  1.00  0.00     0.058 A 
ATOM     68  C   UNL A   1      47.004  27.845  30.634  1.00  0.00     0.135 A 
ATOM     69  C   UNL A   1      46.115  27.030  32.712  1.00  0.00     0.135 A 
ATOM     70  F   UNL A   1      46.896  28.566  29.506  1.00  0.00    -0.206 F 
ATOM     71  C   UNL A   1      48.165  27.105  30.829  1.00  0.00     0.059 A 
ATOM     72  C   UNL A   1      47.281  26.308  32.944  1.00  0.00     0.059 A 
ATOM     73  F   UNL A   1      45.139  26.963  33.632  1.00  0.00    -0.206 F 
ATOM     74  C   UNL A   1      48.295  26.338  31.987  1.00  0.00     0.060 A 
BRANCH  74  75
ATOM     75  S   UNL A   1      49.808  25.383  32.223  1.00  0.00     0.124 S 
ATOM     76  O   UNL A   1      49.347  24.324  33.116  1.00  0.00    -0.237 OA
ATOM     77  O   UNL A   1      50.129  24.968  30.861  1.00  0.00    -0.237 OA
ATOM     78  O   UNL A   1      50.731  26.345  32.816  1.00  0.00    -0.744 OA
ENDBRANCH  74  75
ENDBRANCH  53  67
BRANCH  54  79
ATOM     79  C   UNL A   1      37.351  32.717  30.142  1.00  0.00     0.058 A 
ATOM     80  C   UNL A   1      37.174  33.661  29.120  1.00  0.00     0.135 A 
ATOM     81  C   UNL A   1      36.261  32.461  30.989  1.00  0.00     0.135 A 
ATOM     82  F   UNL A   1      38.188  33.949  28.289  1.00  0.00    -0.206 F 
ATOM     83  C   UNL A   1      35.969  34.337  28.952  1.00  0.00     0.059 A 
ATOM     84  C   UNL A   1      35.037  33.101  30.822  1.00  0.00     0.059 A 
ATOM     85  F   UNL A   1      36.372  31.555  31.973  1.00  0.00    -0.206 F 
ATOM     86  C   UNL A   1      34.904  34.045  29.806  1.00  0.00     0.060 A 
BRANCH  86  87
ATOM     87  S   UNL A   1      33.329  34.890  29.545  1.00  0.00     0.124 S 
ATOM     88  O   UNL A   1      32.628  33.946  28.683  1.00  0.00    -0.237 OA
ATOM     89  O   UNL A   1      32.820  35.011  30.907  1.00  0.00    -0.237 OA
ATOM     90  O   UNL A   1      33.722  36.147  28.917  1.00  0.00    -0.744 OA
ENDBRANCH  86  87
ENDBRANCH  54  79
BRANCH  66  91
ATOM     91  C   UNL A   1      43.348  34.306  33.354  1.00  0.00     0.058 A 
ATOM     92  C   UNL A   1      43.236  34.433  34.748  1.00  0.00     0.135 A 
ATOM     93  C   UNL A   1      43.974  35.350  32.652  1.00  0.00     0.135 A 
ATOM     94  F   UNL A   1      42.641  33.469  35.468  1.00  0.00    -0.206 F 
ATOM     95  C   UNL A   1      43.705  35.560  35.416  1.00  0.00     0.059 A 
ATOM     96  C   UNL A   1      44.479  36.471  33.303  1.00  0.00     0.059 A 
ATOM     97  F   UNL A   1      44.117  35.278  31.319  1.00  0.00    -0.206 F 
ATOM     98  C   UNL A   1      44.329  36.573  34.684  1.00  0.00     0.060 A 
BRANCH  98  99
ATOM     99  S   UNL A   1      44.964  38.012  35.569  1.00  0.00     0.124 S 
ATOM    100  O   UNL A   1      44.100  38.041  36.744  1.00  0.00    -0.237 OA
ATOM    101  O   UNL A   1      46.354  37.638  35.814  1.00  0.00    -0.237 OA
ATOM    102  O   UNL A   1      44.773  39.106  34.622  1.00  0.00    -0.744 OA
ENDBRANCH  98  99
ENDBRANCH  66  91
ENDBRANCH  40  41
ENDBRANCH  32  35
ENDBRANCH  30  31
ENDBRANCH  29  30
ENDBRANCH   1  29
TORSDOF 18
ENDMDL
MODEL 3
REMARK VINA RESULT:     -12.2      3.040      4.319
REMARK SMILES O=C(COc1c(Cl)cc(/C=C2/C(=O)NC(=O)N=C2O)cc1Cl)NCCCCNC(=O)c1ccc(-c2c3nc(c(-c4c(F)cc(S(=O)(=O)[O-])cc4F)c4ccc([nH]4)c(-c4c(F)cc(S(=O)(=O)[O-])cc4F)c4nc(c(-c5c(F)cc(S(=O)(=O)[O-])cc5F)c5ccc2[nH]5)C=C4)C=C3)cc1
REMARK SMILES IDX 25 1 24 2 23 3 1 4 2 5 3 7 4 8 5 9 6 10 21 11 7 12 8 13
REMARK SMILES IDX 20 14 22 15 9 16 10 17 11 18 12 19 18 20 13 21 14 22 17 23
REMARK SMILES IDX 15 24 16 26 19 27 26 29 27 30 28 31 29 32 30 34 31 35 32 36
REMARK SMILES IDX 96 37 33 38 95 39 34 40 35 41 36 42 89 43 37 44 94 45 88 46
REMARK SMILES IDX 90 47 38 48 93 49 87 50 86 51 39 53 73 54 52 55 72 56 53 57
REMARK SMILES IDX 56 58 71 59 91 60 54 61 55 62 70 64 92 65 57 66 40 67 41 68
REMARK SMILES IDX 50 69 42 70 43 71 49 72 51 73 44 74 45 75 46 76 47 77 48 78
REMARK SMILES IDX 74 79 75 80 84 81 76 82 77 83 83 84 85 85 78 86 79 87 80 88
REMARK SMILES IDX 81 89 82 90 58 91 59 92 68 93 60 94 61 95 67 96 69 97 62 98
REMARK SMILES IDX 63 99 64 100 65 101 66 102
REMARK H PARENT 23 6 14 25 19 28 28 33 90 52 56 63
REMARK Flexibility Score: inf
ROOT
ATOM      1  C   UNL A   1      44.079  23.807  29.070  1.00  0.00     0.023 C 
ENDROOT
BRANCH   1   2
ATOM      2  C   UNL A   1      43.246  22.550  29.285  1.00  0.00     0.116 C 
BRANCH   2   3
ATOM      3  N   UNL A   1      41.900  22.652  28.758  1.00  0.00    -0.353 N 
ATOM      4  O   UNL A   1      42.379  21.951  26.615  1.00  0.00    -0.271 OA
ATOM      5  C   UNL A   1      41.563  22.235  27.487  1.00  0.00     0.257 C 
ATOM      6  H   UNL A   1      41.196  23.035  29.331  1.00  0.00     0.163 HD
BRANCH   5   7
ATOM      7  C   UNL A   1      40.054  22.154  27.250  1.00  0.00     0.329 C 
BRANCH   7   8
ATOM      8  O   UNL A   1      39.745  21.813  25.891  1.00  0.00    -0.481 OA
BRANCH   8   9
ATOM      9  C   UNL A   1      38.432  22.070  25.578  1.00  0.00     0.157 A 
ATOM     10  C   UNL A   1      37.604  21.035  25.136  1.00  0.00     0.085 A 
ATOM     11  C   UNL A   1      37.866  23.334  25.789  1.00  0.00     0.085 A 
ATOM     12  Cl  UNL A   1      38.144  19.409  24.977  1.00  0.00    -0.080 Cl
ATOM     13  C   UNL A   1      36.259  21.277  24.852  1.00  0.00     0.032 A 
ATOM     14  C   UNL A   1      36.514  23.573  25.497  1.00  0.00     0.032 A 
ATOM     15  Cl  UNL A   1      38.789  24.633  26.463  1.00  0.00    -0.080 Cl
ATOM     16  C   UNL A   1      35.686  22.538  25.058  1.00  0.00    -0.021 A 
BRANCH  16  17
ATOM     17  C   UNL A   1      34.252  22.650  24.743  1.00  0.00     0.027 C 
ATOM     18  C   UNL A   1      33.141  22.700  25.505  1.00  0.00     0.102 C 
ATOM     19  C   UNL A   1      31.853  22.713  24.757  1.00  0.00     0.264 C 
ATOM     20  C   UNL A   1      32.967  22.725  26.960  1.00  0.00     0.228 C 
ATOM     21  O   UNL A   1      31.758  22.562  23.544  1.00  0.00    -0.269 OA
ATOM     22  N   UNL A   1      30.753  22.920  25.534  1.00  0.00    -0.272 N 
ATOM     23  N   UNL A   1      31.880  22.932  27.603  1.00  0.00    -0.157 NA
ATOM     24  C   UNL A   1      30.734  23.132  26.885  1.00  0.00     0.351 C 
ATOM     25  H   UNL A   1      29.881  22.916  25.076  1.00  0.00     0.175 HD
ATOM     26  O   UNL A   1      29.683  23.493  27.410  1.00  0.00    -0.246 OA
BRANCH  20  27
ATOM     27  O   UNL A   1      34.053  22.482  27.694  1.00  0.00    -0.493 OA
ATOM     28  H   UNL A   1      33.994  21.933  28.452  1.00  0.00     0.295 HD
ENDBRANCH  20  27
ENDBRANCH  16  17
ENDBRANCH   8   9
ENDBRANCH   7   8
ENDBRANCH   5   7
ENDBRANCH   2   3
ENDBRANCH   1   2
BRANCH   1  29
ATOM     29  C   UNL A   1      45.053  23.753  27.891  1.00  0.00     0.023 C 
BRANCH  29  30
ATOM     30  C   UNL A   1      45.037  24.959  26.953  1.00  0.00     0.116 C 
BRANCH  30  31
ATOM     31  N   UNL A   1      43.971  24.895  25.965  1.00  0.00    -0.352 N 
ATOM     32  C   UNL A   1      42.710  25.444  25.994  1.00  0.00     0.251 C 
ATOM     33  H   UNL A   1      44.185  24.382  25.153  1.00  0.00     0.163 HD
ATOM     34  O   UNL A   1      41.896  25.140  25.124  1.00  0.00    -0.269 OA
BRANCH  32  35
ATOM     35  C   UNL A   1      42.317  26.373  27.079  1.00  0.00     0.039 A 
ATOM     36  C   UNL A   1      41.429  25.927  28.061  1.00  0.00     0.014 A 
ATOM     37  C   UNL A   1      42.810  27.680  27.127  1.00  0.00     0.014 A 
ATOM     38  C   UNL A   1      41.099  26.764  29.133  1.00  0.00     0.010 A 
ATOM     39  C   UNL A   1      42.544  28.482  28.236  1.00  0.00     0.010 A 
ATOM     40  C   UNL A   1      41.688  28.034  29.254  1.00  0.00    -0.014 A 
BRANCH  40  41
ATOM     41  C   UNL A   1      41.433  28.892  30.443  1.00  0.00     0.031 A 
ATOM     42  C   UNL A   1      42.262  28.735  31.691  1.00  0.00     0.074 A 
ATOM     43  C   UNL A   1      40.412  29.773  30.423  1.00  0.00     0.049 A 
ATOM     44  N   UNL A   1      42.145  29.346  32.843  1.00  0.00    -0.248 NA
ATOM     45  C   UNL A   1      43.351  27.747  31.647  1.00  0.00     0.031 C 
ATOM     46  C   UNL A   1      39.503  29.988  29.295  1.00  0.00     0.029 A 
ATOM     47  N   UNL A   1      39.956  30.644  31.382  1.00  0.00    -0.354 N 
ATOM     48  C   UNL A   1      43.136  28.813  33.659  1.00  0.00     0.074 A 
ATOM     49  C   UNL A   1      43.806  27.787  32.889  1.00  0.00     0.031 C 
ATOM     50  C   UNL A   1      38.616  30.942  29.618  1.00  0.00     0.029 A 
ATOM     51  C   UNL A   1      38.859  31.376  30.990  1.00  0.00     0.049 A 
ATOM     52  H   UNL A   1      40.376  30.737  32.269  1.00  0.00     0.167 HD
ATOM     53  C   UNL A   1      43.474  29.163  34.924  1.00  0.00     0.037 A 
ATOM     54  C   UNL A   1      38.120  32.283  31.661  1.00  0.00     0.037 A 
ATOM     55  C   UNL A   1      42.809  30.193  35.682  1.00  0.00     0.049 A 
ATOM     56  C   UNL A   1      38.500  32.640  33.073  1.00  0.00     0.074 A 
ATOM     57  C   UNL A   1      43.107  30.651  36.954  1.00  0.00     0.029 A 
ATOM     58  N   UNL A   1      41.711  30.918  35.245  1.00  0.00    -0.354 N 
ATOM     59  N   UNL A   1      39.480  32.169  33.806  1.00  0.00    -0.248 NA
ATOM     60  C   UNL A   1      37.680  33.656  33.746  1.00  0.00     0.031 C 
ATOM     61  C   UNL A   1      42.155  31.613  37.307  1.00  0.00     0.029 A 
ATOM     62  C   UNL A   1      41.303  31.803  36.231  1.00  0.00     0.049 A 
ATOM     63  H   UNL A   1      41.283  30.820  34.363  1.00  0.00     0.167 HD
ATOM     64  C   UNL A   1      39.412  32.852  35.016  1.00  0.00     0.074 A 
ATOM     65  C   UNL A   1      38.303  33.777  34.910  1.00  0.00     0.031 C 
ATOM     66  C   UNL A   1      40.199  32.725  36.114  1.00  0.00     0.037 A 
BRANCH  53  67
ATOM     67  C   UNL A   1      44.618  28.426  35.570  1.00  0.00     0.058 A 
ATOM     68  C   UNL A   1      45.929  28.929  35.546  1.00  0.00     0.135 A 
ATOM     69  C   UNL A   1      44.397  27.219  36.256  1.00  0.00     0.135 A 
ATOM     70  F   UNL A   1      46.204  30.071  34.897  1.00  0.00    -0.206 F 
ATOM     71  C   UNL A   1      46.983  28.247  36.146  1.00  0.00     0.059 A 
ATOM     72  C   UNL A   1      45.430  26.537  36.891  1.00  0.00     0.059 A 
ATOM     73  F   UNL A   1      43.164  26.691  36.314  1.00  0.00    -0.206 F 
ATOM     74  C   UNL A   1      46.724  27.051  36.816  1.00  0.00     0.060 A 
BRANCH  74  75
ATOM     75  S   UNL A   1      48.104  26.179  37.587  1.00  0.00     0.124 S 
ATOM     76  O   UNL A   1      47.506  24.877  37.866  1.00  0.00    -0.237 OA
ATOM     77  O   UNL A   1      49.112  26.200  36.533  1.00  0.00    -0.237 OA
ATOM     78  O   UNL A   1      48.409  26.993  38.760  1.00  0.00    -0.744 OA
ENDBRANCH  74  75
ENDBRANCH  53  67
BRANCH  54  79
ATOM     79  C   UNL A   1      36.950  32.923  30.998  1.00  0.00     0.058 A 
ATOM     80  C   UNL A   1      35.638  32.578  31.352  1.00  0.00     0.135 A 
ATOM     81  C   UNL A   1      37.123  33.903  30.007  1.00  0.00     0.135 A 
ATOM     82  F   UNL A   1      35.419  31.641  32.287  1.00  0.00    -0.206 F 
ATOM     83  C   UNL A   1      34.537  33.169  30.737  1.00  0.00     0.059 A 
ATOM     84  C   UNL A   1      36.039  34.529  29.399  1.00  0.00     0.059 A 
ATOM     85  F   UNL A   1      38.358  34.281  29.642  1.00  0.00    -0.206 F 
ATOM     86  C   UNL A   1      34.749  34.148  29.765  1.00  0.00     0.060 A 
BRANCH  86  87
ATOM     87  S   UNL A   1      33.314  34.945  29.011  1.00  0.00     0.124 S 
ATOM     88  O   UNL A   1      32.883  33.933  28.055  1.00  0.00    -0.237 OA
ATOM     89  O   UNL A   1      32.441  35.150  30.162  1.00  0.00    -0.237 OA
ATOM     90  O   UNL A   1      33.873  36.163  28.432  1.00  0.00    -0.744 OA
ENDBRANCH  86  87
ENDBRANCH  54  79
BRANCH  66  91
ATOM     91  C   UNL A   1      39.918  33.633  37.282  1.00  0.00     0.058 A 
ATOM     92  C   UNL A   1      40.571  34.865  37.441  1.00  0.00     0.135 A 
ATOM     93  C   UNL A   1      38.939  33.286  38.230  1.00  0.00     0.135 A 
ATOM     94  F   UNL A   1      41.520  35.243  36.569  1.00  0.00    -0.206 F 
ATOM     95  C   UNL A   1      40.284  35.709  38.509  1.00  0.00     0.059 A 
ATOM     96  C   UNL A   1      38.612  34.129  39.287  1.00  0.00     0.059 A 
ATOM     97  F   UNL A   1      38.275  32.124  38.122  1.00  0.00    -0.206 F 
ATOM     98  C   UNL A   1      39.298  35.334  39.425  1.00  0.00     0.060 A 
BRANCH  98  99
ATOM     99  S   UNL A   1      38.911  36.456  40.785  1.00  0.00     0.124 S 
ATOM    100  O   UNL A   1      40.202  36.563  41.456  1.00  0.00    -0.237 OA
ATOM    101  O   UNL A   1      38.461  37.654  40.081  1.00  0.00    -0.237 OA
ATOM    102  O   UNL A   1      37.875  35.746  41.528  1.00  0.00    -0.744 OA
ENDBRANCH  98  99
ENDBRANCH  66  91
ENDBRANCH  40  41
ENDBRANCH  32  35
ENDBRANCH  30  31
ENDBRANCH  29  30
ENDBRANCH   1  29
TORSDOF 18
ENDMDL
