MODEL 1
REMARK VINA RESULT:     -12.0      0.000      0.000
REMARK SMILES O=C(NCCCCNC(=O)C1(CCc2ccccn2)CCCCC1)c1ccc(-c2c3nc(c(-c4c(F)cc(S(=O)(=O)[O-])cc4F)c4ccc([nH]4)c(-c4c(F)cc(S(=O)(=O)[O-])cc4F)c4nc(c(-c5c(F)cc(S(=O)(=O)[O-])cc5F)c5ccc2[nH]5)C=C4)C=C3)cc1
REMARK SMILES IDX 5 1 4 2 3 3 1 4 2 5 25 7 26 8 90 9 27 10 89 11 28 12 29 13
REMARK SMILES IDX 30 14 83 15 31 16 88 17 82 18 84 19 32 20 87 21 81 22 80 23
REMARK SMILES IDX 33 25 67 26 46 27 66 28 47 29 50 30 65 31 85 32 48 33 49 34
REMARK SMILES IDX 64 36 86 37 51 38 34 39 35 40 44 41 36 42 37 43 43 44 45 45
REMARK SMILES IDX 38 46 39 47 40 48 41 49 42 50 68 51 69 52 78 53 70 54 71 55
REMARK SMILES IDX 77 56 79 57 72 58 73 59 74 60 75 61 76 62 52 63 53 64 62 65
REMARK SMILES IDX 54 66 55 67 61 68 63 69 56 70 57 71 58 72 59 73 60 74 6 75
REMARK SMILES IDX 7 76 8 77 9 78 10 80 11 81 20 82 24 83 21 84 23 85 22 86
REMARK SMILES IDX 12 87 13 88 14 89 15 90 19 91 16 92 18 93 17 94
REMARK H PARENT 3 6 84 24 50 35 8 79
REMARK Flexibility Score: inf
ROOT
ATOM      1  C   UNL A   1      37.567  23.555  25.567  1.00  0.00     0.023 C 
ENDROOT
BRANCH   1   2
ATOM      2  C   UNL A   1      38.563  24.099  26.579  1.00  0.00     0.116 C 
BRANCH   2   3
ATOM      3  N   UNL A   1      39.920  24.192  26.060  1.00  0.00    -0.352 N 
ATOM      4  O   UNL A   1      41.967  25.084  25.741  1.00  0.00    -0.269 OA
ATOM      5  C   UNL A   1      40.919  25.085  26.373  1.00  0.00     0.251 C 
ATOM      6  H   UNL A   1      40.157  23.518  25.383  1.00  0.00     0.163 HD
BRANCH   5   7
ATOM      7  C   UNL A   1      40.697  26.067  27.455  1.00  0.00     0.039 A 
ATOM      8  C   UNL A   1      41.434  27.253  27.493  1.00  0.00     0.014 A 
ATOM      9  C   UNL A   1      39.770  25.781  28.460  1.00  0.00     0.014 A 
ATOM     10  C   UNL A   1      41.376  28.059  28.620  1.00  0.00     0.010 A 
ATOM     11  C   UNL A   1      39.635  26.652  29.545  1.00  0.00     0.010 A 
ATOM     12  C   UNL A   1      40.464  27.778  29.652  1.00  0.00    -0.014 A 
BRANCH  12  13
ATOM     13  C   UNL A   1      40.361  28.723  30.793  1.00  0.00     0.031 A 
ATOM     14  C   UNL A   1      41.307  28.652  31.960  1.00  0.00     0.074 A 
ATOM     15  C   UNL A   1      39.422  29.687  30.735  1.00  0.00     0.049 A 
ATOM     16  N   UNL A   1      41.366  29.422  33.016  1.00  0.00    -0.248 NA
ATOM     17  C   UNL A   1      42.312  27.577  31.949  1.00  0.00     0.031 C 
ATOM     18  C   UNL A   1      38.441  29.840  29.654  1.00  0.00     0.029 A 
ATOM     19  N   UNL A   1      39.150  30.732  31.576  1.00  0.00    -0.354 N 
ATOM     20  C   UNL A   1      42.391  28.918  33.805  1.00  0.00     0.074 A 
ATOM     21  C   UNL A   1      42.921  27.761  33.115  1.00  0.00     0.031 C 
ATOM     22  C   UNL A   1      37.716  30.946  29.870  1.00  0.00     0.029 A 
ATOM     23  C   UNL A   1      38.132  31.543  31.133  1.00  0.00     0.049 A 
ATOM     24  H   UNL A   1      39.637  30.888  32.418  1.00  0.00     0.167 HD
ATOM     25  C   UNL A   1      42.850  29.383  34.993  1.00  0.00     0.037 A 
ATOM     26  C   UNL A   1      37.579  32.637  31.688  1.00  0.00     0.037 A 
ATOM     27  C   UNL A   1      42.329  30.549  35.659  1.00  0.00     0.049 A 
ATOM     28  C   UNL A   1      38.108  33.128  33.002  1.00  0.00     0.074 A 
ATOM     29  C   UNL A   1      42.745  31.118  36.852  1.00  0.00     0.029 A 
ATOM     30  N   UNL A   1      41.279  31.328  35.193  1.00  0.00    -0.354 N 
ATOM     31  N   UNL A   1      39.090  32.644  33.725  1.00  0.00    -0.248 NA
ATOM     32  C   UNL A   1      37.451  34.306  33.580  1.00  0.00     0.031 C 
ATOM     33  C   UNL A   1      41.926  32.220  37.122  1.00  0.00     0.029 A 
ATOM     34  C   UNL A   1      41.024  32.361  36.080  1.00  0.00     0.049 A 
ATOM     35  H   UNL A   1      40.788  31.169  34.355  1.00  0.00     0.167 HD
ATOM     36  C   UNL A   1      39.170  33.459  34.846  1.00  0.00     0.074 A 
ATOM     37  C   UNL A   1      38.157  34.484  34.690  1.00  0.00     0.031 C 
ATOM     38  C   UNL A   1      40.003  33.365  35.911  1.00  0.00     0.037 A 
BRANCH  25  39
ATOM     39  C   UNL A   1      43.965  28.625  35.662  1.00  0.00     0.058 A 
ATOM     40  C   UNL A   1      45.313  28.895  35.382  1.00  0.00     0.135 A 
ATOM     41  C   UNL A   1      43.681  27.659  36.641  1.00  0.00     0.135 A 
ATOM     42  F   UNL A   1      45.641  29.798  34.443  1.00  0.00    -0.206 F 
ATOM     43  C   UNL A   1      46.341  28.223  36.037  1.00  0.00     0.059 A 
ATOM     44  C   UNL A   1      44.693  26.989  37.324  1.00  0.00     0.059 A 
ATOM     45  F   UNL A   1      42.408  27.362  36.948  1.00  0.00    -0.206 F 
ATOM     46  C   UNL A   1      46.020  27.271  37.007  1.00  0.00     0.060 A 
BRANCH  46  47
ATOM     47  S   UNL A   1      47.365  26.418  37.860  1.00  0.00     0.124 S 
ATOM     48  O   UNL A   1      46.626  25.544  38.766  1.00  0.00    -0.237 OA
ATOM     49  O   UNL A   1      48.060  25.751  36.763  1.00  0.00    -0.237 OA
ATOM     50  O   UNL A   1      48.105  27.503  38.498  1.00  0.00    -0.744 OA
ENDBRANCH  46  47
ENDBRANCH  25  39
BRANCH  26  51
ATOM     51  C   UNL A   1      36.455  33.321  31.000  1.00  0.00     0.058 A 
ATOM     52  C   UNL A   1      35.143  33.224  31.484  1.00  0.00     0.135 A 
ATOM     53  C   UNL A   1      36.681  34.117  29.866  1.00  0.00     0.135 A 
ATOM     54  F   UNL A   1      34.880  32.473  32.565  1.00  0.00    -0.206 F 
ATOM     55  C   UNL A   1      34.089  33.884  30.860  1.00  0.00     0.059 A 
ATOM     56  C   UNL A   1      35.648  34.808  29.242  1.00  0.00     0.059 A 
ATOM     57  F   UNL A   1      37.923  34.258  29.379  1.00  0.00    -0.206 F 
ATOM     58  C   UNL A   1      34.353  34.675  29.741  1.00  0.00     0.060 A 
BRANCH  58  59
ATOM     59  S   UNL A   1      32.991  35.574  28.968  1.00  0.00     0.124 S 
ATOM     60  O   UNL A   1      32.215  35.984  30.132  1.00  0.00    -0.237 OA
ATOM     61  O   UNL A   1      33.688  36.641  28.256  1.00  0.00    -0.237 OA
ATOM     62  O   UNL A   1      32.370  34.567  28.114  1.00  0.00    -0.744 OA
ENDBRANCH  58  59
ENDBRANCH  26  51
BRANCH  38  63
ATOM     63  C   UNL A   1      39.852  34.405  36.982  1.00  0.00     0.058 A 
ATOM     64  C   UNL A   1      39.026  34.191  38.096  1.00  0.00     0.135 A 
ATOM     65  C   UNL A   1      40.550  35.619  36.902  1.00  0.00     0.135 A 
ATOM     66  F   UNL A   1      38.330  33.049  38.212  1.00  0.00    -0.206 F 
ATOM     67  C   UNL A   1      38.877  35.158  39.084  1.00  0.00     0.059 A 
ATOM     68  C   UNL A   1      40.434  36.592  37.889  1.00  0.00     0.059 A 
ATOM     69  F   UNL A   1      41.357  35.867  35.859  1.00  0.00    -0.206 F 
ATOM     70  C   UNL A   1      39.583  36.357  38.969  1.00  0.00     0.060 A 
BRANCH  70  71
ATOM     71  S   UNL A   1      39.396  37.602  40.264  1.00  0.00     0.124 S 
ATOM     72  O   UNL A   1      38.894  36.797  41.372  1.00  0.00    -0.237 OA
ATOM     73  O   UNL A   1      40.757  38.108  40.413  1.00  0.00    -0.237 OA
ATOM     74  O   UNL A   1      38.443  38.546  39.689  1.00  0.00    -0.744 OA
ENDBRANCH  70  71
ENDBRANCH  38  63
ENDBRANCH  12  13
ENDBRANCH   5   7
ENDBRANCH   2   3
ENDBRANCH   1   2
BRANCH   1  75
ATOM     75  C   UNL A   1      37.631  22.050  25.350  1.00  0.00     0.023 C 
BRANCH  75  76
ATOM     76  C   UNL A   1      36.368  21.416  24.777  1.00  0.00     0.116 C 
BRANCH  76  77
ATOM     77  N   UNL A   1      35.741  22.181  23.713  1.00  0.00    -0.356 N 
ATOM     78  C   UNL A   1      34.524  22.791  23.627  1.00  0.00     0.226 C 
ATOM     79  H   UNL A   1      36.295  22.276  22.905  1.00  0.00     0.163 HD
ATOM     80  O   UNL A   1      34.344  23.539  22.661  1.00  0.00    -0.274 OA
BRANCH  78  81
ATOM     81  C   UNL A   1      33.419  22.571  24.686  1.00  0.00     0.050 C 
ATOM     82  C   UNL A   1      33.727  23.498  25.901  1.00  0.00     0.017 C 
ATOM     83  C   UNL A   1      32.056  23.075  24.116  1.00  0.00     0.017 C 
ATOM     84  C   UNL A   1      32.629  23.547  26.957  1.00  0.00     0.001 C 
ATOM     85  C   UNL A   1      30.930  23.082  25.153  1.00  0.00     0.001 C 
ATOM     86  C   UNL A   1      31.287  23.939  26.362  1.00  0.00     0.000 C 
BRANCH  81  87
ATOM     87  C   UNL A   1      33.325  21.054  25.058  1.00  0.00     0.023 C 
BRANCH  87  88
ATOM     88  C   UNL A   1      32.725  20.092  24.007  1.00  0.00     0.057 C 
BRANCH  88  89
ATOM     89  C   UNL A   1      32.897  18.620  24.287  1.00  0.00     0.040 A 
ATOM     90  C   UNL A   1      33.678  17.824  23.451  1.00  0.00     0.024 A 
ATOM     91  N   UNL A   1      32.262  18.120  25.374  1.00  0.00    -0.261 NA
ATOM     92  C   UNL A   1      33.845  16.477  23.760  1.00  0.00     0.003 A 
ATOM     93  C   UNL A   1      32.441  16.806  25.648  1.00  0.00     0.111 A 
ATOM     94  C   UNL A   1      33.221  15.955  24.884  1.00  0.00     0.020 A 
ENDBRANCH  88  89
ENDBRANCH  87  88
ENDBRANCH  81  87
ENDBRANCH  78  81
ENDBRANCH  76  77
ENDBRANCH  75  76
ENDBRANCH   1  75
TORSDOF 17
ENDMDL
MODEL 2
REMARK VINA RESULT:     -12.0      7.198     12.574
REMARK SMILES O=C(NCCCCNC(=O)C1(CCc2ccccn2)CCCCC1)c1ccc(-c2c3nc(c(-c4c(F)cc(S(=O)(=O)[O-])cc4F)c4ccc([nH]4)c(-c4c(F)cc(S(=O)(=O)[O-])cc4F)c4nc(c(-c5c(F)cc(S(=O)(=O)[O-])cc5F)c5ccc2[nH]5)C=C4)C=C3)cc1
REMARK SMILES IDX 5 1 4 2 3 3 1 4 2 5 25 7 26 8 90 9 27 10 89 11 28 12 29 13
REMARK SMILES IDX 30 14 83 15 31 16 88 17 82 18 84 19 32 20 87 21 81 22 80 23
REMARK SMILES IDX 33 25 67 26 46 27 66 28 47 29 50 30 65 31 85 32 48 33 49 34
REMARK SMILES IDX 64 36 86 37 51 38 34 39 35 40 44 41 36 42 37 43 43 44 45 45
REMARK SMILES IDX 38 46 39 47 40 48 41 49 42 50 68 51 69 52 78 53 70 54 71 55
REMARK SMILES IDX 77 56 79 57 72 58 73 59 74 60 75 61 76 62 52 63 53 64 62 65
REMARK SMILES IDX 54 66 55 67 61 68 63 69 56 70 57 71 58 72 59 73 60 74 6 75
REMARK SMILES IDX 7 76 8 77 9 78 10 80 11 81 20 82 24 83 21 84 23 85 22 86
REMARK SMILES IDX 12 87 13 88 14 89 15 90 19 91 16 92 18 93 17 94
REMARK H PARENT 3 6 84 24 50 35 8 79
REMARK Flexibility Score: inf
ROOT
ATOM      1  C   UNL A   1      34.233  30.358  26.942  1.00  0.00     0.023 C 
ENDROOT
BRANCH   1   2
ATOM      2  C   UNL A   1      35.232  29.565  27.769  1.00  0.00     0.116 C 
BRANCH   2   3
ATOM      3  N   UNL A   1      35.250  29.948  29.174  1.00  0.00    -0.352 N 
ATOM      4  O   UNL A   1      36.072  30.140  31.265  1.00  0.00    -0.269 OA
ATOM      5  C   UNL A   1      36.278  29.883  30.086  1.00  0.00     0.251 C 
ATOM      6  H   UNL A   1      34.401  30.304  29.522  1.00  0.00     0.163 HD
BRANCH   5   7
ATOM      7  C   UNL A   1      37.621  29.465  29.633  1.00  0.00     0.039 A 
ATOM      8  C   UNL A   1      38.495  28.826  30.515  1.00  0.00     0.014 A 
ATOM      9  C   UNL A   1      38.022  29.749  28.325  1.00  0.00     0.014 A 
ATOM     10  C   UNL A   1      39.820  28.636  30.148  1.00  0.00     0.010 A 
ATOM     11  C   UNL A   1      39.329  29.458  27.923  1.00  0.00     0.010 A 
ATOM     12  C   UNL A   1      40.249  28.933  28.843  1.00  0.00    -0.014 A 
BRANCH  12  13
ATOM     13  C   UNL A   1      41.648  28.619  28.462  1.00  0.00     0.031 A 
ATOM     14  C   UNL A   1      42.736  29.654  28.541  1.00  0.00     0.074 A 
ATOM     15  C   UNL A   1      41.935  27.357  28.085  1.00  0.00     0.049 A 
ATOM     16  N   UNL A   1      44.010  29.528  28.271  1.00  0.00    -0.248 NA
ATOM     17  C   UNL A   1      42.348  31.009  28.968  1.00  0.00     0.031 C 
ATOM     18  C   UNL A   1      40.952  26.274  27.959  1.00  0.00     0.029 A 
ATOM     19  N   UNL A   1      43.125  26.760  27.767  1.00  0.00    -0.354 N 
ATOM     20  C   UNL A   1      44.573  30.781  28.472  1.00  0.00     0.074 A 
ATOM     21  C   UNL A   1      43.498  31.665  28.871  1.00  0.00     0.031 C 
ATOM     22  C   UNL A   1      41.588  25.137  27.648  1.00  0.00     0.029 A 
ATOM     23  C   UNL A   1      43.008  25.419  27.486  1.00  0.00     0.049 A 
ATOM     24  H   UNL A   1      43.982  27.245  27.741  1.00  0.00     0.167 HD
ATOM     25  C   UNL A   1      45.869  31.156  28.341  1.00  0.00     0.037 A 
ATOM     26  C   UNL A   1      43.937  24.517  27.121  1.00  0.00     0.037 A 
ATOM     27  C   UNL A   1      46.935  30.262  27.964  1.00  0.00     0.049 A 
ATOM     28  C   UNL A   1      45.362  24.961  26.984  1.00  0.00     0.074 A 
ATOM     29  C   UNL A   1      48.285  30.538  27.832  1.00  0.00     0.029 A 
ATOM     30  N   UNL A   1      46.773  28.917  27.661  1.00  0.00    -0.354 N 
ATOM     31  N   UNL A   1      45.877  26.149  27.194  1.00  0.00    -0.248 NA
ATOM     32  C   UNL A   1      46.332  23.946  26.554  1.00  0.00     0.031 C 
ATOM     33  C   UNL A   1      48.934  29.369  27.417  1.00  0.00     0.029 A 
ATOM     34  C   UNL A   1      47.994  28.355  27.326  1.00  0.00     0.049 A 
ATOM     35  H   UNL A   1      45.915  28.433  27.681  1.00  0.00     0.167 HD
ATOM     36  C   UNL A   1      47.233  26.026  26.922  1.00  0.00     0.074 A 
ATOM     37  C   UNL A   1      47.462  24.642  26.561  1.00  0.00     0.031 C 
ATOM     38  C   UNL A   1      48.199  26.975  26.961  1.00  0.00     0.037 A 
BRANCH  25  39
ATOM     39  C   UNL A   1      46.213  32.599  28.591  1.00  0.00     0.058 A 
ATOM     40  C   UNL A   1      46.608  33.054  29.859  1.00  0.00     0.135 A 
ATOM     41  C   UNL A   1      46.209  33.525  27.536  1.00  0.00     0.135 A 
ATOM     42  F   UNL A   1      46.616  32.215  30.907  1.00  0.00    -0.206 F 
ATOM     43  C   UNL A   1      46.969  34.381  30.075  1.00  0.00     0.059 A 
ATOM     44  C   UNL A   1      46.587  34.852  27.724  1.00  0.00     0.059 A 
ATOM     45  F   UNL A   1      45.841  33.143  26.303  1.00  0.00    -0.206 F 
ATOM     46  C   UNL A   1      46.955  35.273  29.001  1.00  0.00     0.060 A 
BRANCH  46  47
ATOM     47  S   UNL A   1      47.442  36.988  29.294  1.00  0.00     0.124 S 
ATOM     48  O   UNL A   1      48.825  36.826  29.732  1.00  0.00    -0.237 OA
ATOM     49  O   UNL A   1      47.261  37.595  27.980  1.00  0.00    -0.237 OA
ATOM     50  O   UNL A   1      46.507  37.435  30.323  1.00  0.00    -0.744 OA
ENDBRANCH  46  47
ENDBRANCH  25  39
BRANCH  26  51
ATOM     51  C   UNL A   1      43.532  23.115  26.849  1.00  0.00     0.058 A 
ATOM     52  C   UNL A   1      43.544  22.597  25.546  1.00  0.00     0.135 A 
ATOM     53  C   UNL A   1      43.162  22.255  27.895  1.00  0.00     0.135 A 
ATOM     54  F   UNL A   1      43.890  23.383  24.515  1.00  0.00    -0.206 F 
ATOM     55  C   UNL A   1      43.191  21.277  25.287  1.00  0.00     0.059 A 
ATOM     56  C   UNL A   1      42.831  20.925  27.664  1.00  0.00     0.059 A 
ATOM     57  F   UNL A   1      43.156  22.699  29.161  1.00  0.00    -0.206 F 
ATOM     58  C   UNL A   1      42.838  20.448  26.353  1.00  0.00     0.060 A 
BRANCH  58  59
ATOM     59  S   UNL A   1      42.435  18.720  26.019  1.00  0.00     0.124 S 
ATOM     60  O   UNL A   1      43.336  18.420  24.913  1.00  0.00    -0.237 OA
ATOM     61  O   UNL A   1      42.747  18.076  27.291  1.00  0.00    -0.237 OA
ATOM     62  O   UNL A   1      41.015  18.769  25.684  1.00  0.00    -0.744 OA
ENDBRANCH  58  59
ENDBRANCH  26  51
BRANCH  38  63
ATOM     63  C   UNL A   1      49.591  26.538  26.610  1.00  0.00     0.058 A 
ATOM     64  C   UNL A   1      50.042  26.531  25.281  1.00  0.00     0.135 A 
ATOM     65  C   UNL A   1      50.488  26.137  27.613  1.00  0.00     0.135 A 
ATOM     66  F   UNL A   1      49.218  26.896  24.286  1.00  0.00    -0.206 F 
ATOM     67  C   UNL A   1      51.328  26.116  24.954  1.00  0.00     0.059 A 
ATOM     68  C   UNL A   1      51.786  25.740  27.311  1.00  0.00     0.059 A 
ATOM     69  F   UNL A   1      50.105  26.133  28.899  1.00  0.00    -0.206 F 
ATOM     70  C   UNL A   1      52.191  25.718  25.977  1.00  0.00     0.060 A 
BRANCH  70  71
ATOM     71  S   UNL A   1      53.865  25.195  25.545  1.00  0.00     0.124 S 
ATOM     72  O   UNL A   1      53.602  24.000  24.752  1.00  0.00    -0.237 OA
ATOM     73  O   UNL A   1      54.374  26.348  24.808  1.00  0.00    -0.237 OA
ATOM     74  O   UNL A   1      54.492  24.964  26.843  1.00  0.00    -0.744 OA
ENDBRANCH  70  71
ENDBRANCH  38  63
ENDBRANCH  12  13
ENDBRANCH   5   7
ENDBRANCH   2   3
ENDBRANCH   1   2
BRANCH   1  75
ATOM     75  C   UNL A   1      32.792  29.876  27.039  1.00  0.00     0.023 C 
BRANCH  75  76
ATOM     76  C   UNL A   1      32.062  29.723  25.710  1.00  0.00     0.116 C 
BRANCH  76  77
ATOM     77  N   UNL A   1      32.928  29.712  24.544  1.00  0.00    -0.356 N 
ATOM     78  C   UNL A   1      33.325  28.704  23.715  1.00  0.00     0.226 C 
ATOM     79  H   UNL A   1      33.299  30.593  24.309  1.00  0.00     0.163 HD
ATOM     80  O   UNL A   1      33.915  29.034  22.681  1.00  0.00    -0.274 OA
BRANCH  78  81
ATOM     81  C   UNL A   1      33.047  27.217  24.038  1.00  0.00     0.050 C 
ATOM     82  C   UNL A   1      33.788  26.349  22.976  1.00  0.00     0.017 C 
ATOM     83  C   UNL A   1      33.711  26.857  25.404  1.00  0.00     0.017 C 
ATOM     84  C   UNL A   1      33.776  24.852  23.260  1.00  0.00     0.001 C 
ATOM     85  C   UNL A   1      33.662  25.361  25.726  1.00  0.00     0.001 C 
ATOM     86  C   UNL A   1      34.331  24.531  24.638  1.00  0.00     0.000 C 
BRANCH  81  87
ATOM     87  C   UNL A   1      31.504  26.959  24.099  1.00  0.00     0.023 C 
BRANCH  87  88
ATOM     88  C   UNL A   1      30.682  27.214  22.814  1.00  0.00     0.057 C 
BRANCH  88  89
ATOM     89  C   UNL A   1      29.635  28.295  22.907  1.00  0.00     0.040 A 
ATOM     90  C   UNL A   1      28.301  27.974  23.154  1.00  0.00     0.024 A 
ATOM     91  N   UNL A   1      30.050  29.574  22.738  1.00  0.00    -0.261 NA
ATOM     92  C   UNL A   1      27.367  29.000  23.269  1.00  0.00     0.003 A 
ATOM     93  C   UNL A   1      29.119  30.550  22.853  1.00  0.00     0.111 A 
ATOM     94  C   UNL A   1      27.782  30.316  23.123  1.00  0.00     0.020 A 
ENDBRANCH  88  89
ENDBRANCH  87  88
ENDBRANCH  81  87
ENDBRANCH  78  81
ENDBRANCH  76  77
ENDBRANCH  75  76
ENDBRANCH   1  75
TORSDOF 17
ENDMDL
MODEL 3
REMARK VINA RESULT:     -11.9      3.663      9.577
REMARK SMILES O=C(NCCCCNC(=O)C1(CCc2ccccn2)CCCCC1)c1ccc(-c2c3nc(c(-c4c(F)cc(S(=O)(=O)[O-])cc4F)c4ccc([nH]4)c(-c4c(F)cc(S(=O)(=O)[O-])cc4F)c4nc(c(-c5c(F)cc(S(=O)(=O)[O-])cc5F)c5ccc2[nH]5)C=C4)C=C3)cc1
REMARK SMILES IDX 5 1 4 2 3 3 1 4 2 5 25 7 26 8 90 9 27 10 89 11 28 12 29 13
REMARK SMILES IDX 30 14 83 15 31 16 88 17 82 18 84 19 32 20 87 21 81 22 80 23
REMARK SMILES IDX 33 25 67 26 46 27 66 28 47 29 50 30 65 31 85 32 48 33 49 34
REMARK SMILES IDX 64 36 86 37 51 38 34 39 35 40 44 41 36 42 37 43 43 44 45 45
REMARK SMILES IDX 38 46 39 47 40 48 41 49 42 50 68 51 69 52 78 53 70 54 71 55
REMARK SMILES IDX 77 56 79 57 72 58 73 59 74 60 75 61 76 62 52 63 53 64 62 65
REMARK SMILES IDX 54 66 55 67 61 68 63 69 56 70 57 71 58 72 59 73 60 74 6 75
REMARK SMILES IDX 7 76 8 77 9 78 10 80 11 81 20 82 24 83 21 84 23 85 22 86
REMARK SMILES IDX 12 87 13 88 14 89 15 90 19 91 16 92 18 93 17 94
REMARK H PARENT 3 6 84 24 50 35 8 79
REMARK Flexibility Score: inf
ROOT
ATOM      1  C   UNL A   1      31.575  32.378  26.489  1.00  0.00     0.023 C 
ENDROOT
BRANCH   1   2
ATOM      2  C   UNL A   1      32.758  32.830  27.329  1.00  0.00     0.116 C 
BRANCH   2   3
ATOM      3  N   UNL A   1      32.659  34.216  27.765  1.00  0.00    -0.352 N 
ATOM      4  O   UNL A   1      33.091  36.034  29.028  1.00  0.00    -0.269 OA
ATOM      5  C   UNL A   1      33.399  34.894  28.706  1.00  0.00     0.251 C 
ATOM      6  H   UNL A   1      31.958  34.746  27.321  1.00  0.00     0.163 HD
BRANCH   5   7
ATOM      7  C   UNL A   1      34.545  34.217  29.349  1.00  0.00     0.039 A 
ATOM      8  C   UNL A   1      34.346  33.398  30.461  1.00  0.00     0.014 A 
ATOM      9  C   UNL A   1      35.834  34.434  28.855  1.00  0.00     0.014 A 
ATOM     10  C   UNL A   1      35.441  32.946  31.184  1.00  0.00     0.010 A 
ATOM     11  C   UNL A   1      36.933  33.888  29.524  1.00  0.00     0.010 A 
ATOM     12  C   UNL A   1      36.747  33.171  30.715  1.00  0.00    -0.014 A 
BRANCH  12  13
ATOM     13  C   UNL A   1      37.887  32.583  31.463  1.00  0.00     0.031 A 
ATOM     14  C   UNL A   1      38.272  33.083  32.828  1.00  0.00     0.074 A 
ATOM     15  C   UNL A   1      38.544  31.547  30.906  1.00  0.00     0.049 A 
ATOM     16  N   UNL A   1      39.222  32.654  33.620  1.00  0.00    -0.248 NA
ATOM     17  C   UNL A   1      37.504  34.212  33.375  1.00  0.00     0.031 C 
ATOM     18  C   UNL A   1      38.262  30.990  29.578  1.00  0.00     0.029 A 
ATOM     19  N   UNL A   1      39.557  30.761  31.384  1.00  0.00    -0.354 N 
ATOM     20  C   UNL A   1      39.183  33.469  34.744  1.00  0.00     0.074 A 
ATOM     21  C   UNL A   1      38.125  34.432  34.527  1.00  0.00     0.031 C 
ATOM     22  C   UNL A   1      39.041  29.920  29.374  1.00  0.00     0.029 A 
ATOM     23  C   UNL A   1      39.923  29.753  30.522  1.00  0.00     0.049 A 
ATOM     24  H   UNL A   1      39.983  30.903  32.260  1.00  0.00     0.167 HD
ATOM     25  C   UNL A   1      39.957  33.411  35.856  1.00  0.00     0.037 A 
ATOM     26  C   UNL A   1      40.875  28.809  30.633  1.00  0.00     0.037 A 
ATOM     27  C   UNL A   1      40.993  32.433  36.069  1.00  0.00     0.049 A 
ATOM     28  C   UNL A   1      41.714  28.770  31.875  1.00  0.00     0.074 A 
ATOM     29  C   UNL A   1      41.813  32.273  37.174  1.00  0.00     0.029 A 
ATOM     30  N   UNL A   1      41.353  31.446  35.162  1.00  0.00    -0.354 N 
ATOM     31  N   UNL A   1      41.651  29.541  32.934  1.00  0.00    -0.248 NA
ATOM     32  C   UNL A   1      42.759  27.741  31.934  1.00  0.00     0.031 C 
ATOM     33  C   UNL A   1      42.689  31.212  36.921  1.00  0.00     0.029 A 
ATOM     34  C   UNL A   1      42.391  30.686  35.674  1.00  0.00     0.049 A 
ATOM     35  H   UNL A   1      40.931  31.307  34.283  1.00  0.00     0.167 HD
ATOM     36  C   UNL A   1      42.648  29.090  33.789  1.00  0.00     0.074 A 
ATOM     37  C   UNL A   1      43.279  27.962  33.135  1.00  0.00     0.031 C 
ATOM     38  C   UNL A   1      43.012  29.571  35.002  1.00  0.00     0.037 A 
BRANCH  25  39
ATOM     39  C   UNL A   1      39.727  34.443  36.927  1.00  0.00     0.058 A 
ATOM     40  C   UNL A   1      38.969  34.159  38.074  1.00  0.00     0.135 A 
ATOM     41  C   UNL A   1      40.324  35.710  36.834  1.00  0.00     0.135 A 
ATOM     42  F   UNL A   1      38.364  32.968  38.207  1.00  0.00    -0.206 F 
ATOM     43  C   UNL A   1      38.798  35.102  39.083  1.00  0.00     0.059 A 
ATOM     44  C   UNL A   1      40.183  36.662  37.841  1.00  0.00     0.059 A 
ATOM     45  F   UNL A   1      41.059  36.034  35.759  1.00  0.00    -0.206 F 
ATOM     46  C   UNL A   1      39.409  36.351  38.958  1.00  0.00     0.060 A 
BRANCH  46  47
ATOM     47  S   UNL A   1      39.189  37.558  40.284  1.00  0.00     0.124 S 
ATOM     48  O   UNL A   1      40.555  38.040  40.466  1.00  0.00    -0.237 OA
ATOM     49  O   UNL A   1      38.256  38.511  39.691  1.00  0.00    -0.237 OA
ATOM     50  O   UNL A   1      38.653  36.762  41.383  1.00  0.00    -0.744 OA
ENDBRANCH  46  47
ENDBRANCH  25  39
BRANCH  26  51
ATOM     51  C   UNL A   1      41.082  27.842  29.527  1.00  0.00     0.058 A 
ATOM     52  C   UNL A   1      42.176  27.958  28.658  1.00  0.00     0.135 A 
ATOM     53  C   UNL A   1      40.209  26.758  29.342  1.00  0.00     0.135 A 
ATOM     54  F   UNL A   1      43.037  28.979  28.796  1.00  0.00    -0.206 F 
ATOM     55  C   UNL A   1      42.391  27.041  27.635  1.00  0.00     0.059 A 
ATOM     56  C   UNL A   1      40.418  25.814  28.344  1.00  0.00     0.059 A 
ATOM     57  F   UNL A   1      39.160  26.592  30.162  1.00  0.00    -0.206 F 
ATOM     58  C   UNL A   1      41.507  25.971  27.488  1.00  0.00     0.060 A 
BRANCH  58  59
ATOM     59  S   UNL A   1      41.822  24.750  26.195  1.00  0.00     0.124 S 
ATOM     60  O   UNL A   1      40.610  23.943  26.254  1.00  0.00    -0.237 OA
ATOM     61  O   UNL A   1      41.976  25.587  25.009  1.00  0.00    -0.237 OA
ATOM     62  O   UNL A   1      43.044  24.093  26.649  1.00  0.00    -0.744 OA
ENDBRANCH  58  59
ENDBRANCH  26  51
BRANCH  38  63
ATOM     63  C   UNL A   1      44.140  28.868  35.698  1.00  0.00     0.058 A 
ATOM     64  C   UNL A   1      43.903  27.801  36.578  1.00  0.00     0.135 A 
ATOM     65  C   UNL A   1      45.471  29.252  35.470  1.00  0.00     0.135 A 
ATOM     66  F   UNL A   1      42.648  27.403  36.837  1.00  0.00    -0.206 F 
ATOM     67  C   UNL A   1      44.947  27.155  37.232  1.00  0.00     0.059 A 
ATOM     68  C   UNL A   1      46.532  28.605  36.095  1.00  0.00     0.059 A 
ATOM     69  F   UNL A   1      45.748  30.262  34.631  1.00  0.00    -0.206 F 
ATOM     70  C   UNL A   1      46.258  27.568  36.985  1.00  0.00     0.060 A 
BRANCH  70  71
ATOM     71  S   UNL A   1      47.609  26.714  37.826  1.00  0.00     0.124 S 
ATOM     72  O   UNL A   1      47.289  25.317  37.549  1.00  0.00    -0.237 OA
ATOM     73  O   UNL A   1      48.788  27.241  37.144  1.00  0.00    -0.237 OA
ATOM     74  O   UNL A   1      47.459  27.131  39.216  1.00  0.00    -0.744 OA
ENDBRANCH  70  71
ENDBRANCH  38  63
ENDBRANCH  12  13
ENDBRANCH   5   7
ENDBRANCH   2   3
ENDBRANCH   1   2
BRANCH   1  75
ATOM     75  C   UNL A   1      31.423  30.870  26.352  1.00  0.00     0.023 C 
BRANCH  75  76
ATOM     76  C   UNL A   1      32.726  30.080  26.319  1.00  0.00     0.116 C 
BRANCH  76  77
ATOM     77  N   UNL A   1      33.280  29.886  24.990  1.00  0.00    -0.356 N 
ATOM     78  C   UNL A   1      32.996  28.982  24.010  1.00  0.00     0.226 C 
ATOM     79  H   UNL A   1      33.991  30.525  24.753  1.00  0.00     0.163 HD
ATOM     80  O   UNL A   1      33.501  29.187  22.901  1.00  0.00    -0.274 OA
BRANCH  78  81
ATOM     81  C   UNL A   1      32.083  27.759  24.260  1.00  0.00     0.050 C 
ATOM     82  C   UNL A   1      32.523  26.625  23.284  1.00  0.00     0.017 C 
ATOM     83  C   UNL A   1      32.355  27.200  25.692  1.00  0.00     0.017 C 
ATOM     84  C   UNL A   1      31.850  25.280  23.529  1.00  0.00     0.001 C 
ATOM     85  C   UNL A   1      31.644  25.874  25.970  1.00  0.00     0.001 C 
ATOM     86  C   UNL A   1      32.038  24.804  24.959  1.00  0.00     0.000 C 
BRANCH  81  87
ATOM     87  C   UNL A   1      30.581  28.171  24.113  1.00  0.00     0.023 C 
BRANCH  87  88
ATOM     88  C   UNL A   1      30.053  28.468  22.690  1.00  0.00     0.057 C 
BRANCH  88  89
ATOM     89  C   UNL A   1      29.356  29.793  22.510  1.00  0.00     0.040 A 
ATOM     90  C   UNL A   1      29.122  30.628  23.601  1.00  0.00     0.024 A 
ATOM     91  N   UNL A   1      28.974  30.124  21.253  1.00  0.00    -0.261 NA
ATOM     92  C   UNL A   1      28.509  31.860  23.392  1.00  0.00     0.003 A 
ATOM     93  C   UNL A   1      28.378  31.328  21.081  1.00  0.00     0.111 A 
ATOM     94  C   UNL A   1      28.134  32.224  22.107  1.00  0.00     0.020 A 
ENDBRANCH  88  89
ENDBRANCH  87  88
ENDBRANCH  81  87
ENDBRANCH  78  81
ENDBRANCH  76  77
ENDBRANCH  75  76
ENDBRANCH   1  75
TORSDOF 17
ENDMDL
