MODEL 1
REMARK VINA RESULT:     -11.8      0.000      0.000
REMARK SMILES O=C(NCCCCNC(=O)c1[nH]nc2c1CCC2)c1ccc(-c2c3nc(c(-c4c(F)cc(S(=O)(=O)[O-])cc4F)c4ccc([nH]4)c(-c4c(F)cc(S(=O)(=O)[O-])cc4F)c4nc(c(-c5c(F)cc(S(=O)(=O)[O-])cc5F)c5ccc2[nH]5)C=C4)C=C3)cc1
REMARK SMILES IDX 4 1 3 2 1 3 2 4 19 6 20 7 84 8 21 9 83 10 22 11 23 12 24 13
REMARK SMILES IDX 77 14 25 15 82 16 76 17 78 18 26 19 81 20 75 21 74 22 27 24
REMARK SMILES IDX 61 25 40 26 60 27 41 28 44 29 59 30 79 31 42 32 43 33 58 35
REMARK SMILES IDX 80 36 45 37 28 38 29 39 38 40 30 41 31 42 37 43 39 44 32 45
REMARK SMILES IDX 33 46 34 47 35 48 36 49 62 50 63 51 72 52 64 53 65 54 71 55
REMARK SMILES IDX 73 56 66 57 67 58 68 59 69 60 70 61 46 62 47 63 56 64 48 65
REMARK SMILES IDX 49 66 55 67 57 68 50 69 51 70 52 71 53 72 54 73 5 74 6 75
REMARK SMILES IDX 7 76 8 77 9 78 10 80 11 81 12 82 15 83 13 84 14 86 16 87
REMARK SMILES IDX 18 88 17 89
REMARK H PARENT 3 5 78 23 44 34 8 79 12 85
REMARK Flexibility Score: inf
ROOT
ATOM      1  C   UNL A   1      41.486  20.389  26.164  1.00  0.00     0.116 C 
ENDROOT
BRANCH   1   2
ATOM      2  N   UNL A   1      40.096  20.783  26.059  1.00  0.00    -0.352 N 
ATOM      3  O   UNL A   1      38.248  21.991  25.881  1.00  0.00    -0.269 OA
ATOM      4  C   UNL A   1      39.438  21.975  26.206  1.00  0.00     0.251 C 
ATOM      5  H   UNL A   1      39.497  20.035  25.835  1.00  0.00     0.163 HD
BRANCH   4   6
ATOM      6  C   UNL A   1      40.043  23.190  26.808  1.00  0.00     0.039 A 
ATOM      7  C   UNL A   1      41.079  23.192  27.746  1.00  0.00     0.014 A 
ATOM      8  C   UNL A   1      39.474  24.415  26.422  1.00  0.00     0.014 A 
ATOM      9  C   UNL A   1      41.427  24.359  28.410  1.00  0.00     0.010 A 
ATOM     10  C   UNL A   1      39.857  25.594  27.045  1.00  0.00     0.010 A 
ATOM     11  C   UNL A   1      40.786  25.548  28.085  1.00  0.00    -0.014 A 
BRANCH  11  12
ATOM     12  C   UNL A   1      41.179  26.759  28.801  1.00  0.00     0.031 A 
ATOM     13  C   UNL A   1      42.440  27.415  28.324  1.00  0.00     0.074 A 
ATOM     14  C   UNL A   1      40.335  27.323  29.687  1.00  0.00     0.049 A 
ATOM     15  N   UNL A   1      43.445  27.871  29.003  1.00  0.00    -0.248 NA
ATOM     16  C   UNL A   1      42.631  27.502  26.863  1.00  0.00     0.031 C 
ATOM     17  C   UNL A   1      38.961  26.909  29.999  1.00  0.00     0.029 A 
ATOM     18  N   UNL A   1      40.466  28.483  30.384  1.00  0.00    -0.354 N 
ATOM     19  C   UNL A   1      44.298  28.474  28.075  1.00  0.00     0.074 A 
ATOM     20  C   UNL A   1      43.815  28.102  26.772  1.00  0.00     0.031 C 
ATOM     21  C   UNL A   1      38.315  27.934  30.594  1.00  0.00     0.029 A 
ATOM     22  C   UNL A   1      39.258  29.019  30.806  1.00  0.00     0.049 A 
ATOM     23  H   UNL A   1      41.336  28.903  30.571  1.00  0.00     0.167 HD
ATOM     24  C   UNL A   1      45.232  29.405  28.416  1.00  0.00     0.037 A 
ATOM     25  C   UNL A   1      39.030  30.304  31.174  1.00  0.00     0.037 A 
ATOM     26  C   UNL A   1      45.591  29.324  29.804  1.00  0.00     0.049 A 
ATOM     27  C   UNL A   1      40.347  30.914  31.492  1.00  0.00     0.074 A 
ATOM     28  C   UNL A   1      46.169  28.354  30.600  1.00  0.00     0.029 A 
ATOM     29  N   UNL A   1      45.070  30.249  30.673  1.00  0.00    -0.354 N 
ATOM     30  N   UNL A   1      41.110  30.539  32.484  1.00  0.00    -0.248 NA
ATOM     31  C   UNL A   1      41.023  31.650  30.434  1.00  0.00     0.031 C 
ATOM     32  C   UNL A   1      45.529  28.486  31.865  1.00  0.00     0.029 A 
ATOM     33  C   UNL A   1      44.630  29.549  31.768  1.00  0.00     0.049 A 
ATOM     34  H   UNL A   1      45.023  31.223  30.539  1.00  0.00     0.167 HD
ATOM     35  C   UNL A   1      42.408  30.636  31.999  1.00  0.00     0.074 A 
ATOM     36  C   UNL A   1      42.294  31.404  30.761  1.00  0.00     0.031 C 
ATOM     37  C   UNL A   1      43.418  29.859  32.494  1.00  0.00     0.037 A 
BRANCH  24  38
ATOM     38  C   UNL A   1      45.577  30.597  27.553  1.00  0.00     0.058 A 
ATOM     39  C   UNL A   1      46.915  30.833  27.179  1.00  0.00     0.135 A 
ATOM     40  C   UNL A   1      44.683  31.669  27.327  1.00  0.00     0.135 A 
ATOM     41  F   UNL A   1      47.852  29.887  27.353  1.00  0.00    -0.206 F 
ATOM     42  C   UNL A   1      47.348  32.071  26.693  1.00  0.00     0.059 A 
ATOM     43  C   UNL A   1      45.082  32.890  26.796  1.00  0.00     0.059 A 
ATOM     44  F   UNL A   1      43.401  31.618  27.707  1.00  0.00    -0.206 F 
ATOM     45  C   UNL A   1      46.425  33.099  26.530  1.00  0.00     0.060 A 
BRANCH  45  46
ATOM     46  S   UNL A   1      46.998  34.741  26.056  1.00  0.00     0.124 S 
ATOM     47  O   UNL A   1      47.471  35.261  27.334  1.00  0.00    -0.237 OA
ATOM     48  O   UNL A   1      48.029  34.431  25.069  1.00  0.00    -0.237 OA
ATOM     49  O   UNL A   1      45.797  35.375  25.520  1.00  0.00    -0.744 OA
ENDBRANCH  45  46
ENDBRANCH  24  38
BRANCH  25  50
ATOM     50  C   UNL A   1      37.818  31.103  30.843  1.00  0.00     0.058 A 
ATOM     51  C   UNL A   1      37.043  31.716  31.842  1.00  0.00     0.135 A 
ATOM     52  C   UNL A   1      37.529  31.484  29.514  1.00  0.00     0.135 A 
ATOM     53  F   UNL A   1      37.277  31.445  33.135  1.00  0.00    -0.206 F 
ATOM     54  C   UNL A   1      36.052  32.660  31.542  1.00  0.00     0.059 A 
ATOM     55  C   UNL A   1      36.537  32.406  29.190  1.00  0.00     0.059 A 
ATOM     56  F   UNL A   1      38.265  31.034  28.487  1.00  0.00    -0.206 F 
ATOM     57  C   UNL A   1      35.813  33.005  30.211  1.00  0.00     0.060 A 
BRANCH  57  58
ATOM     58  S   UNL A   1      34.631  34.318  29.822  1.00  0.00     0.124 S 
ATOM     59  O   UNL A   1      34.542  35.028  31.092  1.00  0.00    -0.237 OA
ATOM     60  O   UNL A   1      35.305  35.027  28.740  1.00  0.00    -0.237 OA
ATOM     61  O   UNL A   1      33.429  33.587  29.430  1.00  0.00    -0.744 OA
ENDBRANCH  57  58
ENDBRANCH  25  50
BRANCH  37  62
ATOM     62  C   UNL A   1      43.153  29.044  33.734  1.00  0.00     0.058 A 
ATOM     63  C   UNL A   1      42.511  27.793  33.716  1.00  0.00     0.135 A 
ATOM     64  C   UNL A   1      43.734  29.443  34.945  1.00  0.00     0.135 A 
ATOM     65  F   UNL A   1      42.032  27.283  32.575  1.00  0.00    -0.206 F 
ATOM     66  C   UNL A   1      42.420  26.990  34.853  1.00  0.00     0.059 A 
ATOM     67  C   UNL A   1      43.683  28.646  36.087  1.00  0.00     0.059 A 
ATOM     68  F   UNL A   1      44.424  30.595  35.013  1.00  0.00    -0.206 F 
ATOM     69  C   UNL A   1      43.017  27.422  36.035  1.00  0.00     0.060 A 
BRANCH  69  70
ATOM     70  S   UNL A   1      42.999  26.326  37.471  1.00  0.00     0.124 S 
ATOM     71  O   UNL A   1      43.576  25.100  36.930  1.00  0.00    -0.237 OA
ATOM     72  O   UNL A   1      43.831  27.047  38.431  1.00  0.00    -0.237 OA
ATOM     73  O   UNL A   1      41.583  26.248  37.823  1.00  0.00    -0.744 OA
ENDBRANCH  69  70
ENDBRANCH  37  62
ENDBRANCH  11  12
ENDBRANCH   4   6
ENDBRANCH   1   2
BRANCH   1  74
ATOM     74  C   UNL A   1      41.757  19.186  27.070  1.00  0.00     0.023 C 
BRANCH  74  75
ATOM     75  C   UNL A   1      43.149  18.570  26.937  1.00  0.00     0.023 C 
BRANCH  75  76
ATOM     76  C   UNL A   1      43.760  18.643  25.544  1.00  0.00     0.116 C 
BRANCH  76  77
ATOM     77  N   UNL A   1      45.212  18.674  25.560  1.00  0.00    -0.351 N 
ATOM     78  C   UNL A   1      46.041  19.669  25.110  1.00  0.00     0.269 C 
ATOM     79  H   UNL A   1      45.657  17.883  25.943  1.00  0.00     0.163 HD
ATOM     80  O   UNL A   1      47.249  19.450  25.030  1.00  0.00    -0.268 OA
BRANCH  78  81
ATOM     81  C   UNL A   1      45.453  20.903  24.689  1.00  0.00     0.126 A 
ATOM     82  N   UNL A   1      44.893  21.067  23.436  1.00  0.00    -0.272 N 
ATOM     83  C   UNL A   1      45.281  22.122  25.293  1.00  0.00     0.006 A 
ATOM     84  N   UNL A   1      44.250  22.254  23.264  1.00  0.00    -0.180 NA
ATOM     85  H   UNL A   1      44.954  20.384  22.730  1.00  0.00     0.190 HD
ATOM     86  C   UNL A   1      44.500  22.867  24.411  1.00  0.00     0.066 A 
ATOM     87  C   UNL A   1      45.555  22.867  26.535  1.00  0.00     0.040 C 
ATOM     88  C   UNL A   1      44.078  24.165  24.970  1.00  0.00     0.059 C 
ATOM     89  C   UNL A   1      44.457  23.979  26.480  1.00  0.00     0.011 C 
ENDBRANCH  78  81
ENDBRANCH  76  77
ENDBRANCH  75  76
ENDBRANCH  74  75
ENDBRANCH   1  74
TORSDOF 14
ENDMDL
MODEL 2
REMARK VINA RESULT:     -11.7      3.315     11.956
REMARK SMILES O=C(NCCCCNC(=O)c1[nH]nc2c1CCC2)c1ccc(-c2c3nc(c(-c4c(F)cc(S(=O)(=O)[O-])cc4F)c4ccc([nH]4)c(-c4c(F)cc(S(=O)(=O)[O-])cc4F)c4nc(c(-c5c(F)cc(S(=O)(=O)[O-])cc5F)c5ccc2[nH]5)C=C4)C=C3)cc1
REMARK SMILES IDX 4 1 3 2 1 3 2 4 19 6 20 7 84 8 21 9 83 10 22 11 23 12 24 13
REMARK SMILES IDX 77 14 25 15 82 16 76 17 78 18 26 19 81 20 75 21 74 22 27 24
REMARK SMILES IDX 61 25 40 26 60 27 41 28 44 29 59 30 79 31 42 32 43 33 58 35
REMARK SMILES IDX 80 36 45 37 28 38 29 39 38 40 30 41 31 42 37 43 39 44 32 45
REMARK SMILES IDX 33 46 34 47 35 48 36 49 62 50 63 51 72 52 64 53 65 54 71 55
REMARK SMILES IDX 73 56 66 57 67 58 68 59 69 60 70 61 46 62 47 63 56 64 48 65
REMARK SMILES IDX 49 66 55 67 57 68 50 69 51 70 52 71 53 72 54 73 5 74 6 75
REMARK SMILES IDX 7 76 8 77 9 78 10 80 11 81 12 82 15 83 13 84 14 86 16 87
REMARK SMILES IDX 18 88 17 89
REMARK H PARENT 3 5 78 23 44 34 8 79 12 85
REMARK Flexibility Score: inf
ROOT
ATOM      1  C   UNL A   1      34.025  33.314  28.566  1.00  0.00     0.116 C 
ENDROOT
BRANCH   1   2
ATOM      2  N   UNL A   1      33.824  32.187  27.680  1.00  0.00    -0.352 N 
ATOM      3  O   UNL A   1      33.952  30.184  26.742  1.00  0.00    -0.269 OA
ATOM      4  C   UNL A   1      34.497  31.012  27.476  1.00  0.00     0.251 C 
ATOM      5  H   UNL A   1      33.035  32.287  27.099  1.00  0.00     0.163 HD
BRANCH   4   6
ATOM      6  C   UNL A   1      35.856  30.730  28.005  1.00  0.00     0.039 A 
ATOM      7  C   UNL A   1      36.723  31.685  28.543  1.00  0.00     0.014 A 
ATOM      8  C   UNL A   1      36.295  29.401  27.894  1.00  0.00     0.014 A 
ATOM      9  C   UNL A   1      38.047  31.366  28.808  1.00  0.00     0.010 A 
ATOM     10  C   UNL A   1      37.603  29.064  28.208  1.00  0.00     0.010 A 
ATOM     11  C   UNL A   1      38.492  30.066  28.601  1.00  0.00    -0.014 A 
BRANCH  11  12
ATOM     12  C   UNL A   1      39.890  29.764  28.893  1.00  0.00     0.031 A 
ATOM     13  C   UNL A   1      40.264  29.758  30.345  1.00  0.00     0.074 A 
ATOM     14  C   UNL A   1      40.706  29.329  27.912  1.00  0.00     0.049 A 
ATOM     15  N   UNL A   1      41.281  30.296  30.941  1.00  0.00    -0.248 NA
ATOM     16  C   UNL A   1      39.312  29.115  31.272  1.00  0.00     0.031 C 
ATOM     17  C   UNL A   1      40.346  29.027  26.521  1.00  0.00     0.029 A 
ATOM     18  N   UNL A   1      41.998  28.912  27.987  1.00  0.00    -0.354 N 
ATOM     19  C   UNL A   1      41.201  29.898  32.278  1.00  0.00     0.074 A 
ATOM     20  C   UNL A   1      39.910  29.289  32.449  1.00  0.00     0.031 C 
ATOM     21  C   UNL A   1      41.300  28.239  25.979  1.00  0.00     0.029 A 
ATOM     22  C   UNL A   1      42.377  28.085  26.941  1.00  0.00     0.049 A 
ATOM     23  H   UNL A   1      42.606  29.172  28.716  1.00  0.00     0.167 HD
ATOM     24  C   UNL A   1      42.270  29.907  33.123  1.00  0.00     0.037 A 
ATOM     25  C   UNL A   1      43.433  27.233  26.928  1.00  0.00     0.037 A 
ATOM     26  C   UNL A   1      43.299  30.807  32.681  1.00  0.00     0.049 A 
ATOM     27  C   UNL A   1      44.362  27.662  28.006  1.00  0.00     0.074 A 
ATOM     28  C   UNL A   1      43.368  32.170  32.471  1.00  0.00     0.029 A 
ATOM     29  N   UNL A   1      44.412  30.285  32.073  1.00  0.00    -0.354 N 
ATOM     30  N   UNL A   1      45.005  28.800  28.012  1.00  0.00    -0.248 NA
ATOM     31  C   UNL A   1      44.236  27.014  29.303  1.00  0.00     0.031 C 
ATOM     32  C   UNL A   1      44.220  32.325  31.340  1.00  0.00     0.029 A 
ATOM     33  C   UNL A   1      44.641  31.052  30.958  1.00  0.00     0.049 A 
ATOM     34  H   UNL A   1      44.943  29.514  32.376  1.00  0.00     0.167 HD
ATOM     35  C   UNL A   1      45.014  29.203  29.341  1.00  0.00     0.074 A 
ATOM     36  C   UNL A   1      44.600  28.023  30.097  1.00  0.00     0.031 C 
ATOM     37  C   UNL A   1      45.092  30.522  29.690  1.00  0.00     0.037 A 
BRANCH  24  38
ATOM     38  C   UNL A   1      42.509  28.852  34.179  1.00  0.00     0.058 A 
ATOM     39  C   UNL A   1      42.803  27.527  33.799  1.00  0.00     0.135 A 
ATOM     40  C   UNL A   1      42.172  29.034  35.540  1.00  0.00     0.135 A 
ATOM     41  F   UNL A   1      43.131  27.236  32.530  1.00  0.00    -0.206 F 
ATOM     42  C   UNL A   1      42.691  26.453  34.686  1.00  0.00     0.059 A 
ATOM     43  C   UNL A   1      42.106  27.987  36.452  1.00  0.00     0.059 A 
ATOM     44  F   UNL A   1      41.791  30.222  36.025  1.00  0.00    -0.206 F 
ATOM     45  C   UNL A   1      42.317  26.694  36.005  1.00  0.00     0.060 A 
BRANCH  45  46
ATOM     46  S   UNL A   1      42.016  25.304  37.112  1.00  0.00     0.124 S 
ATOM     47  O   UNL A   1      40.878  25.791  37.883  1.00  0.00    -0.237 OA
ATOM     48  O   UNL A   1      41.737  24.221  36.174  1.00  0.00    -0.237 OA
ATOM     49  O   UNL A   1      43.272  25.181  37.846  1.00  0.00    -0.744 OA
ENDBRANCH  45  46
ENDBRANCH  24  38
BRANCH  25  50
ATOM     50  C   UNL A   1      43.443  25.866  26.338  1.00  0.00     0.058 A 
ATOM     51  C   UNL A   1      44.324  25.516  25.301  1.00  0.00     0.135 A 
ATOM     52  C   UNL A   1      42.747  24.798  26.946  1.00  0.00     0.135 A 
ATOM     53  F   UNL A   1      45.057  26.462  24.694  1.00  0.00    -0.206 F 
ATOM     54  C   UNL A   1      44.514  24.187  24.902  1.00  0.00     0.059 A 
ATOM     55  C   UNL A   1      42.906  23.471  26.555  1.00  0.00     0.059 A 
ATOM     56  F   UNL A   1      41.950  25.002  28.005  1.00  0.00    -0.206 F 
ATOM     57  C   UNL A   1      43.806  23.169  25.543  1.00  0.00     0.060 A 
BRANCH  57  58
ATOM     58  S   UNL A   1      44.143  21.442  25.127  1.00  0.00     0.124 S 
ATOM     59  O   UNL A   1      45.322  21.162  25.937  1.00  0.00    -0.237 OA
ATOM     60  O   UNL A   1      42.911  20.781  25.543  1.00  0.00    -0.237 OA
ATOM     61  O   UNL A   1      44.371  21.478  23.685  1.00  0.00    -0.744 OA
ENDBRANCH  57  58
ENDBRANCH  25  50
BRANCH  37  62
ATOM     62  C   UNL A   1      45.390  31.532  28.611  1.00  0.00     0.058 A 
ATOM     63  C   UNL A   1      44.403  32.098  27.784  1.00  0.00     0.135 A 
ATOM     64  C   UNL A   1      46.675  32.088  28.539  1.00  0.00     0.135 A 
ATOM     65  F   UNL A   1      43.126  31.706  27.874  1.00  0.00    -0.206 F 
ATOM     66  C   UNL A   1      44.682  33.142  26.904  1.00  0.00     0.059 A 
ATOM     67  C   UNL A   1      46.972  33.153  27.690  1.00  0.00     0.059 A 
ATOM     68  F   UNL A   1      47.647  31.642  29.352  1.00  0.00    -0.206 F 
ATOM     69  C   UNL A   1      45.970  33.670  26.869  1.00  0.00     0.060 A 
BRANCH  69  70
ATOM     70  S   UNL A   1      46.297  35.101  25.815  1.00  0.00     0.124 S 
ATOM     71  O   UNL A   1      47.753  35.088  25.722  1.00  0.00    -0.237 OA
ATOM     72  O   UNL A   1      45.582  34.760  24.587  1.00  0.00    -0.237 OA
ATOM     73  O   UNL A   1      45.728  36.216  26.567  1.00  0.00    -0.744 OA
ENDBRANCH  69  70
ENDBRANCH  37  62
ENDBRANCH  11  12
ENDBRANCH   4   6
ENDBRANCH   1   2
BRANCH   1  74
ATOM     74  C   UNL A   1      34.473  34.608  27.886  1.00  0.00     0.023 C 
BRANCH  74  75
ATOM     75  C   UNL A   1      34.110  35.895  28.627  1.00  0.00     0.023 C 
BRANCH  75  76
ATOM     76  C   UNL A   1      32.936  35.778  29.590  1.00  0.00     0.116 C 
BRANCH  76  77
ATOM     77  N   UNL A   1      32.955  36.786  30.636  1.00  0.00    -0.351 N 
ATOM     78  C   UNL A   1      33.180  36.608  31.976  1.00  0.00     0.269 C 
ATOM     79  H   UNL A   1      32.786  37.712  30.346  1.00  0.00     0.163 HD
ATOM     80  O   UNL A   1      32.975  37.545  32.746  1.00  0.00    -0.268 OA
BRANCH  78  81
ATOM     81  C   UNL A   1      33.584  35.313  32.430  1.00  0.00     0.126 A 
ATOM     82  N   UNL A   1      32.696  34.416  32.991  1.00  0.00    -0.272 N 
ATOM     83  C   UNL A   1      34.785  34.651  32.450  1.00  0.00     0.006 A 
ATOM     84  N   UNL A   1      33.223  33.183  33.227  1.00  0.00    -0.180 NA
ATOM     85  H   UNL A   1      31.763  34.648  33.202  1.00  0.00     0.190 HD
ATOM     86  C   UNL A   1      34.489  33.359  32.882  1.00  0.00     0.066 A 
ATOM     87  C   UNL A   1      36.213  34.797  32.115  1.00  0.00     0.040 C 
ATOM     88  C   UNL A   1      35.648  32.450  32.814  1.00  0.00     0.059 C 
ATOM     89  C   UNL A   1      36.650  33.303  31.963  1.00  0.00     0.011 C 
ENDBRANCH  78  81
ENDBRANCH  76  77
ENDBRANCH  75  76
ENDBRANCH  74  75
ENDBRANCH   1  74
TORSDOF 14
ENDMDL
MODEL 3
REMARK VINA RESULT:     -11.6      3.445     11.919
REMARK SMILES O=C(NCCCCNC(=O)c1[nH]nc2c1CCC2)c1ccc(-c2c3nc(c(-c4c(F)cc(S(=O)(=O)[O-])cc4F)c4ccc([nH]4)c(-c4c(F)cc(S(=O)(=O)[O-])cc4F)c4nc(c(-c5c(F)cc(S(=O)(=O)[O-])cc5F)c5ccc2[nH]5)C=C4)C=C3)cc1
REMARK SMILES IDX 4 1 3 2 1 3 2 4 19 6 20 7 84 8 21 9 83 10 22 11 23 12 24 13
REMARK SMILES IDX 77 14 25 15 82 16 76 17 78 18 26 19 81 20 75 21 74 22 27 24
REMARK SMILES IDX 61 25 40 26 60 27 41 28 44 29 59 30 79 31 42 32 43 33 58 35
REMARK SMILES IDX 80 36 45 37 28 38 29 39 38 40 30 41 31 42 37 43 39 44 32 45
REMARK SMILES IDX 33 46 34 47 35 48 36 49 62 50 63 51 72 52 64 53 65 54 71 55
REMARK SMILES IDX 73 56 66 57 67 58 68 59 69 60 70 61 46 62 47 63 56 64 48 65
REMARK SMILES IDX 49 66 55 67 57 68 50 69 51 70 52 71 53 72 54 73 5 74 6 75
REMARK SMILES IDX 7 76 8 77 9 78 10 80 11 81 12 82 15 83 13 84 14 86 16 87
REMARK SMILES IDX 18 88 17 89
REMARK H PARENT 3 5 78 23 44 34 8 79 12 85
REMARK Flexibility Score: inf
ROOT
ATOM      1  C   UNL A   1      34.139  33.168  28.973  1.00  0.00     0.116 C 
ENDROOT
BRANCH   1   2
ATOM      2  N   UNL A   1      33.968  32.080  28.031  1.00  0.00    -0.352 N 
ATOM      3  O   UNL A   1      34.145  30.129  26.999  1.00  0.00    -0.269 OA
ATOM      4  C   UNL A   1      34.667  30.932  27.776  1.00  0.00     0.251 C 
ATOM      5  H   UNL A   1      33.180  32.191  27.451  1.00  0.00     0.163 HD
BRANCH   4   6
ATOM      6  C   UNL A   1      36.029  30.653  28.299  1.00  0.00     0.039 A 
ATOM      7  C   UNL A   1      36.864  31.595  28.906  1.00  0.00     0.014 A 
ATOM      8  C   UNL A   1      36.505  29.346  28.109  1.00  0.00     0.014 A 
ATOM      9  C   UNL A   1      38.195  31.296  29.164  1.00  0.00     0.010 A 
ATOM     10  C   UNL A   1      37.820  29.026  28.415  1.00  0.00     0.010 A 
ATOM     11  C   UNL A   1      38.677  30.024  28.880  1.00  0.00    -0.014 A 
BRANCH  11  12
ATOM     12  C   UNL A   1      40.080  29.742  29.167  1.00  0.00     0.031 A 
ATOM     13  C   UNL A   1      40.433  29.611  30.618  1.00  0.00     0.074 A 
ATOM     14  C   UNL A   1      40.925  29.429  28.164  1.00  0.00     0.049 A 
ATOM     15  N   UNL A   1      41.422  30.124  31.280  1.00  0.00    -0.248 NA
ATOM     16  C   UNL A   1      39.491  28.852  31.464  1.00  0.00     0.031 C 
ATOM     17  C   UNL A   1      40.596  29.248  26.744  1.00  0.00     0.029 A 
ATOM     18  N   UNL A   1      42.229  29.050  28.221  1.00  0.00    -0.354 N 
ATOM     19  C   UNL A   1      41.338  29.598  32.572  1.00  0.00     0.074 A 
ATOM     20  C   UNL A   1      40.065  28.933  32.662  1.00  0.00     0.031 C 
ATOM     21  C   UNL A   1      41.583  28.548  26.147  1.00  0.00     0.029 A 
ATOM     22  C   UNL A   1      42.652  28.338  27.109  1.00  0.00     0.049 A 
ATOM     23  H   UNL A   1      42.817  29.260  28.982  1.00  0.00     0.167 HD
ATOM     24  C   UNL A   1      42.393  29.562  33.432  1.00  0.00     0.037 A 
ATOM     25  C   UNL A   1      43.737  27.527  27.034  1.00  0.00     0.037 A 
ATOM     26  C   UNL A   1      43.396  30.533  33.095  1.00  0.00     0.049 A 
ATOM     27  C   UNL A   1      44.634  27.882  28.164  1.00  0.00     0.074 A 
ATOM     28  C   UNL A   1      43.422  31.912  33.016  1.00  0.00     0.029 A 
ATOM     29  N   UNL A   1      44.536  30.108  32.460  1.00  0.00    -0.354 N 
ATOM     30  N   UNL A   1      45.237  29.035  28.288  1.00  0.00    -0.248 NA
ATOM     31  C   UNL A   1      44.512  27.111  29.392  1.00  0.00     0.031 C 
ATOM     32  C   UNL A   1      44.283  32.202  31.919  1.00  0.00     0.029 A 
ATOM     33  C   UNL A   1      44.754  30.984  31.426  1.00  0.00     0.049 A 
ATOM     34  H   UNL A   1      45.088  29.330  32.699  1.00  0.00     0.167 HD
ATOM     35  C   UNL A   1      45.214  29.310  29.649  1.00  0.00     0.074 A 
ATOM     36  C   UNL A   1      44.830  28.051  30.284  1.00  0.00     0.031 C 
ATOM     37  C   UNL A   1      45.241  30.592  30.122  1.00  0.00     0.037 A 
BRANCH  24  38
ATOM     38  C   UNL A   1      42.653  28.420  34.388  1.00  0.00     0.058 A 
ATOM     39  C   UNL A   1      42.727  28.665  35.775  1.00  0.00     0.135 A 
ATOM     40  C   UNL A   1      43.119  27.153  33.968  1.00  0.00     0.135 A 
ATOM     41  F   UNL A   1      42.317  29.837  36.286  1.00  0.00    -0.206 F 
ATOM     42  C   UNL A   1      43.297  27.750  36.665  1.00  0.00     0.059 A 
ATOM     43  C   UNL A   1      43.640  26.208  34.843  1.00  0.00     0.059 A 
ATOM     44  F   UNL A   1      43.185  26.813  32.675  1.00  0.00    -0.206 F 
ATOM     45  C   UNL A   1      43.772  26.535  36.182  1.00  0.00     0.060 A 
BRANCH  45  46
ATOM     46  S   UNL A   1      44.649  25.419  37.293  1.00  0.00     0.124 S 
ATOM     47  O   UNL A   1      44.121  24.124  36.877  1.00  0.00    -0.237 OA
ATOM     48  O   UNL A   1      46.044  25.681  36.951  1.00  0.00    -0.237 OA
ATOM     49  O   UNL A   1      44.239  25.873  38.618  1.00  0.00    -0.744 OA
ENDBRANCH  45  46
ENDBRANCH  24  38
BRANCH  25  50
ATOM     50  C   UNL A   1      43.801  26.223  26.318  1.00  0.00     0.058 A 
ATOM     51  C   UNL A   1      44.839  25.927  25.418  1.00  0.00     0.135 A 
ATOM     52  C   UNL A   1      42.972  25.141  26.685  1.00  0.00     0.135 A 
ATOM     53  F   UNL A   1      45.700  26.886  25.046  1.00  0.00    -0.206 F 
ATOM     54  C   UNL A   1      45.049  24.633  24.924  1.00  0.00     0.059 A 
ATOM     55  C   UNL A   1      43.151  23.850  26.194  1.00  0.00     0.059 A 
ATOM     56  F   UNL A   1      42.008  25.286  27.607  1.00  0.00    -0.206 F 
ATOM     57  C   UNL A   1      44.204  23.598  25.327  1.00  0.00     0.060 A 
BRANCH  57  58
ATOM     58  S   UNL A   1      44.547  21.902  24.801  1.00  0.00     0.124 S 
ATOM     59  O   UNL A   1      45.850  21.657  25.408  1.00  0.00    -0.237 OA
ATOM     60  O   UNL A   1      43.425  21.169  25.378  1.00  0.00    -0.237 OA
ATOM     61  O   UNL A   1      44.545  21.991  23.343  1.00  0.00    -0.744 OA
ENDBRANCH  57  58
ENDBRANCH  25  50
BRANCH  37  62
ATOM     62  C   UNL A   1      45.520  31.709  29.149  1.00  0.00     0.058 A 
ATOM     63  C   UNL A   1      46.817  32.130  28.803  1.00  0.00     0.135 A 
ATOM     64  C   UNL A   1      44.460  32.236  28.399  1.00  0.00     0.135 A 
ATOM     65  F   UNL A   1      47.892  31.590  29.389  1.00  0.00    -0.206 F 
ATOM     66  C   UNL A   1      47.049  33.055  27.786  1.00  0.00     0.059 A 
ATOM     67  C   UNL A   1      44.669  33.138  27.356  1.00  0.00     0.059 A 
ATOM     68  F   UNL A   1      43.202  31.822  28.629  1.00  0.00    -0.206 F 
ATOM     69  C   UNL A   1      45.968  33.549  27.061  1.00  0.00     0.060 A 
BRANCH  69  70
ATOM     70  S   UNL A   1      46.285  34.654  25.667  1.00  0.00     0.124 S 
ATOM     71  O   UNL A   1      46.088  35.969  26.266  1.00  0.00    -0.237 OA
ATOM     72  O   UNL A   1      47.661  34.323  25.306  1.00  0.00    -0.237 OA
ATOM     73  O   UNL A   1      45.281  34.259  24.682  1.00  0.00    -0.744 OA
ENDBRANCH  69  70
ENDBRANCH  37  62
ENDBRANCH  11  12
ENDBRANCH   4   6
ENDBRANCH   1   2
BRANCH   1  74
ATOM     74  C   UNL A   1      34.844  34.407  28.418  1.00  0.00     0.023 C 
BRANCH  74  75
ATOM     75  C   UNL A   1      34.030  35.700  28.474  1.00  0.00     0.023 C 
BRANCH  75  76
ATOM     76  C   UNL A   1      32.888  35.704  29.482  1.00  0.00     0.116 C 
BRANCH  76  77
ATOM     77  N   UNL A   1      32.986  36.784  30.449  1.00  0.00    -0.351 N 
ATOM     78  C   UNL A   1      33.256  36.695  31.790  1.00  0.00     0.269 C 
ATOM     79  H   UNL A   1      32.841  37.692  30.097  1.00  0.00     0.163 HD
ATOM     80  O   UNL A   1      33.116  37.693  32.494  1.00  0.00    -0.268 OA
BRANCH  78  81
ATOM     81  C   UNL A   1      33.628  35.421  32.323  1.00  0.00     0.126 A 
ATOM     82  N   UNL A   1      32.705  34.550  32.872  1.00  0.00    -0.272 N 
ATOM     83  C   UNL A   1      34.823  34.758  32.443  1.00  0.00     0.006 A 
ATOM     84  N   UNL A   1      33.213  33.329  33.192  1.00  0.00    -0.180 NA
ATOM     85  H   UNL A   1      31.763  34.793  33.018  1.00  0.00     0.190 HD
ATOM     86  C   UNL A   1      34.498  33.487  32.914  1.00  0.00     0.066 A 
ATOM     87  C   UNL A   1      36.269  34.887  32.184  1.00  0.00     0.040 C 
ATOM     88  C   UNL A   1      35.655  32.575  32.954  1.00  0.00     0.059 C 
ATOM     89  C   UNL A   1      36.708  33.387  32.124  1.00  0.00     0.011 C 
ENDBRANCH  78  81
ENDBRANCH  76  77
ENDBRANCH  75  76
ENDBRANCH  74  75
ENDBRANCH   1  74
TORSDOF 14
ENDMDL
