MODEL 1
REMARK VINA RESULT:     -12.7      0.000      0.000
REMARK SMILES O=C(NCCCCNC(=O)c1c(F)cccc1NC(=O)c1ccc(Cl)nc1)c1ccc(-c2c3nc(c(-c4c(F)cc(S(=O)(=O)[O-])cc4F)c4ccc([nH]4)c(-c4c(F)cc(S(=O)(=O)[O-])cc4F)c4nc(c(-c5c(F)cc(S(=O)(=O)[O-])cc5F)c5ccc2[nH]5)C=C4)C=C3)cc1
REMARK SMILES IDX 5 1 4 2 3 3 1 4 2 5 28 7 29 8 93 9 30 10 92 11 31 12 32 13
REMARK SMILES IDX 33 14 86 15 34 16 91 17 85 18 87 19 35 20 90 21 84 22 83 23
REMARK SMILES IDX 36 25 70 26 49 27 69 28 50 29 53 30 68 31 88 32 51 33 52 34
REMARK SMILES IDX 67 36 89 37 54 38 37 39 38 40 47 41 39 42 40 43 46 44 48 45
REMARK SMILES IDX 41 46 42 47 43 48 44 49 45 50 71 51 72 52 81 53 73 54 74 55
REMARK SMILES IDX 80 56 82 57 75 58 76 59 77 60 78 61 79 62 55 63 56 64 65 65
REMARK SMILES IDX 57 66 58 67 64 68 66 69 59 70 60 71 61 72 62 73 63 74 6 75
REMARK SMILES IDX 7 76 8 77 9 78 10 80 11 81 12 82 17 83 13 84 14 85 16 86
REMARK SMILES IDX 15 87 18 88 19 89 20 91 21 92 22 93 27 94 23 95 26 96 24 97
REMARK SMILES IDX 25 98
REMARK H PARENT 3 6 87 24 53 35 8 79 18 90
REMARK Flexibility Score: inf
ROOT
ATOM      1  C   UNL A   1      34.733  30.816  27.856  1.00  0.00     0.023 C 
ENDROOT
BRANCH   1   2
ATOM      2  C   UNL A   1      35.664  31.474  28.871  1.00  0.00     0.116 C 
BRANCH   2   3
ATOM      3  N   UNL A   1      35.587  30.884  30.201  1.00  0.00    -0.352 N 
ATOM      4  O   UNL A   1      36.281  29.724  32.005  1.00  0.00    -0.269 OA
ATOM      5  C   UNL A   1      36.561  30.233  30.924  1.00  0.00     0.251 C 
ATOM      6  H   UNL A   1      34.714  30.964  30.648  1.00  0.00     0.163 HD
BRANCH   5   7
ATOM      7  C   UNL A   1      37.929  30.110  30.375  1.00  0.00     0.039 A 
ATOM      8  C   UNL A   1      38.156  30.169  28.999  1.00  0.00     0.014 A 
ATOM      9  C   UNL A   1      38.996  29.897  31.254  1.00  0.00     0.014 A 
ATOM     10  C   UNL A   1      39.411  29.844  28.495  1.00  0.00     0.010 A 
ATOM     11  C   UNL A   1      40.275  29.645  30.747  1.00  0.00     0.010 A 
ATOM     12  C   UNL A   1      40.481  29.563  29.362  1.00  0.00    -0.014 A 
BRANCH  12  13
ATOM     13  C   UNL A   1      41.793  29.173  28.786  1.00  0.00     0.031 A 
ATOM     14  C   UNL A   1      42.962  30.120  28.817  1.00  0.00     0.074 A 
ATOM     15  C   UNL A   1      41.951  27.923  28.310  1.00  0.00     0.049 A 
ATOM     16  N   UNL A   1      44.197  29.914  28.437  1.00  0.00    -0.248 NA
ATOM     17  C   UNL A   1      42.715  31.476  29.335  1.00  0.00     0.031 C 
ATOM     18  C   UNL A   1      40.892  26.915  28.225  1.00  0.00     0.029 A 
ATOM     19  N   UNL A   1      43.068  27.274  27.851  1.00  0.00    -0.354 N 
ATOM     20  C   UNL A   1      44.868  31.112  28.648  1.00  0.00     0.074 A 
ATOM     21  C   UNL A   1      43.900  32.049  29.176  1.00  0.00     0.031 C 
ATOM     22  C   UNL A   1      41.425  25.755  27.813  1.00  0.00     0.029 A 
ATOM     23  C   UNL A   1      42.851  25.947  27.566  1.00  0.00     0.049 A 
ATOM     24  H   UNL A   1      43.941  27.715  27.736  1.00  0.00     0.167 HD
ATOM     25  C   UNL A   1      46.173  31.404  28.429  1.00  0.00     0.037 A 
ATOM     26  C   UNL A   1      43.705  24.986  27.167  1.00  0.00     0.037 A 
ATOM     27  C   UNL A   1      47.144  30.465  27.930  1.00  0.00     0.049 A 
ATOM     28  C   UNL A   1      45.154  25.319  26.974  1.00  0.00     0.074 A 
ATOM     29  C   UNL A   1      48.487  30.672  27.663  1.00  0.00     0.029 A 
ATOM     30  N   UNL A   1      46.880  29.135  27.639  1.00  0.00    -0.354 N 
ATOM     31  N   UNL A   1      45.763  26.466  27.156  1.00  0.00    -0.248 NA
ATOM     32  C   UNL A   1      46.031  24.233  26.516  1.00  0.00     0.031 C 
ATOM     33  C   UNL A   1      49.032  29.469  27.199  1.00  0.00     0.029 A 
ATOM     34  C   UNL A   1      48.034  28.508  27.199  1.00  0.00     0.049 A 
ATOM     35  H   UNL A   1      46.002  28.700  27.731  1.00  0.00     0.167 HD
ATOM     36  C   UNL A   1      47.094  26.241  26.833  1.00  0.00     0.074 A 
ATOM     37  C   UNL A   1      47.208  24.844  26.464  1.00  0.00     0.031 C 
ATOM     38  C   UNL A   1      48.128  27.119  26.833  1.00  0.00     0.037 A 
BRANCH  25  39
ATOM     39  C   UNL A   1      46.627  32.805  28.719  1.00  0.00     0.058 A 
ATOM     40  C   UNL A   1      46.600  33.785  27.717  1.00  0.00     0.135 A 
ATOM     41  C   UNL A   1      47.113  33.170  29.984  1.00  0.00     0.135 A 
ATOM     42  F   UNL A   1      46.135  33.488  26.493  1.00  0.00    -0.206 F 
ATOM     43  C   UNL A   1      47.043  35.082  27.955  1.00  0.00     0.059 A 
ATOM     44  C   UNL A   1      47.547  34.466  30.250  1.00  0.00     0.059 A 
ATOM     45  F   UNL A   1      47.135  32.275  30.984  1.00  0.00    -0.206 F 
ATOM     46  C   UNL A   1      47.517  35.413  29.225  1.00  0.00     0.060 A 
BRANCH  46  47
ATOM     47  S   UNL A   1      48.027  37.116  29.550  1.00  0.00     0.124 S 
ATOM     48  O   UNL A   1      47.183  37.862  28.624  1.00  0.00    -0.237 OA
ATOM     49  O   UNL A   1      47.712  37.273  30.968  1.00  0.00    -0.237 OA
ATOM     50  O   UNL A   1      49.453  37.101  29.236  1.00  0.00    -0.744 OA
ENDBRANCH  46  47
ENDBRANCH  25  39
BRANCH  26  51
ATOM     51  C   UNL A   1      43.196  23.607  26.970  1.00  0.00     0.058 A 
ATOM     52  C   UNL A   1      43.009  22.742  28.059  1.00  0.00     0.135 A 
ATOM     53  C   UNL A   1      42.966  23.106  25.682  1.00  0.00     0.135 A 
ATOM     54  F   UNL A   1      43.228  23.177  29.309  1.00  0.00    -0.206 F 
ATOM     55  C   UNL A   1      42.647  21.413  27.874  1.00  0.00     0.059 A 
ATOM     56  C   UNL A   1      42.586  21.785  25.472  1.00  0.00     0.059 A 
ATOM     57  F   UNL A   1      43.124  23.903  24.614  1.00  0.00    -0.206 F 
ATOM     58  C   UNL A   1      42.452  20.940  26.575  1.00  0.00     0.060 A 
BRANCH  58  59
ATOM     59  S   UNL A   1      42.030  19.200  26.342  1.00  0.00     0.124 S 
ATOM     60  O   UNL A   1      40.656  19.298  25.864  1.00  0.00    -0.237 OA
ATOM     61  O   UNL A   1      43.016  18.767  25.357  1.00  0.00    -0.237 OA
ATOM     62  O   UNL A   1      42.195  18.635  27.678  1.00  0.00    -0.744 OA
ENDBRANCH  58  59
ENDBRANCH  26  51
BRANCH  38  63
ATOM     63  C   UNL A   1      49.470  26.595  26.418  1.00  0.00     0.058 A 
ATOM     64  C   UNL A   1      50.322  25.988  27.354  1.00  0.00     0.135 A 
ATOM     65  C   UNL A   1      49.929  26.737  25.100  1.00  0.00     0.135 A 
ATOM     66  F   UNL A   1      49.925  25.830  28.627  1.00  0.00    -0.206 F 
ATOM     67  C   UNL A   1      51.590  25.544  26.996  1.00  0.00     0.059 A 
ATOM     68  C   UNL A   1      51.189  26.289  24.718  1.00  0.00     0.059 A 
ATOM     69  F   UNL A   1      49.143  27.301  24.170  1.00  0.00    -0.206 F 
ATOM     70  C   UNL A   1      52.017  25.704  25.677  1.00  0.00     0.060 A 
BRANCH  70  71
ATOM     71  S   UNL A   1      53.654  25.097  25.212  1.00  0.00     0.124 S 
ATOM     72  O   UNL A   1      54.483  25.627  26.287  1.00  0.00    -0.237 OA
ATOM     73  O   UNL A   1      53.464  23.649  25.210  1.00  0.00    -0.237 OA
ATOM     74  O   UNL A   1      53.869  25.692  23.896  1.00  0.00    -0.744 OA
ENDBRANCH  70  71
ENDBRANCH  38  63
ENDBRANCH  12  13
ENDBRANCH   5   7
ENDBRANCH   2   3
ENDBRANCH   1   2
BRANCH   1  75
ATOM     75  C   UNL A   1      35.257  29.534  27.213  1.00  0.00     0.023 C 
BRANCH  75  76
ATOM     76  C   UNL A   1      34.187  28.566  26.720  1.00  0.00     0.116 C 
BRANCH  76  77
ATOM     77  N   UNL A   1      33.047  28.470  27.621  1.00  0.00    -0.352 N 
ATOM     78  C   UNL A   1      31.748  28.132  27.322  1.00  0.00     0.256 C 
ATOM     79  H   UNL A   1      33.230  28.673  28.567  1.00  0.00     0.163 HD
ATOM     80  O   UNL A   1      30.862  28.191  28.169  1.00  0.00    -0.269 OA
BRANCH  78  81
ATOM     81  C   UNL A   1      31.394  27.808  25.931  1.00  0.00     0.099 A 
ATOM     82  C   UNL A   1      31.493  28.815  24.968  1.00  0.00     0.138 A 
ATOM     83  C   UNL A   1      30.877  26.540  25.602  1.00  0.00     0.057 A 
ATOM     84  F   UNL A   1      32.041  30.002  25.268  1.00  0.00    -0.206 F 
ATOM     85  C   UNL A   1      30.967  28.632  23.697  1.00  0.00     0.040 A 
ATOM     86  C   UNL A   1      30.269  26.409  24.349  1.00  0.00     0.027 A 
ATOM     87  C   UNL A   1      30.318  27.440  23.402  1.00  0.00     0.005 A 
BRANCH  83  88
ATOM     88  N   UNL A   1      30.971  25.489  26.550  1.00  0.00    -0.321 N 
ATOM     89  C   UNL A   1      31.700  24.324  26.609  1.00  0.00     0.257 C 
ATOM     90  H   UNL A   1      30.390  25.622  27.334  1.00  0.00     0.170 HD
ATOM     91  O   UNL A   1      31.479  23.492  27.487  1.00  0.00    -0.269 OA
BRANCH  89  92
ATOM     92  C   UNL A   1      32.787  24.034  25.671  1.00  0.00     0.058 A 
ATOM     93  C   UNL A   1      32.573  23.394  24.449  1.00  0.00     0.018 A 
ATOM     94  C   UNL A   1      34.075  24.429  26.004  1.00  0.00     0.126 A 
ATOM     95  C   UNL A   1      33.674  23.097  23.647  1.00  0.00     0.042 A 
ATOM     96  N   UNL A   1      35.162  24.148  25.244  1.00  0.00    -0.244 NA
ATOM     97  C   UNL A   1      34.930  23.484  24.092  1.00  0.00     0.129 A 
ATOM     98  Cl  UNL A   1      36.337  23.104  23.190  1.00  0.00    -0.062 Cl
ENDBRANCH  89  92
ENDBRANCH  83  88
ENDBRANCH  78  81
ENDBRANCH  76  77
ENDBRANCH  75  76
ENDBRANCH   1  75
TORSDOF 16
ENDMDL
MODEL 2
REMARK VINA RESULT:     -12.5      1.357      1.892
REMARK SMILES O=C(NCCCCNC(=O)c1c(F)cccc1NC(=O)c1ccc(Cl)nc1)c1ccc(-c2c3nc(c(-c4c(F)cc(S(=O)(=O)[O-])cc4F)c4ccc([nH]4)c(-c4c(F)cc(S(=O)(=O)[O-])cc4F)c4nc(c(-c5c(F)cc(S(=O)(=O)[O-])cc5F)c5ccc2[nH]5)C=C4)C=C3)cc1
REMARK SMILES IDX 5 1 4 2 3 3 1 4 2 5 28 7 29 8 93 9 30 10 92 11 31 12 32 13
REMARK SMILES IDX 33 14 86 15 34 16 91 17 85 18 87 19 35 20 90 21 84 22 83 23
REMARK SMILES IDX 36 25 70 26 49 27 69 28 50 29 53 30 68 31 88 32 51 33 52 34
REMARK SMILES IDX 67 36 89 37 54 38 37 39 38 40 47 41 39 42 40 43 46 44 48 45
REMARK SMILES IDX 41 46 42 47 43 48 44 49 45 50 71 51 72 52 81 53 73 54 74 55
REMARK SMILES IDX 80 56 82 57 75 58 76 59 77 60 78 61 79 62 55 63 56 64 65 65
REMARK SMILES IDX 57 66 58 67 64 68 66 69 59 70 60 71 61 72 62 73 63 74 6 75
REMARK SMILES IDX 7 76 8 77 9 78 10 80 11 81 12 82 17 83 13 84 14 85 16 86
REMARK SMILES IDX 15 87 18 88 19 89 20 91 21 92 22 93 27 94 23 95 26 96 24 97
REMARK SMILES IDX 25 98
REMARK H PARENT 3 6 87 24 53 35 8 79 18 90
REMARK Flexibility Score: inf
ROOT
ATOM      1  C   UNL A   1      34.220  29.110  27.245  1.00  0.00     0.023 C 
ENDROOT
BRANCH   1   2
ATOM      2  C   UNL A   1      35.494  29.692  27.851  1.00  0.00     0.116 C 
BRANCH   2   3
ATOM      3  N   UNL A   1      35.430  29.857  29.297  1.00  0.00    -0.352 N 
ATOM      4  O   UNL A   1      36.192  29.939  31.417  1.00  0.00    -0.269 OA
ATOM      5  C   UNL A   1      36.451  29.873  30.219  1.00  0.00     0.251 C 
ATOM      6  H   UNL A   1      34.526  29.975  29.668  1.00  0.00     0.163 HD
BRANCH   5   7
ATOM      7  C   UNL A   1      37.856  29.766  29.767  1.00  0.00     0.039 A 
ATOM      8  C   UNL A   1      38.199  30.006  28.435  1.00  0.00     0.014 A 
ATOM      9  C   UNL A   1      38.839  29.386  30.687  1.00  0.00     0.014 A 
ATOM     10  C   UNL A   1      39.479  29.699  27.989  1.00  0.00     0.010 A 
ATOM     11  C   UNL A   1      40.146  29.150  30.250  1.00  0.00     0.010 A 
ATOM     12  C   UNL A   1      40.464  29.252  28.888  1.00  0.00    -0.014 A 
BRANCH  12  13
ATOM     13  C   UNL A   1      41.805  28.887  28.366  1.00  0.00     0.031 A 
ATOM     14  C   UNL A   1      42.947  29.866  28.421  1.00  0.00     0.074 A 
ATOM     15  C   UNL A   1      42.013  27.635  27.918  1.00  0.00     0.049 A 
ATOM     16  N   UNL A   1      44.200  29.686  28.089  1.00  0.00    -0.248 NA
ATOM     17  C   UNL A   1      42.647  31.223  28.907  1.00  0.00     0.031 C 
ATOM     18  C   UNL A   1      40.985  26.598  27.813  1.00  0.00     0.029 A 
ATOM     19  N   UNL A   1      43.163  27.008  27.510  1.00  0.00    -0.354 N 
ATOM     20  C   UNL A   1      44.832  30.906  28.303  1.00  0.00     0.074 A 
ATOM     21  C   UNL A   1      43.821  31.825  28.780  1.00  0.00     0.031 C 
ATOM     22  C   UNL A   1      41.562  25.446  27.440  1.00  0.00     0.029 A 
ATOM     23  C   UNL A   1      42.991  25.672  27.241  1.00  0.00     0.049 A 
ATOM     24  H   UNL A   1      44.027  27.470  27.419  1.00  0.00     0.167 HD
ATOM     25  C   UNL A   1      46.136  31.228  28.126  1.00  0.00     0.037 A 
ATOM     26  C   UNL A   1      43.884  24.727  26.890  1.00  0.00     0.037 A 
ATOM     27  C   UNL A   1      47.148  30.307  27.678  1.00  0.00     0.049 A 
ATOM     28  C   UNL A   1      45.329  25.095  26.742  1.00  0.00     0.074 A 
ATOM     29  C   UNL A   1      48.494  30.546  27.456  1.00  0.00     0.029 A 
ATOM     30  N   UNL A   1      46.930  28.966  27.402  1.00  0.00    -0.354 N 
ATOM     31  N   UNL A   1      45.901  26.261  26.926  1.00  0.00    -0.248 NA
ATOM     32  C   UNL A   1      46.250  24.025  26.336  1.00  0.00     0.031 C 
ATOM     33  C   UNL A   1      49.087  29.350  27.032  1.00  0.00     0.029 A 
ATOM     34  C   UNL A   1      48.115  28.363  27.014  1.00  0.00     0.049 A 
ATOM     35  H   UNL A   1      46.060  28.510  27.470  1.00  0.00     0.167 HD
ATOM     36  C   UNL A   1      47.249  26.066  26.654  1.00  0.00     0.074 A 
ATOM     37  C   UNL A   1      47.411  24.667  26.315  1.00  0.00     0.031 C 
ATOM     38  C   UNL A   1      48.258  26.971  26.676  1.00  0.00     0.037 A 
BRANCH  25  39
ATOM     39  C   UNL A   1      46.542  32.646  28.407  1.00  0.00     0.058 A 
ATOM     40  C   UNL A   1      46.505  33.613  27.392  1.00  0.00     0.135 A 
ATOM     41  C   UNL A   1      46.993  33.040  29.676  1.00  0.00     0.135 A 
ATOM     42  F   UNL A   1      46.073  33.288  26.164  1.00  0.00    -0.206 F 
ATOM     43  C   UNL A   1      46.905  34.925  27.624  1.00  0.00     0.059 A 
ATOM     44  C   UNL A   1      47.384  34.351  29.934  1.00  0.00     0.059 A 
ATOM     45  F   UNL A   1      47.023  32.158  30.687  1.00  0.00    -0.206 F 
ATOM     46  C   UNL A   1      47.344  35.286  28.898  1.00  0.00     0.060 A 
BRANCH  46  47
ATOM     47  S   UNL A   1      47.797  37.006  29.211  1.00  0.00     0.124 S 
ATOM     48  O   UNL A   1      46.605  37.715  28.764  1.00  0.00    -0.237 OA
ATOM     49  O   UNL A   1      48.039  37.010  30.652  1.00  0.00    -0.237 OA
ATOM     50  O   UNL A   1      48.991  37.190  28.389  1.00  0.00    -0.744 OA
ENDBRANCH  46  47
ENDBRANCH  25  39
BRANCH  26  51
ATOM     51  C   UNL A   1      43.417  23.332  26.700  1.00  0.00     0.058 A 
ATOM     52  C   UNL A   1      43.101  22.518  27.797  1.00  0.00     0.135 A 
ATOM     53  C   UNL A   1      43.362  22.764  25.419  1.00  0.00     0.135 A 
ATOM     54  F   UNL A   1      43.151  23.017  29.041  1.00  0.00    -0.206 F 
ATOM     55  C   UNL A   1      42.779  21.176  27.635  1.00  0.00     0.059 A 
ATOM     56  C   UNL A   1      43.025  21.428  25.230  1.00  0.00     0.059 A 
ATOM     57  F   UNL A   1      43.648  23.511  24.342  1.00  0.00    -0.206 F 
ATOM     58  C   UNL A   1      42.758  20.637  26.347  1.00  0.00     0.060 A 
BRANCH  58  59
ATOM     59  S   UNL A   1      42.387  18.881  26.151  1.00  0.00     0.124 S 
ATOM     60  O   UNL A   1      43.338  18.499  25.114  1.00  0.00    -0.237 OA
ATOM     61  O   UNL A   1      42.655  18.353  27.485  1.00  0.00    -0.237 OA
ATOM     62  O   UNL A   1      40.983  18.879  25.751  1.00  0.00    -0.744 OA
ENDBRANCH  58  59
ENDBRANCH  26  51
BRANCH  38  63
ATOM     63  C   UNL A   1      49.627  26.476  26.318  1.00  0.00     0.058 A 
ATOM     64  C   UNL A   1      50.122  26.619  25.013  1.00  0.00     0.135 A 
ATOM     65  C   UNL A   1      50.430  25.818  27.262  1.00  0.00     0.135 A 
ATOM     66  F   UNL A   1      49.389  27.242  24.076  1.00  0.00    -0.206 F 
ATOM     67  C   UNL A   1      51.369  26.119  24.653  1.00  0.00     0.059 A 
ATOM     68  C   UNL A   1      51.686  25.321  26.926  1.00  0.00     0.059 A 
ATOM     69  F   UNL A   1      50.002  25.669  28.525  1.00  0.00    -0.206 F 
ATOM     70  C   UNL A   1      52.141  25.467  25.615  1.00  0.00     0.060 A 
BRANCH  70  71
ATOM     71  S   UNL A   1      53.773  24.847  25.150  1.00  0.00     0.124 S 
ATOM     72  O   UNL A   1      53.516  23.419  25.002  1.00  0.00    -0.237 OA
ATOM     73  O   UNL A   1      54.045  25.575  23.914  1.00  0.00    -0.237 OA
ATOM     74  O   UNL A   1      54.609  25.224  26.285  1.00  0.00    -0.744 OA
ENDBRANCH  70  71
ENDBRANCH  38  63
ENDBRANCH  12  13
ENDBRANCH   5   7
ENDBRANCH   2   3
ENDBRANCH   1   2
BRANCH   1  75
ATOM     75  C   UNL A   1      33.057  30.087  27.086  1.00  0.00     0.023 C 
BRANCH  75  76
ATOM     76  C   UNL A   1      32.375  30.074  25.722  1.00  0.00     0.116 C 
BRANCH  76  77
ATOM     77  N   UNL A   1      33.277  29.711  24.638  1.00  0.00    -0.352 N 
ATOM     78  C   UNL A   1      33.124  28.721  23.695  1.00  0.00     0.256 C 
ATOM     79  H   UNL A   1      34.103  30.242  24.571  1.00  0.00     0.163 HD
ATOM     80  O   UNL A   1      34.017  28.457  22.896  1.00  0.00    -0.269 OA
BRANCH  78  81
ATOM     81  C   UNL A   1      31.914  27.886  23.723  1.00  0.00     0.099 A 
ATOM     82  C   UNL A   1      30.807  28.291  22.972  1.00  0.00     0.138 A 
ATOM     83  C   UNL A   1      31.844  26.757  24.561  1.00  0.00     0.057 A 
ATOM     84  F   UNL A   1      30.893  29.330  22.128  1.00  0.00    -0.206 F 
ATOM     85  C   UNL A   1      29.577  27.670  23.133  1.00  0.00     0.040 A 
ATOM     86  C   UNL A   1      30.577  26.206  24.780  1.00  0.00     0.027 A 
ATOM     87  C   UNL A   1      29.454  26.651  24.070  1.00  0.00     0.005 A 
BRANCH  83  88
ATOM     88  N   UNL A   1      33.034  26.263  25.155  1.00  0.00    -0.321 N 
ATOM     89  C   UNL A   1      33.680  25.048  25.123  1.00  0.00     0.257 C 
ATOM     90  H   UNL A   1      33.498  26.934  25.706  1.00  0.00     0.170 HD
ATOM     91  O   UNL A   1      34.636  24.829  25.864  1.00  0.00    -0.269 OA
BRANCH  89  92
ATOM     92  C   UNL A   1      33.296  23.984  24.194  1.00  0.00     0.058 A 
ATOM     93  C   UNL A   1      33.559  24.052  22.824  1.00  0.00     0.018 A 
ATOM     94  C   UNL A   1      32.662  22.857  24.698  1.00  0.00     0.126 A 
ATOM     95  C   UNL A   1      33.099  23.025  22.001  1.00  0.00     0.042 A 
ATOM     96  N   UNL A   1      32.202  21.848  23.919  1.00  0.00    -0.244 NA
ATOM     97  C   UNL A   1      32.427  21.966  22.594  1.00  0.00     0.129 A 
ATOM     98  Cl  UNL A   1      31.780  20.694  21.643  1.00  0.00    -0.062 Cl
ENDBRANCH  89  92
ENDBRANCH  83  88
ENDBRANCH  78  81
ENDBRANCH  76  77
ENDBRANCH  75  76
ENDBRANCH   1  75
TORSDOF 16
ENDMDL
MODEL 3
REMARK VINA RESULT:     -12.5      2.622      8.775
REMARK SMILES O=C(NCCCCNC(=O)c1c(F)cccc1NC(=O)c1ccc(Cl)nc1)c1ccc(-c2c3nc(c(-c4c(F)cc(S(=O)(=O)[O-])cc4F)c4ccc([nH]4)c(-c4c(F)cc(S(=O)(=O)[O-])cc4F)c4nc(c(-c5c(F)cc(S(=O)(=O)[O-])cc5F)c5ccc2[nH]5)C=C4)C=C3)cc1
REMARK SMILES IDX 5 1 4 2 3 3 1 4 2 5 28 7 29 8 93 9 30 10 92 11 31 12 32 13
REMARK SMILES IDX 33 14 86 15 34 16 91 17 85 18 87 19 35 20 90 21 84 22 83 23
REMARK SMILES IDX 36 25 70 26 49 27 69 28 50 29 53 30 68 31 88 32 51 33 52 34
REMARK SMILES IDX 67 36 89 37 54 38 37 39 38 40 47 41 39 42 40 43 46 44 48 45
REMARK SMILES IDX 41 46 42 47 43 48 44 49 45 50 71 51 72 52 81 53 73 54 74 55
REMARK SMILES IDX 80 56 82 57 75 58 76 59 77 60 78 61 79 62 55 63 56 64 65 65
REMARK SMILES IDX 57 66 58 67 64 68 66 69 59 70 60 71 61 72 62 73 63 74 6 75
REMARK SMILES IDX 7 76 8 77 9 78 10 80 11 81 12 82 17 83 13 84 14 85 16 86
REMARK SMILES IDX 15 87 18 88 19 89 20 91 21 92 22 93 27 94 23 95 26 96 24 97
REMARK SMILES IDX 25 98
REMARK H PARENT 3 6 87 24 53 35 8 79 18 90
REMARK Flexibility Score: inf
ROOT
ATOM      1  C   UNL A   1      33.945  28.211  25.676  1.00  0.00     0.023 C 
ENDROOT
BRANCH   1   2
ATOM      2  C   UNL A   1      33.629  28.373  27.160  1.00  0.00     0.116 C 
BRANCH   2   3
ATOM      3  N   UNL A   1      33.558  29.762  27.594  1.00  0.00    -0.352 N 
ATOM      4  O   UNL A   1      34.258  31.683  28.543  1.00  0.00    -0.269 OA
ATOM      5  C   UNL A   1      34.533  30.549  28.162  1.00  0.00     0.251 C 
ATOM      6  H   UNL A   1      32.687  30.201  27.461  1.00  0.00     0.163 HD
BRANCH   5   7
ATOM      7  C   UNL A   1      35.898  30.011  28.351  1.00  0.00     0.039 A 
ATOM      8  C   UNL A   1      36.298  29.492  29.583  1.00  0.00     0.014 A 
ATOM      9  C   UNL A   1      36.802  30.061  27.284  1.00  0.00     0.014 A 
ATOM     10  C   UNL A   1      37.638  29.186  29.798  1.00  0.00     0.010 A 
ATOM     11  C   UNL A   1      38.133  29.682  27.481  1.00  0.00     0.010 A 
ATOM     12  C   UNL A   1      38.573  29.293  28.755  1.00  0.00    -0.014 A 
BRANCH  12  13
ATOM     13  C   UNL A   1      40.003  29.005  29.036  1.00  0.00     0.031 A 
ATOM     14  C   UNL A   1      40.613  27.683  28.657  1.00  0.00     0.074 A 
ATOM     15  C   UNL A   1      40.774  29.978  29.559  1.00  0.00     0.049 A 
ATOM     16  N   UNL A   1      41.860  27.296  28.752  1.00  0.00    -0.248 NA
ATOM     17  C   UNL A   1      39.711  26.660  28.105  1.00  0.00     0.031 C 
ATOM     18  C   UNL A   1      40.297  31.299  29.970  1.00  0.00     0.029 A 
ATOM     19  N   UNL A   1      42.125  30.022  29.794  1.00  0.00    -0.354 N 
ATOM     20  C   UNL A   1      41.889  25.984  28.295  1.00  0.00     0.074 A 
ATOM     21  C   UNL A   1      40.532  25.632  27.936  1.00  0.00     0.031 C 
ATOM     22  C   UNL A   1      41.347  32.049  30.337  1.00  0.00     0.029 A 
ATOM     23  C   UNL A   1      42.564  31.250  30.226  1.00  0.00     0.049 A 
ATOM     24  H   UNL A   1      42.722  29.250  29.665  1.00  0.00     0.167 HD
ATOM     25  C   UNL A   1      42.951  25.150  28.178  1.00  0.00     0.037 A 
ATOM     26  C   UNL A   1      43.809  31.692  30.488  1.00  0.00     0.037 A 
ATOM     27  C   UNL A   1      44.306  25.507  28.507  1.00  0.00     0.049 A 
ATOM     28  C   UNL A   1      44.974  30.767  30.309  1.00  0.00     0.074 A 
ATOM     29  C   UNL A   1      45.447  24.725  28.434  1.00  0.00     0.029 A 
ATOM     30  N   UNL A   1      44.707  26.756  28.957  1.00  0.00    -0.354 N 
ATOM     31  N   UNL A   1      44.977  29.521  29.898  1.00  0.00    -0.248 NA
ATOM     32  C   UNL A   1      46.304  31.301  30.632  1.00  0.00     0.031 C 
ATOM     33  C   UNL A   1      46.536  25.499  28.852  1.00  0.00     0.029 A 
ATOM     34  C   UNL A   1      46.077  26.769  29.162  1.00  0.00     0.049 A 
ATOM     35  H   UNL A   1      44.107  27.521  29.108  1.00  0.00     0.167 HD
ATOM     36  C   UNL A   1      46.306  29.121  29.917  1.00  0.00     0.074 A 
ATOM     37  C   UNL A   1      47.083  30.262  30.358  1.00  0.00     0.031 C 
ATOM     38  C   UNL A   1      46.833  27.911  29.605  1.00  0.00     0.037 A 
BRANCH  25  39
ATOM     39  C   UNL A   1      42.686  23.759  27.678  1.00  0.00     0.058 A 
ATOM     40  C   UNL A   1      42.610  23.498  26.302  1.00  0.00     0.135 A 
ATOM     41  C   UNL A   1      42.484  22.689  28.563  1.00  0.00     0.135 A 
ATOM     42  F   UNL A   1      42.807  24.486  25.415  1.00  0.00    -0.206 F 
ATOM     43  C   UNL A   1      42.338  22.223  25.818  1.00  0.00     0.059 A 
ATOM     44  C   UNL A   1      42.224  21.402  28.101  1.00  0.00     0.059 A 
ATOM     45  F   UNL A   1      42.572  22.883  29.889  1.00  0.00    -0.206 F 
ATOM     46  C   UNL A   1      42.144  21.180  26.725  1.00  0.00     0.060 A 
BRANCH  46  47
ATOM     47  S   UNL A   1      41.859  19.513  26.091  1.00  0.00     0.124 S 
ATOM     48  O   UNL A   1      42.718  19.490  24.914  1.00  0.00    -0.237 OA
ATOM     49  O   UNL A   1      42.285  18.675  27.209  1.00  0.00    -0.237 OA
ATOM     50  O   UNL A   1      40.422  19.500  25.828  1.00  0.00    -0.744 OA
ENDBRANCH  46  47
ENDBRANCH  25  39
BRANCH  26  51
ATOM     51  C   UNL A   1      43.998  33.102  30.907  1.00  0.00     0.058 A 
ATOM     52  C   UNL A   1      44.234  34.113  29.964  1.00  0.00     0.135 A 
ATOM     53  C   UNL A   1      44.028  33.447  32.265  1.00  0.00     0.135 A 
ATOM     54  F   UNL A   1      44.225  33.825  28.654  1.00  0.00    -0.206 F 
ATOM     55  C   UNL A   1      44.531  35.413  30.354  1.00  0.00     0.059 A 
ATOM     56  C   UNL A   1      44.305  34.745  32.680  1.00  0.00     0.059 A 
ATOM     57  F   UNL A   1      43.798  32.511  33.200  1.00  0.00    -0.206 F 
ATOM     58  C   UNL A   1      44.579  35.715  31.716  1.00  0.00     0.060 A 
BRANCH  58  59
ATOM     59  S   UNL A   1      45.013  37.396  32.214  1.00  0.00     0.124 S 
ATOM     60  O   UNL A   1      44.857  37.317  33.662  1.00  0.00    -0.237 OA
ATOM     61  O   UNL A   1      46.383  37.522  31.729  1.00  0.00    -0.237 OA
ATOM     62  O   UNL A   1      44.027  38.216  31.516  1.00  0.00    -0.744 OA
ENDBRANCH  58  59
ENDBRANCH  26  51
BRANCH  38  63
ATOM     63  C   UNL A   1      48.319  27.759  29.733  1.00  0.00     0.058 A 
ATOM     64  C   UNL A   1      49.158  27.967  28.628  1.00  0.00     0.135 A 
ATOM     65  C   UNL A   1      48.906  27.360  30.943  1.00  0.00     0.135 A 
ATOM     66  F   UNL A   1      48.642  28.351  27.449  1.00  0.00    -0.206 F 
ATOM     67  C   UNL A   1      50.533  27.779  28.718  1.00  0.00     0.059 A 
ATOM     68  C   UNL A   1      50.280  27.178  31.059  1.00  0.00     0.059 A 
ATOM     69  F   UNL A   1      48.142  27.160  32.029  1.00  0.00    -0.206 F 
ATOM     70  C   UNL A   1      51.084  27.379  29.936  1.00  0.00     0.060 A 
BRANCH  70  71
ATOM     71  S   UNL A   1      52.874  27.167  30.054  1.00  0.00     0.124 S 
ATOM     72  O   UNL A   1      52.983  26.136  31.080  1.00  0.00    -0.237 OA
ATOM     73  O   UNL A   1      53.233  26.756  28.700  1.00  0.00    -0.237 OA
ATOM     74  O   UNL A   1      53.343  28.494  30.440  1.00  0.00    -0.744 OA
ENDBRANCH  70  71
ENDBRANCH  38  63
ENDBRANCH  12  13
ENDBRANCH   5   7
ENDBRANCH   2   3
ENDBRANCH   1   2
BRANCH   1  75
ATOM     75  C   UNL A   1      33.265  29.209  24.743  1.00  0.00     0.023 C 
BRANCH  75  76
ATOM     76  C   UNL A   1      31.836  28.859  24.340  1.00  0.00     0.116 C 
BRANCH  76  77
ATOM     77  N   UNL A   1      31.763  28.121  23.087  1.00  0.00    -0.352 N 
ATOM     78  C   UNL A   1      31.546  26.776  22.900  1.00  0.00     0.256 C 
ATOM     79  H   UNL A   1      31.884  28.653  22.267  1.00  0.00     0.163 HD
ATOM     80  O   UNL A   1      31.612  26.268  21.785  1.00  0.00    -0.269 OA
BRANCH  78  81
ATOM     81  C   UNL A   1      31.350  25.911  24.074  1.00  0.00     0.099 A 
ATOM     82  C   UNL A   1      30.143  26.002  24.773  1.00  0.00     0.138 A 
ATOM     83  C   UNL A   1      32.392  25.083  24.534  1.00  0.00     0.057 A 
ATOM     84  F   UNL A   1      29.130  26.744  24.302  1.00  0.00    -0.206 F 
ATOM     85  C   UNL A   1      29.991  25.380  26.004  1.00  0.00     0.040 A 
ATOM     86  C   UNL A   1      32.254  24.543  25.817  1.00  0.00     0.027 A 
ATOM     87  C   UNL A   1      31.065  24.684  26.544  1.00  0.00     0.005 A 
BRANCH  83  88
ATOM     88  N   UNL A   1      33.520  24.867  23.701  1.00  0.00    -0.321 N 
ATOM     89  C   UNL A   1      34.256  23.754  23.368  1.00  0.00     0.257 C 
ATOM     90  H   UNL A   1      33.845  25.689  23.269  1.00  0.00     0.170 HD
ATOM     91  O   UNL A   1      35.303  23.863  22.732  1.00  0.00    -0.269 OA
BRANCH  89  92
ATOM     92  C   UNL A   1      33.820  22.398  23.710  1.00  0.00     0.058 A 
ATOM     93  C   UNL A   1      32.688  21.808  23.143  1.00  0.00     0.018 A 
ATOM     94  C   UNL A   1      34.572  21.667  24.619  1.00  0.00     0.126 A 
ATOM     95  C   UNL A   1      32.307  20.539  23.575  1.00  0.00     0.042 A 
ATOM     96  N   UNL A   1      34.220  20.434  25.058  1.00  0.00    -0.244 NA
ATOM     97  C   UNL A   1      33.094  19.910  24.529  1.00  0.00     0.129 A 
ATOM     98  Cl  UNL A   1      32.659  18.374  25.154  1.00  0.00    -0.062 Cl
ENDBRANCH  89  92
ENDBRANCH  83  88
ENDBRANCH  78  81
ENDBRANCH  76  77
ENDBRANCH  75  76
ENDBRANCH   1  75
TORSDOF 16
ENDMDL
