MODEL 1
REMARK VINA RESULT:     -15.4      0.000      0.000
REMARK SMILES Cc1cccc(N2C(=O)/C(=C/c3ccc(C(=O)NCCCCNC(=O)c4ccc(-c5c6nc(c(-c7c(F)cc(S(=O)(=O)[O-])cc7F)c7ccc([nH]7)c(-c7c(F)cc(S(=O)(=O)[O-])cc7F)c7nc(c(-c8c(F)cc(S(=O)(=O)[O-])cc8F)c8ccc5[nH]8)C=C7)C=C6)cc4)cc3)c3ccccc3C2=O)c1
REMARK SMILES IDX 21 1 20 2 19 3 18 4 16 5 17 6 15 8 12 9 13 10 93 11 14 12
REMARK SMILES IDX 92 13 11 14 7 15 8 16 100 17 9 18 10 19 99 20 101 21 94 22
REMARK SMILES IDX 98 23 95 24 97 25 96 26 6 27 1 28 2 29 3 30 102 31 4 32 5 33
REMARK SMILES IDX 22 34 23 35 24 36 25 38 26 39 27 40 91 41 28 42 90 43 29 44
REMARK SMILES IDX 30 45 31 46 84 47 32 48 89 49 83 50 85 51 33 52 88 53 82 54
REMARK SMILES IDX 81 55 34 57 68 58 47 59 67 60 48 61 51 62 66 63 86 64 49 65
REMARK SMILES IDX 50 66 65 68 87 69 52 70 35 71 36 72 45 73 37 74 38 75 44 76
REMARK SMILES IDX 46 77 39 78 40 79 41 80 42 81 43 82 69 83 70 84 79 85 71 86
REMARK SMILES IDX 72 87 78 88 80 89 73 90 74 91 75 92 76 93 77 94 53 95 54 96
REMARK SMILES IDX 63 97 55 98 56 99 62 100 64 101 57 102 58 103 59 104 60 105
REMARK SMILES IDX 61 106
REMARK H PARENT 18 7 23 37 85 56 51 67
REMARK Flexibility Score: inf
ROOT
ATOM      1  C   UNL A   1      34.416  28.943  26.466  1.00  0.00     0.023 C 
ENDROOT
BRANCH   1   2
ATOM      2  C   UNL A   1      33.057  28.712  25.806  1.00  0.00     0.023 C 
BRANCH   2   3
ATOM      3  C   UNL A   1      32.928  29.189  24.354  1.00  0.00     0.116 C 
BRANCH   3   4
ATOM      4  N   UNL A   1      31.593  29.673  24.012  1.00  0.00    -0.352 N 
ATOM      5  C   UNL A   1      30.477  29.007  23.568  1.00  0.00     0.251 C 
ATOM      6  O   UNL A   1      29.477  29.636  23.230  1.00  0.00    -0.269 OA
ATOM      7  H   UNL A   1      31.473  30.645  24.116  1.00  0.00     0.163 HD
BRANCH   5   8
ATOM      8  C   UNL A   1      30.483  27.536  23.423  1.00  0.00     0.039 A 
ATOM      9  C   UNL A   1      30.818  24.773  23.222  1.00  0.00    -0.025 A 
ATOM     10  C   UNL A   1      31.255  25.607  22.187  1.00  0.00     0.009 A 
ATOM     11  C   UNL A   1      30.081  25.317  24.284  1.00  0.00     0.009 A 
ATOM     12  C   UNL A   1      31.085  26.989  22.287  1.00  0.00     0.014 A 
ATOM     13  C   UNL A   1      29.909  26.698  24.383  1.00  0.00     0.014 A 
BRANCH   9  14
ATOM     14  C   UNL A   1      31.198  23.355  23.200  1.00  0.00     0.022 C 
ATOM     15  N   UNL A   1      33.033  20.663  24.737  1.00  0.00    -0.242 N 
ATOM     16  C   UNL A   1      32.377  21.302  23.665  1.00  0.00     0.265 C 
ATOM     17  C   UNL A   1      33.558  21.395  25.827  1.00  0.00     0.265 C 
ATOM     18  O   UNL A   1      31.809  20.748  22.721  1.00  0.00    -0.268 OA
ATOM     19  C   UNL A   1      32.302  22.802  23.753  1.00  0.00     0.049 C 
ATOM     20  C   UNL A   1      33.890  22.823  25.597  1.00  0.00     0.048 A 
ATOM     21  O   UNL A   1      33.822  20.963  26.948  1.00  0.00    -0.268 OA
ATOM     22  C   UNL A   1      33.343  23.501  24.513  1.00  0.00    -0.000 A 
ATOM     23  C   UNL A   1      34.794  23.468  26.457  1.00  0.00     0.014 A 
ATOM     24  C   UNL A   1      33.812  24.793  24.225  1.00  0.00     0.010 A 
ATOM     25  C   UNL A   1      35.194  24.778  26.203  1.00  0.00     0.001 A 
ATOM     26  C   UNL A   1      34.719  25.433  25.073  1.00  0.00     0.001 A 
BRANCH  15  27
ATOM     27  C   UNL A   1      33.088  19.201  24.756  1.00  0.00     0.053 A 
ATOM     28  C   UNL A   1      34.612  16.340  22.692  1.00  0.00     0.044 C 
ATOM     29  C   UNL A   1      33.866  17.071  23.768  1.00  0.00    -0.049 A 
ATOM     30  C   UNL A   1      33.235  16.354  24.783  1.00  0.00     0.003 A 
ATOM     31  C   UNL A   1      33.805  18.478  23.778  1.00  0.00     0.030 A 
ATOM     32  C   UNL A   1      32.540  17.035  25.773  1.00  0.00     0.002 A 
ATOM     33  C   UNL A   1      32.463  18.433  25.753  1.00  0.00     0.027 A 
ENDBRANCH  15  27
ENDBRANCH   9  14
ENDBRANCH   5   8
ENDBRANCH   3   4
ENDBRANCH   2   3
ENDBRANCH   1   2
BRANCH   1  34
ATOM     34  C   UNL A   1      34.351  29.640  27.822  1.00  0.00     0.116 C 
BRANCH  34  35
ATOM     35  N   UNL A   1      35.102  30.884  27.882  1.00  0.00    -0.352 N 
ATOM     36  C   UNL A   1      36.422  31.061  28.266  1.00  0.00     0.251 C 
ATOM     37  H   UNL A   1      34.614  31.698  27.619  1.00  0.00     0.163 HD
ATOM     38  O   UNL A   1      36.889  32.165  28.486  1.00  0.00    -0.269 OA
BRANCH  36  39
ATOM     39  C   UNL A   1      37.286  29.859  28.288  1.00  0.00     0.039 A 
ATOM     40  C   UNL A   1      37.354  29.141  29.487  1.00  0.00     0.014 A 
ATOM     41  C   UNL A   1      38.187  29.618  27.256  1.00  0.00     0.014 A 
ATOM     42  C   UNL A   1      38.447  28.315  29.728  1.00  0.00     0.010 A 
ATOM     43  C   UNL A   1      39.312  28.861  27.526  1.00  0.00     0.010 A 
ATOM     44  C   UNL A   1      39.469  28.256  28.783  1.00  0.00    -0.014 A 
BRANCH  44  45
ATOM     45  C   UNL A   1      40.779  27.667  29.042  1.00  0.00     0.031 A 
ATOM     46  C   UNL A   1      41.045  26.255  28.684  1.00  0.00     0.074 A 
ATOM     47  C   UNL A   1      41.778  28.442  29.518  1.00  0.00     0.049 A 
ATOM     48  N   UNL A   1      42.084  25.589  29.062  1.00  0.00    -0.248 NA
ATOM     49  C   UNL A   1      40.090  25.442  27.936  1.00  0.00     0.031 C 
ATOM     50  C   UNL A   1      43.209  28.160  29.477  1.00  0.00     0.029 A 
ATOM     51  N   UNL A   1      41.669  29.563  30.344  1.00  0.00    -0.354 N 
ATOM     52  C   UNL A   1      42.088  24.390  28.385  1.00  0.00     0.074 A 
ATOM     53  C   UNL A   1      40.766  24.294  27.822  1.00  0.00     0.031 C 
ATOM     54  C   UNL A   1      43.829  28.908  30.402  1.00  0.00     0.029 A 
ATOM     55  C   UNL A   1      42.800  29.572  31.181  1.00  0.00     0.049 A 
ATOM     56  H   UNL A   1      40.938  30.222  30.340  1.00  0.00     0.167 HD
ATOM     57  C   UNL A   1      43.261  23.702  28.275  1.00  0.00     0.037 A 
ATOM     58  C   UNL A   1      42.676  29.463  32.539  1.00  0.00     0.037 A 
ATOM     59  C   UNL A   1      44.240  24.210  29.245  1.00  0.00     0.049 A 
ATOM     60  C   UNL A   1      43.329  28.234  33.129  1.00  0.00     0.074 A 
ATOM     61  C   UNL A   1      45.362  25.014  29.139  1.00  0.00     0.029 A 
ATOM     62  N   UNL A   1      43.960  24.105  30.607  1.00  0.00    -0.354 N 
ATOM     63  N   UNL A   1      43.731  27.212  32.425  1.00  0.00    -0.248 NA
ATOM     64  C   UNL A   1      43.570  28.051  34.558  1.00  0.00     0.031 C 
ATOM     65  C   UNL A   1      45.687  25.481  30.443  1.00  0.00     0.029 A 
ATOM     66  C   UNL A   1      44.793  24.927  31.343  1.00  0.00     0.049 A 
ATOM     67  H   UNL A   1      43.265  23.524  30.993  1.00  0.00     0.167 HD
ATOM     68  C   UNL A   1      44.223  26.241  33.258  1.00  0.00     0.074 A 
ATOM     69  C   UNL A   1      44.133  26.829  34.582  1.00  0.00     0.031 C 
ATOM     70  C   UNL A   1      44.647  25.029  32.791  1.00  0.00     0.037 A 
BRANCH  57  71
ATOM     71  C   UNL A   1      43.619  22.740  27.143  1.00  0.00     0.058 A 
ATOM     72  C   UNL A   1      42.940  21.504  27.013  1.00  0.00     0.135 A 
ATOM     73  C   UNL A   1      44.697  22.890  26.239  1.00  0.00     0.135 A 
ATOM     74  F   UNL A   1      41.879  21.211  27.780  1.00  0.00    -0.206 F 
ATOM     75  C   UNL A   1      43.332  20.496  26.120  1.00  0.00     0.059 A 
ATOM     76  C   UNL A   1      45.089  21.909  25.323  1.00  0.00     0.059 A 
ATOM     77  F   UNL A   1      45.468  23.977  26.202  1.00  0.00    -0.206 F 
ATOM     78  C   UNL A   1      44.422  20.702  25.287  1.00  0.00     0.060 A 
BRANCH  78  79
ATOM     79  S   UNL A   1      44.975  19.391  24.180  1.00  0.00     0.124 S 
ATOM     80  O   UNL A   1      44.333  18.216  24.759  1.00  0.00    -0.237 OA
ATOM     81  O   UNL A   1      44.457  19.834  22.891  1.00  0.00    -0.237 OA
ATOM     82  O   UNL A   1      46.431  19.429  24.309  1.00  0.00    -0.744 OA
ENDBRANCH  78  79
ENDBRANCH  57  71
BRANCH  58  83
ATOM     83  C   UNL A   1      41.467  30.150  33.068  1.00  0.00     0.058 A 
ATOM     84  C   UNL A   1      41.525  31.552  33.184  1.00  0.00     0.135 A 
ATOM     85  C   UNL A   1      40.198  29.556  32.998  1.00  0.00     0.135 A 
ATOM     86  F   UNL A   1      42.714  32.171  33.271  1.00  0.00    -0.206 F 
ATOM     87  C   UNL A   1      40.391  32.343  33.050  1.00  0.00     0.059 A 
ATOM     88  C   UNL A   1      39.044  30.332  32.871  1.00  0.00     0.059 A 
ATOM     89  F   UNL A   1      40.082  28.224  32.893  1.00  0.00    -0.206 F 
ATOM     90  C   UNL A   1      39.166  31.723  32.818  1.00  0.00     0.060 A 
BRANCH  90  91
ATOM     91  S   UNL A   1      37.802  32.762  32.245  1.00  0.00     0.124 S 
ATOM     92  O   UNL A   1      38.426  33.511  31.159  1.00  0.00    -0.237 OA
ATOM     93  O   UNL A   1      36.824  31.756  31.832  1.00  0.00    -0.237 OA
ATOM     94  O   UNL A   1      37.452  33.538  33.428  1.00  0.00    -0.744 OA
ENDBRANCH  90  91
ENDBRANCH  58  83
BRANCH  70  95
ATOM     95  C   UNL A   1      45.031  23.847  33.652  1.00  0.00     0.058 A 
ATOM     96  C   UNL A   1      44.147  22.815  34.015  1.00  0.00     0.135 A 
ATOM     97  C   UNL A   1      46.381  23.655  34.034  1.00  0.00     0.135 A 
ATOM     98  F   UNL A   1      42.866  22.825  33.617  1.00  0.00    -0.206 F 
ATOM     99  C   UNL A   1      44.554  21.706  34.761  1.00  0.00     0.059 A 
ATOM    100  C   UNL A   1      46.818  22.531  34.732  1.00  0.00     0.059 A 
ATOM    101  F   UNL A   1      47.325  24.557  33.730  1.00  0.00    -0.206 F 
ATOM    102  C   UNL A   1      45.892  21.572  35.116  1.00  0.00     0.060 A 
BRANCH 102 103
ATOM    103  S   UNL A   1      46.445  20.116  36.026  1.00  0.00     0.124 S 
ATOM    104  O   UNL A   1      45.991  19.037  35.154  1.00  0.00    -0.237 OA
ATOM    105  O   UNL A   1      47.892  20.302  36.094  1.00  0.00    -0.237 OA
ATOM    106  O   UNL A   1      45.745  20.239  37.301  1.00  0.00    -0.744 OA
ENDBRANCH 102 103
ENDBRANCH  70  95
ENDBRANCH  44  45
ENDBRANCH  36  39
ENDBRANCH  34  35
ENDBRANCH   1  34
TORSDOF 16
ENDMDL
MODEL 2
REMARK VINA RESULT:     -15.0      2.131      3.771
REMARK SMILES Cc1cccc(N2C(=O)/C(=C/c3ccc(C(=O)NCCCCNC(=O)c4ccc(-c5c6nc(c(-c7c(F)cc(S(=O)(=O)[O-])cc7F)c7ccc([nH]7)c(-c7c(F)cc(S(=O)(=O)[O-])cc7F)c7nc(c(-c8c(F)cc(S(=O)(=O)[O-])cc8F)c8ccc5[nH]8)C=C7)C=C6)cc4)cc3)c3ccccc3C2=O)c1
REMARK SMILES IDX 21 1 20 2 19 3 18 4 16 5 17 6 15 8 12 9 13 10 93 11 14 12
REMARK SMILES IDX 92 13 11 14 7 15 8 16 100 17 9 18 10 19 99 20 101 21 94 22
REMARK SMILES IDX 98 23 95 24 97 25 96 26 6 27 1 28 2 29 3 30 102 31 4 32 5 33
REMARK SMILES IDX 22 34 23 35 24 36 25 38 26 39 27 40 91 41 28 42 90 43 29 44
REMARK SMILES IDX 30 45 31 46 84 47 32 48 89 49 83 50 85 51 33 52 88 53 82 54
REMARK SMILES IDX 81 55 34 57 68 58 47 59 67 60 48 61 51 62 66 63 86 64 49 65
REMARK SMILES IDX 50 66 65 68 87 69 52 70 35 71 36 72 45 73 37 74 38 75 44 76
REMARK SMILES IDX 46 77 39 78 40 79 41 80 42 81 43 82 69 83 70 84 79 85 71 86
REMARK SMILES IDX 72 87 78 88 80 89 73 90 74 91 75 92 76 93 77 94 53 95 54 96
REMARK SMILES IDX 63 97 55 98 56 99 62 100 64 101 57 102 58 103 59 104 60 105
REMARK SMILES IDX 61 106
REMARK H PARENT 18 7 23 37 85 56 51 67
REMARK Flexibility Score: inf
ROOT
ATOM      1  C   UNL A   1      33.241  29.042  25.678  1.00  0.00     0.023 C 
ENDROOT
BRANCH   1   2
ATOM      2  C   UNL A   1      31.865  29.396  25.114  1.00  0.00     0.023 C 
BRANCH   2   3
ATOM      3  C   UNL A   1      31.587  28.925  23.682  1.00  0.00     0.116 C 
BRANCH   3   4
ATOM      4  N   UNL A   1      30.478  27.980  23.580  1.00  0.00    -0.352 N 
ATOM      5  C   UNL A   1      30.418  26.629  23.819  1.00  0.00     0.251 C 
ATOM      6  O   UNL A   1      29.393  26.001  23.559  1.00  0.00    -0.269 OA
ATOM      7  H   UNL A   1      29.626  28.381  23.290  1.00  0.00     0.163 HD
BRANCH   5   8
ATOM      8  C   UNL A   1      31.599  25.897  24.322  1.00  0.00     0.039 A 
ATOM      9  C   UNL A   1      34.004  24.791  25.205  1.00  0.00    -0.025 A 
ATOM     10  C   UNL A   1      33.748  24.904  23.834  1.00  0.00     0.009 A 
ATOM     11  C   UNL A   1      32.990  25.096  26.124  1.00  0.00     0.009 A 
ATOM     12  C   UNL A   1      32.545  25.455  23.392  1.00  0.00     0.014 A 
ATOM     13  C   UNL A   1      31.785  25.644  25.683  1.00  0.00     0.014 A 
BRANCH   9  14
ATOM     14  C   UNL A   1      35.352  24.414  25.648  1.00  0.00     0.022 C 
ATOM     15  N   UNL A   1      37.931  21.902  25.772  1.00  0.00    -0.242 N 
ATOM     16  C   UNL A   1      37.275  23.070  26.212  1.00  0.00     0.265 C 
ATOM     17  C   UNL A   1      37.255  20.905  25.033  1.00  0.00     0.265 C 
ATOM     18  O   UNL A   1      37.797  24.033  26.778  1.00  0.00    -0.268 OA
ATOM     19  C   UNL A   1      35.814  23.160  25.865  1.00  0.00     0.049 C 
ATOM     20  C   UNL A   1      35.780  20.826  25.179  1.00  0.00     0.048 A 
ATOM     21  O   UNL A   1      37.763  20.049  24.310  1.00  0.00    -0.268 OA
ATOM     22  C   UNL A   1      35.070  21.911  25.682  1.00  0.00    -0.000 A 
ATOM     23  C   UNL A   1      35.117  19.633  24.848  1.00  0.00     0.014 A 
ATOM     24  C   UNL A   1      33.706  21.743  25.971  1.00  0.00     0.010 A 
ATOM     25  C   UNL A   1      33.748  19.505  25.068  1.00  0.00     0.001 A 
ATOM     26  C   UNL A   1      33.046  20.553  25.651  1.00  0.00     0.001 A 
BRANCH  15  27
ATOM     27  C   UNL A   1      39.369  21.772  26.013  1.00  0.00     0.053 A 
ATOM     28  C   UNL A   1      41.996  18.991  26.378  1.00  0.00     0.044 C 
ATOM     29  C   UNL A   1      41.375  20.354  26.302  1.00  0.00    -0.049 A 
ATOM     30  C   UNL A   1      42.171  21.488  26.455  1.00  0.00     0.003 A 
ATOM     31  C   UNL A   1      39.996  20.508  26.062  1.00  0.00     0.030 A 
ATOM     32  C   UNL A   1      41.590  22.747  26.390  1.00  0.00     0.002 A 
ATOM     33  C   UNL A   1      40.212  22.883  26.181  1.00  0.00     0.027 A 
ENDBRANCH  15  27
ENDBRANCH   9  14
ENDBRANCH   5   8
ENDBRANCH   3   4
ENDBRANCH   2   3
ENDBRANCH   1   2
BRANCH   1  34
ATOM     34  C   UNL A   1      33.442  29.423  27.142  1.00  0.00     0.116 C 
BRANCH  34  35
ATOM     35  N   UNL A   1      33.857  30.803  27.341  1.00  0.00    -0.352 N 
ATOM     36  C   UNL A   1      34.985  31.262  28.003  1.00  0.00     0.251 C 
ATOM     37  H   UNL A   1      33.268  31.493  26.958  1.00  0.00     0.163 HD
ATOM     38  O   UNL A   1      35.127  32.436  28.298  1.00  0.00    -0.269 OA
BRANCH  36  39
ATOM     39  C   UNL A   1      36.072  30.287  28.242  1.00  0.00     0.039 A 
ATOM     40  C   UNL A   1      36.152  29.716  29.517  1.00  0.00     0.014 A 
ATOM     41  C   UNL A   1      37.116  30.155  27.331  1.00  0.00     0.014 A 
ATOM     42  C   UNL A   1      37.360  29.177  29.951  1.00  0.00     0.010 A 
ATOM     43  C   UNL A   1      38.336  29.693  27.788  1.00  0.00     0.010 A 
ATOM     44  C   UNL A   1      38.472  29.256  29.116  1.00  0.00    -0.014 A 
BRANCH  44  45
ATOM     45  C   UNL A   1      39.837  28.997  29.559  1.00  0.00     0.031 A 
ATOM     46  C   UNL A   1      40.512  27.731  29.192  1.00  0.00     0.074 A 
ATOM     47  C   UNL A   1      40.520  29.957  30.221  1.00  0.00     0.049 A 
ATOM     48  N   UNL A   1      41.622  27.319  29.707  1.00  0.00    -0.248 NA
ATOM     49  C   UNL A   1      39.921  26.766  28.269  1.00  0.00     0.031 C 
ATOM     50  C   UNL A   1      41.965  30.048  30.400  1.00  0.00     0.029 A 
ATOM     51  N   UNL A   1      40.004  30.944  31.063  1.00  0.00    -0.354 N 
ATOM     52  C   UNL A   1      42.036  26.217  28.992  1.00  0.00     0.074 A 
ATOM     53  C   UNL A   1      40.883  25.838  28.219  1.00  0.00     0.031 C 
ATOM     54  C   UNL A   1      42.227  30.850  31.442  1.00  0.00     0.029 A 
ATOM     55  C   UNL A   1      40.959  31.170  32.071  1.00  0.00     0.049 A 
ATOM     56  H   UNL A   1      39.134  31.397  30.967  1.00  0.00     0.167 HD
ATOM     57  C   UNL A   1      43.352  25.858  29.045  1.00  0.00     0.037 A 
ATOM     58  C   UNL A   1      40.671  30.926  33.386  1.00  0.00     0.037 A 
ATOM     59  C   UNL A   1      44.012  26.515  30.180  1.00  0.00     0.049 A 
ATOM     60  C   UNL A   1      41.529  29.857  34.024  1.00  0.00     0.074 A 
ATOM     61  C   UNL A   1      44.889  27.581  30.289  1.00  0.00     0.029 A 
ATOM     62  N   UNL A   1      43.575  26.234  31.474  1.00  0.00    -0.354 N 
ATOM     63  N   UNL A   1      42.281  29.028  33.353  1.00  0.00    -0.248 NA
ATOM     64  C   UNL A   1      41.598  29.626  35.464  1.00  0.00     0.031 C 
ATOM     65  C   UNL A   1      44.888  28.009  31.645  1.00  0.00     0.029 A 
ATOM     66  C   UNL A   1      44.048  27.177  32.366  1.00  0.00     0.049 A 
ATOM     67  H   UNL A   1      43.007  25.468  31.719  1.00  0.00     0.167 HD
ATOM     68  C   UNL A   1      42.882  28.148  34.215  1.00  0.00     0.074 A 
ATOM     69  C   UNL A   1      42.450  28.587  35.530  1.00  0.00     0.031 C 
ATOM     70  C   UNL A   1      43.671  27.123  33.775  1.00  0.00     0.037 A 
BRANCH  57  71
ATOM     71  C   UNL A   1      44.109  25.110  27.948  1.00  0.00     0.058 A 
ATOM     72  C   UNL A   1      44.083  25.582  26.613  1.00  0.00     0.135 A 
ATOM     73  C   UNL A   1      44.760  23.863  28.093  1.00  0.00     0.135 A 
ATOM     74  F   UNL A   1      43.524  26.762  26.304  1.00  0.00    -0.206 F 
ATOM     75  C   UNL A   1      44.596  24.858  25.526  1.00  0.00     0.059 A 
ATOM     76  C   UNL A   1      45.301  23.136  27.029  1.00  0.00     0.059 A 
ATOM     77  F   UNL A   1      44.886  23.242  29.266  1.00  0.00    -0.206 F 
ATOM     78  C   UNL A   1      45.191  23.624  25.742  1.00  0.00     0.060 A 
BRANCH  78  79
ATOM     79  S   UNL A   1      45.796  22.654  24.349  1.00  0.00     0.124 S 
ATOM     80  O   UNL A   1      44.567  22.389  23.608  1.00  0.00    -0.237 OA
ATOM     81  O   UNL A   1      46.738  23.571  23.718  1.00  0.00    -0.237 OA
ATOM     82  O   UNL A   1      46.401  21.485  24.985  1.00  0.00    -0.744 OA
ENDBRANCH  78  79
ENDBRANCH  57  71
BRANCH  58  83
ATOM     83  C   UNL A   1      39.260  31.242  33.739  1.00  0.00     0.058 A 
ATOM     84  C   UNL A   1      38.952  32.591  34.000  1.00  0.00     0.135 A 
ATOM     85  C   UNL A   1      38.206  30.393  33.371  1.00  0.00     0.135 A 
ATOM     86  F   UNL A   1      39.923  33.442  34.372  1.00  0.00    -0.206 F 
ATOM     87  C   UNL A   1      37.695  33.118  33.732  1.00  0.00     0.059 A 
ATOM     88  C   UNL A   1      36.932  30.900  33.103  1.00  0.00     0.059 A 
ATOM     89  F   UNL A   1      38.440  29.097  33.117  1.00  0.00    -0.206 F 
ATOM     90  C   UNL A   1      36.715  32.276  33.211  1.00  0.00     0.060 A 
BRANCH  90  91
ATOM     91  S   UNL A   1      35.248  33.053  32.493  1.00  0.00     0.124 S 
ATOM     92  O   UNL A   1      34.374  33.182  33.654  1.00  0.00    -0.237 OA
ATOM     93  O   UNL A   1      35.804  34.306  31.983  1.00  0.00    -0.237 OA
ATOM     94  O   UNL A   1      34.822  32.092  31.483  1.00  0.00    -0.744 OA
ENDBRANCH  90  91
ENDBRANCH  58  83
BRANCH  70  95
ATOM     95  C   UNL A   1      44.220  26.010  34.639  1.00  0.00     0.058 A 
ATOM     96  C   UNL A   1      43.451  24.942  35.132  1.00  0.00     0.135 A 
ATOM     97  C   UNL A   1      45.611  25.925  34.888  1.00  0.00     0.135 A 
ATOM     98  F   UNL A   1      42.139  24.849  34.868  1.00  0.00    -0.206 F 
ATOM     99  C   UNL A   1      44.006  23.898  35.876  1.00  0.00     0.059 A 
ATOM    100  C   UNL A   1      46.193  24.866  35.582  1.00  0.00     0.059 A 
ATOM    101  F   UNL A   1      46.456  26.871  34.452  1.00  0.00    -0.206 F 
ATOM    102  C   UNL A   1      45.379  23.868  36.097  1.00  0.00     0.060 A 
BRANCH 102 103
ATOM    103  S   UNL A   1      46.120  22.495  37.003  1.00  0.00     0.124 S 
ATOM    104  O   UNL A   1      47.542  22.720  36.761  1.00  0.00    -0.237 OA
ATOM    105  O   UNL A   1      45.671  22.726  38.373  1.00  0.00    -0.237 OA
ATOM    106  O   UNL A   1      45.543  21.322  36.353  1.00  0.00    -0.744 OA
ENDBRANCH 102 103
ENDBRANCH  70  95
ENDBRANCH  44  45
ENDBRANCH  36  39
ENDBRANCH  34  35
ENDBRANCH   1  34
TORSDOF 16
ENDMDL
MODEL 3
REMARK VINA RESULT:     -14.4      1.279      2.008
REMARK SMILES Cc1cccc(N2C(=O)/C(=C/c3ccc(C(=O)NCCCCNC(=O)c4ccc(-c5c6nc(c(-c7c(F)cc(S(=O)(=O)[O-])cc7F)c7ccc([nH]7)c(-c7c(F)cc(S(=O)(=O)[O-])cc7F)c7nc(c(-c8c(F)cc(S(=O)(=O)[O-])cc8F)c8ccc5[nH]8)C=C7)C=C6)cc4)cc3)c3ccccc3C2=O)c1
REMARK SMILES IDX 21 1 20 2 19 3 18 4 16 5 17 6 15 8 12 9 13 10 93 11 14 12
REMARK SMILES IDX 92 13 11 14 7 15 8 16 100 17 9 18 10 19 99 20 101 21 94 22
REMARK SMILES IDX 98 23 95 24 97 25 96 26 6 27 1 28 2 29 3 30 102 31 4 32 5 33
REMARK SMILES IDX 22 34 23 35 24 36 25 38 26 39 27 40 91 41 28 42 90 43 29 44
REMARK SMILES IDX 30 45 31 46 84 47 32 48 89 49 83 50 85 51 33 52 88 53 82 54
REMARK SMILES IDX 81 55 34 57 68 58 47 59 67 60 48 61 51 62 66 63 86 64 49 65
REMARK SMILES IDX 50 66 65 68 87 69 52 70 35 71 36 72 45 73 37 74 38 75 44 76
REMARK SMILES IDX 46 77 39 78 40 79 41 80 42 81 43 82 69 83 70 84 79 85 71 86
REMARK SMILES IDX 72 87 78 88 80 89 73 90 74 91 75 92 76 93 77 94 53 95 54 96
REMARK SMILES IDX 63 97 55 98 56 99 62 100 64 101 57 102 58 103 59 104 60 105
REMARK SMILES IDX 61 106
REMARK H PARENT 18 7 23 37 85 56 51 67
REMARK Flexibility Score: inf
ROOT
ATOM      1  C   UNL A   1      32.492  30.343  26.773  1.00  0.00     0.023 C 
ENDROOT
BRANCH   1   2
ATOM      2  C   UNL A   1      31.802  29.064  26.299  1.00  0.00     0.023 C 
BRANCH   2   3
ATOM      3  C   UNL A   1      32.132  28.613  24.871  1.00  0.00     0.116 C 
BRANCH   3   4
ATOM      4  N   UNL A   1      31.144  29.033  23.881  1.00  0.00    -0.352 N 
ATOM      5  C   UNL A   1      30.440  28.313  22.947  1.00  0.00     0.251 C 
ATOM      6  O   UNL A   1      29.731  28.893  22.126  1.00  0.00    -0.269 OA
ATOM      7  H   UNL A   1      30.950  29.998  23.882  1.00  0.00     0.163 HD
BRANCH   5   8
ATOM      8  C   UNL A   1      30.575  26.844  22.866  1.00  0.00     0.039 A 
ATOM      9  C   UNL A   1      31.140  24.111  22.832  1.00  0.00    -0.025 A 
ATOM     10  C   UNL A   1      31.663  24.945  21.837  1.00  0.00     0.009 A 
ATOM     11  C   UNL A   1      30.216  24.627  23.751  1.00  0.00     0.009 A 
ATOM     12  C   UNL A   1      31.379  26.311  21.853  1.00  0.00     0.014 A 
ATOM     13  C   UNL A   1      29.929  25.993  23.766  1.00  0.00     0.014 A 
BRANCH   9  14
ATOM     14  C   UNL A   1      31.623  22.727  22.924  1.00  0.00     0.022 C 
ATOM     15  N   UNL A   1      33.480  20.262  24.780  1.00  0.00    -0.242 N 
ATOM     16  C   UNL A   1      32.894  20.797  23.615  1.00  0.00     0.265 C 
ATOM     17  C   UNL A   1      33.833  21.081  25.876  1.00  0.00     0.265 C 
ATOM     18  O   UNL A   1      32.469  20.157  22.650  1.00  0.00    -0.268 OA
ATOM     19  C   UNL A   1      32.701  22.289  23.614  1.00  0.00     0.049 C 
ATOM     20  C   UNL A   1      34.082  22.519  25.604  1.00  0.00     0.048 A 
ATOM     21  O   UNL A   1      34.010  20.724  27.040  1.00  0.00    -0.268 OA
ATOM     22  C   UNL A   1      33.603  23.101  24.435  1.00  0.00    -0.000 A 
ATOM     23  C   UNL A   1      34.842  23.271  26.515  1.00  0.00     0.014 A 
ATOM     24  C   UNL A   1      34.004  24.411  24.127  1.00  0.00     0.010 A 
ATOM     25  C   UNL A   1      35.169  24.596  26.232  1.00  0.00     0.001 A 
ATOM     26  C   UNL A   1      34.768  25.159  25.026  1.00  0.00     0.001 A 
BRANCH  15  27
ATOM     27  C   UNL A   1      33.640  18.811  24.883  1.00  0.00     0.053 A 
ATOM     28  C   UNL A   1      31.614  15.756  26.038  1.00  0.00     0.044 C 
ATOM     29  C   UNL A   1      32.731  16.591  25.487  1.00  0.00    -0.049 A 
ATOM     30  C   UNL A   1      33.912  15.979  25.071  1.00  0.00     0.003 A 
ATOM     31  C   UNL A   1      32.600  17.988  25.369  1.00  0.00     0.030 A 
ATOM     32  C   UNL A   1      34.947  16.756  24.568  1.00  0.00     0.002 A 
ATOM     33  C   UNL A   1      34.813  18.148  24.484  1.00  0.00     0.027 A 
ENDBRANCH  15  27
ENDBRANCH   9  14
ENDBRANCH   5   8
ENDBRANCH   3   4
ENDBRANCH   2   3
ENDBRANCH   1   2
BRANCH   1  34
ATOM     34  C   UNL A   1      33.941  30.154  27.212  1.00  0.00     0.116 C 
BRANCH  34  35
ATOM     35  N   UNL A   1      34.526  31.329  27.840  1.00  0.00    -0.352 N 
ATOM     36  C   UNL A   1      35.664  31.391  28.628  1.00  0.00     0.251 C 
ATOM     37  H   UNL A   1      34.057  32.181  27.686  1.00  0.00     0.163 HD
ATOM     38  O   UNL A   1      35.945  32.383  29.279  1.00  0.00    -0.269 OA
BRANCH  36  39
ATOM     39  C   UNL A   1      36.595  30.243  28.563  1.00  0.00     0.039 A 
ATOM     40  C   UNL A   1      36.722  29.455  29.712  1.00  0.00     0.014 A 
ATOM     41  C   UNL A   1      37.494  30.122  27.508  1.00  0.00     0.014 A 
ATOM     42  C   UNL A   1      37.864  28.680  29.887  1.00  0.00     0.010 A 
ATOM     43  C   UNL A   1      38.665  29.416  27.716  1.00  0.00     0.010 A 
ATOM     44  C   UNL A   1      38.874  28.741  28.929  1.00  0.00    -0.014 A 
BRANCH  44  45
ATOM     45  C   UNL A   1      40.219  28.215  29.135  1.00  0.00     0.031 A 
ATOM     46  C   UNL A   1      40.519  26.798  28.828  1.00  0.00     0.074 A 
ATOM     47  C   UNL A   1      41.213  29.048  29.513  1.00  0.00     0.049 A 
ATOM     48  N   UNL A   1      41.605  26.189  29.173  1.00  0.00    -0.248 NA
ATOM     49  C   UNL A   1      39.555  25.914  28.179  1.00  0.00     0.031 C 
ATOM     50  C   UNL A   1      42.650  28.817  29.398  1.00  0.00     0.029 A 
ATOM     51  N   UNL A   1      41.109  30.203  30.291  1.00  0.00    -0.354 N 
ATOM     52  C   UNL A   1      41.616  24.960  28.554  1.00  0.00     0.074 A 
ATOM     53  C   UNL A   1      40.268  24.788  28.078  1.00  0.00     0.031 C 
ATOM     54  C   UNL A   1      43.293  29.631  30.247  1.00  0.00     0.029 A 
ATOM     55  C   UNL A   1      42.287  30.295  31.056  1.00  0.00     0.049 A 
ATOM     56  H   UNL A   1      40.353  30.834  30.301  1.00  0.00     0.167 HD
ATOM     57  C   UNL A   1      42.807  24.311  28.405  1.00  0.00     0.037 A 
ATOM     58  C   UNL A   1      42.247  30.249  32.422  1.00  0.00     0.037 A 
ATOM     59  C   UNL A   1      43.820  24.901  29.289  1.00  0.00     0.049 A 
ATOM     60  C   UNL A   1      42.982  29.075  33.028  1.00  0.00     0.074 A 
ATOM     61  C   UNL A   1      44.902  25.739  29.078  1.00  0.00     0.029 A 
ATOM     62  N   UNL A   1      43.626  24.852  30.669  1.00  0.00    -0.354 N 
ATOM     63  N   UNL A   1      43.382  28.034  32.350  1.00  0.00    -0.248 NA
ATOM     64  C   UNL A   1      43.314  28.971  34.447  1.00  0.00     0.031 C 
ATOM     65  C   UNL A   1      45.284  26.282  30.335  1.00  0.00     0.029 A 
ATOM     66  C   UNL A   1      44.467  25.739  31.313  1.00  0.00     0.049 A 
ATOM     67  H   UNL A   1      42.979  24.266  31.123  1.00  0.00     0.167 HD
ATOM     68  C   UNL A   1      43.960  27.124  33.196  1.00  0.00     0.074 A 
ATOM     69  C   UNL A   1      43.925  27.773  34.494  1.00  0.00     0.031 C 
ATOM     70  C   UNL A   1      44.403  25.907  32.762  1.00  0.00     0.037 A 
BRANCH  57  71
ATOM     71  C   UNL A   1      43.135  23.308  27.300  1.00  0.00     0.058 A 
ATOM     72  C   UNL A   1      42.647  21.980  27.370  1.00  0.00     0.135 A 
ATOM     73  C   UNL A   1      44.026  23.525  26.223  1.00  0.00     0.135 A 
ATOM     74  F   UNL A   1      41.774  21.611  28.319  1.00  0.00    -0.206 F 
ATOM     75  C   UNL A   1      43.052  20.959  26.498  1.00  0.00     0.059 A 
ATOM     76  C   UNL A   1      44.424  22.529  25.326  1.00  0.00     0.059 A 
ATOM     77  F   UNL A   1      44.603  24.703  25.984  1.00  0.00    -0.206 F 
ATOM     78  C   UNL A   1      43.956  21.240  25.484  1.00  0.00     0.060 A 
BRANCH  78  79
ATOM     79  S   UNL A   1      44.534  19.925  24.396  1.00  0.00     0.124 S 
ATOM     80  O   UNL A   1      45.765  19.505  25.056  1.00  0.00    -0.237 OA
ATOM     81  O   UNL A   1      43.428  18.975  24.442  1.00  0.00    -0.237 OA
ATOM     82  O   UNL A   1      44.717  20.600  23.113  1.00  0.00    -0.744 OA
ENDBRANCH  78  79
ENDBRANCH  57  71
BRANCH  58  83
ATOM     83  C   UNL A   1      41.045  30.916  32.991  1.00  0.00     0.058 A 
ATOM     84  C   UNL A   1      39.917  30.108  33.232  1.00  0.00     0.135 A 
ATOM     85  C   UNL A   1      41.143  32.123  33.699  1.00  0.00     0.135 A 
ATOM     86  F   UNL A   1      39.766  28.950  32.568  1.00  0.00    -0.206 F 
ATOM     87  C   UNL A   1      39.024  30.389  34.258  1.00  0.00     0.059 A 
ATOM     88  C   UNL A   1      40.252  32.430  34.730  1.00  0.00     0.059 A 
ATOM     89  F   UNL A   1      42.193  32.936  33.505  1.00  0.00    -0.206 F 
ATOM     90  C   UNL A   1      39.246  31.514  35.049  1.00  0.00     0.060 A 
BRANCH  90  91
ATOM     91  S   UNL A   1      38.333  31.630  36.605  1.00  0.00     0.124 S 
ATOM     92  O   UNL A   1      37.990  30.235  36.861  1.00  0.00    -0.237 OA
ATOM     93  O   UNL A   1      39.345  32.200  37.494  1.00  0.00    -0.237 OA
ATOM     94  O   UNL A   1      37.216  32.506  36.273  1.00  0.00    -0.744 OA
ENDBRANCH  90  91
ENDBRANCH  58  83
BRANCH  70  95
ATOM     95  C   UNL A   1      44.884  24.784  33.652  1.00  0.00     0.058 A 
ATOM     96  C   UNL A   1      46.236  24.440  33.826  1.00  0.00     0.135 A 
ATOM     97  C   UNL A   1      43.967  24.090  34.479  1.00  0.00     0.135 A 
ATOM     98  F   UNL A   1      47.210  25.100  33.183  1.00  0.00    -0.206 F 
ATOM     99  C   UNL A   1      46.647  23.435  34.705  1.00  0.00     0.059 A 
ATOM    100  C   UNL A   1      44.361  23.122  35.400  1.00  0.00     0.059 A 
ATOM    101  F   UNL A   1      42.651  24.341  34.422  1.00  0.00    -0.206 F 
ATOM    102  C   UNL A   1      45.702  22.780  35.489  1.00  0.00     0.060 A 
BRANCH 102 103
ATOM    103  S   UNL A   1      46.223  21.523  36.673  1.00  0.00     0.124 S 
ATOM    104  O   UNL A   1      45.737  22.086  37.928  1.00  0.00    -0.237 OA
ATOM    105  O   UNL A   1      45.527  20.326  36.209  1.00  0.00    -0.237 OA
ATOM    106  O   UNL A   1      47.673  21.497  36.509  1.00  0.00    -0.744 OA
ENDBRANCH 102 103
ENDBRANCH  70  95
ENDBRANCH  44  45
ENDBRANCH  36  39
ENDBRANCH  34  35
ENDBRANCH   1  34
TORSDOF 16
ENDMDL
