MODEL 1
REMARK VINA RESULT:     -12.7      0.000      0.000
REMARK SMILES O=C(C[C@H](NC(=O)[C@]12C[C@H]3C[C@H](C[C@H](C3)C1)C2)c1ccc(Cl)cc1Cl)NCCCCNC(=O)c1ccc(-c2c3nc(c(-c4c(F)cc(S(=O)(=O)[O-])cc4F)c4ccc([nH]4)c(-c4c(F)cc(S(=O)(=O)[O-])cc4F)c4nc(c(-c5c(F)cc(S(=O)(=O)[O-])cc5F)c5ccc2[nH]5)C=C4)C=C3)cc1
REMARK SMILES IDX 28 1 27 2 26 3 1 4 2 5 3 7 4 8 18 9 19 10 24 11 20 12 23 13
REMARK SMILES IDX 25 14 21 15 22 16 5 17 6 18 7 20 8 21 9 22 16 23 17 24 10 25
REMARK SMILES IDX 14 26 12 27 11 28 15 29 13 30 29 31 30 32 31 33 32 34 33 36
REMARK SMILES IDX 34 37 35 38 99 39 36 40 98 41 37 42 38 43 39 44 92 45 40 46
REMARK SMILES IDX 97 47 91 48 93 49 41 50 96 51 90 52 89 53 42 55 76 56 55 57
REMARK SMILES IDX 75 58 56 59 59 60 74 61 94 62 57 63 58 64 73 66 95 67 60 68
REMARK SMILES IDX 43 69 44 70 53 71 45 72 46 73 52 74 54 75 47 76 48 77 49 78
REMARK SMILES IDX 50 79 51 80 77 81 78 82 87 83 79 84 80 85 86 86 88 87 81 88
REMARK SMILES IDX 82 89 83 90 84 91 85 92 61 93 62 94 71 95 63 96 64 97 70 98
REMARK SMILES IDX 72 99 65 100 66 101 67 102 68 103 69 104
REMARK H PARENT 26 6 5 19 31 35 93 54 59 65
REMARK Flexibility Score: inf
ROOT
ATOM      1  C   UNL A   1      39.260  22.233  26.230  1.00  0.00     0.023 C 
ENDROOT
BRANCH   1   2
ATOM      2  C   UNL A   1      37.972  23.054  26.143  1.00  0.00     0.116 C 
BRANCH   2   3
ATOM      3  N   UNL A   1      36.940  22.579  25.233  1.00  0.00    -0.356 N 
ATOM      4  O   UNL A   1      35.179  22.947  26.638  1.00  0.00    -0.275 OA
ATOM      5  C   UNL A   1      35.605  22.716  25.506  1.00  0.00     0.222 C 
ATOM      6  H   UNL A   1      37.212  22.145  24.392  1.00  0.00     0.163 HD
BRANCH   5   7
ATOM      7  C   UNL A   1      34.617  22.618  24.365  1.00  0.00     0.129 C 
BRANCH   7   8
ATOM      8  C   UNL A   1      33.123  22.347  24.614  1.00  0.00     0.123 C 
BRANCH   8   9
ATOM      9  C   UNL A   1      32.894  20.826  24.608  1.00  0.00    -0.006 A 
ATOM     10  C   UNL A   1      33.200  20.040  25.734  1.00  0.00     0.009 A 
ATOM     11  C   UNL A   1      32.458  20.150  23.443  1.00  0.00     0.047 A 
ATOM     12  C   UNL A   1      33.127  18.644  25.686  1.00  0.00     0.021 A 
ATOM     13  C   UNL A   1      32.396  18.754  23.391  1.00  0.00     0.041 A 
ATOM     14  Cl  UNL A   1      31.974  21.000  22.013  1.00  0.00    -0.084 Cl
ATOM     15  C   UNL A   1      32.744  18.008  24.510  1.00  0.00     0.042 A 
ATOM     16  Cl  UNL A   1      32.703  16.290  24.444  1.00  0.00    -0.084 Cl
ENDBRANCH   8   9
BRANCH   8  17
ATOM     17  N   UNL A   1      32.348  23.012  25.699  1.00  0.00    -0.348 N 
ATOM     18  C   UNL A   1      32.045  24.220  26.241  1.00  0.00     0.226 C 
ATOM     19  H   UNL A   1      31.881  22.315  26.217  1.00  0.00     0.164 HD
ATOM     20  O   UNL A   1      31.557  24.161  27.377  1.00  0.00    -0.274 OA
BRANCH  18  21
ATOM     21  C   UNL A   1      32.196  25.584  25.555  1.00  0.00     0.050 C 
ATOM     22  C   UNL A   1      31.612  25.579  24.133  1.00  0.00     0.020 C 
ATOM     23  C   UNL A   1      33.693  26.011  25.395  1.00  0.00     0.020 C 
ATOM     24  C   UNL A   1      31.596  26.659  26.467  1.00  0.00     0.020 C 
ATOM     25  C   UNL A   1      31.654  26.984  23.520  1.00  0.00    -0.010 C 
ATOM     26  C   UNL A   1      33.795  27.423  24.762  1.00  0.00    -0.010 C 
ATOM     27  C   UNL A   1      31.603  28.038  25.813  1.00  0.00    -0.010 C 
ATOM     28  C   UNL A   1      30.910  27.962  24.443  1.00  0.00     0.007 C 
ATOM     29  C   UNL A   1      33.121  27.416  23.380  1.00  0.00     0.007 C 
ATOM     30  C   UNL A   1      33.068  28.457  25.640  1.00  0.00     0.007 C 
ENDBRANCH  18  21
ENDBRANCH   8  17
ENDBRANCH   7   8
ENDBRANCH   5   7
ENDBRANCH   2   3
ENDBRANCH   1   2
BRANCH   1  31
ATOM     31  C   UNL A   1      40.030  22.364  27.541  1.00  0.00     0.023 C 
BRANCH  31  32
ATOM     32  C   UNL A   1      41.334  23.137  27.435  1.00  0.00     0.116 C 
BRANCH  32  33
ATOM     33  N   UNL A   1      41.424  23.924  26.214  1.00  0.00    -0.352 N 
ATOM     34  C   UNL A   1      41.340  25.292  26.074  1.00  0.00     0.251 C 
ATOM     35  H   UNL A   1      41.564  23.414  25.384  1.00  0.00     0.163 HD
ATOM     36  O   UNL A   1      41.307  25.801  24.968  1.00  0.00    -0.269 OA
BRANCH  34  37
ATOM     37  C   UNL A   1      41.254  26.126  27.294  1.00  0.00     0.039 A 
ATOM     38  C   UNL A   1      42.278  27.036  27.560  1.00  0.00     0.014 A 
ATOM     39  C   UNL A   1      40.145  26.037  28.139  1.00  0.00     0.014 A 
ATOM     40  C   UNL A   1      42.159  27.906  28.645  1.00  0.00     0.010 A 
ATOM     41  C   UNL A   1      39.996  26.948  29.179  1.00  0.00     0.010 A 
ATOM     42  C   UNL A   1      41.003  27.890  29.443  1.00  0.00    -0.014 A 
BRANCH  42  43
ATOM     43  C   UNL A   1      40.829  28.848  30.564  1.00  0.00     0.031 A 
ATOM     44  C   UNL A   1      41.675  28.718  31.800  1.00  0.00     0.074 A 
ATOM     45  C   UNL A   1      39.868  29.791  30.493  1.00  0.00     0.049 A 
ATOM     46  N   UNL A   1      41.624  29.405  32.912  1.00  0.00    -0.248 NA
ATOM     47  C   UNL A   1      42.691  27.653  31.798  1.00  0.00     0.031 C 
ATOM     48  C   UNL A   1      38.948  29.980  29.369  1.00  0.00     0.029 A 
ATOM     49  N   UNL A   1      39.497  30.758  31.392  1.00  0.00    -0.354 N 
ATOM     50  C   UNL A   1      42.591  28.851  33.742  1.00  0.00     0.074 A 
ATOM     51  C   UNL A   1      43.173  27.736  33.029  1.00  0.00     0.031 C 
ATOM     52  C   UNL A   1      38.130  31.010  29.640  1.00  0.00     0.029 A 
ATOM     53  C   UNL A   1      38.445  31.535  30.965  1.00  0.00     0.049 A 
ATOM     54  H   UNL A   1      39.940  30.885  32.262  1.00  0.00     0.167 HD
ATOM     55  C   UNL A   1      42.975  29.252  34.978  1.00  0.00     0.037 A 
ATOM     56  C   UNL A   1      37.803  32.550  31.576  1.00  0.00     0.037 A 
ATOM     57  C   UNL A   1      42.410  30.380  35.671  1.00  0.00     0.049 A 
ATOM     58  C   UNL A   1      38.260  32.989  32.940  1.00  0.00     0.074 A 
ATOM     59  C   UNL A   1      42.764  30.899  36.904  1.00  0.00     0.029 A 
ATOM     60  N   UNL A   1      41.373  31.166  35.188  1.00  0.00    -0.354 N 
ATOM     61  N   UNL A   1      39.215  32.490  33.689  1.00  0.00    -0.248 NA
ATOM     62  C   UNL A   1      37.561  34.133  33.541  1.00  0.00     0.031 C 
ATOM     63  C   UNL A   1      41.920  31.979  37.182  1.00  0.00     0.029 A 
ATOM     64  C   UNL A   1      41.068  32.158  36.103  1.00  0.00     0.049 A 
ATOM     65  H   UNL A   1      40.921  31.036  34.323  1.00  0.00     0.167 HD
ATOM     66  C   UNL A   1      39.247  33.273  34.838  1.00  0.00     0.074 A 
ATOM     67  C   UNL A   1      38.222  34.286  34.679  1.00  0.00     0.031 C 
ATOM     68  C   UNL A   1      40.049  33.163  35.925  1.00  0.00     0.037 A 
BRANCH  55  69
ATOM     69  C   UNL A   1      44.068  28.468  35.651  1.00  0.00     0.058 A 
ATOM     70  C   UNL A   1      45.423  28.773  35.445  1.00  0.00     0.135 A 
ATOM     71  C   UNL A   1      43.760  27.416  36.529  1.00  0.00     0.135 A 
ATOM     72  F   UNL A   1      45.773  29.759  34.603  1.00  0.00    -0.206 F 
ATOM     73  C   UNL A   1      46.435  28.043  36.058  1.00  0.00     0.059 A 
ATOM     74  C   UNL A   1      44.756  26.689  37.174  1.00  0.00     0.059 A 
ATOM     75  F   UNL A   1      42.481  27.082  36.761  1.00  0.00    -0.206 F 
ATOM     76  C   UNL A   1      46.091  27.000  36.920  1.00  0.00     0.060 A 
BRANCH  76  77
ATOM     77  S   UNL A   1      47.415  26.058  37.706  1.00  0.00     0.124 S 
ATOM     78  O   UNL A   1      47.844  25.192  36.611  1.00  0.00    -0.237 OA
ATOM     79  O   UNL A   1      48.358  27.104  38.091  1.00  0.00    -0.237 OA
ATOM     80  O   UNL A   1      46.743  25.386  38.813  1.00  0.00    -0.744 OA
ENDBRANCH  76  77
ENDBRANCH  55  69
BRANCH  56  81
ATOM     81  C   UNL A   1      36.678  33.236  30.889  1.00  0.00     0.058 A 
ATOM     82  C   UNL A   1      35.348  32.989  31.259  1.00  0.00     0.135 A 
ATOM     83  C   UNL A   1      36.909  34.164  29.860  1.00  0.00     0.135 A 
ATOM     84  F   UNL A   1      35.077  32.107  32.232  1.00  0.00    -0.206 F 
ATOM     85  C   UNL A   1      34.284  33.624  30.625  1.00  0.00     0.059 A 
ATOM     86  C   UNL A   1      35.864  34.829  29.227  1.00  0.00     0.059 A 
ATOM     87  F   UNL A   1      38.166  34.447  29.481  1.00  0.00    -0.206 F 
ATOM     88  C   UNL A   1      34.553  34.545  29.610  1.00  0.00     0.060 A 
BRANCH  88  89
ATOM     89  S   UNL A   1      33.170  35.400  28.827  1.00  0.00     0.124 S 
ATOM     90  O   UNL A   1      32.535  34.317  28.087  1.00  0.00    -0.237 OA
ATOM     91  O   UNL A   1      32.430  35.907  29.979  1.00  0.00    -0.237 OA
ATOM     92  O   UNL A   1      33.825  36.422  28.015  1.00  0.00    -0.744 OA
ENDBRANCH  88  89
ENDBRANCH  56  81
BRANCH  68  93
ATOM     93  C   UNL A   1      39.876  34.181  37.016  1.00  0.00     0.058 A 
ATOM     94  C   UNL A   1      40.521  35.426  36.970  1.00  0.00     0.135 A 
ATOM     95  C   UNL A   1      39.011  33.928  38.093  1.00  0.00     0.135 A 
ATOM     96  F   UNL A   1      41.363  35.713  35.965  1.00  0.00    -0.206 F 
ATOM     97  C   UNL A   1      40.330  36.379  37.966  1.00  0.00     0.059 A 
ATOM     98  C   UNL A   1      38.785  34.875  39.086  1.00  0.00     0.059 A 
ATOM     99  F   UNL A   1      38.361  32.756  38.177  1.00  0.00    -0.206 F 
ATOM    100  C   UNL A   1      39.459  36.095  39.019  1.00  0.00     0.060 A 
BRANCH 100 101
ATOM    101  S   UNL A   1      39.189  37.353  40.284  1.00  0.00     0.124 S 
ATOM    102  O   UNL A   1      38.638  36.558  41.377  1.00  0.00    -0.237 OA
ATOM    103  O   UNL A   1      40.535  37.878  40.499  1.00  0.00    -0.237 OA
ATOM    104  O   UNL A   1      38.257  38.280  39.649  1.00  0.00    -0.744 OA
ENDBRANCH 100 101
ENDBRANCH  68  93
ENDBRANCH  42  43
ENDBRANCH  34  37
ENDBRANCH  32  33
ENDBRANCH  31  32
ENDBRANCH   1  31
TORSDOF 18
ENDMDL
MODEL 2
REMARK VINA RESULT:     -12.7      1.449      2.219
REMARK SMILES O=C(C[C@H](NC(=O)[C@]12C[C@H]3C[C@H](C[C@H](C3)C1)C2)c1ccc(Cl)cc1Cl)NCCCCNC(=O)c1ccc(-c2c3nc(c(-c4c(F)cc(S(=O)(=O)[O-])cc4F)c4ccc([nH]4)c(-c4c(F)cc(S(=O)(=O)[O-])cc4F)c4nc(c(-c5c(F)cc(S(=O)(=O)[O-])cc5F)c5ccc2[nH]5)C=C4)C=C3)cc1
REMARK SMILES IDX 28 1 27 2 26 3 1 4 2 5 3 7 4 8 18 9 19 10 24 11 20 12 23 13
REMARK SMILES IDX 25 14 21 15 22 16 5 17 6 18 7 20 8 21 9 22 16 23 17 24 10 25
REMARK SMILES IDX 14 26 12 27 11 28 15 29 13 30 29 31 30 32 31 33 32 34 33 36
REMARK SMILES IDX 34 37 35 38 99 39 36 40 98 41 37 42 38 43 39 44 92 45 40 46
REMARK SMILES IDX 97 47 91 48 93 49 41 50 96 51 90 52 89 53 42 55 76 56 55 57
REMARK SMILES IDX 75 58 56 59 59 60 74 61 94 62 57 63 58 64 73 66 95 67 60 68
REMARK SMILES IDX 43 69 44 70 53 71 45 72 46 73 52 74 54 75 47 76 48 77 49 78
REMARK SMILES IDX 50 79 51 80 77 81 78 82 87 83 79 84 80 85 86 86 88 87 81 88
REMARK SMILES IDX 82 89 83 90 84 91 85 92 61 93 62 94 71 95 63 96 64 97 70 98
REMARK SMILES IDX 72 99 65 100 66 101 67 102 68 103 69 104
REMARK H PARENT 26 6 5 19 31 35 93 54 59 65
REMARK Flexibility Score: inf
ROOT
ATOM      1  C   UNL A   1      39.688  22.864  27.208  1.00  0.00     0.023 C 
ENDROOT
BRANCH   1   2
ATOM      2  C   UNL A   1      38.920  22.237  26.043  1.00  0.00     0.116 C 
BRANCH   2   3
ATOM      3  N   UNL A   1      37.887  23.046  25.414  1.00  0.00    -0.356 N 
ATOM      4  O   UNL A   1      36.129  21.718  26.013  1.00  0.00    -0.275 OA
ATOM      5  C   UNL A   1      36.552  22.795  25.591  1.00  0.00     0.222 C 
ATOM      6  H   UNL A   1      38.157  23.800  24.841  1.00  0.00     0.163 HD
BRANCH   5   7
ATOM      7  C   UNL A   1      35.560  23.896  25.293  1.00  0.00     0.129 C 
BRANCH   7   8
ATOM      8  C   UNL A   1      34.438  23.712  24.257  1.00  0.00     0.123 C 
BRANCH   8   9
ATOM      9  C   UNL A   1      33.105  23.532  25.004  1.00  0.00    -0.006 A 
ATOM     10  C   UNL A   1      32.915  24.073  26.290  1.00  0.00     0.009 A 
ATOM     11  C   UNL A   1      32.061  22.741  24.471  1.00  0.00     0.047 A 
ATOM     12  C   UNL A   1      31.761  23.794  27.030  1.00  0.00     0.021 A 
ATOM     13  C   UNL A   1      30.913  22.452  25.216  1.00  0.00     0.041 A 
ATOM     14  Cl  UNL A   1      32.131  22.080  22.871  1.00  0.00    -0.084 Cl
ATOM     15  C   UNL A   1      30.776  22.971  26.497  1.00  0.00     0.042 A 
ATOM     16  Cl  UNL A   1      29.382  22.593  27.432  1.00  0.00    -0.084 Cl
ENDBRANCH   8   9
BRANCH   8  17
ATOM     17  N   UNL A   1      34.282  24.593  23.065  1.00  0.00    -0.348 N 
ATOM     18  C   UNL A   1      33.613  25.676  22.590  1.00  0.00     0.226 C 
ATOM     19  H   UNL A   1      34.888  24.270  22.359  1.00  0.00     0.164 HD
ATOM     20  O   UNL A   1      33.664  25.806  21.360  1.00  0.00    -0.274 OA
BRANCH  18  21
ATOM     21  C   UNL A   1      32.889  26.735  23.431  1.00  0.00     0.050 C 
ATOM     22  C   UNL A   1      31.456  26.303  23.786  1.00  0.00     0.020 C 
ATOM     23  C   UNL A   1      32.744  28.100  22.680  1.00  0.00     0.020 C 
ATOM     24  C   UNL A   1      33.756  27.068  24.650  1.00  0.00     0.020 C 
ATOM     25  C   UNL A   1      30.801  27.313  24.736  1.00  0.00    -0.010 C 
ATOM     26  C   UNL A   1      32.069  29.158  23.592  1.00  0.00    -0.010 C 
ATOM     27  C   UNL A   1      33.060  28.035  25.604  1.00  0.00    -0.010 C 
ATOM     28  C   UNL A   1      31.679  27.476  25.987  1.00  0.00     0.007 C 
ATOM     29  C   UNL A   1      30.676  28.661  24.010  1.00  0.00     0.007 C 
ATOM     30  C   UNL A   1      32.901  29.371  24.869  1.00  0.00     0.007 C 
ENDBRANCH  18  21
ENDBRANCH   8  17
ENDBRANCH   7   8
ENDBRANCH   5   7
ENDBRANCH   2   3
ENDBRANCH   1   2
BRANCH   1  31
ATOM     31  C   UNL A   1      41.074  22.280  27.466  1.00  0.00     0.023 C 
BRANCH  31  32
ATOM     32  C   UNL A   1      42.192  23.307  27.532  1.00  0.00     0.116 C 
BRANCH  32  33
ATOM     33  N   UNL A   1      42.455  23.936  26.247  1.00  0.00    -0.352 N 
ATOM     34  C   UNL A   1      42.320  25.263  25.904  1.00  0.00     0.251 C 
ATOM     35  H   UNL A   1      42.769  23.336  25.532  1.00  0.00     0.163 HD
ATOM     36  O   UNL A   1      42.457  25.622  24.748  1.00  0.00    -0.269 OA
BRANCH  34  37
ATOM     37  C   UNL A   1      41.969  26.237  26.963  1.00  0.00     0.039 A 
ATOM     38  C   UNL A   1      40.857  25.983  27.768  1.00  0.00     0.014 A 
ATOM     39  C   UNL A   1      42.764  27.364  27.183  1.00  0.00     0.014 A 
ATOM     40  C   UNL A   1      40.577  26.833  28.839  1.00  0.00     0.010 A 
ATOM     41  C   UNL A   1      42.523  28.171  28.290  1.00  0.00     0.010 A 
ATOM     42  C   UNL A   1      41.426  27.914  29.127  1.00  0.00    -0.014 A 
BRANCH  42  43
ATOM     43  C   UNL A   1      41.181  28.793  30.298  1.00  0.00     0.031 A 
ATOM     44  C   UNL A   1      42.015  28.637  31.540  1.00  0.00     0.074 A 
ATOM     45  C   UNL A   1      40.169  29.683  30.266  1.00  0.00     0.049 A 
ATOM     46  N   UNL A   1      41.909  29.254  32.688  1.00  0.00    -0.248 NA
ATOM     47  C   UNL A   1      43.090  27.633  31.494  1.00  0.00     0.031 C 
ATOM     48  C   UNL A   1      39.257  29.887  29.139  1.00  0.00     0.029 A 
ATOM     49  N   UNL A   1      39.730  30.573  31.212  1.00  0.00    -0.354 N 
ATOM     50  C   UNL A   1      42.893  28.707  33.503  1.00  0.00     0.074 A 
ATOM     51  C   UNL A   1      43.549  27.669  32.736  1.00  0.00     0.031 C 
ATOM     52  C   UNL A   1      38.377  30.852  29.454  1.00  0.00     0.029 A 
ATOM     53  C   UNL A   1      38.643  31.314  30.813  1.00  0.00     0.049 A 
ATOM     54  H   UNL A   1      40.153  30.673  32.096  1.00  0.00     0.167 HD
ATOM     55  C   UNL A   1      43.236  29.054  34.766  1.00  0.00     0.037 A 
ATOM     56  C   UNL A   1      37.935  32.254  31.470  1.00  0.00     0.037 A 
ATOM     57  C   UNL A   1      42.598  30.106  35.513  1.00  0.00     0.049 A 
ATOM     58  C   UNL A   1      38.346  32.636  32.865  1.00  0.00     0.074 A 
ATOM     59  C   UNL A   1      42.904  30.570  36.780  1.00  0.00     0.029 A 
ATOM     60  N   UNL A   1      41.525  30.860  35.059  1.00  0.00    -0.354 N 
ATOM     61  N   UNL A   1      39.318  32.148  33.601  1.00  0.00    -0.248 NA
ATOM     62  C   UNL A   1      37.574  33.701  33.519  1.00  0.00     0.031 C 
ATOM     63  C   UNL A   1      41.996  31.583  37.106  1.00  0.00     0.029 A 
ATOM     64  C   UNL A   1      41.150  31.778  36.024  1.00  0.00     0.049 A 
ATOM     65  H   UNL A   1      41.094  30.756  34.180  1.00  0.00     0.167 HD
ATOM     66  C   UNL A   1      39.288  32.862  34.793  1.00  0.00     0.074 A 
ATOM     67  C   UNL A   1      38.210  33.824  34.676  1.00  0.00     0.031 C 
ATOM     68  C   UNL A   1      40.079  32.733  35.886  1.00  0.00     0.037 A 
BRANCH  55  69
ATOM     69  C   UNL A   1      44.361  28.294  35.412  1.00  0.00     0.058 A 
ATOM     70  C   UNL A   1      45.698  28.699  35.266  1.00  0.00     0.135 A 
ATOM     71  C   UNL A   1      44.103  27.164  36.204  1.00  0.00     0.135 A 
ATOM     72  F   UNL A   1      46.003  29.763  34.506  1.00  0.00    -0.206 F 
ATOM     73  C   UNL A   1      46.741  27.991  35.853  1.00  0.00     0.059 A 
ATOM     74  C   UNL A   1      45.129  26.457  36.824  1.00  0.00     0.059 A 
ATOM     75  F   UNL A   1      42.843  26.734  36.377  1.00  0.00    -0.206 F 
ATOM     76  C   UNL A   1      46.446  26.869  36.629  1.00  0.00     0.060 A 
BRANCH  76  77
ATOM     77  S   UNL A   1      47.810  25.958  37.382  1.00  0.00     0.124 S 
ATOM     78  O   UNL A   1      47.835  26.532  38.725  1.00  0.00    -0.237 OA
ATOM     79  O   UNL A   1      47.352  24.575  37.295  1.00  0.00    -0.237 OA
ATOM     80  O   UNL A   1      48.951  26.291  36.535  1.00  0.00    -0.744 OA
ENDBRANCH  76  77
ENDBRANCH  55  69
BRANCH  56  81
ATOM     81  C   UNL A   1      36.783  32.915  30.804  1.00  0.00     0.058 A 
ATOM     82  C   UNL A   1      35.465  32.615  31.177  1.00  0.00     0.135 A 
ATOM     83  C   UNL A   1      36.976  33.871  29.794  1.00  0.00     0.135 A 
ATOM     84  F   UNL A   1      35.230  31.705  32.133  1.00  0.00    -0.206 F 
ATOM     85  C   UNL A   1      34.376  33.227  30.563  1.00  0.00     0.059 A 
ATOM     86  C   UNL A   1      35.905  34.513  29.180  1.00  0.00     0.059 A 
ATOM     87  F   UNL A   1      38.220  34.204  29.412  1.00  0.00    -0.206 F 
ATOM     88  C   UNL A   1      34.607  34.177  29.566  1.00  0.00     0.060 A 
BRANCH  88  89
ATOM     89  S   UNL A   1      33.190  35.001  28.808  1.00  0.00     0.124 S 
ATOM     90  O   UNL A   1      32.379  35.324  29.976  1.00  0.00    -0.237 OA
ATOM     91  O   UNL A   1      33.817  36.133  28.133  1.00  0.00    -0.237 OA
ATOM     92  O   UNL A   1      32.644  33.978  27.922  1.00  0.00    -0.744 OA
ENDBRANCH  88  89
ENDBRANCH  56  81
BRANCH  68  93
ATOM     93  C   UNL A   1      39.832  33.673  37.032  1.00  0.00     0.058 A 
ATOM     94  C   UNL A   1      38.995  33.324  38.102  1.00  0.00     0.135 A 
ATOM     95  C   UNL A   1      40.486  34.915  37.086  1.00  0.00     0.135 A 
ATOM     96  F   UNL A   1      38.342  32.152  38.095  1.00  0.00    -0.206 F 
ATOM     97  C   UNL A   1      38.797  34.184  39.178  1.00  0.00     0.059 A 
ATOM     98  C   UNL A   1      40.323  35.779  38.163  1.00  0.00     0.059 A 
ATOM     99  F   UNL A   1      41.306  35.290  36.092  1.00  0.00    -0.206 F 
ATOM    100  C   UNL A   1      39.467  35.409  39.201  1.00  0.00     0.060 A 
BRANCH 100 101
ATOM    101  S   UNL A   1      39.233  36.499  40.620  1.00  0.00     0.124 S 
ATOM    102  O   UNL A   1      40.584  36.564  41.166  1.00  0.00    -0.237 OA
ATOM    103  O   UNL A   1      38.740  37.724  39.998  1.00  0.00    -0.237 OA
ATOM    104  O   UNL A   1      38.258  35.785  41.440  1.00  0.00    -0.744 OA
ENDBRANCH 100 101
ENDBRANCH  68  93
ENDBRANCH  42  43
ENDBRANCH  34  37
ENDBRANCH  32  33
ENDBRANCH  31  32
ENDBRANCH   1  31
TORSDOF 18
ENDMDL
MODEL 3
REMARK VINA RESULT:     -12.4      1.547      8.146
REMARK SMILES O=C(C[C@H](NC(=O)[C@]12C[C@H]3C[C@H](C[C@H](C3)C1)C2)c1ccc(Cl)cc1Cl)NCCCCNC(=O)c1ccc(-c2c3nc(c(-c4c(F)cc(S(=O)(=O)[O-])cc4F)c4ccc([nH]4)c(-c4c(F)cc(S(=O)(=O)[O-])cc4F)c4nc(c(-c5c(F)cc(S(=O)(=O)[O-])cc5F)c5ccc2[nH]5)C=C4)C=C3)cc1
REMARK SMILES IDX 28 1 27 2 26 3 1 4 2 5 3 7 4 8 18 9 19 10 24 11 20 12 23 13
REMARK SMILES IDX 25 14 21 15 22 16 5 17 6 18 7 20 8 21 9 22 16 23 17 24 10 25
REMARK SMILES IDX 14 26 12 27 11 28 15 29 13 30 29 31 30 32 31 33 32 34 33 36
REMARK SMILES IDX 34 37 35 38 99 39 36 40 98 41 37 42 38 43 39 44 92 45 40 46
REMARK SMILES IDX 97 47 91 48 93 49 41 50 96 51 90 52 89 53 42 55 76 56 55 57
REMARK SMILES IDX 75 58 56 59 59 60 74 61 94 62 57 63 58 64 73 66 95 67 60 68
REMARK SMILES IDX 43 69 44 70 53 71 45 72 46 73 52 74 54 75 47 76 48 77 49 78
REMARK SMILES IDX 50 79 51 80 77 81 78 82 87 83 79 84 80 85 86 86 88 87 81 88
REMARK SMILES IDX 82 89 83 90 84 91 85 92 61 93 62 94 71 95 63 96 64 97 70 98
REMARK SMILES IDX 72 99 65 100 66 101 67 102 68 103 69 104
REMARK H PARENT 26 6 5 19 31 35 93 54 59 65
REMARK Flexibility Score: inf
ROOT
ATOM      1  C   UNL A   1      39.910  22.972  27.215  1.00  0.00     0.023 C 
ENDROOT
BRANCH   1   2
ATOM      2  C   UNL A   1      39.040  22.390  26.099  1.00  0.00     0.116 C 
BRANCH   2   3
ATOM      3  N   UNL A   1      37.951  23.219  25.603  1.00  0.00    -0.356 N 
ATOM      4  O   UNL A   1      36.397  21.550  25.492  1.00  0.00    -0.275 OA
ATOM      5  C   UNL A   1      36.669  22.751  25.492  1.00  0.00     0.222 C 
ATOM      6  H   UNL A   1      38.143  24.148  25.339  1.00  0.00     0.163 HD
BRANCH   5   7
ATOM      7  C   UNL A   1      35.537  23.750  25.405  1.00  0.00     0.129 C 
BRANCH   7   8
ATOM      8  C   UNL A   1      34.423  23.616  24.351  1.00  0.00     0.123 C 
BRANCH   8   9
ATOM      9  C   UNL A   1      33.078  23.450  25.079  1.00  0.00    -0.006 A 
ATOM     10  C   UNL A   1      32.884  23.965  26.374  1.00  0.00     0.009 A 
ATOM     11  C   UNL A   1      32.022  22.696  24.515  1.00  0.00     0.047 A 
ATOM     12  C   UNL A   1      31.716  23.696  27.094  1.00  0.00     0.021 A 
ATOM     13  C   UNL A   1      30.858  22.417  25.239  1.00  0.00     0.041 A 
ATOM     14  Cl  UNL A   1      32.096  22.071  22.901  1.00  0.00    -0.084 Cl
ATOM     15  C   UNL A   1      30.717  22.909  26.531  1.00  0.00     0.042 A 
ATOM     16  Cl  UNL A   1      29.304  22.543  27.440  1.00  0.00    -0.084 Cl
ENDBRANCH   8   9
BRANCH   8  17
ATOM     17  N   UNL A   1      34.302  24.527  23.178  1.00  0.00    -0.348 N 
ATOM     18  C   UNL A   1      33.669  25.639  22.722  1.00  0.00     0.226 C 
ATOM     19  H   UNL A   1      34.905  24.203  22.470  1.00  0.00     0.164 HD
ATOM     20  O   UNL A   1      33.733  25.795  21.496  1.00  0.00    -0.274 OA
BRANCH  18  21
ATOM     21  C   UNL A   1      32.967  26.700  23.582  1.00  0.00     0.050 C 
ATOM     22  C   UNL A   1      31.545  26.269  23.975  1.00  0.00     0.020 C 
ATOM     23  C   UNL A   1      32.804  28.064  22.834  1.00  0.00     0.020 C 
ATOM     24  C   UNL A   1      33.867  27.033  24.777  1.00  0.00     0.020 C 
ATOM     25  C   UNL A   1      30.916  27.281  24.941  1.00  0.00    -0.010 C 
ATOM     26  C   UNL A   1      32.154  29.123  23.763  1.00  0.00    -0.010 C 
ATOM     27  C   UNL A   1      33.198  28.001  25.748  1.00  0.00    -0.010 C 
ATOM     28  C   UNL A   1      31.828  27.444  26.168  1.00  0.00     0.007 C 
ATOM     29  C   UNL A   1      30.773  28.628  24.218  1.00  0.00     0.007 C 
ATOM     30  C   UNL A   1      33.021  29.337  25.017  1.00  0.00     0.007 C 
ENDBRANCH  18  21
ENDBRANCH   8  17
ENDBRANCH   7   8
ENDBRANCH   5   7
ENDBRANCH   2   3
ENDBRANCH   1   2
BRANCH   1  31
ATOM     31  C   UNL A   1      41.320  22.396  27.311  1.00  0.00     0.023 C 
BRANCH  31  32
ATOM     32  C   UNL A   1      42.429  23.435  27.323  1.00  0.00     0.116 C 
BRANCH  32  33
ATOM     33  N   UNL A   1      42.388  24.315  26.165  1.00  0.00    -0.352 N 
ATOM     34  C   UNL A   1      42.132  25.668  26.132  1.00  0.00     0.251 C 
ATOM     35  H   UNL A   1      42.566  23.889  25.296  1.00  0.00     0.163 HD
ATOM     36  O   UNL A   1      42.006  26.250  25.070  1.00  0.00    -0.269 OA
BRANCH  34  37
ATOM     37  C   UNL A   1      41.977  26.392  27.415  1.00  0.00     0.039 A 
ATOM     38  C   UNL A   1      42.880  27.410  27.726  1.00  0.00     0.014 A 
ATOM     39  C   UNL A   1      40.918  26.094  28.275  1.00  0.00     0.014 A 
ATOM     40  C   UNL A   1      42.684  28.175  28.877  1.00  0.00     0.010 A 
ATOM     41  C   UNL A   1      40.685  26.899  29.385  1.00  0.00     0.010 A 
ATOM     42  C   UNL A   1      41.567  27.946  29.698  1.00  0.00    -0.014 A 
BRANCH  42  43
ATOM     43  C   UNL A   1      41.305  28.788  30.892  1.00  0.00     0.031 A 
ATOM     44  C   UNL A   1      40.178  29.782  30.876  1.00  0.00     0.074 A 
ATOM     45  C   UNL A   1      42.121  28.701  31.962  1.00  0.00     0.049 A 
ATOM     46  N   UNL A   1      39.835  30.657  31.786  1.00  0.00    -0.248 NA
ATOM     47  C   UNL A   1      39.345  29.819  29.663  1.00  0.00     0.031 C 
ATOM     48  C   UNL A   1      43.281  27.814  32.073  1.00  0.00     0.029 A 
ATOM     49  N   UNL A   1      42.107  29.379  33.154  1.00  0.00    -0.354 N 
ATOM     50  C   UNL A   1      38.757  31.354  31.253  1.00  0.00     0.074 A 
ATOM     51  C   UNL A   1      38.538  30.839  29.919  1.00  0.00     0.031 C 
ATOM     52  C   UNL A   1      43.856  27.990  33.273  1.00  0.00     0.029 A 
ATOM     53  C   UNL A   1      43.127  29.023  34.004  1.00  0.00     0.049 A 
ATOM     54  H   UNL A   1      41.431  30.057  33.380  1.00  0.00     0.167 HD
ATOM     55  C   UNL A   1      38.003  32.317  31.833  1.00  0.00     0.037 A 
ATOM     56  C   UNL A   1      43.444  29.481  35.231  1.00  0.00     0.037 A 
ATOM     57  C   UNL A   1      38.209  32.805  33.171  1.00  0.00     0.049 A 
ATOM     58  C   UNL A   1      42.580  30.539  35.862  1.00  0.00     0.074 A 
ATOM     59  C   UNL A   1      37.469  33.743  33.869  1.00  0.00     0.029 A 
ATOM     60  N   UNL A   1      39.230  32.392  34.015  1.00  0.00    -0.354 N 
ATOM     61  N   UNL A   1      41.528  31.147  35.366  1.00  0.00    -0.248 NA
ATOM     62  C   UNL A   1      42.937  30.968  37.221  1.00  0.00     0.031 C 
ATOM     63  C   UNL A   1      38.060  33.920  35.124  1.00  0.00     0.029 A 
ATOM     64  C   UNL A   1      39.145  33.063  35.223  1.00  0.00     0.049 A 
ATOM     65  H   UNL A   1      39.913  31.721  33.788  1.00  0.00     0.167 HD
ATOM     66  C   UNL A   1      41.085  32.012  36.360  1.00  0.00     0.074 A 
ATOM     67  C   UNL A   1      41.976  31.840  37.490  1.00  0.00     0.031 C 
ATOM     68  C   UNL A   1      40.037  32.872  36.339  1.00  0.00     0.037 A 
BRANCH  55  69
ATOM     69  C   UNL A   1      36.877  32.897  31.022  1.00  0.00     0.058 A 
ATOM     70  C   UNL A   1      37.110  33.857  30.024  1.00  0.00     0.135 A 
ATOM     71  C   UNL A   1      35.554  32.474  31.225  1.00  0.00     0.135 A 
ATOM     72  F   UNL A   1      38.355  34.310  29.799  1.00  0.00    -0.206 F 
ATOM     73  C   UNL A   1      36.069  34.403  29.281  1.00  0.00     0.059 A 
ATOM     74  C   UNL A   1      34.500  32.985  30.474  1.00  0.00     0.059 A 
ATOM     75  F   UNL A   1      35.275  31.558  32.166  1.00  0.00    -0.206 F 
ATOM     76  C   UNL A   1      34.766  33.962  29.515  1.00  0.00     0.060 A 
BRANCH  76  77
ATOM     77  S   UNL A   1      33.425  34.680  28.545  1.00  0.00     0.124 S 
ATOM     78  O   UNL A   1      34.104  35.798  27.895  1.00  0.00    -0.237 OA
ATOM     79  O   UNL A   1      33.044  33.576  27.668  1.00  0.00    -0.237 OA
ATOM     80  O   UNL A   1      32.434  35.046  29.552  1.00  0.00    -0.744 OA
ENDBRANCH  76  77
ENDBRANCH  55  69
BRANCH  56  81
ATOM     81  C   UNL A   1      44.617  28.922  35.952  1.00  0.00     0.058 A 
ATOM     82  C   UNL A   1      44.479  27.821  36.811  1.00  0.00     0.135 A 
ATOM     83  C   UNL A   1      45.901  29.464  35.785  1.00  0.00     0.135 A 
ATOM     84  F   UNL A   1      43.271  27.271  37.006  1.00  0.00    -0.206 F 
ATOM     85  C   UNL A   1      45.568  27.286  37.491  1.00  0.00     0.059 A 
ATOM     86  C   UNL A   1      47.009  28.933  36.437  1.00  0.00     0.059 A 
ATOM     87  F   UNL A   1      46.088  30.508  34.962  1.00  0.00    -0.206 F 
ATOM     88  C   UNL A   1      46.831  27.849  37.296  1.00  0.00     0.060 A 
BRANCH  88  89
ATOM     89  S   UNL A   1      48.247  27.118  38.146  1.00  0.00     0.124 S 
ATOM     90  O   UNL A   1      49.361  27.815  37.515  1.00  0.00    -0.237 OA
ATOM     91  O   UNL A   1      47.981  27.464  39.539  1.00  0.00    -0.237 OA
ATOM     92  O   UNL A   1      48.129  25.697  37.830  1.00  0.00    -0.744 OA
ENDBRANCH  88  89
ENDBRANCH  56  81
BRANCH  68  93
ATOM     93  C   UNL A   1      39.775  33.671  37.584  1.00  0.00     0.058 A 
ATOM     94  C   UNL A   1      38.853  33.244  38.552  1.00  0.00     0.135 A 
ATOM     95  C   UNL A   1      40.495  34.850  37.838  1.00  0.00     0.135 A 
ATOM     96  F   UNL A   1      38.135  32.128  38.354  1.00  0.00    -0.206 F 
ATOM     97  C   UNL A   1      38.639  33.969  39.720  1.00  0.00     0.059 A 
ATOM     98  C   UNL A   1      40.316  35.577  39.009  1.00  0.00     0.059 A 
ATOM     99  F   UNL A   1      41.397  35.295  36.948  1.00  0.00    -0.206 F 
ATOM    100  C   UNL A   1      39.377  35.134  39.941  1.00  0.00     0.060 A 
BRANCH 100 101
ATOM    101  S   UNL A   1      39.118  36.045  41.477  1.00  0.00     0.124 S 
ATOM    102  O   UNL A   1      39.017  37.417  40.990  1.00  0.00    -0.237 OA
ATOM    103  O   UNL A   1      37.881  35.460  41.986  1.00  0.00    -0.237 OA
ATOM    104  O   UNL A   1      40.314  35.742  42.257  1.00  0.00    -0.744 OA
ENDBRANCH 100 101
ENDBRANCH  68  93
ENDBRANCH  42  43
ENDBRANCH  34  37
ENDBRANCH  32  33
ENDBRANCH  31  32
ENDBRANCH   1  31
TORSDOF 18
ENDMDL
