MODEL 1
REMARK VINA RESULT:     -11.0      0.000      0.000
REMARK SMILES C[C@H]1[C@H](C(=O)NCCCCNC(=O)c2ccc(-c3c4nc(c(-c5c(F)cc(S(=O)(=O)[O-])cc5F)c5ccc([nH]5)c(-c5c(F)cc(S(=O)(=O)[O-])cc5F)c5nc(c(-c6c(F)cc(S(=O)(=O)[O-])cc6F)c6ccc3[nH]6)C=C5)C=C4)cc2)CCN1C(=O)COc1ccccc1F
REMARK SMILES IDX 8 1 7 2 6 3 4 4 5 5 3 7 1 8 2 9 82 10 80 11 81 12 83 13
REMARK SMILES IDX 84 14 85 15 86 16 87 17 88 18 92 19 89 20 91 21 93 22 90 23
REMARK SMILES IDX 9 24 10 25 11 26 12 27 13 29 14 30 15 31 79 32 16 33 78 34
REMARK SMILES IDX 17 35 18 36 19 37 72 38 20 39 77 40 71 41 73 42 21 43 76 44
REMARK SMILES IDX 70 45 69 46 22 48 56 49 35 50 55 51 36 52 39 53 54 54 74 55
REMARK SMILES IDX 37 56 38 57 53 59 75 60 40 61 23 62 24 63 33 64 25 65 26 66
REMARK SMILES IDX 32 67 34 68 27 69 28 70 29 71 30 72 31 73 57 74 58 75 67 76
REMARK SMILES IDX 59 77 60 78 66 79 68 80 61 81 62 82 63 83 64 84 65 85 41 86
REMARK SMILES IDX 42 87 51 88 43 89 44 90 50 91 52 92 45 93 46 94 47 95 48 96
REMARK SMILES IDX 49 97
REMARK H PARENT 6 6 11 28 73 47 39 58
REMARK Flexibility Score: inf
ROOT
ATOM      1  C   UNL A   1      31.569  28.103  25.654  1.00  0.00     0.023 C 
ENDROOT
BRANCH   1   2
ATOM      2  C   UNL A   1      30.718  26.935  25.160  1.00  0.00     0.116 C 
BRANCH   2   3
ATOM      3  N   UNL A   1      30.559  25.913  26.177  1.00  0.00    -0.356 N 
ATOM      4  C   UNL A   1      30.995  24.628  26.230  1.00  0.00     0.225 C 
ATOM      5  O   UNL A   1      30.688  23.961  27.223  1.00  0.00    -0.275 OA
ATOM      6  H   UNL A   1      30.046  26.203  26.967  1.00  0.00     0.163 HD
BRANCH   4   7
ATOM      7  C   UNL A   1      31.835  24.001  25.132  1.00  0.00     0.102 C 
ATOM      8  C   UNL A   1      34.177  24.699  24.592  1.00  0.00     0.032 C 
ATOM      9  C   UNL A   1      33.319  23.837  25.520  1.00  0.00     0.094 C 
ATOM     10  N   UNL A   1      33.567  22.398  25.387  1.00  0.00    -0.336 N 
ATOM     11  C   UNL A   1      31.325  22.634  24.671  1.00  0.00     0.037 C 
ATOM     12  C   UNL A   1      32.562  21.767  24.555  1.00  0.00     0.121 C 
BRANCH  10  13
ATOM     13  C   UNL A   1      34.476  21.607  26.063  1.00  0.00     0.260 C 
ATOM     14  O   UNL A   1      34.409  21.461  27.288  1.00  0.00    -0.271 OA
BRANCH  13  15
ATOM     15  C   UNL A   1      35.609  20.913  25.294  1.00  0.00     0.329 C 
BRANCH  15  16
ATOM     16  O   UNL A   1      36.679  21.622  24.708  1.00  0.00    -0.481 OA
BRANCH  16  17
ATOM     17  C   UNL A   1      37.699  22.092  25.487  1.00  0.00     0.155 A 
ATOM     18  C   UNL A   1      37.579  23.447  25.820  1.00  0.00     0.049 A 
ATOM     19  C   UNL A   1      38.861  21.425  25.873  1.00  0.00     0.165 A 
ATOM     20  C   UNL A   1      38.592  24.112  26.517  1.00  0.00     0.004 A 
ATOM     21  C   UNL A   1      39.884  22.085  26.556  1.00  0.00     0.043 A 
ATOM     22  F   UNL A   1      39.087  20.145  25.567  1.00  0.00    -0.203 F 
ATOM     23  C   UNL A   1      39.752  23.432  26.878  1.00  0.00     0.003 A 
ENDBRANCH  16  17
ENDBRANCH  15  16
ENDBRANCH  13  15
ENDBRANCH  10  13
ENDBRANCH   4   7
ENDBRANCH   2   3
ENDBRANCH   1   2
BRANCH   1  24
ATOM     24  C   UNL A   1      32.809  27.689  26.447  1.00  0.00     0.023 C 
BRANCH  24  25
ATOM     25  C   UNL A   1      34.045  28.550  26.216  1.00  0.00     0.116 C 
BRANCH  25  26
ATOM     26  N   UNL A   1      33.839  29.952  26.549  1.00  0.00    -0.352 N 
ATOM     27  C   UNL A   1      34.578  30.748  27.393  1.00  0.00     0.251 C 
ATOM     28  H   UNL A   1      33.070  30.387  26.114  1.00  0.00     0.163 HD
ATOM     29  O   UNL A   1      34.201  31.886  27.658  1.00  0.00    -0.269 OA
BRANCH  27  30
ATOM     30  C   UNL A   1      35.807  30.204  28.005  1.00  0.00     0.039 A 
ATOM     31  C   UNL A   1      37.028  30.403  27.356  1.00  0.00     0.014 A 
ATOM     32  C   UNL A   1      35.758  29.542  29.235  1.00  0.00     0.014 A 
ATOM     33  C   UNL A   1      38.212  30.001  27.979  1.00  0.00     0.010 A 
ATOM     34  C   UNL A   1      36.941  29.204  29.883  1.00  0.00     0.010 A 
ATOM     35  C   UNL A   1      38.179  29.434  29.264  1.00  0.00    -0.014 A 
BRANCH  35  36
ATOM     36  C   UNL A   1      39.430  29.083  29.982  1.00  0.00     0.031 A 
ATOM     37  C   UNL A   1      39.835  29.851  31.209  1.00  0.00     0.074 A 
ATOM     38  C   UNL A   1      40.236  28.123  29.485  1.00  0.00     0.049 A 
ATOM     39  N   UNL A   1      40.923  29.747  31.926  1.00  0.00    -0.248 NA
ATOM     40  C   UNL A   1      38.906  30.895  31.675  1.00  0.00     0.031 C 
ATOM     41  C   UNL A   1      39.980  27.347  28.270  1.00  0.00     0.029 A 
ATOM     42  N   UNL A   1      41.441  27.646  29.934  1.00  0.00    -0.354 N 
ATOM     43  C   UNL A   1      40.820  30.718  32.915  1.00  0.00     0.074 A 
ATOM     44  C   UNL A   1      39.586  31.435  32.675  1.00  0.00     0.031 C 
ATOM     45  C   UNL A   1      40.986  26.478  28.082  1.00  0.00     0.029 A 
ATOM     46  C   UNL A   1      41.973  26.656  29.141  1.00  0.00     0.049 A 
ATOM     47  H   UNL A   1      41.883  27.979  30.748  1.00  0.00     0.167 HD
ATOM     48  C   UNL A   1      41.666  30.974  33.942  1.00  0.00     0.037 A 
ATOM     49  C   UNL A   1      43.130  25.973  29.253  1.00  0.00     0.037 A 
ATOM     50  C   UNL A   1      42.874  30.236  34.193  1.00  0.00     0.049 A 
ATOM     51  C   UNL A   1      44.042  26.262  30.413  1.00  0.00     0.074 A 
ATOM     52  C   UNL A   1      43.765  30.375  35.244  1.00  0.00     0.029 A 
ATOM     53  N   UNL A   1      43.363  29.218  33.388  1.00  0.00    -0.354 N 
ATOM     54  N   UNL A   1      43.897  27.141  31.375  1.00  0.00    -0.248 NA
ATOM     55  C   UNL A   1      45.270  25.461  30.507  1.00  0.00     0.031 C 
ATOM     56  C   UNL A   1      44.810  29.463  35.054  1.00  0.00     0.029 A 
ATOM     57  C   UNL A   1      44.550  28.729  33.909  1.00  0.00     0.049 A 
ATOM     58  H   UNL A   1      42.930  28.890  32.566  1.00  0.00     0.167 HD
ATOM     59  C   UNL A   1      45.004  26.984  32.203  1.00  0.00     0.074 A 
ATOM     60  C   UNL A   1      45.802  25.918  31.634  1.00  0.00     0.031 C 
ATOM     61  C   UNL A   1      45.328  27.662  33.331  1.00  0.00     0.037 A 
BRANCH  48  62
ATOM     62  C   UNL A   1      41.302  32.095  34.876  1.00  0.00     0.058 A 
ATOM     63  C   UNL A   1      40.464  31.886  35.983  1.00  0.00     0.135 A 
ATOM     64  C   UNL A   1      41.817  33.386  34.678  1.00  0.00     0.135 A 
ATOM     65  F   UNL A   1      39.932  30.674  36.210  1.00  0.00    -0.206 F 
ATOM     66  C   UNL A   1      40.124  32.924  36.843  1.00  0.00     0.059 A 
ATOM     67  C   UNL A   1      41.510  34.434  35.541  1.00  0.00     0.059 A 
ATOM     68  F   UNL A   1      42.621  33.641  33.635  1.00  0.00    -0.206 F 
ATOM     69  C   UNL A   1      40.649  34.197  36.612  1.00  0.00     0.060 A 
BRANCH  69  70
ATOM     70  S   UNL A   1      40.196  35.535  37.736  1.00  0.00     0.124 S 
ATOM     71  O   UNL A   1      41.369  35.594  38.603  1.00  0.00    -0.237 OA
ATOM     72  O   UNL A   1      40.023  36.663  36.827  1.00  0.00    -0.237 OA
ATOM     73  O   UNL A   1      38.973  35.049  38.366  1.00  0.00    -0.744 OA
ENDBRANCH  69  70
ENDBRANCH  48  62
BRANCH  49  74
ATOM     74  C   UNL A   1      43.473  24.929  28.253  1.00  0.00     0.058 A 
ATOM     75  C   UNL A   1      43.101  23.591  28.451  1.00  0.00     0.135 A 
ATOM     76  C   UNL A   1      44.165  25.247  27.074  1.00  0.00     0.135 A 
ATOM     77  F   UNL A   1      42.442  23.238  29.565  1.00  0.00    -0.206 F 
ATOM     78  C   UNL A   1      43.412  22.602  27.524  1.00  0.00     0.059 A 
ATOM     79  C   UNL A   1      44.469  24.280  26.121  1.00  0.00     0.059 A 
ATOM     80  F   UNL A   1      44.529  26.516  26.829  1.00  0.00    -0.206 F 
ATOM     81  C   UNL A   1      44.096  22.958  26.360  1.00  0.00     0.060 A 
BRANCH  81  82
ATOM     82  S   UNL A   1      44.451  21.676  25.138  1.00  0.00     0.124 S 
ATOM     83  O   UNL A   1      44.260  22.402  23.887  1.00  0.00    -0.237 OA
ATOM     84  O   UNL A   1      45.827  21.313  25.462  1.00  0.00    -0.237 OA
ATOM     85  O   UNL A   1      43.455  20.650  25.432  1.00  0.00    -0.744 OA
ENDBRANCH  81  82
ENDBRANCH  49  74
BRANCH  61  86
ATOM     86  C   UNL A   1      46.587  27.252  34.043  1.00  0.00     0.058 A 
ATOM     87  C   UNL A   1      46.584  26.246  35.022  1.00  0.00     0.135 A 
ATOM     88  C   UNL A   1      47.817  27.838  33.703  1.00  0.00     0.135 A 
ATOM     89  F   UNL A   1      45.433  25.660  35.386  1.00  0.00    -0.206 F 
ATOM     90  C   UNL A   1      47.758  25.849  35.653  1.00  0.00     0.059 A 
ATOM     91  C   UNL A   1      49.005  27.440  34.307  1.00  0.00     0.059 A 
ATOM     92  F   UNL A   1      47.872  28.799  32.767  1.00  0.00    -0.206 F 
ATOM     93  C   UNL A   1      48.964  26.451  35.289  1.00  0.00     0.060 A 
BRANCH  93  94
ATOM     94  S   UNL A   1      50.485  25.902  36.091  1.00  0.00     0.124 S 
ATOM     95  O   UNL A   1      50.179  26.144  37.497  1.00  0.00    -0.237 OA
ATOM     96  O   UNL A   1      50.564  24.500  35.691  1.00  0.00    -0.237 OA
ATOM     97  O   UNL A   1      51.506  26.770  35.511  1.00  0.00    -0.744 OA
ENDBRANCH  93  94
ENDBRANCH  61  86
ENDBRANCH  35  36
ENDBRANCH  27  30
ENDBRANCH  25  26
ENDBRANCH  24  25
ENDBRANCH   1  24
TORSDOF 18
ENDMDL
MODEL 2
REMARK VINA RESULT:     -11.0      3.469      9.578
REMARK SMILES C[C@H]1[C@H](C(=O)NCCCCNC(=O)c2ccc(-c3c4nc(c(-c5c(F)cc(S(=O)(=O)[O-])cc5F)c5ccc([nH]5)c(-c5c(F)cc(S(=O)(=O)[O-])cc5F)c5nc(c(-c6c(F)cc(S(=O)(=O)[O-])cc6F)c6ccc3[nH]6)C=C5)C=C4)cc2)CCN1C(=O)COc1ccccc1F
REMARK SMILES IDX 8 1 7 2 6 3 4 4 5 5 3 7 1 8 2 9 82 10 80 11 81 12 83 13
REMARK SMILES IDX 84 14 85 15 86 16 87 17 88 18 92 19 89 20 91 21 93 22 90 23
REMARK SMILES IDX 9 24 10 25 11 26 12 27 13 29 14 30 15 31 79 32 16 33 78 34
REMARK SMILES IDX 17 35 18 36 19 37 72 38 20 39 77 40 71 41 73 42 21 43 76 44
REMARK SMILES IDX 70 45 69 46 22 48 56 49 35 50 55 51 36 52 39 53 54 54 74 55
REMARK SMILES IDX 37 56 38 57 53 59 75 60 40 61 23 62 24 63 33 64 25 65 26 66
REMARK SMILES IDX 32 67 34 68 27 69 28 70 29 71 30 72 31 73 57 74 58 75 67 76
REMARK SMILES IDX 59 77 60 78 66 79 68 80 61 81 62 82 63 83 64 84 65 85 41 86
REMARK SMILES IDX 42 87 51 88 43 89 44 90 50 91 52 92 45 93 46 94 47 95 48 96
REMARK SMILES IDX 49 97
REMARK H PARENT 6 6 11 28 73 47 39 58
REMARK Flexibility Score: inf
ROOT
ATOM      1  C   UNL A   1      38.526  23.799  26.510  1.00  0.00     0.023 C 
ENDROOT
BRANCH   1   2
ATOM      2  C   UNL A   1      37.236  23.214  25.940  1.00  0.00     0.116 C 
BRANCH   2   3
ATOM      3  N   UNL A   1      37.297  23.076  24.496  1.00  0.00    -0.356 N 
ATOM      4  C   UNL A   1      36.323  23.133  23.551  1.00  0.00     0.225 C 
ATOM      5  O   UNL A   1      36.657  22.952  22.376  1.00  0.00    -0.275 OA
ATOM      6  H   UNL A   1      38.201  22.915  24.141  1.00  0.00     0.163 HD
BRANCH   4   7
ATOM      7  C   UNL A   1      34.869  23.413  23.886  1.00  0.00     0.102 C 
ATOM      8  C   UNL A   1      34.100  25.350  25.271  1.00  0.00     0.032 C 
ATOM      9  C   UNL A   1      34.517  24.914  23.865  1.00  0.00     0.094 C 
ATOM     10  N   UNL A   1      33.443  25.016  22.871  1.00  0.00    -0.336 N 
ATOM     11  C   UNL A   1      33.877  22.693  22.971  1.00  0.00     0.037 C 
ATOM     12  C   UNL A   1      32.822  23.728  22.637  1.00  0.00     0.121 C 
BRANCH  10  13
ATOM     13  C   UNL A   1      33.106  26.084  22.063  1.00  0.00     0.260 C 
ATOM     14  O   UNL A   1      33.970  26.854  21.628  1.00  0.00    -0.271 OA
BRANCH  13  15
ATOM     15  C   UNL A   1      31.634  26.346  21.713  1.00  0.00     0.329 C 
BRANCH  15  16
ATOM     16  O   UNL A   1      30.764  27.062  22.562  1.00  0.00    -0.481 OA
BRANCH  16  17
ATOM     17  C   UNL A   1      31.082  27.238  23.881  1.00  0.00     0.155 A 
ATOM     18  C   UNL A   1      30.516  26.280  24.732  1.00  0.00     0.049 A 
ATOM     19  C   UNL A   1      31.784  28.294  24.459  1.00  0.00     0.165 A 
ATOM     20  C   UNL A   1      30.650  26.380  26.120  1.00  0.00     0.004 A 
ATOM     21  C   UNL A   1      31.909  28.410  25.844  1.00  0.00     0.043 A 
ATOM     22  F   UNL A   1      32.323  29.277  23.734  1.00  0.00    -0.203 F 
ATOM     23  C   UNL A   1      31.340  27.453  26.679  1.00  0.00     0.003 A 
ENDBRANCH  16  17
ENDBRANCH  15  16
ENDBRANCH  13  15
ENDBRANCH  10  13
ENDBRANCH   4   7
ENDBRANCH   2   3
ENDBRANCH   1   2
BRANCH   1  24
ATOM     24  C   UNL A   1      39.627  22.770  26.768  1.00  0.00     0.023 C 
BRANCH  24  25
ATOM     25  C   UNL A   1      41.006  23.353  27.052  1.00  0.00     0.116 C 
BRANCH  25  26
ATOM     26  N   UNL A   1      41.531  24.149  25.953  1.00  0.00    -0.352 N 
ATOM     27  C   UNL A   1      41.850  25.486  25.941  1.00  0.00     0.251 C 
ATOM     28  H   UNL A   1      41.677  23.666  25.107  1.00  0.00     0.163 HD
ATOM     29  O   UNL A   1      42.174  26.035  24.892  1.00  0.00    -0.269 OA
BRANCH  27  30
ATOM     30  C   UNL A   1      41.759  26.261  27.195  1.00  0.00     0.039 A 
ATOM     31  C   UNL A   1      42.626  27.339  27.386  1.00  0.00     0.014 A 
ATOM     32  C   UNL A   1      40.792  25.951  28.156  1.00  0.00     0.014 A 
ATOM     33  C   UNL A   1      42.475  28.153  28.510  1.00  0.00     0.010 A 
ATOM     34  C   UNL A   1      40.599  26.802  29.238  1.00  0.00     0.010 A 
ATOM     35  C   UNL A   1      41.436  27.913  29.424  1.00  0.00    -0.014 A 
BRANCH  35  36
ATOM     36  C   UNL A   1      41.200  28.820  30.575  1.00  0.00     0.031 A 
ATOM     37  C   UNL A   1      42.032  28.688  31.821  1.00  0.00     0.074 A 
ATOM     38  C   UNL A   1      40.190  29.711  30.525  1.00  0.00     0.049 A 
ATOM     39  N   UNL A   1      41.928  29.332  32.954  1.00  0.00    -0.248 NA
ATOM     40  C   UNL A   1      43.103  27.678  31.799  1.00  0.00     0.031 C 
ATOM     41  C   UNL A   1      39.278  29.894  29.394  1.00  0.00     0.029 A 
ATOM     42  N   UNL A   1      39.752  30.622  31.453  1.00  0.00    -0.354 N 
ATOM     43  C   UNL A   1      42.906  28.796  33.785  1.00  0.00     0.074 A 
ATOM     44  C   UNL A   1      43.559  27.741  33.041  1.00  0.00     0.031 C 
ATOM     45  C   UNL A   1      38.403  30.870  29.687  1.00  0.00     0.029 A 
ATOM     46  C   UNL A   1      38.669  31.359  31.036  1.00  0.00     0.049 A 
ATOM     47  H   UNL A   1      40.174  30.737  32.335  1.00  0.00     0.167 HD
ATOM     48  C   UNL A   1      43.242  29.166  35.044  1.00  0.00     0.037 A 
ATOM     49  C   UNL A   1      37.966  32.317  31.671  1.00  0.00     0.037 A 
ATOM     50  C   UNL A   1      42.610  30.238  35.765  1.00  0.00     0.049 A 
ATOM     51  C   UNL A   1      38.372  32.724  33.061  1.00  0.00     0.074 A 
ATOM     52  C   UNL A   1      42.921  30.733  37.020  1.00  0.00     0.029 A 
ATOM     53  N   UNL A   1      41.539  30.984  35.296  1.00  0.00    -0.354 N 
ATOM     54  N   UNL A   1      39.340  32.250  33.808  1.00  0.00    -0.248 NA
ATOM     55  C   UNL A   1      37.596  33.800  33.692  1.00  0.00     0.031 C 
ATOM     56  C   UNL A   1      42.016  31.756  37.323  1.00  0.00     0.029 A 
ATOM     57  C   UNL A   1      41.167  31.926  36.242  1.00  0.00     0.049 A 
ATOM     58  H   UNL A   1      41.106  30.863  34.420  1.00  0.00     0.167 HD
ATOM     59  C   UNL A   1      39.305  32.985  34.988  1.00  0.00     0.074 A 
ATOM     60  C   UNL A   1      38.227  33.943  34.850  1.00  0.00     0.031 C 
ATOM     61  C   UNL A   1      40.095  32.876  36.085  1.00  0.00     0.037 A 
BRANCH  48  62
ATOM     62  C   UNL A   1      44.354  28.408  35.715  1.00  0.00     0.058 A 
ATOM     63  C   UNL A   1      44.098  27.284  36.517  1.00  0.00     0.135 A 
ATOM     64  C   UNL A   1      45.692  28.792  35.533  1.00  0.00     0.135 A 
ATOM     65  F   UNL A   1      42.835  26.883  36.735  1.00  0.00    -0.206 F 
ATOM     66  C   UNL A   1      45.126  26.587  37.141  1.00  0.00     0.059 A 
ATOM     67  C   UNL A   1      46.739  28.093  36.128  1.00  0.00     0.059 A 
ATOM     68  F   UNL A   1      45.993  29.859  34.778  1.00  0.00    -0.206 F 
ATOM     69  C   UNL A   1      46.444  27.001  36.944  1.00  0.00     0.060 A 
BRANCH  69  70
ATOM     70  S   UNL A   1      47.768  26.087  37.763  1.00  0.00     0.124 S 
ATOM     71  O   UNL A   1      48.297  25.292  36.659  1.00  0.00    -0.237 OA
ATOM     72  O   UNL A   1      48.636  27.156  38.246  1.00  0.00    -0.237 OA
ATOM     73  O   UNL A   1      47.069  25.335  38.801  1.00  0.00    -0.744 OA
ENDBRANCH  69  70
ENDBRANCH  48  62
BRANCH  49  74
ATOM     74  C   UNL A   1      36.825  32.978  30.985  1.00  0.00     0.058 A 
ATOM     75  C   UNL A   1      35.501  32.670  31.331  1.00  0.00     0.135 A 
ATOM     76  C   UNL A   1      37.033  33.939  29.985  1.00  0.00     0.135 A 
ATOM     77  F   UNL A   1      35.252  31.754  32.279  1.00  0.00    -0.206 F 
ATOM     78  C   UNL A   1      34.422  33.281  30.702  1.00  0.00     0.059 A 
ATOM     79  C   UNL A   1      35.970  34.579  29.355  1.00  0.00     0.059 A 
ATOM     80  F   UNL A   1      38.281  34.281  29.629  1.00  0.00    -0.206 F 
ATOM     81  C   UNL A   1      34.668  34.237  29.714  1.00  0.00     0.060 A 
BRANCH  81  82
ATOM     82  S   UNL A   1      33.262  35.063  28.938  1.00  0.00     0.124 S 
ATOM     83  O   UNL A   1      32.803  34.043  28.001  1.00  0.00    -0.237 OA
ATOM     84  O   UNL A   1      32.388  35.323  30.079  1.00  0.00    -0.237 OA
ATOM     85  O   UNL A   1      33.862  36.250  28.336  1.00  0.00    -0.744 OA
ENDBRANCH  81  82
ENDBRANCH  49  74
BRANCH  61  86
ATOM     86  C   UNL A   1      39.841  33.835  37.214  1.00  0.00     0.058 A 
ATOM     87  C   UNL A   1      40.454  35.097  37.258  1.00  0.00     0.135 A 
ATOM     88  C   UNL A   1      38.934  33.507  38.234  1.00  0.00     0.135 A 
ATOM     89  F   UNL A   1      41.333  35.455  36.310  1.00  0.00    -0.206 F 
ATOM     90  C   UNL A   1      40.190  35.993  38.288  1.00  0.00     0.059 A 
ATOM     91  C   UNL A   1      38.639  34.397  39.261  1.00  0.00     0.059 A 
ATOM     92  F   UNL A   1      38.316  32.315  38.231  1.00  0.00    -0.206 F 
ATOM     93  C   UNL A   1      39.280  35.635  39.285  1.00  0.00     0.060 A 
BRANCH  93  94
ATOM     94  S   UNL A   1      38.920  36.821  40.598  1.00  0.00     0.124 S 
ATOM     95  O   UNL A   1      38.080  36.026  41.488  1.00  0.00    -0.237 OA
ATOM     96  O   UNL A   1      40.251  37.144  41.104  1.00  0.00    -0.237 OA
ATOM     97  O   UNL A   1      38.242  37.907  39.896  1.00  0.00    -0.744 OA
ENDBRANCH  93  94
ENDBRANCH  61  86
ENDBRANCH  35  36
ENDBRANCH  27  30
ENDBRANCH  25  26
ENDBRANCH  24  25
ENDBRANCH   1  24
TORSDOF 18
ENDMDL
MODEL 3
REMARK VINA RESULT:     -10.8      3.994     10.121
REMARK SMILES C[C@H]1[C@H](C(=O)NCCCCNC(=O)c2ccc(-c3c4nc(c(-c5c(F)cc(S(=O)(=O)[O-])cc5F)c5ccc([nH]5)c(-c5c(F)cc(S(=O)(=O)[O-])cc5F)c5nc(c(-c6c(F)cc(S(=O)(=O)[O-])cc6F)c6ccc3[nH]6)C=C5)C=C4)cc2)CCN1C(=O)COc1ccccc1F
REMARK SMILES IDX 8 1 7 2 6 3 4 4 5 5 3 7 1 8 2 9 82 10 80 11 81 12 83 13
REMARK SMILES IDX 84 14 85 15 86 16 87 17 88 18 92 19 89 20 91 21 93 22 90 23
REMARK SMILES IDX 9 24 10 25 11 26 12 27 13 29 14 30 15 31 79 32 16 33 78 34
REMARK SMILES IDX 17 35 18 36 19 37 72 38 20 39 77 40 71 41 73 42 21 43 76 44
REMARK SMILES IDX 70 45 69 46 22 48 56 49 35 50 55 51 36 52 39 53 54 54 74 55
REMARK SMILES IDX 37 56 38 57 53 59 75 60 40 61 23 62 24 63 33 64 25 65 26 66
REMARK SMILES IDX 32 67 34 68 27 69 28 70 29 71 30 72 31 73 57 74 58 75 67 76
REMARK SMILES IDX 59 77 60 78 66 79 68 80 61 81 62 82 63 83 64 84 65 85 41 86
REMARK SMILES IDX 42 87 51 88 43 89 44 90 50 91 52 92 45 93 46 94 47 95 48 96
REMARK SMILES IDX 49 97
REMARK H PARENT 6 6 11 28 73 47 39 58
REMARK Flexibility Score: inf
ROOT
ATOM      1  C   UNL A   1      36.814  32.315  31.416  1.00  0.00     0.023 C 
ENDROOT
BRANCH   1   2
ATOM      2  C   UNL A   1      37.087  31.916  32.864  1.00  0.00     0.116 C 
BRANCH   2   3
ATOM      3  N   UNL A   1      36.891  30.494  33.080  1.00  0.00    -0.356 N 
ATOM      4  C   UNL A   1      37.776  29.464  33.117  1.00  0.00     0.225 C 
ATOM      5  O   UNL A   1      37.324  28.330  33.296  1.00  0.00    -0.275 OA
ATOM      6  H   UNL A   1      35.953  30.231  33.225  1.00  0.00     0.163 HD
BRANCH   4   7
ATOM      7  C   UNL A   1      39.273  29.662  32.956  1.00  0.00     0.102 C 
ATOM      8  C   UNL A   1      40.603  31.361  34.225  1.00  0.00     0.032 C 
ATOM      9  C   UNL A   1      39.994  29.959  34.287  1.00  0.00     0.094 C 
ATOM     10  N   UNL A   1      40.988  28.887  34.402  1.00  0.00    -0.336 N 
ATOM     11  C   UNL A   1      39.983  28.477  32.300  1.00  0.00     0.037 C 
ATOM     12  C   UNL A   1      41.242  28.267  33.117  1.00  0.00     0.121 C 
BRANCH  10  13
ATOM     13  C   UNL A   1      41.531  28.324  35.541  1.00  0.00     0.260 C 
ATOM     14  O   UNL A   1      41.577  28.952  36.604  1.00  0.00    -0.271 OA
BRANCH  13  15
ATOM     15  C   UNL A   1      42.112  26.904  35.491  1.00  0.00     0.329 C 
BRANCH  15  16
ATOM     16  O   UNL A   1      43.454  26.640  35.146  1.00  0.00    -0.481 OA
BRANCH  16  17
ATOM     17  C   UNL A   1      43.766  25.541  34.393  1.00  0.00     0.155 A 
ATOM     18  C   UNL A   1      44.424  25.845  33.195  1.00  0.00     0.049 A 
ATOM     19  C   UNL A   1      43.408  24.214  34.625  1.00  0.00     0.165 A 
ATOM     20  C   UNL A   1      44.713  24.848  32.258  1.00  0.00     0.004 A 
ATOM     21  C   UNL A   1      43.679  23.216  33.688  1.00  0.00     0.043 A 
ATOM     22  F   UNL A   1      42.742  23.833  35.718  1.00  0.00    -0.203 F 
ATOM     23  C   UNL A   1      44.331  23.531  32.501  1.00  0.00     0.003 A 
ENDBRANCH  16  17
ENDBRANCH  15  16
ENDBRANCH  13  15
ENDBRANCH  10  13
ENDBRANCH   4   7
ENDBRANCH   2   3
ENDBRANCH   1   2
BRANCH   1  24
ATOM     24  C   UNL A   1      35.380  32.061  30.951  1.00  0.00     0.023 C 
BRANCH  24  25
ATOM     25  C   UNL A   1      35.094  32.429  29.500  1.00  0.00     0.116 C 
BRANCH  25  26
ATOM     26  N   UNL A   1      34.287  31.439  28.804  1.00  0.00    -0.352 N 
ATOM     27  C   UNL A   1      34.693  30.265  28.215  1.00  0.00     0.251 C 
ATOM     28  H   UNL A   1      33.323  31.635  28.747  1.00  0.00     0.163 HD
ATOM     29  O   UNL A   1      33.900  29.592  27.563  1.00  0.00    -0.269 OA
BRANCH  27  30
ATOM     30  C   UNL A   1      36.103  29.843  28.344  1.00  0.00     0.039 A 
ATOM     31  C   UNL A   1      36.994  30.146  27.312  1.00  0.00     0.014 A 
ATOM     32  C   UNL A   1      36.550  29.193  29.497  1.00  0.00     0.014 A 
ATOM     33  C   UNL A   1      38.352  29.861  27.469  1.00  0.00     0.010 A 
ATOM     34  C   UNL A   1      37.911  28.972  29.680  1.00  0.00     0.010 A 
ATOM     35  C   UNL A   1      38.825  29.308  28.670  1.00  0.00    -0.014 A 
BRANCH  35  36
ATOM     36  C   UNL A   1      40.275  29.082  28.894  1.00  0.00     0.031 A 
ATOM     37  C   UNL A   1      40.894  27.758  28.543  1.00  0.00     0.074 A 
ATOM     38  C   UNL A   1      41.016  30.043  29.481  1.00  0.00     0.049 A 
ATOM     39  N   UNL A   1      42.120  27.343  28.734  1.00  0.00    -0.248 NA
ATOM     40  C   UNL A   1      40.011  26.756  27.923  1.00  0.00     0.031 C 
ATOM     41  C   UNL A   1      40.516  31.349  29.918  1.00  0.00     0.029 A 
ATOM     42  N   UNL A   1      42.344  30.067  29.822  1.00  0.00    -0.354 N 
ATOM     43  C   UNL A   1      42.152  26.032  28.275  1.00  0.00     0.074 A 
ATOM     44  C   UNL A   1      40.811  25.703  27.841  1.00  0.00     0.031 C 
ATOM     45  C   UNL A   1      41.529  32.052  30.451  1.00  0.00     0.029 A 
ATOM     46  C   UNL A   1      42.740  31.238  30.423  1.00  0.00     0.049 A 
ATOM     47  H   UNL A   1      42.957  29.316  29.651  1.00  0.00     0.167 HD
ATOM     48  C   UNL A   1      43.208  25.187  28.200  1.00  0.00     0.037 A 
ATOM     49  C   UNL A   1      43.942  31.613  30.904  1.00  0.00     0.037 A 
ATOM     50  C   UNL A   1      44.546  25.532  28.601  1.00  0.00     0.049 A 
ATOM     51  C   UNL A   1      45.104  30.664  30.790  1.00  0.00     0.074 A 
ATOM     52  C   UNL A   1      45.697  24.769  28.505  1.00  0.00     0.029 A 
ATOM     53  N   UNL A   1      44.914  26.740  29.174  1.00  0.00    -0.354 N 
ATOM     54  N   UNL A   1      45.130  29.451  30.294  1.00  0.00    -0.248 NA
ATOM     55  C   UNL A   1      46.400  31.138  31.295  1.00  0.00     0.031 C 
ATOM     56  C   UNL A   1      46.755  25.504  29.052  1.00  0.00     0.029 A 
ATOM     57  C   UNL A   1      46.271  26.739  29.451  1.00  0.00     0.049 A 
ATOM     58  H   UNL A   1      44.301  27.488  29.358  1.00  0.00     0.167 HD
ATOM     59  C   UNL A   1      46.449  29.023  30.405  1.00  0.00     0.074 A 
ATOM     60  C   UNL A   1      47.191  30.113  31.005  1.00  0.00     0.031 C 
ATOM     61  C   UNL A   1      46.995  27.837  30.042  1.00  0.00     0.037 A 
BRANCH  48  62
ATOM     62  C   UNL A   1      42.956  23.810  27.651  1.00  0.00     0.058 A 
ATOM     63  C   UNL A   1      42.737  22.711  28.497  1.00  0.00     0.135 A 
ATOM     64  C   UNL A   1      42.907  23.591  26.265  1.00  0.00     0.135 A 
ATOM     65  F   UNL A   1      42.788  22.863  29.830  1.00  0.00    -0.206 F 
ATOM     66  C   UNL A   1      42.509  21.437  27.988  1.00  0.00     0.059 A 
ATOM     67  C   UNL A   1      42.656  22.328  25.734  1.00  0.00     0.059 A 
ATOM     68  F   UNL A   1      43.111  24.605  25.412  1.00  0.00    -0.206 F 
ATOM     69  C   UNL A   1      42.474  21.254  26.605  1.00  0.00     0.060 A 
BRANCH  69  70
ATOM     70  S   UNL A   1      42.180  19.594  25.960  1.00  0.00     0.124 S 
ATOM     71  O   UNL A   1      40.800  19.703  25.497  1.00  0.00    -0.237 OA
ATOM     72  O   UNL A   1      43.192  19.478  24.915  1.00  0.00    -0.237 OA
ATOM     73  O   UNL A   1      42.386  18.737  27.124  1.00  0.00    -0.744 OA
ENDBRANCH  69  70
ENDBRANCH  48  62
BRANCH  49  74
ATOM     74  C   UNL A   1      44.112  32.960  31.508  1.00  0.00     0.058 A 
ATOM     75  C   UNL A   1      44.374  34.080  30.706  1.00  0.00     0.135 A 
ATOM     76  C   UNL A   1      44.001  33.158  32.893  1.00  0.00     0.135 A 
ATOM     77  F   UNL A   1      44.494  33.940  29.377  1.00  0.00    -0.206 F 
ATOM     78  C   UNL A   1      44.534  35.348  31.255  1.00  0.00     0.059 A 
ATOM     79  C   UNL A   1      44.135  34.420  33.463  1.00  0.00     0.059 A 
ATOM     80  F   UNL A   1      43.734  32.120  33.701  1.00  0.00    -0.206 F 
ATOM     81  C   UNL A   1      44.411  35.508  32.637  1.00  0.00     0.060 A 
BRANCH  81  82
ATOM     82  S   UNL A   1      44.568  37.166  33.335  1.00  0.00     0.124 S 
ATOM     83  O   UNL A   1      44.316  38.002  32.167  1.00  0.00    -0.237 OA
ATOM     84  O   UNL A   1      43.528  37.169  34.360  1.00  0.00    -0.237 OA
ATOM     85  O   UNL A   1      45.937  37.185  33.844  1.00  0.00    -0.744 OA
ENDBRANCH  81  82
ENDBRANCH  49  74
BRANCH  61  86
ATOM     86  C   UNL A   1      48.472  27.663  30.258  1.00  0.00     0.058 A 
ATOM     87  C   UNL A   1      48.979  27.027  31.401  1.00  0.00     0.135 A 
ATOM     88  C   UNL A   1      49.387  28.092  29.283  1.00  0.00     0.135 A 
ATOM     89  F   UNL A   1      48.146  26.605  32.365  1.00  0.00    -0.206 F 
ATOM     90  C   UNL A   1      50.345  26.840  31.580  1.00  0.00     0.059 A 
ATOM     91  C   UNL A   1      50.755  27.895  29.430  1.00  0.00     0.059 A 
ATOM     92  F   UNL A   1      48.950  28.698  28.167  1.00  0.00    -0.206 F 
ATOM     93  C   UNL A   1      51.226  27.276  30.588  1.00  0.00     0.060 A 
BRANCH  93  94
ATOM     94  S   UNL A   1      52.996  26.997  30.815  1.00  0.00     0.124 S 
ATOM     95  O   UNL A   1      53.322  26.208  29.631  1.00  0.00    -0.237 OA
ATOM     96  O   UNL A   1      53.529  28.356  30.838  1.00  0.00    -0.237 OA
ATOM     97  O   UNL A   1      53.065  26.282  32.086  1.00  0.00    -0.744 OA
ENDBRANCH  93  94
ENDBRANCH  61  86
ENDBRANCH  35  36
ENDBRANCH  27  30
ENDBRANCH  25  26
ENDBRANCH  24  25
ENDBRANCH   1  24
TORSDOF 18
ENDMDL
