MODEL 1
REMARK VINA RESULT:     -13.8      0.000      0.000
REMARK SMILES COc1ccc(NC(=O)[C@H]2[C@@H]3CC[C@@H](C3)[C@@H]2C(=O)NCCCCNC(=O)c2ccc(-c3c4nc(c(-c5c(F)cc(S(=O)(=O)[O-])cc5F)c5ccc([nH]5)c(-c5c(F)cc(S(=O)(=O)[O-])cc5F)c5nc(c(-c6c(F)cc(S(=O)(=O)[O-])cc6F)c6ccc3[nH]6)C=C5)C=C4)cc2)c(C)c1
REMARK SMILES IDX 21 1 20 2 19 3 17 4 18 5 16 7 10 8 11 9 12 10 15 11 14 12
REMARK SMILES IDX 13 13 8 14 7 15 9 17 6 18 3 19 4 20 95 21 5 22 93 23 94 24
REMARK SMILES IDX 2 25 1 26 22 27 23 28 24 29 25 30 26 32 27 33 28 34 92 35
REMARK SMILES IDX 29 36 91 37 30 38 31 39 32 40 85 41 33 42 90 43 84 44 86 45
REMARK SMILES IDX 34 46 89 47 83 48 82 49 35 51 69 52 48 53 68 54 49 55 52 56
REMARK SMILES IDX 67 57 87 58 50 59 51 60 66 62 88 63 53 64 36 65 37 66 46 67
REMARK SMILES IDX 38 68 39 69 45 70 47 71 40 72 41 73 42 74 43 75 44 76 70 77
REMARK SMILES IDX 71 78 80 79 72 80 73 81 79 82 81 83 74 84 75 85 76 86 77 87
REMARK SMILES IDX 78 88 54 89 55 90 64 91 56 92 57 93 63 94 65 95 58 96 59 97
REMARK SMILES IDX 60 98 61 99 62 100
REMARK H PARENT 19 6 7 16 24 31 86 50 52 61
REMARK Flexibility Score: inf
ROOT
ATOM      1  C   UNL A   1      31.998  28.700  27.217  1.00  0.00     0.023 C 
ENDROOT
BRANCH   1   2
ATOM      2  C   UNL A   1      32.712  27.355  27.049  1.00  0.00     0.116 C 
BRANCH   2   3
ATOM      3  N   UNL A   1      31.829  26.205  26.911  1.00  0.00    -0.356 N 
ATOM      4  C   UNL A   1      31.972  25.081  26.135  1.00  0.00     0.224 C 
ATOM      5  O   UNL A   1      31.146  24.177  26.251  1.00  0.00    -0.275 OA
ATOM      6  H   UNL A   1      31.008  26.237  27.455  1.00  0.00     0.163 HD
BRANCH   4   7
ATOM      7  C   UNL A   1      33.103  25.042  25.109  1.00  0.00     0.094 C 
ATOM      8  C   UNL A   1      32.792  24.297  23.802  1.00  0.00     0.094 C 
ATOM      9  C   UNL A   1      33.842  23.146  23.776  1.00  0.00     0.002 C 
ATOM     10  C   UNL A   1      33.588  22.155  24.930  1.00  0.00     0.005 C 
ATOM     11  C   UNL A   1      35.085  23.855  24.282  1.00  0.00     0.009 C 
ATOM     12  C   UNL A   1      34.399  24.310  25.583  1.00  0.00     0.002 C 
ATOM     13  C   UNL A   1      34.037  22.939  26.174  1.00  0.00     0.005 C 
BRANCH   8  14
ATOM     14  C   UNL A   1      32.781  25.021  22.444  1.00  0.00     0.228 C 
ATOM     15  N   UNL A   1      32.200  26.176  22.038  1.00  0.00    -0.326 N 
ATOM     16  H   UNL A   1      32.322  26.280  21.067  1.00  0.00     0.169 HD
ATOM     17  O   UNL A   1      33.404  24.458  21.521  1.00  0.00    -0.274 OA
BRANCH  15  18
ATOM     18  C   UNL A   1      31.479  27.281  22.540  1.00  0.00     0.044 A 
ATOM     19  C   UNL A   1      30.072  29.601  23.425  1.00  0.00     0.119 A 
ATOM     20  C   UNL A   1      29.393  28.523  22.894  1.00  0.00     0.048 A 
ATOM     21  C   UNL A   1      31.452  29.493  23.585  1.00  0.00     0.052 A 
ATOM     22  C   UNL A   1      30.093  27.379  22.509  1.00  0.00     0.030 A 
ATOM     23  C   UNL A   1      32.171  28.347  23.159  1.00  0.00    -0.024 A 
ATOM     24  C   UNL A   1      33.646  28.340  23.476  1.00  0.00     0.047 C 
BRANCH  19  25
ATOM     25  O   UNL A   1      29.498  30.766  23.847  1.00  0.00    -0.497 OA
ATOM     26  C   UNL A   1      28.121  30.940  23.509  1.00  0.00     0.278 C 
ENDBRANCH  19  25
ENDBRANCH  15  18
ENDBRANCH   8  14
ENDBRANCH   4   7
ENDBRANCH   2   3
ENDBRANCH   1   2
BRANCH   1  27
ATOM     27  C   UNL A   1      32.853  29.955  27.070  1.00  0.00     0.023 C 
BRANCH  27  28
ATOM     28  C   UNL A   1      34.350  29.750  27.253  1.00  0.00     0.116 C 
BRANCH  28  29
ATOM     29  N   UNL A   1      35.129  30.957  27.454  1.00  0.00    -0.352 N 
ATOM     30  C   UNL A   1      36.339  31.084  28.131  1.00  0.00     0.251 C 
ATOM     31  H   UNL A   1      34.758  31.782  27.066  1.00  0.00     0.163 HD
ATOM     32  O   UNL A   1      36.718  32.157  28.553  1.00  0.00    -0.269 OA
BRANCH  30  33
ATOM     33  C   UNL A   1      37.215  29.885  28.199  1.00  0.00     0.039 A 
ATOM     34  C   UNL A   1      37.222  29.160  29.398  1.00  0.00     0.014 A 
ATOM     35  C   UNL A   1      38.178  29.647  27.228  1.00  0.00     0.014 A 
ATOM     36  C   UNL A   1      38.313  28.346  29.707  1.00  0.00     0.010 A 
ATOM     37  C   UNL A   1      39.309  28.940  27.581  1.00  0.00     0.010 A 
ATOM     38  C   UNL A   1      39.394  28.315  28.833  1.00  0.00    -0.014 A 
BRANCH  38  39
ATOM     39  C   UNL A   1      40.690  27.708  29.123  1.00  0.00     0.031 A 
ATOM     40  C   UNL A   1      40.965  26.318  28.685  1.00  0.00     0.074 A 
ATOM     41  C   UNL A   1      41.696  28.482  29.584  1.00  0.00     0.049 A 
ATOM     42  N   UNL A   1      41.991  25.623  29.040  1.00  0.00    -0.248 NA
ATOM     43  C   UNL A   1      40.059  25.583  27.810  1.00  0.00     0.031 C 
ATOM     44  C   UNL A   1      43.128  28.215  29.487  1.00  0.00     0.029 A 
ATOM     45  N   UNL A   1      41.612  29.605  30.409  1.00  0.00    -0.354 N 
ATOM     46  C   UNL A   1      42.041  24.497  28.243  1.00  0.00     0.074 A 
ATOM     47  C   UNL A   1      40.788  24.501  27.525  1.00  0.00     0.031 C 
ATOM     48  C   UNL A   1      43.779  28.972  30.382  1.00  0.00     0.029 A 
ATOM     49  C   UNL A   1      42.774  29.623  31.203  1.00  0.00     0.049 A 
ATOM     50  H   UNL A   1      40.878  30.261  30.430  1.00  0.00     0.167 HD
ATOM     51  C   UNL A   1      43.191  23.765  28.193  1.00  0.00     0.037 A 
ATOM     52  C   UNL A   1      42.698  29.493  32.562  1.00  0.00     0.037 A 
ATOM     53  C   UNL A   1      44.172  24.271  29.154  1.00  0.00     0.049 A 
ATOM     54  C   UNL A   1      43.388  28.263  33.106  1.00  0.00     0.074 A 
ATOM     55  C   UNL A   1      45.262  25.117  29.027  1.00  0.00     0.029 A 
ATOM     56  N   UNL A   1      43.916  24.163  30.517  1.00  0.00    -0.354 N 
ATOM     57  N   UNL A   1      43.723  27.229  32.383  1.00  0.00    -0.248 NA
ATOM     58  C   UNL A   1      43.754  28.098  34.510  1.00  0.00     0.031 C 
ATOM     59  C   UNL A   1      45.624  25.566  30.321  1.00  0.00     0.029 A 
ATOM     60  C   UNL A   1      44.766  24.982  31.237  1.00  0.00     0.049 A 
ATOM     61  H   UNL A   1      43.226  23.584  30.914  1.00  0.00     0.167 HD
ATOM     62  C   UNL A   1      44.293  26.270  33.182  1.00  0.00     0.074 A 
ATOM     63  C   UNL A   1      44.320  26.878  34.499  1.00  0.00     0.031 C 
ATOM     64  C   UNL A   1      44.684  25.056  32.690  1.00  0.00     0.037 A 
BRANCH  51  65
ATOM     65  C   UNL A   1      43.530  22.781  27.084  1.00  0.00     0.058 A 
ATOM     66  C   UNL A   1      42.853  21.544  26.982  1.00  0.00     0.135 A 
ATOM     67  C   UNL A   1      44.549  22.962  26.127  1.00  0.00     0.135 A 
ATOM     68  F   UNL A   1      41.789  21.261  27.745  1.00  0.00    -0.206 F 
ATOM     69  C   UNL A   1      43.235  20.532  26.097  1.00  0.00     0.059 A 
ATOM     70  C   UNL A   1      44.990  21.944  25.272  1.00  0.00     0.059 A 
ATOM     71  F   UNL A   1      45.122  24.156  25.937  1.00  0.00    -0.206 F 
ATOM     72  C   UNL A   1      44.333  20.724  25.272  1.00  0.00     0.060 A 
BRANCH  72  73
ATOM     73  S   UNL A   1      44.868  19.377  24.200  1.00  0.00     0.124 S 
ATOM     74  O   UNL A   1      44.138  18.238  24.747  1.00  0.00    -0.237 OA
ATOM     75  O   UNL A   1      44.432  19.842  22.887  1.00  0.00    -0.237 OA
ATOM     76  O   UNL A   1      46.314  19.338  24.400  1.00  0.00    -0.744 OA
ENDBRANCH  72  73
ENDBRANCH  51  65
BRANCH  52  77
ATOM     77  C   UNL A   1      41.485  30.138  33.136  1.00  0.00     0.058 A 
ATOM     78  C   UNL A   1      41.527  31.535  33.310  1.00  0.00     0.135 A 
ATOM     79  C   UNL A   1      40.224  29.533  33.029  1.00  0.00     0.135 A 
ATOM     80  F   UNL A   1      42.709  32.161  33.439  1.00  0.00    -0.206 F 
ATOM     81  C   UNL A   1      40.387  32.319  33.180  1.00  0.00     0.059 A 
ATOM     82  C   UNL A   1      39.064  30.301  32.909  1.00  0.00     0.059 A 
ATOM     83  F   UNL A   1      40.123  28.205  32.873  1.00  0.00    -0.206 F 
ATOM     84  C   UNL A   1      39.175  31.693  32.899  1.00  0.00     0.060 A 
BRANCH  84  85
ATOM     85  S   UNL A   1      37.818  32.733  32.308  1.00  0.00     0.124 S 
ATOM     86  O   UNL A   1      37.648  33.673  33.411  1.00  0.00    -0.237 OA
ATOM     87  O   UNL A   1      38.397  33.295  31.089  1.00  0.00    -0.237 OA
ATOM     88  O   UNL A   1      36.728  31.784  32.113  1.00  0.00    -0.744 OA
ENDBRANCH  84  85
ENDBRANCH  52  77
BRANCH  64  89
ATOM     89  C   UNL A   1      45.116  23.854  33.507  1.00  0.00     0.058 A 
ATOM     90  C   UNL A   1      46.410  23.674  34.026  1.00  0.00     0.135 A 
ATOM     91  C   UNL A   1      44.165  22.884  33.912  1.00  0.00     0.135 A 
ATOM     92  F   UNL A   1      47.376  24.581  33.828  1.00  0.00    -0.206 F 
ATOM     93  C   UNL A   1      46.757  22.575  34.817  1.00  0.00     0.059 A 
ATOM     94  C   UNL A   1      44.475  21.814  34.750  1.00  0.00     0.059 A 
ATOM     95  F   UNL A   1      42.884  22.950  33.520  1.00  0.00    -0.206 F 
ATOM     96  C   UNL A   1      45.783  21.650  35.174  1.00  0.00     0.060 A 
BRANCH  96  97
ATOM     97  S   UNL A   1      46.207  20.265  36.248  1.00  0.00     0.124 S 
ATOM     98  O   UNL A   1      45.391  19.196  35.679  1.00  0.00    -0.237 OA
ATOM     99  O   UNL A   1      47.647  20.129  36.053  1.00  0.00    -0.237 OA
ATOM    100  O   UNL A   1      45.804  20.735  37.569  1.00  0.00    -0.744 OA
ENDBRANCH  96  97
ENDBRANCH  64  89
ENDBRANCH  38  39
ENDBRANCH  30  33
ENDBRANCH  28  29
ENDBRANCH  27  28
ENDBRANCH   1  27
TORSDOF 17
ENDMDL
MODEL 2
REMARK VINA RESULT:     -13.6      1.353      3.533
REMARK SMILES COc1ccc(NC(=O)[C@H]2[C@@H]3CC[C@@H](C3)[C@@H]2C(=O)NCCCCNC(=O)c2ccc(-c3c4nc(c(-c5c(F)cc(S(=O)(=O)[O-])cc5F)c5ccc([nH]5)c(-c5c(F)cc(S(=O)(=O)[O-])cc5F)c5nc(c(-c6c(F)cc(S(=O)(=O)[O-])cc6F)c6ccc3[nH]6)C=C5)C=C4)cc2)c(C)c1
REMARK SMILES IDX 21 1 20 2 19 3 17 4 18 5 16 7 10 8 11 9 12 10 15 11 14 12
REMARK SMILES IDX 13 13 8 14 7 15 9 17 6 18 3 19 4 20 95 21 5 22 93 23 94 24
REMARK SMILES IDX 2 25 1 26 22 27 23 28 24 29 25 30 26 32 27 33 28 34 92 35
REMARK SMILES IDX 29 36 91 37 30 38 31 39 32 40 85 41 33 42 90 43 84 44 86 45
REMARK SMILES IDX 34 46 89 47 83 48 82 49 35 51 69 52 48 53 68 54 49 55 52 56
REMARK SMILES IDX 67 57 87 58 50 59 51 60 66 62 88 63 53 64 36 65 37 66 46 67
REMARK SMILES IDX 38 68 39 69 45 70 47 71 40 72 41 73 42 74 43 75 44 76 70 77
REMARK SMILES IDX 71 78 80 79 72 80 73 81 79 82 81 83 74 84 75 85 76 86 77 87
REMARK SMILES IDX 78 88 54 89 55 90 64 91 56 92 57 93 63 94 65 95 58 96 59 97
REMARK SMILES IDX 60 98 61 99 62 100
REMARK H PARENT 19 6 7 16 24 31 86 50 52 61
REMARK Flexibility Score: inf
ROOT
ATOM      1  C   UNL A   1      32.115  30.648  26.079  1.00  0.00     0.023 C 
ENDROOT
BRANCH   1   2
ATOM      2  C   UNL A   1      31.134  29.877  25.190  1.00  0.00     0.116 C 
BRANCH   2   3
ATOM      3  N   UNL A   1      31.710  29.337  23.965  1.00  0.00    -0.356 N 
ATOM      4  C   UNL A   1      32.037  28.042  23.650  1.00  0.00     0.224 C 
ATOM      5  O   UNL A   1      32.421  27.793  22.508  1.00  0.00    -0.275 OA
ATOM      6  H   UNL A   1      31.890  30.000  23.259  1.00  0.00     0.163 HD
BRANCH   4   7
ATOM      7  C   UNL A   1      31.987  26.987  24.754  1.00  0.00     0.094 C 
ATOM      8  C   UNL A   1      32.513  25.595  24.371  1.00  0.00     0.094 C 
ATOM      9  C   UNL A   1      31.276  24.668  24.569  1.00  0.00     0.002 C 
ATOM     10  C   UNL A   1      30.166  25.023  23.559  1.00  0.00     0.005 C 
ATOM     11  C   UNL A   1      30.680  25.223  25.849  1.00  0.00     0.009 C 
ATOM     12  C   UNL A   1      30.554  26.646  25.275  1.00  0.00     0.002 C 
ATOM     13  C   UNL A   1      29.622  26.359  24.087  1.00  0.00     0.005 C 
BRANCH   8  14
ATOM     14  C   UNL A   1      33.741  24.979  25.064  1.00  0.00     0.228 C 
ATOM     15  N   UNL A   1      34.071  23.696  25.349  1.00  0.00    -0.326 N 
ATOM     16  H   UNL A   1      34.892  23.683  25.893  1.00  0.00     0.169 HD
ATOM     17  O   UNL A   1      34.606  25.787  25.460  1.00  0.00    -0.274 OA
BRANCH  15  18
ATOM     18  C   UNL A   1      33.635  22.372  25.128  1.00  0.00     0.044 A 
ATOM     19  C   UNL A   1      32.606  19.739  24.743  1.00  0.00     0.119 A 
ATOM     20  C   UNL A   1      32.807  20.582  23.669  1.00  0.00     0.048 A 
ATOM     21  C   UNL A   1      32.989  20.182  26.007  1.00  0.00     0.052 A 
ATOM     22  C   UNL A   1      33.354  21.849  23.871  1.00  0.00     0.030 A 
ATOM     23  C   UNL A   1      33.508  21.484  26.221  1.00  0.00    -0.024 A 
ATOM     24  C   UNL A   1      33.958  21.790  27.628  1.00  0.00     0.047 C 
BRANCH  19  25
ATOM     25  O   UNL A   1      32.090  18.476  24.669  1.00  0.00    -0.497 OA
ATOM     26  C   UNL A   1      32.625  17.529  25.596  1.00  0.00     0.278 C 
ENDBRANCH  19  25
ENDBRANCH  15  18
ENDBRANCH   8  14
ENDBRANCH   4   7
ENDBRANCH   2   3
ENDBRANCH   1   2
BRANCH   1  27
ATOM     27  C   UNL A   1      32.806  29.859  27.187  1.00  0.00     0.023 C 
BRANCH  27  28
ATOM     28  C   UNL A   1      34.315  29.724  27.047  1.00  0.00     0.116 C 
BRANCH  28  29
ATOM     29  N   UNL A   1      35.081  30.926  27.314  1.00  0.00    -0.352 N 
ATOM     30  C   UNL A   1      36.254  31.039  28.057  1.00  0.00     0.251 C 
ATOM     31  H   UNL A   1      34.730  31.759  26.926  1.00  0.00     0.163 HD
ATOM     32  O   UNL A   1      36.608  32.103  28.521  1.00  0.00    -0.269 OA
BRANCH  30  33
ATOM     33  C   UNL A   1      37.126  29.839  28.145  1.00  0.00     0.039 A 
ATOM     34  C   UNL A   1      37.135  29.137  29.358  1.00  0.00     0.014 A 
ATOM     35  C   UNL A   1      38.087  29.580  27.176  1.00  0.00     0.014 A 
ATOM     36  C   UNL A   1      38.224  28.325  29.679  1.00  0.00     0.010 A 
ATOM     37  C   UNL A   1      39.216  28.877  27.540  1.00  0.00     0.010 A 
ATOM     38  C   UNL A   1      39.303  28.276  28.803  1.00  0.00    -0.014 A 
BRANCH  38  39
ATOM     39  C   UNL A   1      40.598  27.670  29.101  1.00  0.00     0.031 A 
ATOM     40  C   UNL A   1      40.866  26.270  28.694  1.00  0.00     0.074 A 
ATOM     41  C   UNL A   1      41.609  28.451  29.541  1.00  0.00     0.049 A 
ATOM     42  N   UNL A   1      41.892  25.579  29.060  1.00  0.00    -0.248 NA
ATOM     43  C   UNL A   1      39.954  25.518  27.839  1.00  0.00     0.031 C 
ATOM     44  C   UNL A   1      43.039  28.176  29.444  1.00  0.00     0.029 A 
ATOM     45  N   UNL A   1      41.532  29.592  30.340  1.00  0.00    -0.354 N 
ATOM     46  C   UNL A   1      41.934  24.436  28.288  1.00  0.00     0.074 A 
ATOM     47  C   UNL A   1      40.678  24.428  27.575  1.00  0.00     0.031 C 
ATOM     48  C   UNL A   1      43.697  28.951  30.318  1.00  0.00     0.029 A 
ATOM     49  C   UNL A   1      42.698  29.624  31.129  1.00  0.00     0.049 A 
ATOM     50  H   UNL A   1      40.801  30.251  30.350  1.00  0.00     0.167 HD
ATOM     51  C   UNL A   1      43.081  23.698  28.250  1.00  0.00     0.037 A 
ATOM     52  C   UNL A   1      42.627  29.524  32.491  1.00  0.00     0.037 A 
ATOM     53  C   UNL A   1      44.068  24.222  29.195  1.00  0.00     0.049 A 
ATOM     54  C   UNL A   1      43.315  28.304  33.060  1.00  0.00     0.074 A 
ATOM     55  C   UNL A   1      45.161  25.060  29.044  1.00  0.00     0.029 A 
ATOM     56  N   UNL A   1      43.817  24.146  30.561  1.00  0.00    -0.354 N 
ATOM     57  N   UNL A   1      43.643  27.254  32.359  1.00  0.00    -0.248 NA
ATOM     58  C   UNL A   1      43.686  28.170  34.465  1.00  0.00     0.031 C 
ATOM     59  C   UNL A   1      45.529  25.538  30.327  1.00  0.00     0.029 A 
ATOM     60  C   UNL A   1      44.673  24.977  31.259  1.00  0.00     0.049 A 
ATOM     61  H   UNL A   1      43.127  23.578  30.974  1.00  0.00     0.167 HD
ATOM     62  C   UNL A   1      44.213  26.310  33.176  1.00  0.00     0.074 A 
ATOM     63  C   UNL A   1      44.248  26.948  34.479  1.00  0.00     0.031 C 
ATOM     64  C   UNL A   1      44.598  25.084  32.710  1.00  0.00     0.037 A 
BRANCH  51  65
ATOM     65  C   UNL A   1      43.412  22.688  27.162  1.00  0.00     0.058 A 
ATOM     66  C   UNL A   1      42.719  21.458  27.081  1.00  0.00     0.135 A 
ATOM     67  C   UNL A   1      44.436  22.836  26.206  1.00  0.00     0.135 A 
ATOM     68  F   UNL A   1      41.648  21.204  27.845  1.00  0.00    -0.206 F 
ATOM     69  C   UNL A   1      43.091  20.424  26.218  1.00  0.00     0.059 A 
ATOM     70  C   UNL A   1      44.868  21.797  25.373  1.00  0.00     0.059 A 
ATOM     71  F   UNL A   1      45.027  24.019  25.995  1.00  0.00    -0.206 F 
ATOM     72  C   UNL A   1      44.195  20.586  25.394  1.00  0.00     0.060 A 
BRANCH  72  73
ATOM     73  S   UNL A   1      44.717  19.211  24.351  1.00  0.00     0.124 S 
ATOM     74  O   UNL A   1      43.789  18.156  24.744  1.00  0.00    -0.237 OA
ATOM     75  O   UNL A   1      44.529  19.758  23.011  1.00  0.00    -0.237 OA
ATOM     76  O   UNL A   1      46.105  18.992  24.748  1.00  0.00    -0.744 OA
ENDBRANCH  72  73
ENDBRANCH  51  65
BRANCH  52  77
ATOM     77  C   UNL A   1      41.419  30.187  33.055  1.00  0.00     0.058 A 
ATOM     78  C   UNL A   1      41.438  31.593  33.129  1.00  0.00     0.135 A 
ATOM     79  C   UNL A   1      40.168  29.554  33.029  1.00  0.00     0.135 A 
ATOM     80  F   UNL A   1      42.610  32.247  33.178  1.00  0.00    -0.206 F 
ATOM     81  C   UNL A   1      40.280  32.346  32.980  1.00  0.00     0.059 A 
ATOM     82  C   UNL A   1      38.990  30.290  32.892  1.00  0.00     0.059 A 
ATOM     83  F   UNL A   1      40.088  28.216  32.971  1.00  0.00    -0.206 F 
ATOM     84  C   UNL A   1      39.072  31.680  32.781  1.00  0.00     0.060 A 
BRANCH  84  85
ATOM     85  S   UNL A   1      37.678  32.651  32.161  1.00  0.00     0.124 S 
ATOM     86  O   UNL A   1      38.292  33.416  31.081  1.00  0.00    -0.237 OA
ATOM     87  O   UNL A   1      36.758  31.596  31.737  1.00  0.00    -0.237 OA
ATOM     88  O   UNL A   1      37.261  33.423  33.325  1.00  0.00    -0.744 OA
ENDBRANCH  84  85
ENDBRANCH  52  77
BRANCH  64  89
ATOM     89  C   UNL A   1      45.029  23.900  33.552  1.00  0.00     0.058 A 
ATOM     90  C   UNL A   1      44.218  22.785  33.825  1.00  0.00     0.135 A 
ATOM     91  C   UNL A   1      46.367  23.796  34.010  1.00  0.00     0.135 A 
ATOM     92  F   UNL A   1      42.971  22.692  33.343  1.00  0.00    -0.206 F 
ATOM     93  C   UNL A   1      44.670  21.689  34.565  1.00  0.00     0.059 A 
ATOM     94  C   UNL A   1      46.855  22.686  34.697  1.00  0.00     0.059 A 
ATOM     95  F   UNL A   1      47.262  24.772  33.791  1.00  0.00    -0.206 F 
ATOM     96  C   UNL A   1      45.990  21.648  34.998  1.00  0.00     0.060 A 
BRANCH  96  97
ATOM     97  S   UNL A   1      46.599  20.209  35.896  1.00  0.00     0.124 S 
ATOM     98  O   UNL A   1      47.992  20.164  35.463  1.00  0.00    -0.237 OA
ATOM     99  O   UNL A   1      46.386  20.581  37.292  1.00  0.00    -0.237 OA
ATOM    100  O   UNL A   1      45.748  19.129  35.408  1.00  0.00    -0.744 OA
ENDBRANCH  96  97
ENDBRANCH  64  89
ENDBRANCH  38  39
ENDBRANCH  30  33
ENDBRANCH  28  29
ENDBRANCH  27  28
ENDBRANCH   1  27
TORSDOF 17
ENDMDL
MODEL 3
REMARK VINA RESULT:     -13.4      4.496     11.241
REMARK SMILES COc1ccc(NC(=O)[C@H]2[C@@H]3CC[C@@H](C3)[C@@H]2C(=O)NCCCCNC(=O)c2ccc(-c3c4nc(c(-c5c(F)cc(S(=O)(=O)[O-])cc5F)c5ccc([nH]5)c(-c5c(F)cc(S(=O)(=O)[O-])cc5F)c5nc(c(-c6c(F)cc(S(=O)(=O)[O-])cc6F)c6ccc3[nH]6)C=C5)C=C4)cc2)c(C)c1
REMARK SMILES IDX 21 1 20 2 19 3 17 4 18 5 16 7 10 8 11 9 12 10 15 11 14 12
REMARK SMILES IDX 13 13 8 14 7 15 9 17 6 18 3 19 4 20 95 21 5 22 93 23 94 24
REMARK SMILES IDX 2 25 1 26 22 27 23 28 24 29 25 30 26 32 27 33 28 34 92 35
REMARK SMILES IDX 29 36 91 37 30 38 31 39 32 40 85 41 33 42 90 43 84 44 86 45
REMARK SMILES IDX 34 46 89 47 83 48 82 49 35 51 69 52 48 53 68 54 49 55 52 56
REMARK SMILES IDX 67 57 87 58 50 59 51 60 66 62 88 63 53 64 36 65 37 66 46 67
REMARK SMILES IDX 38 68 39 69 45 70 47 71 40 72 41 73 42 74 43 75 44 76 70 77
REMARK SMILES IDX 71 78 80 79 72 80 73 81 79 82 81 83 74 84 75 85 76 86 77 87
REMARK SMILES IDX 78 88 54 89 55 90 64 91 56 92 57 93 63 94 65 95 58 96 59 97
REMARK SMILES IDX 60 98 61 99 62 100
REMARK H PARENT 19 6 7 16 24 31 86 50 52 61
REMARK Flexibility Score: inf
ROOT
ATOM      1  C   UNL A   1      36.227  22.813  23.841  1.00  0.00     0.023 C 
ENDROOT
BRANCH   1   2
ATOM      2  C   UNL A   1      35.291  23.952  24.257  1.00  0.00     0.116 C 
BRANCH   2   3
ATOM      3  N   UNL A   1      34.492  24.517  23.177  1.00  0.00    -0.356 N 
ATOM      4  C   UNL A   1      33.731  25.659  23.159  1.00  0.00     0.224 C 
ATOM      5  O   UNL A   1      33.215  26.005  22.097  1.00  0.00    -0.275 OA
ATOM      6  H   UNL A   1      34.500  24.003  22.337  1.00  0.00     0.163 HD
BRANCH   4   7
ATOM      7  C   UNL A   1      33.495  26.400  24.474  1.00  0.00     0.094 C 
ATOM      8  C   UNL A   1      32.025  26.568  24.890  1.00  0.00     0.094 C 
ATOM      9  C   UNL A   1      31.833  28.113  24.942  1.00  0.00     0.002 C 
ATOM     10  C   UNL A   1      31.973  28.723  23.533  1.00  0.00     0.005 C 
ATOM     11  C   UNL A   1      33.136  28.563  25.575  1.00  0.00     0.009 C 
ATOM     12  C   UNL A   1      33.995  27.880  24.496  1.00  0.00     0.002 C 
ATOM     13  C   UNL A   1      33.480  28.622  23.253  1.00  0.00     0.005 C 
BRANCH   8  14
ATOM     14  C   UNL A   1      31.475  25.932  26.179  1.00  0.00     0.228 C 
ATOM     15  N   UNL A   1      31.550  24.671  26.671  1.00  0.00    -0.326 N 
ATOM     16  H   UNL A   1      30.992  24.601  27.478  1.00  0.00     0.169 HD
ATOM     17  O   UNL A   1      30.823  26.690  26.925  1.00  0.00    -0.274 OA
BRANCH  15  18
ATOM     18  C   UNL A   1      32.160  23.424  26.414  1.00  0.00     0.044 A 
ATOM     19  C   UNL A   1      33.500  20.981  25.797  1.00  0.00     0.119 A 
ATOM     20  C   UNL A   1      33.637  21.568  27.039  1.00  0.00     0.048 A 
ATOM     21  C   UNL A   1      32.632  21.574  24.883  1.00  0.00     0.052 A 
ATOM     22  C   UNL A   1      32.938  22.738  27.338  1.00  0.00     0.030 A 
ATOM     23  C   UNL A   1      31.950  22.785  25.170  1.00  0.00    -0.024 A 
ATOM     24  C   UNL A   1      30.980  23.259  24.117  1.00  0.00     0.047 C 
BRANCH  19  25
ATOM     25  O   UNL A   1      34.122  19.834  25.393  1.00  0.00    -0.497 OA
ATOM     26  C   UNL A   1      33.336  18.947  24.595  1.00  0.00     0.278 C 
ENDBRANCH  19  25
ENDBRANCH  15  18
ENDBRANCH   8  14
ENDBRANCH   4   7
ENDBRANCH   2   3
ENDBRANCH   1   2
BRANCH   1  27
ATOM     27  C   UNL A   1      37.236  22.337  24.880  1.00  0.00     0.023 C 
BRANCH  27  28
ATOM     28  C   UNL A   1      37.784  23.418  25.802  1.00  0.00     0.116 C 
BRANCH  28  29
ATOM     29  N   UNL A   1      38.934  23.040  26.600  1.00  0.00    -0.352 N 
ATOM     30  C   UNL A   1      39.928  23.873  27.106  1.00  0.00     0.251 C 
ATOM     31  H   UNL A   1      39.022  22.082  26.807  1.00  0.00     0.163 HD
ATOM     32  O   UNL A   1      41.011  23.438  27.436  1.00  0.00    -0.269 OA
BRANCH  30  33
ATOM     33  C   UNL A   1      39.569  25.294  27.357  1.00  0.00     0.039 A 
ATOM     34  C   UNL A   1      40.141  26.260  26.519  1.00  0.00     0.014 A 
ATOM     35  C   UNL A   1      38.917  25.672  28.523  1.00  0.00     0.014 A 
ATOM     36  C   UNL A   1      40.237  27.583  26.954  1.00  0.00     0.010 A 
ATOM     37  C   UNL A   1      39.117  26.948  29.006  1.00  0.00     0.010 A 
ATOM     38  C   UNL A   1      39.806  27.898  28.239  1.00  0.00    -0.014 A 
BRANCH  38  39
ATOM     39  C   UNL A   1      40.053  29.166  28.919  1.00  0.00     0.031 A 
ATOM     40  C   UNL A   1      39.004  30.214  28.925  1.00  0.00     0.074 A 
ATOM     41  C   UNL A   1      41.135  29.289  29.719  1.00  0.00     0.049 A 
ATOM     42  N   UNL A   1      39.175  31.426  29.330  1.00  0.00    -0.248 NA
ATOM     43  C   UNL A   1      37.653  29.967  28.434  1.00  0.00     0.031 C 
ATOM     44  C   UNL A   1      41.315  30.234  30.817  1.00  0.00     0.029 A 
ATOM     45  N   UNL A   1      42.386  28.686  29.576  1.00  0.00    -0.354 N 
ATOM     46  C   UNL A   1      37.934  32.022  29.429  1.00  0.00     0.074 A 
ATOM     47  C   UNL A   1      37.026  31.082  28.816  1.00  0.00     0.031 C 
ATOM     48  C   UNL A   1      42.621  30.333  31.103  1.00  0.00     0.029 A 
ATOM     49  C   UNL A   1      43.340  29.588  30.085  1.00  0.00     0.049 A 
ATOM     50  H   UNL A   1      42.566  27.798  29.193  1.00  0.00     0.167 HD
ATOM     51  C   UNL A   1      37.806  33.185  30.133  1.00  0.00     0.037 A 
ATOM     52  C   UNL A   1      44.294  30.134  29.272  1.00  0.00     0.037 A 
ATOM     53  C   UNL A   1      39.115  33.677  30.566  1.00  0.00     0.049 A 
ATOM     54  C   UNL A   1      44.212  31.638  29.142  1.00  0.00     0.074 A 
ATOM     55  C   UNL A   1      39.806  33.580  31.763  1.00  0.00     0.029 A 
ATOM     56  N   UNL A   1      40.034  34.109  29.615  1.00  0.00    -0.354 N 
ATOM     57  N   UNL A   1      43.162  32.345  29.458  1.00  0.00    -0.248 NA
ATOM     58  C   UNL A   1      45.307  32.465  28.644  1.00  0.00     0.031 C 
ATOM     59  C   UNL A   1      41.164  33.899  31.513  1.00  0.00     0.029 A 
ATOM     60  C   UNL A   1      41.296  34.206  30.170  1.00  0.00     0.049 A 
ATOM     61  H   UNL A   1      39.816  34.317  28.678  1.00  0.00     0.167 HD
ATOM     62  C   UNL A   1      43.396  33.669  29.187  1.00  0.00     0.074 A 
ATOM     63  C   UNL A   1      44.767  33.694  28.711  1.00  0.00     0.031 C 
ATOM     64  C   UNL A   1      42.438  34.627  29.368  1.00  0.00     0.037 A 
BRANCH  51  65
ATOM     65  C   UNL A   1      36.487  33.717  30.669  1.00  0.00     0.058 A 
ATOM     66  C   UNL A   1      35.501  34.224  29.792  1.00  0.00     0.135 A 
ATOM     67  C   UNL A   1      36.151  33.817  32.034  1.00  0.00     0.135 A 
ATOM     68  F   UNL A   1      35.616  34.107  28.463  1.00  0.00    -0.206 F 
ATOM     69  C   UNL A   1      34.348  34.882  30.232  1.00  0.00     0.059 A 
ATOM     70  C   UNL A   1      35.036  34.522  32.502  1.00  0.00     0.059 A 
ATOM     71  F   UNL A   1      36.860  33.181  32.974  1.00  0.00    -0.206 F 
ATOM     72  C   UNL A   1      34.143  35.064  31.591  1.00  0.00     0.060 A 
BRANCH  72  73
ATOM     73  S   UNL A   1      32.698  35.992  32.141  1.00  0.00     0.124 S 
ATOM     74  O   UNL A   1      33.249  36.815  33.213  1.00  0.00    -0.237 OA
ATOM     75  O   UNL A   1      32.314  36.703  30.926  1.00  0.00    -0.237 OA
ATOM     76  O   UNL A   1      31.771  34.951  32.575  1.00  0.00    -0.744 OA
ENDBRANCH  72  73
ENDBRANCH  51  65
BRANCH  52  77
ATOM     77  C   UNL A   1      44.760  29.192  28.217  1.00  0.00     0.058 A 
ATOM     78  C   UNL A   1      45.684  28.203  28.607  1.00  0.00     0.135 A 
ATOM     79  C   UNL A   1      43.984  28.943  27.075  1.00  0.00     0.135 A 
ATOM     80  F   UNL A   1      46.466  28.400  29.681  1.00  0.00    -0.206 F 
ATOM     81  C   UNL A   1      45.696  26.945  28.016  1.00  0.00     0.059 A 
ATOM     82  C   UNL A   1      43.990  27.691  26.458  1.00  0.00     0.059 A 
ATOM     83  F   UNL A   1      43.096  29.854  26.650  1.00  0.00    -0.206 F 
ATOM     84  C   UNL A   1      44.787  26.678  26.995  1.00  0.00     0.060 A 
BRANCH  84  85
ATOM     85  S   UNL A   1      44.520  24.945  26.550  1.00  0.00     0.124 S 
ATOM     86  O   UNL A   1      43.522  25.050  25.491  1.00  0.00    -0.237 OA
ATOM     87  O   UNL A   1      45.858  24.551  26.113  1.00  0.00    -0.237 OA
ATOM     88  O   UNL A   1      44.059  24.346  27.796  1.00  0.00    -0.744 OA
ENDBRANCH  84  85
ENDBRANCH  52  77
BRANCH  64  89
ATOM     89  C   UNL A   1      42.509  36.067  28.901  1.00  0.00     0.058 A 
ATOM     90  C   UNL A   1      43.223  37.080  29.564  1.00  0.00     0.135 A 
ATOM     91  C   UNL A   1      41.947  36.445  27.655  1.00  0.00     0.135 A 
ATOM     92  F   UNL A   1      43.911  36.831  30.687  1.00  0.00    -0.206 F 
ATOM     93  C   UNL A   1      43.307  38.386  29.075  1.00  0.00     0.059 A 
ATOM     94  C   UNL A   1      42.069  37.726  27.120  1.00  0.00     0.059 A 
ATOM     95  F   UNL A   1      41.266  35.571  26.898  1.00  0.00    -0.206 F 
ATOM     96  C   UNL A   1      42.726  38.701  27.852  1.00  0.00     0.060 A 
BRANCH  96  97
ATOM     97  S   UNL A   1      42.883  40.367  27.181  1.00  0.00     0.124 S 
ATOM     98  O   UNL A   1      43.785  40.985  28.149  1.00  0.00    -0.237 OA
ATOM     99  O   UNL A   1      43.448  40.134  25.855  1.00  0.00    -0.237 OA
ATOM    100  O   UNL A   1      41.509  40.859  27.191  1.00  0.00    -0.744 OA
ENDBRANCH  96  97
ENDBRANCH  64  89
ENDBRANCH  38  39
ENDBRANCH  30  33
ENDBRANCH  28  29
ENDBRANCH  27  28
ENDBRANCH   1  27
TORSDOF 17
ENDMDL
