MODEL 1
REMARK VINA RESULT:     -12.0      0.000      0.000
REMARK SMILES O=C(NCCCCNC(=O)[C@@H]1O[C@H](OC(=O)c2cccnc2)[C@@H](O)[C@H](O)[C@H]1O)c1ccc(-c2c3nc(c(-c4c(F)cc(S(=O)(=O)[O-])cc4F)c4ccc([nH]4)c(-c4c(F)cc(S(=O)(=O)[O-])cc4F)c4nc(c(-c5c(F)cc(S(=O)(=O)[O-])cc5F)c5ccc2[nH]5)C=C4)C=C3)cc1
REMARK SMILES IDX 5 1 4 2 3 3 1 4 2 5 29 7 30 8 94 9 31 10 93 11 32 12 33 13
REMARK SMILES IDX 34 14 87 15 35 16 92 17 86 18 88 19 36 20 91 21 85 22 84 23
REMARK SMILES IDX 37 25 71 26 50 27 70 28 51 29 54 30 69 31 89 32 52 33 53 34
REMARK SMILES IDX 68 36 90 37 55 38 38 39 39 40 48 41 40 42 41 43 47 44 49 45
REMARK SMILES IDX 42 46 43 47 44 48 45 49 46 50 72 51 73 52 82 53 74 54 75 55
REMARK SMILES IDX 81 56 83 57 76 58 77 59 78 60 79 61 80 62 56 63 57 64 66 65
REMARK SMILES IDX 58 66 59 67 65 68 67 69 60 70 61 71 62 72 63 73 64 74 6 75
REMARK SMILES IDX 7 76 8 77 9 78 10 80 11 81 12 82 27 83 13 84 25 85 23 86
REMARK SMILES IDX 28 87 14 89 15 90 16 91 17 92 18 93 22 94 19 95 21 96 20 97
REMARK SMILES IDX 26 98 24 100
REMARK H PARENT 3 6 88 24 54 35 8 79 28 88 26 99 24 101
REMARK Flexibility Score: inf
ROOT
ATOM      1  C   UNL A   1      39.106  22.335  26.651  1.00  0.00     0.023 C 
ENDROOT
BRANCH   1   2
ATOM      2  C   UNL A   1      39.852  23.572  27.130  1.00  0.00     0.116 C 
BRANCH   2   3
ATOM      3  N   UNL A   1      40.577  24.255  26.067  1.00  0.00    -0.352 N 
ATOM      4  O   UNL A   1      41.438  26.044  24.983  1.00  0.00    -0.269 OA
ATOM      5  C   UNL A   1      40.932  25.584  26.001  1.00  0.00     0.251 C 
ATOM      6  H   UNL A   1      40.848  23.698  25.302  1.00  0.00     0.163 HD
BRANCH   5   7
ATOM      7  C   UNL A   1      40.657  26.452  27.168  1.00  0.00     0.039 A 
ATOM      8  C   UNL A   1      41.257  27.709  27.253  1.00  0.00     0.014 A 
ATOM      9  C   UNL A   1      39.848  25.982  28.205  1.00  0.00     0.014 A 
ATOM     10  C   UNL A   1      41.183  28.421  28.441  1.00  0.00     0.010 A 
ATOM     11  C   UNL A   1      39.692  26.750  29.364  1.00  0.00     0.010 A 
ATOM     12  C   UNL A   1      40.387  27.961  29.506  1.00  0.00    -0.014 A 
BRANCH  12  13
ATOM     13  C   UNL A   1      40.258  28.819  30.711  1.00  0.00     0.031 A 
ATOM     14  C   UNL A   1      41.183  28.676  31.889  1.00  0.00     0.074 A 
ATOM     15  C   UNL A   1      39.328  29.795  30.692  1.00  0.00     0.049 A 
ATOM     16  N   UNL A   1      41.244  29.404  32.975  1.00  0.00    -0.248 NA
ATOM     17  C   UNL A   1      42.158  27.574  31.853  1.00  0.00     0.031 C 
ATOM     18  C   UNL A   1      38.357  30.007  29.613  1.00  0.00     0.029 A 
ATOM     19  N   UNL A   1      39.065  30.808  31.575  1.00  0.00    -0.354 N 
ATOM     20  C   UNL A   1      42.252  28.849  33.755  1.00  0.00     0.074 A 
ATOM     21  C   UNL A   1      42.758  27.702  33.030  1.00  0.00     0.031 C 
ATOM     22  C   UNL A   1      37.653  31.118  29.866  1.00  0.00     0.029 A 
ATOM     23  C   UNL A   1      38.073  31.661  31.151  1.00  0.00     0.049 A 
ATOM     24  H   UNL A   1      39.541  30.917  32.431  1.00  0.00     0.167 HD
ATOM     25  C   UNL A   1      42.717  29.266  34.958  1.00  0.00     0.037 A 
ATOM     26  C   UNL A   1      37.548  32.754  31.734  1.00  0.00     0.037 A 
ATOM     27  C   UNL A   1      42.212  30.417  35.668  1.00  0.00     0.049 A 
ATOM     28  C   UNL A   1      38.094  33.200  33.058  1.00  0.00     0.074 A 
ATOM     29  C   UNL A   1      42.619  30.924  36.891  1.00  0.00     0.029 A 
ATOM     30  N   UNL A   1      41.194  31.245  35.216  1.00  0.00    -0.354 N 
ATOM     31  N   UNL A   1      39.054  32.664  33.775  1.00  0.00    -0.248 NA
ATOM     32  C   UNL A   1      37.486  34.395  33.656  1.00  0.00     0.031 C 
ATOM     33  C   UNL A   1      41.826  32.037  37.192  1.00  0.00     0.029 A 
ATOM     34  C   UNL A   1      40.953  32.251  36.138  1.00  0.00     0.049 A 
ATOM     35  H   UNL A   1      40.713  31.134  34.363  1.00  0.00     0.167 HD
ATOM     36  C   UNL A   1      39.163  33.454  34.911  1.00  0.00     0.074 A 
ATOM     37  C   UNL A   1      38.198  34.527  34.766  1.00  0.00     0.031 C 
ATOM     38  C   UNL A   1      39.978  33.301  35.983  1.00  0.00     0.037 A 
BRANCH  25  39
ATOM     39  C   UNL A   1      43.829  28.478  35.596  1.00  0.00     0.058 A 
ATOM     40  C   UNL A   1      43.566  27.427  36.490  1.00  0.00     0.135 A 
ATOM     41  C   UNL A   1      45.170  28.729  35.261  1.00  0.00     0.135 A 
ATOM     42  F   UNL A   1      42.305  27.152  36.857  1.00  0.00    -0.206 F 
ATOM     43  C   UNL A   1      44.593  26.662  37.036  1.00  0.00     0.059 A 
ATOM     44  C   UNL A   1      46.211  27.962  35.778  1.00  0.00     0.059 A 
ATOM     45  F   UNL A   1      45.479  29.721  34.412  1.00  0.00    -0.206 F 
ATOM     46  C   UNL A   1      45.913  26.935  36.673  1.00  0.00     0.060 A 
BRANCH  46  47
ATOM     47  S   UNL A   1      47.231  25.917  37.373  1.00  0.00     0.124 S 
ATOM     48  O   UNL A   1      46.617  24.592  37.350  1.00  0.00    -0.237 OA
ATOM     49  O   UNL A   1      48.322  26.126  36.428  1.00  0.00    -0.237 OA
ATOM     50  O   UNL A   1      47.435  26.491  38.700  1.00  0.00    -0.744 OA
ENDBRANCH  46  47
ENDBRANCH  25  39
BRANCH  26  51
ATOM     51  C   UNL A   1      36.434  33.478  31.072  1.00  0.00     0.058 A 
ATOM     52  C   UNL A   1      36.642  34.233  29.909  1.00  0.00     0.135 A 
ATOM     53  C   UNL A   1      35.128  33.406  31.582  1.00  0.00     0.135 A 
ATOM     54  F   UNL A   1      37.873  34.332  29.384  1.00  0.00    -0.206 F 
ATOM     55  C   UNL A   1      35.597  34.907  29.284  1.00  0.00     0.059 A 
ATOM     56  C   UNL A   1      34.063  34.045  30.958  1.00  0.00     0.059 A 
ATOM     57  F   UNL A   1      34.874  32.677  32.680  1.00  0.00    -0.206 F 
ATOM     58  C   UNL A   1      34.311  34.806  29.817  1.00  0.00     0.060 A 
BRANCH  58  59
ATOM     59  S   UNL A   1      32.950  35.645  28.979  1.00  0.00     0.124 S 
ATOM     60  O   UNL A   1      32.392  34.564  28.175  1.00  0.00    -0.237 OA
ATOM     61  O   UNL A   1      32.128  36.099  30.097  1.00  0.00    -0.237 OA
ATOM     62  O   UNL A   1      33.622  36.707  28.234  1.00  0.00    -0.744 OA
ENDBRANCH  58  59
ENDBRANCH  26  51
BRANCH  38  63
ATOM     63  C   UNL A   1      39.851  34.323  37.076  1.00  0.00     0.058 A 
ATOM     64  C   UNL A   1      40.582  35.522  37.044  1.00  0.00     0.135 A 
ATOM     65  C   UNL A   1      38.999  34.100  38.168  1.00  0.00     0.135 A 
ATOM     66  F   UNL A   1      41.417  35.777  36.024  1.00  0.00    -0.206 F 
ATOM     67  C   UNL A   1      40.500  36.448  38.078  1.00  0.00     0.059 A 
ATOM     68  C   UNL A   1      38.883  35.024  39.201  1.00  0.00     0.059 A 
ATOM     69  F   UNL A   1      38.272  32.974  38.241  1.00  0.00    -0.206 F 
ATOM     70  C   UNL A   1      39.653  36.186  39.157  1.00  0.00     0.060 A 
BRANCH  70  71
ATOM     71  S   UNL A   1      39.562  37.390  40.498  1.00  0.00     0.124 S 
ATOM     72  O   UNL A   1      38.742  38.437  39.897  1.00  0.00    -0.237 OA
ATOM     73  O   UNL A   1      38.929  36.624  41.567  1.00  0.00    -0.237 OA
ATOM     74  O   UNL A   1      40.959  37.743  40.732  1.00  0.00    -0.744 OA
ENDBRANCH  70  71
ENDBRANCH  38  63
ENDBRANCH  12  13
ENDBRANCH   5   7
ENDBRANCH   2   3
ENDBRANCH   1   2
BRANCH   1  75
ATOM     75  C   UNL A   1      39.988  21.253  26.026  1.00  0.00     0.023 C 
BRANCH  75  76
ATOM     76  C   UNL A   1      40.930  20.569  27.015  1.00  0.00     0.116 C 
BRANCH  76  77
ATOM     77  N   UNL A   1      41.309  19.246  26.553  1.00  0.00    -0.354 N 
ATOM     78  C   UNL A   1      42.497  18.800  26.046  1.00  0.00     0.252 C 
ATOM     79  H   UNL A   1      40.601  18.565  26.615  1.00  0.00     0.163 HD
ATOM     80  O   UNL A   1      42.571  17.625  25.680  1.00  0.00    -0.272 OA
BRANCH  78  81
ATOM     81  C   UNL A   1      43.691  19.756  25.955  1.00  0.00     0.242 C 
ATOM     82  O   UNL A   1      43.281  21.020  25.435  1.00  0.00    -0.324 OA
ATOM     83  C   UNL A   1      44.759  19.111  25.067  1.00  0.00     0.184 C 
ATOM     84  C   UNL A   1      44.347  21.963  25.379  1.00  0.00     0.343 C 
ATOM     85  C   UNL A   1      45.950  20.068  24.967  1.00  0.00     0.181 C 
ATOM     86  C   UNL A   1      45.543  21.475  24.532  1.00  0.00     0.214 C 
BRANCH  83  87
ATOM     87  O   UNL A   1      45.209  17.877  25.647  1.00  0.00    -0.387 OA
ATOM     88  H   UNL A   1      44.886  17.134  25.114  1.00  0.00     0.211 HD
ENDBRANCH  83  87
BRANCH  84  89
ATOM     89  O   UNL A   1      43.884  23.253  24.944  1.00  0.00    -0.429 OA
BRANCH  89  90
ATOM     90  C   UNL A   1      44.596  24.324  25.342  1.00  0.00     0.342 C 
ATOM     91  O   UNL A   1      45.452  24.934  24.706  1.00  0.00    -0.246 OA
BRANCH  90  92
ATOM     92  C   UNL A   1      44.209  24.679  26.710  1.00  0.00     0.078 A 
ATOM     93  C   UNL A   1      43.550  23.780  27.553  1.00  0.00     0.019 A 
ATOM     94  C   UNL A   1      44.547  25.928  27.209  1.00  0.00     0.126 A 
ATOM     95  C   UNL A   1      43.252  24.168  28.857  1.00  0.00     0.021 A 
ATOM     96  N   UNL A   1      44.261  26.329  28.472  1.00  0.00    -0.264 NA
ATOM     97  C   UNL A   1      43.621  25.440  29.264  1.00  0.00     0.111 A 
ENDBRANCH  90  92
ENDBRANCH  89  90
ENDBRANCH  84  89
BRANCH  85  98
ATOM     98  O   UNL A   1      46.953  19.548  24.076  1.00  0.00    -0.387 OA
ATOM     99  H   UNL A   1      47.799  19.988  24.250  1.00  0.00     0.211 HD
ENDBRANCH  85  98
BRANCH  86 100
ATOM    100  O   UNL A   1      46.675  22.347  24.705  1.00  0.00    -0.384 OA
ATOM    101  H   UNL A   1      47.476  21.909  24.378  1.00  0.00     0.211 HD
ENDBRANCH  86 100
ENDBRANCH  78  81
ENDBRANCH  76  77
ENDBRANCH  75  76
ENDBRANCH   1  75
TORSDOF 20
ENDMDL
MODEL 2
REMARK VINA RESULT:     -11.9      3.741      6.046
REMARK SMILES O=C(NCCCCNC(=O)[C@@H]1O[C@H](OC(=O)c2cccnc2)[C@@H](O)[C@H](O)[C@H]1O)c1ccc(-c2c3nc(c(-c4c(F)cc(S(=O)(=O)[O-])cc4F)c4ccc([nH]4)c(-c4c(F)cc(S(=O)(=O)[O-])cc4F)c4nc(c(-c5c(F)cc(S(=O)(=O)[O-])cc5F)c5ccc2[nH]5)C=C4)C=C3)cc1
REMARK SMILES IDX 5 1 4 2 3 3 1 4 2 5 29 7 30 8 94 9 31 10 93 11 32 12 33 13
REMARK SMILES IDX 34 14 87 15 35 16 92 17 86 18 88 19 36 20 91 21 85 22 84 23
REMARK SMILES IDX 37 25 71 26 50 27 70 28 51 29 54 30 69 31 89 32 52 33 53 34
REMARK SMILES IDX 68 36 90 37 55 38 38 39 39 40 48 41 40 42 41 43 47 44 49 45
REMARK SMILES IDX 42 46 43 47 44 48 45 49 46 50 72 51 73 52 82 53 74 54 75 55
REMARK SMILES IDX 81 56 83 57 76 58 77 59 78 60 79 61 80 62 56 63 57 64 66 65
REMARK SMILES IDX 58 66 59 67 65 68 67 69 60 70 61 71 62 72 63 73 64 74 6 75
REMARK SMILES IDX 7 76 8 77 9 78 10 80 11 81 12 82 27 83 13 84 25 85 23 86
REMARK SMILES IDX 28 87 14 89 15 90 16 91 17 92 18 93 22 94 19 95 21 96 20 97
REMARK SMILES IDX 26 98 24 100
REMARK H PARENT 3 6 88 24 54 35 8 79 28 88 26 99 24 101
REMARK Flexibility Score: inf
ROOT
ATOM      1  C   UNL A   1      39.932  22.314  26.926  1.00  0.00     0.023 C 
ENDROOT
BRANCH   1   2
ATOM      2  C   UNL A   1      41.018  23.329  27.249  1.00  0.00     0.116 C 
BRANCH   2   3
ATOM      3  N   UNL A   1      41.487  24.064  26.082  1.00  0.00    -0.352 N 
ATOM      4  O   UNL A   1      41.873  25.906  24.828  1.00  0.00    -0.269 OA
ATOM      5  C   UNL A   1      41.570  25.429  25.916  1.00  0.00     0.251 C 
ATOM      6  H   UNL A   1      41.782  23.518  25.318  1.00  0.00     0.163 HD
BRANCH   5   7
ATOM      7  C   UNL A   1      41.253  26.306  27.065  1.00  0.00     0.039 A 
ATOM      8  C   UNL A   1      42.022  27.445  27.301  1.00  0.00     0.014 A 
ATOM      9  C   UNL A   1      40.222  25.953  27.940  1.00  0.00     0.014 A 
ATOM     10  C   UNL A   1      41.871  28.135  28.495  1.00  0.00     0.010 A 
ATOM     11  C   UNL A   1      40.005  26.713  29.095  1.00  0.00     0.010 A 
ATOM     12  C   UNL A   1      40.850  27.790  29.399  1.00  0.00    -0.014 A 
BRANCH  12  13
ATOM     13  C   UNL A   1      40.667  28.633  30.608  1.00  0.00     0.031 A 
ATOM     14  C   UNL A   1      41.567  28.506  31.808  1.00  0.00     0.074 A 
ATOM     15  C   UNL A   1      39.709  29.581  30.575  1.00  0.00     0.049 A 
ATOM     16  N   UNL A   1      41.579  29.225  32.902  1.00  0.00    -0.248 NA
ATOM     17  C   UNL A   1      42.574  27.434  31.786  1.00  0.00     0.031 C 
ATOM     18  C   UNL A   1      38.759  29.775  29.474  1.00  0.00     0.029 A 
ATOM     19  N   UNL A   1      39.395  30.578  31.460  1.00  0.00    -0.354 N 
ATOM     20  C   UNL A   1      42.583  28.693  33.702  1.00  0.00     0.074 A 
ATOM     21  C   UNL A   1      43.141  27.568  32.980  1.00  0.00     0.031 C 
ATOM     22  C   UNL A   1      38.016  30.862  29.718  1.00  0.00     0.029 A 
ATOM     23  C   UNL A   1      38.388  31.405  31.018  1.00  0.00     0.049 A 
ATOM     24  H   UNL A   1      39.846  30.692  32.328  1.00  0.00     0.167 HD
ATOM     25  C   UNL A   1      43.006  29.112  34.919  1.00  0.00     0.037 A 
ATOM     26  C   UNL A   1      37.817  32.476  31.597  1.00  0.00     0.037 A 
ATOM     27  C   UNL A   1      42.449  30.241  35.626  1.00  0.00     0.049 A 
ATOM     28  C   UNL A   1      38.317  32.926  32.938  1.00  0.00     0.074 A 
ATOM     29  C   UNL A   1      42.810  30.748  36.863  1.00  0.00     0.029 A 
ATOM     30  N   UNL A   1      41.419  31.043  35.156  1.00  0.00    -0.354 N 
ATOM     31  N   UNL A   1      39.274  32.412  33.674  1.00  0.00    -0.248 NA
ATOM     32  C   UNL A   1      37.658  34.097  33.531  1.00  0.00     0.031 C 
ATOM     33  C   UNL A   1      41.978  31.835  37.154  1.00  0.00     0.029 A 
ATOM     34  C   UNL A   1      41.125  32.033  36.080  1.00  0.00     0.049 A 
ATOM     35  H   UNL A   1      40.962  30.926  34.290  1.00  0.00     0.167 HD
ATOM     36  C   UNL A   1      39.331  33.194  34.819  1.00  0.00     0.074 A 
ATOM     37  C   UNL A   1      38.339  34.239  34.660  1.00  0.00     0.031 C 
ATOM     38  C   UNL A   1      40.123  33.055  35.910  1.00  0.00     0.037 A 
BRANCH  25  39
ATOM     39  C   UNL A   1      44.125  28.351  35.578  1.00  0.00     0.058 A 
ATOM     40  C   UNL A   1      43.871  27.275  36.445  1.00  0.00     0.135 A 
ATOM     41  C   UNL A   1      45.466  28.655  35.290  1.00  0.00     0.135 A 
ATOM     42  F   UNL A   1      42.610  26.951  36.768  1.00  0.00    -0.206 F 
ATOM     43  C   UNL A   1      44.907  26.536  37.010  1.00  0.00     0.059 A 
ATOM     44  C   UNL A   1      46.517  27.915  35.826  1.00  0.00     0.059 A 
ATOM     45  F   UNL A   1      45.766  29.672  34.468  1.00  0.00    -0.206 F 
ATOM     46  C   UNL A   1      46.227  26.861  36.693  1.00  0.00     0.060 A 
BRANCH  46  47
ATOM     47  S   UNL A   1      47.557  25.877  37.416  1.00  0.00     0.124 S 
ATOM     48  O   UNL A   1      48.732  26.661  37.048  1.00  0.00    -0.237 OA
ATOM     49  O   UNL A   1      47.212  25.879  38.834  1.00  0.00    -0.237 OA
ATOM     50  O   UNL A   1      47.429  24.587  36.745  1.00  0.00    -0.744 OA
ENDBRANCH  46  47
ENDBRANCH  25  39
BRANCH  26  51
ATOM     51  C   UNL A   1      36.699  33.174  30.913  1.00  0.00     0.058 A 
ATOM     52  C   UNL A   1      36.921  33.996  29.800  1.00  0.00     0.135 A 
ATOM     53  C   UNL A   1      35.375  33.008  31.351  1.00  0.00     0.135 A 
ATOM     54  F   UNL A   1      38.169  34.185  29.345  1.00  0.00    -0.206 F 
ATOM     55  C   UNL A   1      35.873  34.645  29.154  1.00  0.00     0.059 A 
ATOM     56  C   UNL A   1      34.308  33.621  30.704  1.00  0.00     0.059 A 
ATOM     57  F   UNL A   1      35.107  32.212  32.399  1.00  0.00    -0.206 F 
ATOM     58  C   UNL A   1      34.570  34.450  29.616  1.00  0.00     0.060 A 
BRANCH  58  59
ATOM     59  S   UNL A   1      33.207  35.257  28.749  1.00  0.00     0.124 S 
ATOM     60  O   UNL A   1      32.631  34.142  28.008  1.00  0.00    -0.237 OA
ATOM     61  O   UNL A   1      32.403  35.778  29.850  1.00  0.00    -0.237 OA
ATOM     62  O   UNL A   1      33.881  36.272  27.942  1.00  0.00    -0.744 OA
ENDBRANCH  58  59
ENDBRANCH  26  51
BRANCH  38  63
ATOM     63  C   UNL A   1      39.940  34.062  37.009  1.00  0.00     0.058 A 
ATOM     64  C   UNL A   1      39.083  33.813  38.094  1.00  0.00     0.135 A 
ATOM     65  C   UNL A   1      40.620  35.289  36.975  1.00  0.00     0.135 A 
ATOM     66  F   UNL A   1      38.404  32.657  38.166  1.00  0.00    -0.206 F 
ATOM     67  C   UNL A   1      38.877  34.762  39.087  1.00  0.00     0.059 A 
ATOM     68  C   UNL A   1      40.447  36.243  37.972  1.00  0.00     0.059 A 
ATOM     69  F   UNL A   1      41.457  35.572  35.965  1.00  0.00    -0.206 F 
ATOM     70  C   UNL A   1      39.558  35.979  39.014  1.00  0.00     0.060 A 
BRANCH  70  71
ATOM     71  S   UNL A   1      39.277  37.208  40.305  1.00  0.00     0.124 S 
ATOM     72  O   UNL A   1      38.525  38.227  39.580  1.00  0.00    -0.237 OA
ATOM     73  O   UNL A   1      38.525  36.454  41.302  1.00  0.00    -0.237 OA
ATOM     74  O   UNL A   1      40.628  37.592  40.707  1.00  0.00    -0.744 OA
ENDBRANCH  70  71
ENDBRANCH  38  63
ENDBRANCH  12  13
ENDBRANCH   5   7
ENDBRANCH   2   3
ENDBRANCH   1   2
BRANCH   1  75
ATOM     75  C   UNL A   1      38.699  22.892  26.229  1.00  0.00     0.023 C 
BRANCH  75  76
ATOM     76  C   UNL A   1      37.811  21.841  25.565  1.00  0.00     0.116 C 
BRANCH  76  77
ATOM     77  N   UNL A   1      37.290  22.317  24.296  1.00  0.00    -0.354 N 
ATOM     78  C   UNL A   1      36.005  22.592  23.921  1.00  0.00     0.252 C 
ATOM     79  H   UNL A   1      37.969  22.465  23.598  1.00  0.00     0.163 HD
ATOM     80  O   UNL A   1      35.801  22.953  22.760  1.00  0.00    -0.272 OA
BRANCH  78  81
ATOM     81  C   UNL A   1      34.870  22.453  24.941  1.00  0.00     0.242 C 
ATOM     82  O   UNL A   1      33.903  21.508  24.487  1.00  0.00    -0.324 OA
ATOM     83  C   UNL A   1      34.241  23.833  25.153  1.00  0.00     0.184 C 
ATOM     84  C   UNL A   1      32.851  21.305  25.427  1.00  0.00     0.343 C 
ATOM     85  C   UNL A   1      33.101  23.697  26.165  1.00  0.00     0.181 C 
ATOM     86  C   UNL A   1      32.101  22.606  25.785  1.00  0.00     0.214 C 
BRANCH  83  87
ATOM     87  O   UNL A   1      35.214  24.749  25.678  1.00  0.00    -0.387 OA
ATOM     88  H   UNL A   1      34.762  25.516  26.062  1.00  0.00     0.211 HD
ENDBRANCH  83  87
BRANCH  84  89
ATOM     89  O   UNL A   1      31.946  20.277  24.987  1.00  0.00    -0.429 OA
BRANCH  89  90
ATOM     90  C   UNL A   1      32.254  19.642  23.840  1.00  0.00     0.342 C 
ATOM     91  O   UNL A   1      32.135  20.066  22.693  1.00  0.00    -0.246 OA
BRANCH  90  92
ATOM     92  C   UNL A   1      32.761  18.304  24.152  1.00  0.00     0.078 A 
ATOM     93  C   UNL A   1      33.519  17.564  23.240  1.00  0.00     0.019 A 
ATOM     94  C   UNL A   1      32.527  17.765  25.409  1.00  0.00     0.126 A 
ATOM     95  C   UNL A   1      34.007  16.317  23.619  1.00  0.00     0.021 A 
ATOM     96  N   UNL A   1      32.987  16.550  25.797  1.00  0.00    -0.264 NA
ATOM     97  C   UNL A   1      33.715  15.856  24.893  1.00  0.00     0.111 A 
ENDBRANCH  90  92
ENDBRANCH  89  90
ENDBRANCH  84  89
BRANCH  85  98
ATOM     98  O   UNL A   1      32.417  24.951  26.342  1.00  0.00    -0.387 OA
ATOM     99  H   UNL A   1      33.066  25.669  26.388  1.00  0.00     0.211 HD
ENDBRANCH  85  98
BRANCH  86 100
ATOM    100  O   UNL A   1      31.220  22.390  26.904  1.00  0.00    -0.384 OA
ATOM    101  H   UNL A   1      30.560  21.719  26.672  1.00  0.00     0.211 HD
ENDBRANCH  86 100
ENDBRANCH  78  81
ENDBRANCH  76  77
ENDBRANCH  75  76
ENDBRANCH   1  75
TORSDOF 20
ENDMDL
MODEL 3
REMARK VINA RESULT:     -11.7      3.642      6.019
REMARK SMILES O=C(NCCCCNC(=O)[C@@H]1O[C@H](OC(=O)c2cccnc2)[C@@H](O)[C@H](O)[C@H]1O)c1ccc(-c2c3nc(c(-c4c(F)cc(S(=O)(=O)[O-])cc4F)c4ccc([nH]4)c(-c4c(F)cc(S(=O)(=O)[O-])cc4F)c4nc(c(-c5c(F)cc(S(=O)(=O)[O-])cc5F)c5ccc2[nH]5)C=C4)C=C3)cc1
REMARK SMILES IDX 5 1 4 2 3 3 1 4 2 5 29 7 30 8 94 9 31 10 93 11 32 12 33 13
REMARK SMILES IDX 34 14 87 15 35 16 92 17 86 18 88 19 36 20 91 21 85 22 84 23
REMARK SMILES IDX 37 25 71 26 50 27 70 28 51 29 54 30 69 31 89 32 52 33 53 34
REMARK SMILES IDX 68 36 90 37 55 38 38 39 39 40 48 41 40 42 41 43 47 44 49 45
REMARK SMILES IDX 42 46 43 47 44 48 45 49 46 50 72 51 73 52 82 53 74 54 75 55
REMARK SMILES IDX 81 56 83 57 76 58 77 59 78 60 79 61 80 62 56 63 57 64 66 65
REMARK SMILES IDX 58 66 59 67 65 68 67 69 60 70 61 71 62 72 63 73 64 74 6 75
REMARK SMILES IDX 7 76 8 77 9 78 10 80 11 81 12 82 27 83 13 84 25 85 23 86
REMARK SMILES IDX 28 87 14 89 15 90 16 91 17 92 18 93 22 94 19 95 21 96 20 97
REMARK SMILES IDX 26 98 24 100
REMARK H PARENT 3 6 88 24 54 35 8 79 28 88 26 99 24 101
REMARK Flexibility Score: inf
ROOT
ATOM      1  C   UNL A   1      37.834  23.117  25.833  1.00  0.00     0.023 C 
ENDROOT
BRANCH   1   2
ATOM      2  C   UNL A   1      38.655  24.185  26.539  1.00  0.00     0.116 C 
BRANCH   2   3
ATOM      3  N   UNL A   1      39.992  24.346  25.984  1.00  0.00    -0.352 N 
ATOM      4  O   UNL A   1      41.987  25.369  25.686  1.00  0.00    -0.269 OA
ATOM      5  C   UNL A   1      40.946  25.279  26.328  1.00  0.00     0.251 C 
ATOM      6  H   UNL A   1      40.245  23.711  25.277  1.00  0.00     0.163 HD
BRANCH   5   7
ATOM      7  C   UNL A   1      40.674  26.190  27.461  1.00  0.00     0.039 A 
ATOM      8  C   UNL A   1      41.314  27.428  27.524  1.00  0.00     0.014 A 
ATOM      9  C   UNL A   1      39.824  25.779  28.491  1.00  0.00     0.014 A 
ATOM     10  C   UNL A   1      41.236  28.177  28.689  1.00  0.00     0.010 A 
ATOM     11  C   UNL A   1      39.667  26.587  29.623  1.00  0.00     0.010 A 
ATOM     12  C   UNL A   1      40.399  27.778  29.746  1.00  0.00    -0.014 A 
BRANCH  12  13
ATOM     13  C   UNL A   1      40.272  28.676  30.922  1.00  0.00     0.031 A 
ATOM     14  C   UNL A   1      41.187  28.561  32.110  1.00  0.00     0.074 A 
ATOM     15  C   UNL A   1      39.351  29.660  30.865  1.00  0.00     0.049 A 
ATOM     16  N   UNL A   1      41.248  29.324  33.173  1.00  0.00    -0.248 NA
ATOM     17  C   UNL A   1      42.150  27.450  32.117  1.00  0.00     0.031 C 
ATOM     18  C   UNL A   1      38.390  29.847  29.773  1.00  0.00     0.029 A 
ATOM     19  N   UNL A   1      39.093  30.704  31.713  1.00  0.00    -0.354 N 
ATOM     20  C   UNL A   1      42.245  28.784  33.978  1.00  0.00     0.074 A 
ATOM     21  C   UNL A   1      42.744  27.610  33.294  1.00  0.00     0.031 C 
ATOM     22  C   UNL A   1      37.696  30.972  29.984  1.00  0.00     0.029 A 
ATOM     23  C   UNL A   1      38.113  31.552  31.254  1.00  0.00     0.049 A 
ATOM     24  H   UNL A   1      39.565  30.835  32.568  1.00  0.00     0.167 HD
ATOM     25  C   UNL A   1      42.706  29.236  35.169  1.00  0.00     0.037 A 
ATOM     26  C   UNL A   1      37.596  32.669  31.798  1.00  0.00     0.037 A 
ATOM     27  C   UNL A   1      42.208  30.414  35.838  1.00  0.00     0.049 A 
ATOM     28  C   UNL A   1      38.137  33.152  33.110  1.00  0.00     0.074 A 
ATOM     29  C   UNL A   1      42.612  30.956  37.046  1.00  0.00     0.029 A 
ATOM     30  N   UNL A   1      41.202  31.237  35.352  1.00  0.00    -0.354 N 
ATOM     31  N   UNL A   1      39.086  32.630  33.850  1.00  0.00    -0.248 NA
ATOM     32  C   UNL A   1      37.537  34.372  33.664  1.00  0.00     0.031 C 
ATOM     33  C   UNL A   1      41.829  32.087  37.306  1.00  0.00     0.029 A 
ATOM     34  C   UNL A   1      40.965  32.276  36.239  1.00  0.00     0.049 A 
ATOM     35  H   UNL A   1      40.725  31.104  34.499  1.00  0.00     0.167 HD
ATOM     36  C   UNL A   1      39.196  33.456  34.961  1.00  0.00     0.074 A 
ATOM     37  C   UNL A   1      38.243  34.533  34.775  1.00  0.00     0.031 C 
ATOM     38  C   UNL A   1      40.002  33.330  36.043  1.00  0.00     0.037 A 
BRANCH  25  39
ATOM     39  C   UNL A   1      43.806  28.458  35.841  1.00  0.00     0.058 A 
ATOM     40  C   UNL A   1      45.160  28.758  35.619  1.00  0.00     0.135 A 
ATOM     41  C   UNL A   1      43.506  27.446  36.768  1.00  0.00     0.135 A 
ATOM     42  F   UNL A   1      45.505  29.705  34.732  1.00  0.00    -0.206 F 
ATOM     43  C   UNL A   1      46.175  28.076  36.283  1.00  0.00     0.059 A 
ATOM     44  C   UNL A   1      44.504  26.766  37.460  1.00  0.00     0.059 A 
ATOM     45  F   UNL A   1      42.229  27.118  37.019  1.00  0.00    -0.206 F 
ATOM     46  C   UNL A   1      45.838  27.082  37.204  1.00  0.00     0.060 A 
BRANCH  46  47
ATOM     47  S   UNL A   1      47.168  26.224  38.075  1.00  0.00     0.124 S 
ATOM     48  O   UNL A   1      46.420  25.478  39.083  1.00  0.00    -0.237 OA
ATOM     49  O   UNL A   1      47.771  25.425  37.013  1.00  0.00    -0.237 OA
ATOM     50  O   UNL A   1      47.997  27.311  38.585  1.00  0.00    -0.744 OA
ENDBRANCH  46  47
ENDBRANCH  25  39
BRANCH  26  51
ATOM     51  C   UNL A   1      36.493  33.383  31.104  1.00  0.00     0.058 A 
ATOM     52  C   UNL A   1      36.721  34.117  29.932  1.00  0.00     0.135 A 
ATOM     53  C   UNL A   1      35.178  33.320  31.593  1.00  0.00     0.135 A 
ATOM     54  F   UNL A   1      37.961  34.206  29.427  1.00  0.00    -0.206 F 
ATOM     55  C   UNL A   1      35.688  34.781  29.278  1.00  0.00     0.059 A 
ATOM     56  C   UNL A   1      34.125  33.949  30.941  1.00  0.00     0.059 A 
ATOM     57  F   UNL A   1      34.905  32.610  32.699  1.00  0.00    -0.206 F 
ATOM     58  C   UNL A   1      34.393  34.690  29.792  1.00  0.00     0.060 A 
BRANCH  58  59
ATOM     59  S   UNL A   1      33.047  35.515  28.916  1.00  0.00     0.124 S 
ATOM     60  O   UNL A   1      32.492  34.417  28.134  1.00  0.00    -0.237 OA
ATOM     61  O   UNL A   1      32.216  36.003  30.012  1.00  0.00    -0.237 OA
ATOM     62  O   UNL A   1      33.734  36.553  28.152  1.00  0.00    -0.744 OA
ENDBRANCH  58  59
ENDBRANCH  26  51
BRANCH  38  63
ATOM     63  C   UNL A   1      39.879  34.387  37.102  1.00  0.00     0.058 A 
ATOM     64  C   UNL A   1      40.633  35.571  37.045  1.00  0.00     0.135 A 
ATOM     65  C   UNL A   1      39.004  34.216  38.186  1.00  0.00     0.135 A 
ATOM     66  F   UNL A   1      41.490  35.777  36.031  1.00  0.00    -0.206 F 
ATOM     67  C   UNL A   1      40.554  36.530  38.047  1.00  0.00     0.059 A 
ATOM     68  C   UNL A   1      38.891  35.175  39.187  1.00  0.00     0.059 A 
ATOM     69  F   UNL A   1      38.254  33.107  38.281  1.00  0.00    -0.206 F 
ATOM     70  C   UNL A   1      39.685  36.319  39.120  1.00  0.00     0.060 A 
BRANCH  70  71
ATOM     71  S   UNL A   1      39.596  37.566  40.421  1.00  0.00     0.124 S 
ATOM     72  O   UNL A   1      40.986  38.003  40.504  1.00  0.00    -0.237 OA
ATOM     73  O   UNL A   1      38.658  38.537  39.865  1.00  0.00    -0.237 OA
ATOM     74  O   UNL A   1      39.102  36.818  41.574  1.00  0.00    -0.744 OA
ENDBRANCH  70  71
ENDBRANCH  38  63
ENDBRANCH  12  13
ENDBRANCH   5   7
ENDBRANCH   2   3
ENDBRANCH   1   2
BRANCH   1  75
ATOM     75  C   UNL A   1      36.918  23.637  24.724  1.00  0.00     0.023 C 
BRANCH  75  76
ATOM     76  C   UNL A   1      35.765  22.698  24.378  1.00  0.00     0.116 C 
BRANCH  76  77
ATOM     77  N   UNL A   1      35.360  21.913  25.530  1.00  0.00    -0.354 N 
ATOM     78  C   UNL A   1      34.229  21.989  26.293  1.00  0.00     0.252 C 
ATOM     79  H   UNL A   1      36.000  21.216  25.804  1.00  0.00     0.163 HD
ATOM     80  O   UNL A   1      34.123  21.230  27.258  1.00  0.00    -0.272 OA
BRANCH  78  81
ATOM     81  C   UNL A   1      33.134  22.997  25.927  1.00  0.00     0.242 C 
ATOM     82  O   UNL A   1      33.416  24.272  26.503  1.00  0.00    -0.324 OA
ATOM     83  C   UNL A   1      31.791  22.450  26.419  1.00  0.00     0.184 C 
ATOM     84  C   UNL A   1      32.451  25.259  26.149  1.00  0.00     0.343 C 
ATOM     85  C   UNL A   1      30.696  23.459  26.064  1.00  0.00     0.181 C 
ATOM     86  C   UNL A   1      31.012  24.872  26.552  1.00  0.00     0.214 C 
BRANCH  83  87
ATOM     87  O   UNL A   1      31.494  21.203  25.773  1.00  0.00    -0.387 OA
ATOM     88  H   UNL A   1      30.731  21.317  25.186  1.00  0.00     0.211 HD
ENDBRANCH  83  87
BRANCH  84  89
ATOM     89  O   UNL A   1      32.814  26.553  26.661  1.00  0.00    -0.429 OA
BRANCH  89  90
ATOM     90  C   UNL A   1      33.475  27.377  25.828  1.00  0.00     0.342 C 
ATOM     91  O   UNL A   1      33.891  27.127  24.699  1.00  0.00    -0.246 OA
BRANCH  90  92
ATOM     92  C   UNL A   1      33.660  28.676  26.480  1.00  0.00     0.078 A 
ATOM     93  C   UNL A   1      34.855  29.026  27.114  1.00  0.00     0.019 A 
ATOM     94  C   UNL A   1      32.639  29.613  26.429  1.00  0.00     0.126 A 
ATOM     95  C   UNL A   1      34.978  30.294  27.675  1.00  0.00     0.021 A 
ATOM     96  N   UNL A   1      32.734  30.851  26.973  1.00  0.00    -0.264 NA
ATOM     97  C   UNL A   1      33.901  31.161  27.583  1.00  0.00     0.111 A 
ENDBRANCH  90  92
ENDBRANCH  89  90
ENDBRANCH  84  89
BRANCH  85  98
ATOM     98  O   UNL A   1      29.420  23.035  26.576  1.00  0.00    -0.387 OA
ATOM     99  H   UNL A   1      29.370  23.234  27.524  1.00  0.00     0.211 HD
ENDBRANCH  85  98
BRANCH  86 100
ATOM    100  O   UNL A   1      30.060  25.778  25.964  1.00  0.00    -0.384 OA
ATOM    101  H   UNL A   1      30.274  25.908  25.027  1.00  0.00     0.211 HD
ENDBRANCH  86 100
ENDBRANCH  78  81
ENDBRANCH  76  77
ENDBRANCH  75  76
ENDBRANCH   1  75
TORSDOF 20
ENDMDL
