MODEL 1
REMARK VINA RESULT:      -8.2      0.000      0.000
REMARK SMILES COc1ccc(OCCNc2c(Cl)cccc2C(=O)NCCCCNC(=O)c2ccc(-c3c4nc(c(-c5c(F)cc(S(=O)(=O)[O-])cc5F)c5ccc([nH]5)c(-c5c(F)cc(S(=O)(=O)[O-])cc5F)c5nc(c(-c6c(F)cc(S(=O)(=O)[O-])cc6F)c6ccc3[nH]6)C=C5)C=C4)cc2)cc1
REMARK SMILES IDX 21 1 20 2 18 3 19 4 17 6 11 7 12 8 13 9 14 10 16 11 15 12
REMARK SMILES IDX 10 13 9 15 8 16 7 17 6 18 3 19 4 20 95 21 5 22 94 23 2 24
REMARK SMILES IDX 1 25 22 26 23 27 24 28 25 29 26 30 27 32 28 33 29 34 93 35
REMARK SMILES IDX 30 36 92 37 31 38 32 39 33 40 86 41 34 42 91 43 85 44 87 45
REMARK SMILES IDX 35 46 90 47 84 48 83 49 36 51 70 52 49 53 69 54 50 55 53 56
REMARK SMILES IDX 68 57 88 58 51 59 52 60 67 62 89 63 54 64 37 65 38 66 47 67
REMARK SMILES IDX 39 68 40 69 46 70 48 71 41 72 42 73 43 74 44 75 45 76 71 77
REMARK SMILES IDX 72 78 81 79 73 80 74 81 80 82 82 83 75 84 76 85 77 86 78 87
REMARK SMILES IDX 79 88 55 89 56 90 65 91 57 92 58 93 64 94 66 95 59 96 60 97
REMARK SMILES IDX 61 98 62 99 63 100
REMARK H PARENT 20 5 10 14 25 31 87 50 53 61
REMARK Flexibility Score: inf
ROOT
ATOM      1  C   UNL A   1      36.817  31.600  33.153  1.00  0.00     0.116 C 
ENDROOT
BRANCH   1   2
ATOM      2  N   UNL A   1      36.412  32.731  33.962  1.00  0.00    -0.352 N 
ATOM      3  C   UNL A   1      37.075  33.900  34.253  1.00  0.00     0.253 C 
ATOM      4  O   UNL A   1      36.482  34.748  34.925  1.00  0.00    -0.269 OA
ATOM      5  H   UNL A   1      35.519  32.649  34.368  1.00  0.00     0.163 HD
BRANCH   3   6
ATOM      6  C   UNL A   1      38.497  34.165  33.904  1.00  0.00     0.064 A 
ATOM      7  C   UNL A   1      39.488  34.697  34.751  1.00  0.00     0.066 A 
ATOM      8  C   UNL A   1      40.787  34.864  34.193  1.00  0.00     0.065 A 
ATOM      9  Cl  UNL A   1      42.083  35.561  35.120  1.00  0.00    -0.082 Cl
ATOM     10  C   UNL A   1      41.106  34.480  32.889  1.00  0.00     0.023 A 
ATOM     11  C   UNL A   1      38.843  33.753  32.594  1.00  0.00     0.016 A 
ATOM     12  C   UNL A   1      40.131  33.914  32.086  1.00  0.00     0.003 A 
BRANCH   7  13
ATOM     13  N   UNL A   1      39.249  35.265  35.989  1.00  0.00    -0.380 N 
ATOM     14  H   UNL A   1      39.319  36.246  36.039  1.00  0.00     0.160 HD
BRANCH  13  15
ATOM     15  C   UNL A   1      38.904  34.582  37.225  1.00  0.00     0.154 C 
BRANCH  15  16
ATOM     16  C   UNL A   1      40.085  33.690  37.706  1.00  0.00     0.250 C 
BRANCH  16  17
ATOM     17  O   UNL A   1      39.870  32.270  37.575  1.00  0.00    -0.492 OA
BRANCH  17  18
ATOM     18  C   UNL A   1      40.302  31.608  36.455  1.00  0.00     0.119 A 
ATOM     19  C   UNL A   1      41.283  30.798  33.958  1.00  0.00     0.119 A 
ATOM     20  C   UNL A   1      42.148  31.358  34.891  1.00  0.00     0.050 A 
ATOM     21  C   UNL A   1      39.970  30.516  34.316  1.00  0.00     0.050 A 
ATOM     22  C   UNL A   1      41.653  31.773  36.133  1.00  0.00     0.050 A 
ATOM     23  C   UNL A   1      39.495  30.887  35.577  1.00  0.00     0.050 A 
BRANCH  19  24
ATOM     24  O   UNL A   1      41.778  30.474  32.725  1.00  0.00    -0.497 OA
ATOM     25  C   UNL A   1      42.786  29.465  32.812  1.00  0.00     0.278 C 
ENDBRANCH  19  24
ENDBRANCH  17  18
ENDBRANCH  16  17
ENDBRANCH  15  16
ENDBRANCH  13  15
ENDBRANCH   7  13
ENDBRANCH   3   6
ENDBRANCH   1   2
BRANCH   1  26
ATOM     26  C   UNL A   1      35.881  31.261  31.998  1.00  0.00     0.023 C 
BRANCH  26  27
ATOM     27  C   UNL A   1      35.145  32.437  31.344  1.00  0.00     0.023 C 
BRANCH  27  28
ATOM     28  C   UNL A   1      35.259  32.595  29.827  1.00  0.00     0.116 C 
BRANCH  28  29
ATOM     29  N   UNL A   1      34.417  31.686  29.064  1.00  0.00    -0.352 N 
ATOM     30  C   UNL A   1      34.729  30.549  28.352  1.00  0.00     0.251 C 
ATOM     31  H   UNL A   1      33.462  31.925  29.054  1.00  0.00     0.163 HD
ATOM     32  O   UNL A   1      33.871  30.012  27.652  1.00  0.00    -0.269 OA
BRANCH  30  33
ATOM     33  C   UNL A   1      36.092  29.976  28.404  1.00  0.00     0.039 A 
ATOM     34  C   UNL A   1      36.920  30.078  27.282  1.00  0.00     0.014 A 
ATOM     35  C   UNL A   1      36.557  29.328  29.550  1.00  0.00     0.014 A 
ATOM     36  C   UNL A   1      38.248  29.642  27.355  1.00  0.00     0.010 A 
ATOM     37  C   UNL A   1      37.900  28.969  29.649  1.00  0.00     0.010 A 
ATOM     38  C   UNL A   1      38.768  29.143  28.561  1.00  0.00    -0.014 A 
BRANCH  38  39
ATOM     39  C   UNL A   1      40.219  28.848  28.723  1.00  0.00     0.031 A 
ATOM     40  C   UNL A   1      41.181  29.935  29.123  1.00  0.00     0.074 A 
ATOM     41  C   UNL A   1      40.682  27.618  28.421  1.00  0.00     0.049 A 
ATOM     42  N   UNL A   1      42.486  29.891  29.212  1.00  0.00    -0.248 NA
ATOM     43  C   UNL A   1      40.603  31.249  29.444  1.00  0.00     0.031 C 
ATOM     44  C   UNL A   1      39.861  26.489  27.978  1.00  0.00     0.029 A 
ATOM     45  N   UNL A   1      41.959  27.112  28.426  1.00  0.00    -0.354 N 
ATOM     46  C   UNL A   1      42.886  31.167  29.590  1.00  0.00     0.074 A 
ATOM     47  C   UNL A   1      41.689  31.979  29.659  1.00  0.00     0.031 C 
ATOM     48  C   UNL A   1      40.648  25.420  27.776  1.00  0.00     0.029 A 
ATOM     49  C   UNL A   1      42.036  25.796  28.025  1.00  0.00     0.049 A 
ATOM     50  H   UNL A   1      42.747  27.640  28.691  1.00  0.00     0.167 HD
ATOM     51  C   UNL A   1      44.132  31.617  29.877  1.00  0.00     0.037 A 
ATOM     52  C   UNL A   1      43.102  24.988  27.862  1.00  0.00     0.037 A 
ATOM     53  C   UNL A   1      45.318  30.802  29.817  1.00  0.00     0.049 A 
ATOM     54  C   UNL A   1      44.480  25.521  28.152  1.00  0.00     0.074 A 
ATOM     55  C   UNL A   1      46.620  31.155  30.130  1.00  0.00     0.029 A 
ATOM     56  N   UNL A   1      45.352  29.474  29.417  1.00  0.00    -0.354 N 
ATOM     57  N   UNL A   1      44.831  26.715  28.565  1.00  0.00    -0.248 NA
ATOM     58  C   UNL A   1      45.607  24.598  27.955  1.00  0.00     0.031 C 
ATOM     59  C   UNL A   1      47.447  30.057  29.871  1.00  0.00     0.029 A 
ATOM     60  C   UNL A   1      46.654  29.001  29.452  1.00  0.00     0.049 A 
ATOM     61  H   UNL A   1      44.566  28.946  29.147  1.00  0.00     0.167 HD
ATOM     62  C   UNL A   1      46.214  26.677  28.709  1.00  0.00     0.074 A 
ATOM     63  C   UNL A   1      46.633  25.338  28.349  1.00  0.00     0.031 C 
ATOM     64  C   UNL A   1      47.059  27.661  29.104  1.00  0.00     0.037 A 
BRANCH  51  65
ATOM     65  C   UNL A   1      44.277  33.056  30.291  1.00  0.00     0.058 A 
ATOM     66  C   UNL A   1      44.324  33.431  31.644  1.00  0.00     0.135 A 
ATOM     67  C   UNL A   1      44.416  34.071  29.329  1.00  0.00     0.135 A 
ATOM     68  F   UNL A   1      44.185  32.506  32.606  1.00  0.00    -0.206 F 
ATOM     69  C   UNL A   1      44.470  34.760  32.029  1.00  0.00     0.059 A 
ATOM     70  C   UNL A   1      44.594  35.404  29.690  1.00  0.00     0.059 A 
ATOM     71  F   UNL A   1      44.382  33.771  28.021  1.00  0.00    -0.206 F 
ATOM     72  C   UNL A   1      44.605  35.739  31.043  1.00  0.00     0.060 A 
BRANCH  72  73
ATOM     73  S   UNL A   1      44.797  37.458  31.561  1.00  0.00     0.124 S 
ATOM     74  O   UNL A   1      46.177  37.728  31.168  1.00  0.00    -0.237 OA
ATOM     75  O   UNL A   1      43.771  38.136  30.775  1.00  0.00    -0.237 OA
ATOM     76  O   UNL A   1      44.552  37.410  32.998  1.00  0.00    -0.744 OA
ENDBRANCH  72  73
ENDBRANCH  51  65
BRANCH  52  77
ATOM     77  C   UNL A   1      42.913  23.581  27.410  1.00  0.00     0.058 A 
ATOM     78  C   UNL A   1      43.060  23.233  26.059  1.00  0.00     0.135 A 
ATOM     79  C   UNL A   1      42.577  22.560  28.313  1.00  0.00     0.135 A 
ATOM     80  F   UNL A   1      43.374  24.174  25.155  1.00  0.00    -0.206 F 
ATOM     81  C   UNL A   1      42.857  21.932  25.614  1.00  0.00     0.059 A 
ATOM     82  C   UNL A   1      42.398  21.244  27.896  1.00  0.00     0.059 A 
ATOM     83  F   UNL A   1      42.440  22.835  29.620  1.00  0.00    -0.206 F 
ATOM     84  C   UNL A   1      42.526  20.943  26.541  1.00  0.00     0.060 A 
BRANCH  84  85
ATOM     85  S   UNL A   1      42.296  19.250  25.957  1.00  0.00     0.124 S 
ATOM     86  O   UNL A   1      42.812  18.479  27.082  1.00  0.00    -0.237 OA
ATOM     87  O   UNL A   1      40.853  19.191  25.750  1.00  0.00    -0.237 OA
ATOM     88  O   UNL A   1      43.098  19.203  24.738  1.00  0.00    -0.744 OA
ENDBRANCH  84  85
ENDBRANCH  52  77
BRANCH  64  89
ATOM     89  C   UNL A   1      48.521  27.323  29.210  1.00  0.00     0.058 A 
ATOM     90  C   UNL A   1      49.387  27.429  28.111  1.00  0.00     0.135 A 
ATOM     91  C   UNL A   1      49.075  26.951  30.446  1.00  0.00     0.135 A 
ATOM     92  F   UNL A   1      48.909  27.772  26.905  1.00  0.00    -0.206 F 
ATOM     93  C   UNL A   1      50.748  27.161  28.229  1.00  0.00     0.059 A 
ATOM     94  C   UNL A   1      50.437  26.707  30.595  1.00  0.00     0.059 A 
ATOM     95  F   UNL A   1      48.293  26.842  31.533  1.00  0.00    -0.206 F 
ATOM     96  C   UNL A   1      51.264  26.807  29.478  1.00  0.00     0.060 A 
BRANCH  96  97
ATOM     97  S   UNL A   1      53.040  26.513  29.626  1.00  0.00     0.124 S 
ATOM     98  O   UNL A   1      53.091  25.578  30.745  1.00  0.00    -0.237 OA
ATOM     99  O   UNL A   1      53.374  25.957  28.318  1.00  0.00    -0.237 OA
ATOM    100  O   UNL A   1      53.583  27.842  29.893  1.00  0.00    -0.744 OA
ENDBRANCH  96  97
ENDBRANCH  64  89
ENDBRANCH  38  39
ENDBRANCH  30  33
ENDBRANCH  28  29
ENDBRANCH  27  28
ENDBRANCH  26  27
ENDBRANCH   1  26
TORSDOF 20
ENDMDL
MODEL 2
REMARK VINA RESULT:      -8.1      4.935     12.778
REMARK SMILES COc1ccc(OCCNc2c(Cl)cccc2C(=O)NCCCCNC(=O)c2ccc(-c3c4nc(c(-c5c(F)cc(S(=O)(=O)[O-])cc5F)c5ccc([nH]5)c(-c5c(F)cc(S(=O)(=O)[O-])cc5F)c5nc(c(-c6c(F)cc(S(=O)(=O)[O-])cc6F)c6ccc3[nH]6)C=C5)C=C4)cc2)cc1
REMARK SMILES IDX 21 1 20 2 18 3 19 4 17 6 11 7 12 8 13 9 14 10 16 11 15 12
REMARK SMILES IDX 10 13 9 15 8 16 7 17 6 18 3 19 4 20 95 21 5 22 94 23 2 24
REMARK SMILES IDX 1 25 22 26 23 27 24 28 25 29 26 30 27 32 28 33 29 34 93 35
REMARK SMILES IDX 30 36 92 37 31 38 32 39 33 40 86 41 34 42 91 43 85 44 87 45
REMARK SMILES IDX 35 46 90 47 84 48 83 49 36 51 70 52 49 53 69 54 50 55 53 56
REMARK SMILES IDX 68 57 88 58 51 59 52 60 67 62 89 63 54 64 37 65 38 66 47 67
REMARK SMILES IDX 39 68 40 69 46 70 48 71 41 72 42 73 43 74 44 75 45 76 71 77
REMARK SMILES IDX 72 78 81 79 73 80 74 81 80 82 82 83 75 84 76 85 77 86 78 87
REMARK SMILES IDX 79 88 55 89 56 90 65 91 57 92 58 93 64 94 66 95 59 96 60 97
REMARK SMILES IDX 61 98 62 99 63 100
REMARK H PARENT 20 5 10 14 25 31 87 50 53 61
REMARK Flexibility Score: inf
ROOT
ATOM      1  C   UNL A   1      44.952  24.840  28.820  1.00  0.00     0.116 C 
ENDROOT
BRANCH   1   2
ATOM      2  N   UNL A   1      44.715  25.879  27.840  1.00  0.00    -0.352 N 
ATOM      3  C   UNL A   1      45.603  26.663  27.141  1.00  0.00     0.253 C 
ATOM      4  O   UNL A   1      45.147  27.446  26.305  1.00  0.00    -0.269 OA
ATOM      5  H   UNL A   1      43.766  26.052  27.643  1.00  0.00     0.163 HD
BRANCH   3   6
ATOM      6  C   UNL A   1      47.067  26.707  27.405  1.00  0.00     0.064 A 
ATOM      7  C   UNL A   1      48.061  25.937  26.771  1.00  0.00     0.066 A 
ATOM      8  C   UNL A   1      49.404  26.152  27.191  1.00  0.00     0.065 A 
ATOM      9  Cl  UNL A   1      50.716  25.226  26.524  1.00  0.00    -0.082 Cl
ATOM     10  C   UNL A   1      49.755  27.110  28.145  1.00  0.00     0.023 A 
ATOM     11  C   UNL A   1      47.441  27.695  28.348  1.00  0.00     0.016 A 
ATOM     12  C   UNL A   1      48.769  27.891  28.723  1.00  0.00     0.003 A 
BRANCH   7  13
ATOM     13  N   UNL A   1      47.817  24.853  25.948  1.00  0.00    -0.380 N 
ATOM     14  H   UNL A   1      47.944  23.964  26.350  1.00  0.00     0.160 HD
BRANCH  13  15
ATOM     15  C   UNL A   1      47.395  24.876  24.557  1.00  0.00     0.154 C 
BRANCH  15  16
ATOM     16  C   UNL A   1      46.657  23.556  24.187  1.00  0.00     0.250 C 
BRANCH  16  17
ATOM     17  O   UNL A   1      46.778  22.497  25.157  1.00  0.00    -0.492 OA
BRANCH  17  18
ATOM     18  C   UNL A   1      45.707  21.682  25.423  1.00  0.00     0.119 A 
ATOM     19  C   UNL A   1      43.502  19.954  25.382  1.00  0.00     0.119 A 
ATOM     20  C   UNL A   1      44.764  19.470  25.058  1.00  0.00     0.050 A 
ATOM     21  C   UNL A   1      43.361  21.252  25.857  1.00  0.00     0.050 A 
ATOM     22  C   UNL A   1      45.863  20.338  25.068  1.00  0.00     0.050 A 
ATOM     23  C   UNL A   1      44.472  22.099  25.912  1.00  0.00     0.050 A 
BRANCH  19  24
ATOM     24  O   UNL A   1      42.435  19.103  25.288  1.00  0.00    -0.497 OA
ATOM     25  C   UNL A   1      41.307  19.595  26.014  1.00  0.00     0.278 C 
ENDBRANCH  19  24
ENDBRANCH  17  18
ENDBRANCH  16  17
ENDBRANCH  15  16
ENDBRANCH  13  15
ENDBRANCH   7  13
ENDBRANCH   3   6
ENDBRANCH   1   2
BRANCH   1  26
ATOM     26  C   UNL A   1      43.720  24.390  29.599  1.00  0.00     0.023 C 
BRANCH  26  27
ATOM     27  C   UNL A   1      43.129  23.027  29.220  1.00  0.00     0.023 C 
BRANCH  27  28
ATOM     28  C   UNL A   1      41.648  22.974  28.838  1.00  0.00     0.116 C 
BRANCH  28  29
ATOM     29  N   UNL A   1      41.367  23.375  27.468  1.00  0.00    -0.352 N 
ATOM     30  C   UNL A   1      40.851  24.545  26.957  1.00  0.00     0.251 C 
ATOM     31  H   UNL A   1      41.580  22.692  26.791  1.00  0.00     0.163 HD
ATOM     32  O   UNL A   1      40.555  24.612  25.765  1.00  0.00    -0.269 OA
BRANCH  30  33
ATOM     33  C   UNL A   1      40.630  25.718  27.831  1.00  0.00     0.039 A 
ATOM     34  C   UNL A   1      39.506  25.751  28.662  1.00  0.00     0.014 A 
ATOM     35  C   UNL A   1      41.522  26.793  27.831  1.00  0.00     0.014 A 
ATOM     36  C   UNL A   1      39.345  26.800  29.574  1.00  0.00     0.010 A 
ATOM     37  C   UNL A   1      41.405  27.793  28.794  1.00  0.00     0.010 A 
ATOM     38  C   UNL A   1      40.328  27.797  29.693  1.00  0.00    -0.014 A 
BRANCH  38  39
ATOM     39  C   UNL A   1      40.279  28.816  30.778  1.00  0.00     0.031 A 
ATOM     40  C   UNL A   1      41.152  28.680  31.997  1.00  0.00     0.074 A 
ATOM     41  C   UNL A   1      39.378  29.818  30.705  1.00  0.00     0.049 A 
ATOM     42  N   UNL A   1      41.171  29.408  33.084  1.00  0.00    -0.248 NA
ATOM     43  C   UNL A   1      42.114  27.567  32.004  1.00  0.00     0.031 C 
ATOM     44  C   UNL A   1      38.443  30.036  29.600  1.00  0.00     0.029 A 
ATOM     45  N   UNL A   1      39.090  30.834  31.583  1.00  0.00    -0.354 N 
ATOM     46  C   UNL A   1      42.137  28.840  33.907  1.00  0.00     0.074 A 
ATOM     47  C   UNL A   1      42.643  27.673  33.215  1.00  0.00     0.031 C 
ATOM     48  C   UNL A   1      37.702  31.127  29.854  1.00  0.00     0.029 A 
ATOM     49  C   UNL A   1      38.072  31.660  31.161  1.00  0.00     0.049 A 
ATOM     50  H   UNL A   1      39.566  30.961  32.436  1.00  0.00     0.167 HD
ATOM     51  C   UNL A   1      42.581  29.265  35.115  1.00  0.00     0.037 A 
ATOM     52  C   UNL A   1      37.490  32.716  31.763  1.00  0.00     0.037 A 
ATOM     53  C   UNL A   1      42.082  30.434  35.793  1.00  0.00     0.049 A 
ATOM     54  C   UNL A   1      37.976  33.147  33.121  1.00  0.00     0.074 A 
ATOM     55  C   UNL A   1      42.497  30.969  37.000  1.00  0.00     0.029 A 
ATOM     56  N   UNL A   1      41.059  31.247  35.329  1.00  0.00    -0.354 N 
ATOM     57  N   UNL A   1      38.932  32.631  33.857  1.00  0.00    -0.248 NA
ATOM     58  C   UNL A   1      37.305  34.303  33.733  1.00  0.00     0.031 C 
ATOM     59  C   UNL A   1      41.692  32.076  37.289  1.00  0.00     0.029 A 
ATOM     60  C   UNL A   1      40.813  32.265  36.235  1.00  0.00     0.049 A 
ATOM     61  H   UNL A   1      40.578  31.119  34.479  1.00  0.00     0.167 HD
ATOM     62  C   UNL A   1      38.999  33.419  35.001  1.00  0.00     0.074 A 
ATOM     63  C   UNL A   1      37.994  34.452  34.855  1.00  0.00     0.031 C 
ATOM     64  C   UNL A   1      39.819  33.298  36.074  1.00  0.00     0.037 A 
BRANCH  51  65
ATOM     65  C   UNL A   1      43.669  28.465  35.780  1.00  0.00     0.058 A 
ATOM     66  C   UNL A   1      43.372  27.405  36.653  1.00  0.00     0.135 A 
ATOM     67  C   UNL A   1      45.022  28.728  35.511  1.00  0.00     0.135 A 
ATOM     68  F   UNL A   1      42.098  27.116  36.957  1.00  0.00    -0.206 F 
ATOM     69  C   UNL A   1      44.376  26.657  37.259  1.00  0.00     0.059 A 
ATOM     70  C   UNL A   1      46.043  27.973  36.081  1.00  0.00     0.059 A 
ATOM     71  F   UNL A   1      45.364  29.727  34.681  1.00  0.00    -0.206 F 
ATOM     72  C   UNL A   1      45.710  26.949  36.966  1.00  0.00     0.060 A 
BRANCH  72  73
ATOM     73  S   UNL A   1      46.999  25.965  37.759  1.00  0.00     0.124 S 
ATOM     74  O   UNL A   1      47.221  24.920  36.763  1.00  0.00    -0.237 OA
ATOM     75  O   UNL A   1      48.080  26.934  37.912  1.00  0.00    -0.237 OA
ATOM     76  O   UNL A   1      46.375  25.524  39.002  1.00  0.00    -0.744 OA
ENDBRANCH  72  73
ENDBRANCH  51  65
BRANCH  52  77
ATOM     77  C   UNL A   1      36.388  33.453  31.083  1.00  0.00     0.058 A 
ATOM     78  C   UNL A   1      35.066  33.355  31.542  1.00  0.00     0.135 A 
ATOM     79  C   UNL A   1      36.630  34.261  29.961  1.00  0.00     0.135 A 
ATOM     80  F   UNL A   1      34.782  32.589  32.607  1.00  0.00    -0.206 F 
ATOM     81  C   UNL A   1      34.021  34.009  30.902  1.00  0.00     0.059 A 
ATOM     82  C   UNL A   1      35.604  34.951  29.321  1.00  0.00     0.059 A 
ATOM     83  F   UNL A   1      37.879  34.403  29.489  1.00  0.00    -0.206 F 
ATOM     84  C   UNL A   1      34.300  34.806  29.791  1.00  0.00     0.060 A 
BRANCH  84  85
ATOM     85  S   UNL A   1      32.938  35.678  28.986  1.00  0.00     0.124 S 
ATOM     86  O   UNL A   1      33.645  36.744  28.287  1.00  0.00    -0.237 OA
ATOM     87  O   UNL A   1      32.361  34.634  28.144  1.00  0.00    -0.237 OA
ATOM     88  O   UNL A   1      32.102  36.103  30.105  1.00  0.00    -0.744 OA
ENDBRANCH  84  85
ENDBRANCH  52  77
BRANCH  64  89
ATOM     89  C   UNL A   1      39.699  34.329  37.163  1.00  0.00     0.058 A 
ATOM     90  C   UNL A   1      38.905  34.116  38.300  1.00  0.00     0.135 A 
ATOM     91  C   UNL A   1      40.442  35.519  37.097  1.00  0.00     0.135 A 
ATOM     92  F   UNL A   1      38.168  33.000  38.410  1.00  0.00    -0.206 F 
ATOM     93  C   UNL A   1      38.837  35.054  39.326  1.00  0.00     0.059 A 
ATOM     94  C   UNL A   1      40.413  36.458  38.123  1.00  0.00     0.059 A 
ATOM     95  F   UNL A   1      41.224  35.770  36.035  1.00  0.00    -0.206 F 
ATOM     96  C   UNL A   1      39.601  36.220  39.231  1.00  0.00     0.060 A 
BRANCH  96  97
ATOM     97  S   UNL A   1      39.543  37.403  40.593  1.00  0.00     0.124 S 
ATOM     98  O   UNL A   1      40.883  37.978  40.542  1.00  0.00    -0.237 OA
ATOM     99  O   UNL A   1      38.457  38.291  40.188  1.00  0.00    -0.237 OA
ATOM    100  O   UNL A   1      39.261  36.569  41.757  1.00  0.00    -0.744 OA
ENDBRANCH  96  97
ENDBRANCH  64  89
ENDBRANCH  38  39
ENDBRANCH  30  33
ENDBRANCH  28  29
ENDBRANCH  27  28
ENDBRANCH  26  27
ENDBRANCH   1  26
TORSDOF 20
ENDMDL
MODEL 3
REMARK VINA RESULT:      -7.9      4.277      6.972
REMARK SMILES COc1ccc(OCCNc2c(Cl)cccc2C(=O)NCCCCNC(=O)c2ccc(-c3c4nc(c(-c5c(F)cc(S(=O)(=O)[O-])cc5F)c5ccc([nH]5)c(-c5c(F)cc(S(=O)(=O)[O-])cc5F)c5nc(c(-c6c(F)cc(S(=O)(=O)[O-])cc6F)c6ccc3[nH]6)C=C5)C=C4)cc2)cc1
REMARK SMILES IDX 21 1 20 2 18 3 19 4 17 6 11 7 12 8 13 9 14 10 16 11 15 12
REMARK SMILES IDX 10 13 9 15 8 16 7 17 6 18 3 19 4 20 95 21 5 22 94 23 2 24
REMARK SMILES IDX 1 25 22 26 23 27 24 28 25 29 26 30 27 32 28 33 29 34 93 35
REMARK SMILES IDX 30 36 92 37 31 38 32 39 33 40 86 41 34 42 91 43 85 44 87 45
REMARK SMILES IDX 35 46 90 47 84 48 83 49 36 51 70 52 49 53 69 54 50 55 53 56
REMARK SMILES IDX 68 57 88 58 51 59 52 60 67 62 89 63 54 64 37 65 38 66 47 67
REMARK SMILES IDX 39 68 40 69 46 70 48 71 41 72 42 73 43 74 44 75 45 76 71 77
REMARK SMILES IDX 72 78 81 79 73 80 74 81 80 82 82 83 75 84 76 85 77 86 78 87
REMARK SMILES IDX 79 88 55 89 56 90 65 91 57 92 58 93 64 94 66 95 59 96 60 97
REMARK SMILES IDX 61 98 62 99 63 100
REMARK H PARENT 20 5 10 14 25 31 87 50 53 61
REMARK Flexibility Score: inf
ROOT
ATOM      1  C   UNL A   1      40.746  35.573  29.263  1.00  0.00     0.116 C 
ENDROOT
BRANCH   1   2
ATOM      2  N   UNL A   1      41.557  35.651  28.066  1.00  0.00    -0.352 N 
ATOM      3  C   UNL A   1      42.672  36.408  27.794  1.00  0.00     0.253 C 
ATOM      4  O   UNL A   1      43.227  36.247  26.704  1.00  0.00    -0.269 OA
ATOM      5  H   UNL A   1      41.261  35.069  27.329  1.00  0.00     0.163 HD
BRANCH   3   6
ATOM      6  C   UNL A   1      43.190  37.485  28.681  1.00  0.00     0.064 A 
ATOM      7  C   UNL A   1      43.252  38.861  28.389  1.00  0.00     0.066 A 
ATOM      8  C   UNL A   1      43.790  39.708  29.398  1.00  0.00     0.065 A 
ATOM      9  Cl  UNL A   1      43.970  41.418  29.139  1.00  0.00    -0.082 Cl
ATOM     10  C   UNL A   1      44.198  39.233  30.647  1.00  0.00     0.023 A 
ATOM     11  C   UNL A   1      43.578  37.022  29.962  1.00  0.00     0.016 A 
ATOM     12  C   UNL A   1      44.085  37.883  30.934  1.00  0.00     0.003 A 
BRANCH   7  13
ATOM     13  N   UNL A   1      43.040  39.414  27.140  1.00  0.00    -0.380 N 
ATOM     14  H   UNL A   1      43.834  39.509  26.565  1.00  0.00     0.160 HD
BRANCH  13  15
ATOM     15  C   UNL A   1      41.780  39.872  26.576  1.00  0.00     0.154 C 
BRANCH  15  16
ATOM     16  C   UNL A   1      42.029  40.938  25.470  1.00  0.00     0.250 C 
BRANCH  16  17
ATOM     17  O   UNL A   1      43.194  41.765  25.671  1.00  0.00    -0.492 OA
BRANCH  17  18
ATOM     18  C   UNL A   1      43.726  42.470  24.622  1.00  0.00     0.119 A 
ATOM     19  C   UNL A   1      45.195  44.106  22.885  1.00  0.00     0.119 A 
ATOM     20  C   UNL A   1      45.768  42.945  23.389  1.00  0.00     0.050 A 
ATOM     21  C   UNL A   1      43.855  44.379  23.133  1.00  0.00     0.050 A 
ATOM     22  C   UNL A   1      45.036  42.135  24.266  1.00  0.00     0.050 A 
ATOM     23  C   UNL A   1      43.115  43.539  23.970  1.00  0.00     0.050 A 
BRANCH  19  24
ATOM     24  O   UNL A   1      45.959  44.919  22.094  1.00  0.00    -0.497 OA
ATOM     25  C   UNL A   1      46.095  44.388  20.774  1.00  0.00     0.278 C 
ENDBRANCH  19  24
ENDBRANCH  17  18
ENDBRANCH  16  17
ENDBRANCH  15  16
ENDBRANCH  13  15
ENDBRANCH   7  13
ENDBRANCH   3   6
ENDBRANCH   1   2
BRANCH   1  26
ATOM     26  C   UNL A   1      39.917  34.300  29.403  1.00  0.00     0.023 C 
BRANCH  26  27
ATOM     27  C   UNL A   1      38.655  34.396  30.268  1.00  0.00     0.023 C 
BRANCH  27  28
ATOM     28  C   UNL A   1      37.353  33.834  29.694  1.00  0.00     0.116 C 
BRANCH  28  29
ATOM     29  N   UNL A   1      36.629  32.955  30.599  1.00  0.00    -0.352 N 
ATOM     30  C   UNL A   1      36.840  31.637  30.940  1.00  0.00     0.251 C 
ATOM     31  H   UNL A   1      35.855  33.371  31.042  1.00  0.00     0.163 HD
ATOM     32  O   UNL A   1      36.006  31.041  31.620  1.00  0.00    -0.269 OA
BRANCH  30  33
ATOM     33  C   UNL A   1      38.052  30.923  30.481  1.00  0.00     0.039 A 
ATOM     34  C   UNL A   1      38.214  30.658  29.118  1.00  0.00     0.014 A 
ATOM     35  C   UNL A   1      39.028  30.505  31.388  1.00  0.00     0.014 A 
ATOM     36  C   UNL A   1      39.405  30.085  28.657  1.00  0.00     0.010 A 
ATOM     37  C   UNL A   1      40.245  30.012  30.921  1.00  0.00     0.010 A 
ATOM     38  C   UNL A   1      40.458  29.817  29.548  1.00  0.00    -0.014 A 
BRANCH  38  39
ATOM     39  C   UNL A   1      41.799  29.387  29.065  1.00  0.00     0.031 A 
ATOM     40  C   UNL A   1      42.920  30.382  28.927  1.00  0.00     0.074 A 
ATOM     41  C   UNL A   1      41.981  28.111  28.665  1.00  0.00     0.049 A 
ATOM     42  N   UNL A   1      44.118  30.214  28.428  1.00  0.00    -0.248 NA
ATOM     43  C   UNL A   1      42.651  31.753  29.390  1.00  0.00     0.031 C 
ATOM     44  C   UNL A   1      40.963  27.059  28.704  1.00  0.00     0.029 A 
ATOM     45  N   UNL A   1      43.080  27.483  28.132  1.00  0.00    -0.354 N 
ATOM     46  C   UNL A   1      44.743  31.452  28.509  1.00  0.00     0.074 A 
ATOM     47  C   UNL A   1      43.771  32.378  29.054  1.00  0.00     0.031 C 
ATOM     48  C   UNL A   1      41.490  25.915  28.239  1.00  0.00     0.029 A 
ATOM     49  C   UNL A   1      42.866  26.159  27.821  1.00  0.00     0.049 A 
ATOM     50  H   UNL A   1      43.942  27.938  27.985  1.00  0.00     0.167 HD
ATOM     51  C   UNL A   1      46.016  31.785  28.184  1.00  0.00     0.037 A 
ATOM     52  C   UNL A   1      43.679  25.248  27.250  1.00  0.00     0.037 A 
ATOM     53  C   UNL A   1      46.981  30.858  27.652  1.00  0.00     0.049 A 
ATOM     54  C   UNL A   1      45.077  25.651  26.863  1.00  0.00     0.074 A 
ATOM     55  C   UNL A   1      48.308  31.089  27.331  1.00  0.00     0.029 A 
ATOM     56  N   UNL A   1      46.729  29.526  27.361  1.00  0.00    -0.354 N 
ATOM     57  N   UNL A   1      45.668  26.813  27.003  1.00  0.00    -0.248 NA
ATOM     58  C   UNL A   1      45.920  24.619  26.242  1.00  0.00     0.031 C 
ATOM     59  C   UNL A   1      48.842  29.911  26.799  1.00  0.00     0.029 A 
ATOM     60  C   UNL A   1      47.867  28.929  26.842  1.00  0.00     0.049 A 
ATOM     61  H   UNL A   1      45.867  29.070  27.502  1.00  0.00     0.167 HD
ATOM     62  C   UNL A   1      46.961  26.644  26.517  1.00  0.00     0.074 A 
ATOM     63  C   UNL A   1      47.069  25.264  26.091  1.00  0.00     0.031 C 
ATOM     64  C   UNL A   1      47.967  27.549  26.434  1.00  0.00     0.037 A 
BRANCH  51  65
ATOM     65  C   UNL A   1      46.442  33.212  28.401  1.00  0.00     0.058 A 
ATOM     66  C   UNL A   1      46.093  34.229  27.497  1.00  0.00     0.135 A 
ATOM     67  C   UNL A   1      47.169  33.579  29.545  1.00  0.00     0.135 A 
ATOM     68  F   UNL A   1      45.409  33.936  26.380  1.00  0.00    -0.206 F 
ATOM     69  C   UNL A   1      46.476  35.550  27.703  1.00  0.00     0.059 A 
ATOM     70  C   UNL A   1      47.537  34.899  29.788  1.00  0.00     0.059 A 
ATOM     71  F   UNL A   1      47.528  32.649  30.445  1.00  0.00    -0.206 F 
ATOM     72  C   UNL A   1      47.198  35.876  28.852  1.00  0.00     0.060 A 
BRANCH  72  73
ATOM     73  S   UNL A   1      47.683  37.597  29.104  1.00  0.00     0.124 S 
ATOM     74  O   UNL A   1      46.789  38.289  28.180  1.00  0.00    -0.237 OA
ATOM     75  O   UNL A   1      47.404  37.794  30.523  1.00  0.00    -0.237 OA
ATOM     76  O   UNL A   1      49.095  37.610  28.738  1.00  0.00    -0.744 OA
ENDBRANCH  72  73
ENDBRANCH  51  65
BRANCH  52  77
ATOM     77  C   UNL A   1      43.199  23.857  27.017  1.00  0.00     0.058 A 
ATOM     78  C   UNL A   1      42.866  23.418  25.727  1.00  0.00     0.135 A 
ATOM     79  C   UNL A   1      43.057  22.944  28.074  1.00  0.00     0.135 A 
ATOM     80  F   UNL A   1      42.977  24.254  24.684  1.00  0.00    -0.206 F 
ATOM     81  C   UNL A   1      42.386  22.133  25.495  1.00  0.00     0.059 A 
ATOM     82  C   UNL A   1      42.608  21.644  27.862  1.00  0.00     0.059 A 
ATOM     83  F   UNL A   1      43.378  23.307  29.326  1.00  0.00    -0.206 F 
ATOM     84  C   UNL A   1      42.261  21.252  26.570  1.00  0.00     0.060 A 
BRANCH  84  85
ATOM     85  S   UNL A   1      41.667  19.577  26.252  1.00  0.00     0.124 S 
ATOM     86  O   UNL A   1      40.247  19.809  26.015  1.00  0.00    -0.237 OA
ATOM     87  O   UNL A   1      42.455  19.188  25.087  1.00  0.00    -0.237 OA
ATOM     88  O   UNL A   1      41.993  18.866  27.485  1.00  0.00    -0.744 OA
ENDBRANCH  84  85
ENDBRANCH  52  77
BRANCH  64  89
ATOM     89  C   UNL A   1      49.290  27.073  25.899  1.00  0.00     0.058 A 
ATOM     90  C   UNL A   1      49.658  27.264  24.557  1.00  0.00     0.135 A 
ATOM     91  C   UNL A   1      50.229  26.477  26.756  1.00  0.00     0.135 A 
ATOM     92  F   UNL A   1      48.795  27.821  23.693  1.00  0.00    -0.206 F 
ATOM     93  C   UNL A   1      50.903  26.864  24.082  1.00  0.00     0.059 A 
ATOM     94  C   UNL A   1      51.490  26.096  26.310  1.00  0.00     0.059 A 
ATOM     95  F   UNL A   1      49.932  26.278  28.051  1.00  0.00    -0.206 F 
ATOM     96  C   UNL A   1      51.816  26.286  24.968  1.00  0.00     0.060 A 
BRANCH  96  97
ATOM     97  S   UNL A   1      53.446  25.821  24.348  1.00  0.00     0.124 S 
ATOM     98  O   UNL A   1      54.296  26.835  24.962  1.00  0.00    -0.237 OA
ATOM     99  O   UNL A   1      53.600  24.465  24.866  1.00  0.00    -0.237 OA
ATOM    100  O   UNL A   1      53.299  25.918  22.899  1.00  0.00    -0.744 OA
ENDBRANCH  96  97
ENDBRANCH  64  89
ENDBRANCH  38  39
ENDBRANCH  30  33
ENDBRANCH  28  29
ENDBRANCH  27  28
ENDBRANCH  26  27
ENDBRANCH   1  26
TORSDOF 20
ENDMDL
