MODEL 1
REMARK VINA RESULT:     -14.0      0.000      0.000
REMARK SMILES Cc1c(NC(=O)c2ccc(Br)cc2N)cccc1C(=O)NCCCCNC(=O)c1ccc(-c2c3nc(c(-c4c(F)cc(S(=O)(=O)[O-])cc4F)c4ccc([nH]4)c(-c4c(F)cc(S(=O)(=O)[O-])cc4F)c4nc(c(-c5c(F)cc(S(=O)(=O)[O-])cc5F)c5ccc2[nH]5)C=C4)C=C3)cc1
REMARK SMILES IDX 23 1 22 2 21 3 19 4 20 5 18 7 1 8 2 9 3 10 15 11 17 12 16 13
REMARK SMILES IDX 4 14 5 15 6 17 7 18 8 19 13 20 9 21 12 22 10 23 11 24 14 25
REMARK SMILES IDX 24 28 25 29 26 30 27 31 28 33 29 34 30 35 94 36 31 37 93 38
REMARK SMILES IDX 32 39 33 40 34 41 87 42 35 43 92 44 86 45 88 46 36 47 91 48
REMARK SMILES IDX 85 49 84 50 37 52 71 53 50 54 70 55 51 56 54 57 69 58 89 59
REMARK SMILES IDX 52 60 53 61 68 63 90 64 55 65 38 66 39 67 48 68 40 69 41 70
REMARK SMILES IDX 47 71 49 72 42 73 43 74 44 75 45 76 46 77 72 78 73 79 82 80
REMARK SMILES IDX 74 81 75 82 81 83 83 84 76 85 77 86 78 87 79 88 80 89 56 90
REMARK SMILES IDX 57 91 66 92 58 93 59 94 65 95 67 96 60 97 61 98 62 99 63 100
REMARK SMILES IDX 64 101
REMARK H PARENT 21 6 4 16 14 26 14 27 26 32 88 51 54 62
REMARK Flexibility Score: inf
ROOT
ATOM      1  C   UNL A   1      32.142  30.212  25.835  1.00  0.00     0.023 C 
ENDROOT
BRANCH   1   2
ATOM      2  C   UNL A   1      32.550  29.308  24.654  1.00  0.00     0.116 C 
BRANCH   2   3
ATOM      3  N   UNL A   1      31.532  29.325  23.618  1.00  0.00    -0.352 N 
ATOM      4  C   UNL A   1      30.916  28.395  22.825  1.00  0.00     0.251 C 
ATOM      5  O   UNL A   1      30.090  28.861  22.029  1.00  0.00    -0.269 OA
ATOM      6  H   UNL A   1      31.202  30.235  23.442  1.00  0.00     0.163 HD
BRANCH   4   7
ATOM      7  C   UNL A   1      31.091  26.899  22.835  1.00  0.00     0.044 A 
ATOM      8  C   UNL A   1      30.035  26.347  25.100  1.00  0.00     0.047 C 
ATOM      9  C   UNL A   1      30.702  25.957  23.815  1.00  0.00    -0.015 A 
ATOM     10  C   UNL A   1      31.122  24.603  23.694  1.00  0.00     0.045 A 
ATOM     11  C   UNL A   1      31.973  24.197  22.667  1.00  0.00     0.026 A 
ATOM     12  C   UNL A   1      31.926  26.438  21.787  1.00  0.00     0.014 A 
ATOM     13  C   UNL A   1      32.375  25.118  21.711  1.00  0.00     0.003 A 
BRANCH  10  14
ATOM     14  N   UNL A   1      30.654  23.678  24.643  1.00  0.00    -0.322 N 
ATOM     15  C   UNL A   1      31.294  22.671  25.322  1.00  0.00     0.257 C 
ATOM     16  H   UNL A   1      29.699  23.768  24.859  1.00  0.00     0.170 HD
ATOM     17  O   UNL A   1      30.617  21.838  25.928  1.00  0.00    -0.269 OA
BRANCH  15  18
ATOM     18  C   UNL A   1      32.775  22.582  25.423  1.00  0.00     0.063 A 
ATOM     19  C   UNL A   1      33.391  23.682  26.048  1.00  0.00     0.017 A 
ATOM     20  C   UNL A   1      33.569  21.558  24.860  1.00  0.00     0.045 A 
ATOM     21  C   UNL A   1      34.779  23.760  26.153  1.00  0.00     0.016 A 
ATOM     22  C   UNL A   1      34.964  21.648  24.993  1.00  0.00     0.042 A 
ATOM     23  C   UNL A   1      35.559  22.733  25.635  1.00  0.00     0.020 A 
ATOM     24  Br  UNL A   1      37.442  22.835  25.753  1.00  0.00    -0.051 Br
BRANCH  20  25
ATOM     25  N   UNL A   1      33.080  20.562  24.019  1.00  0.00    -0.398 N 
ATOM     26  H   UNL A   1      32.239  20.102  24.239  1.00  0.00     0.156 HD
ATOM     27  H   UNL A   1      33.577  20.320  23.205  1.00  0.00     0.156 HD
ENDBRANCH  20  25
ENDBRANCH  15  18
ENDBRANCH  10  14
ENDBRANCH   4   7
ENDBRANCH   2   3
ENDBRANCH   1   2
BRANCH   1  28
ATOM     28  C   UNL A   1      32.927  29.994  27.125  1.00  0.00     0.023 C 
BRANCH  28  29
ATOM     29  C   UNL A   1      34.423  29.965  26.876  1.00  0.00     0.116 C 
BRANCH  29  30
ATOM     30  N   UNL A   1      35.151  31.102  27.424  1.00  0.00    -0.352 N 
ATOM     31  C   UNL A   1      36.346  31.071  28.125  1.00  0.00     0.251 C 
ATOM     32  H   UNL A   1      34.750  31.989  27.281  1.00  0.00     0.163 HD
ATOM     33  O   UNL A   1      36.775  32.053  28.720  1.00  0.00    -0.269 OA
BRANCH  31  34
ATOM     34  C   UNL A   1      37.138  29.825  28.044  1.00  0.00     0.039 A 
ATOM     35  C   UNL A   1      37.180  29.013  29.183  1.00  0.00     0.014 A 
ATOM     36  C   UNL A   1      38.072  29.677  27.025  1.00  0.00     0.014 A 
ATOM     37  C   UNL A   1      38.289  28.200  29.399  1.00  0.00     0.010 A 
ATOM     38  C   UNL A   1      39.225  28.971  27.300  1.00  0.00     0.010 A 
ATOM     39  C   UNL A   1      39.358  28.268  28.508  1.00  0.00    -0.014 A 
BRANCH  39  40
ATOM     40  C   UNL A   1      40.685  27.721  28.776  1.00  0.00     0.031 A 
ATOM     41  C   UNL A   1      40.979  26.305  28.443  1.00  0.00     0.074 A 
ATOM     42  C   UNL A   1      41.679  28.521  29.220  1.00  0.00     0.049 A 
ATOM     43  N   UNL A   1      42.013  25.647  28.845  1.00  0.00    -0.248 NA
ATOM     44  C   UNL A   1      40.060  25.487  27.661  1.00  0.00     0.031 C 
ATOM     45  C   UNL A   1      43.114  28.254  29.163  1.00  0.00     0.029 A 
ATOM     46  N   UNL A   1      41.587  29.676  29.986  1.00  0.00    -0.354 N 
ATOM     47  C   UNL A   1      42.056  24.453  28.154  1.00  0.00     0.074 A 
ATOM     48  C   UNL A   1      40.771  24.369  27.506  1.00  0.00     0.031 C 
ATOM     49  C   UNL A   1      43.747  29.061  30.028  1.00  0.00     0.029 A 
ATOM     50  C   UNL A   1      42.732  29.766  30.790  1.00  0.00     0.049 A 
ATOM     51  H   UNL A   1      40.843  30.323  29.967  1.00  0.00     0.167 HD
ATOM     52  C   UNL A   1      43.231  23.756  28.112  1.00  0.00     0.037 A 
ATOM     53  C   UNL A   1      42.643  29.733  32.155  1.00  0.00     0.037 A 
ATOM     54  C   UNL A   1      44.193  24.315  29.070  1.00  0.00     0.049 A 
ATOM     55  C   UNL A   1      43.293  28.522  32.793  1.00  0.00     0.074 A 
ATOM     56  C   UNL A   1      45.288  25.154  28.935  1.00  0.00     0.029 A 
ATOM     57  N   UNL A   1      43.910  24.262  30.433  1.00  0.00    -0.354 N 
ATOM     58  N   UNL A   1      43.694  27.472  32.129  1.00  0.00    -0.248 NA
ATOM     59  C   UNL A   1      43.522  28.386  34.229  1.00  0.00     0.031 C 
ATOM     60  C   UNL A   1      45.604  25.676  30.217  1.00  0.00     0.029 A 
ATOM     61  C   UNL A   1      44.721  25.134  31.135  1.00  0.00     0.049 A 
ATOM     62  H   UNL A   1      43.226  23.683  30.841  1.00  0.00     0.167 HD
ATOM     63  C   UNL A   1      44.165  26.525  32.999  1.00  0.00     0.074 A 
ATOM     64  C   UNL A   1      44.072  27.161  34.301  1.00  0.00     0.031 C 
ATOM     65  C   UNL A   1      44.574  25.291  32.578  1.00  0.00     0.037 A 
BRANCH  52  66
ATOM     66  C   UNL A   1      43.618  22.778  27.002  1.00  0.00     0.058 A 
ATOM     67  C   UNL A   1      42.950  21.537  26.873  1.00  0.00     0.135 A 
ATOM     68  C   UNL A   1      44.694  22.935  26.102  1.00  0.00     0.135 A 
ATOM     69  F   UNL A   1      41.838  21.263  27.570  1.00  0.00    -0.206 F 
ATOM     70  C   UNL A   1      43.390  20.507  26.030  1.00  0.00     0.059 A 
ATOM     71  C   UNL A   1      45.177  21.911  25.281  1.00  0.00     0.059 A 
ATOM     72  F   UNL A   1      45.305  24.107  25.922  1.00  0.00    -0.206 F 
ATOM     73  C   UNL A   1      44.532  20.690  25.264  1.00  0.00     0.060 A 
BRANCH  73  74
ATOM     74  S   UNL A   1      45.147  19.338  24.246  1.00  0.00     0.124 S 
ATOM     75  O   UNL A   1      46.590  19.548  24.297  1.00  0.00    -0.237 OA
ATOM     76  O   UNL A   1      44.647  18.166  24.957  1.00  0.00    -0.237 OA
ATOM     77  O   UNL A   1      44.533  19.584  22.944  1.00  0.00    -0.744 OA
ENDBRANCH  73  74
ENDBRANCH  52  66
BRANCH  53  78
ATOM     78  C   UNL A   1      41.453  30.458  32.676  1.00  0.00     0.058 A 
ATOM     79  C   UNL A   1      40.332  29.679  33.018  1.00  0.00     0.135 A 
ATOM     80  C   UNL A   1      41.574  31.723  33.270  1.00  0.00     0.135 A 
ATOM     81  F   UNL A   1      40.160  28.470  32.459  1.00  0.00    -0.206 F 
ATOM     82  C   UNL A   1      39.477  30.046  34.049  1.00  0.00     0.059 A 
ATOM     83  C   UNL A   1      40.721  32.117  34.303  1.00  0.00     0.059 A 
ATOM     84  F   UNL A   1      42.619  32.511  32.977  1.00  0.00    -0.206 F 
ATOM     85  C   UNL A   1      39.732  31.231  34.737  1.00  0.00     0.060 A 
BRANCH  85  86
ATOM     86  S   UNL A   1      38.911  31.463  36.332  1.00  0.00     0.124 S 
ATOM     87  O   UNL A   1      37.874  32.434  36.002  1.00  0.00    -0.237 OA
ATOM     88  O   UNL A   1      38.445  30.105  36.608  1.00  0.00    -0.237 OA
ATOM     89  O   UNL A   1      39.984  31.949  37.191  1.00  0.00    -0.744 OA
ENDBRANCH  85  86
ENDBRANCH  53  78
BRANCH  65  90
ATOM     90  C   UNL A   1      44.944  24.136  33.478  1.00  0.00     0.058 A 
ATOM     91  C   UNL A   1      44.083  23.068  33.780  1.00  0.00     0.135 A 
ATOM     92  C   UNL A   1      46.269  24.011  33.961  1.00  0.00     0.135 A 
ATOM     93  F   UNL A   1      42.835  23.022  33.293  1.00  0.00    -0.206 F 
ATOM     94  C   UNL A   1      44.486  21.981  34.560  1.00  0.00     0.059 A 
ATOM     95  C   UNL A   1      46.706  22.911  34.695  1.00  0.00     0.059 A 
ATOM     96  F   UNL A   1      47.189  24.958  33.724  1.00  0.00    -0.206 F 
ATOM     97  C   UNL A   1      45.800  21.910  35.012  1.00  0.00     0.060 A 
BRANCH  97  98
ATOM     98  S   UNL A   1      46.354  20.484  35.966  1.00  0.00     0.124 S 
ATOM     99  O   UNL A   1      45.714  20.728  37.254  1.00  0.00    -0.237 OA
ATOM    100  O   UNL A   1      45.824  19.355  35.204  1.00  0.00    -0.237 OA
ATOM    101  O   UNL A   1      47.807  20.616  35.943  1.00  0.00    -0.744 OA
ENDBRANCH  97  98
ENDBRANCH  65  90
ENDBRANCH  39  40
ENDBRANCH  31  34
ENDBRANCH  29  30
ENDBRANCH  28  29
ENDBRANCH   1  28
TORSDOF 17
ENDMDL
MODEL 2
REMARK VINA RESULT:     -13.8      4.909     11.348
REMARK SMILES Cc1c(NC(=O)c2ccc(Br)cc2N)cccc1C(=O)NCCCCNC(=O)c1ccc(-c2c3nc(c(-c4c(F)cc(S(=O)(=O)[O-])cc4F)c4ccc([nH]4)c(-c4c(F)cc(S(=O)(=O)[O-])cc4F)c4nc(c(-c5c(F)cc(S(=O)(=O)[O-])cc5F)c5ccc2[nH]5)C=C4)C=C3)cc1
REMARK SMILES IDX 23 1 22 2 21 3 19 4 20 5 18 7 1 8 2 9 3 10 15 11 17 12 16 13
REMARK SMILES IDX 4 14 5 15 6 17 7 18 8 19 13 20 9 21 12 22 10 23 11 24 14 25
REMARK SMILES IDX 24 28 25 29 26 30 27 31 28 33 29 34 30 35 94 36 31 37 93 38
REMARK SMILES IDX 32 39 33 40 34 41 87 42 35 43 92 44 86 45 88 46 36 47 91 48
REMARK SMILES IDX 85 49 84 50 37 52 71 53 50 54 70 55 51 56 54 57 69 58 89 59
REMARK SMILES IDX 52 60 53 61 68 63 90 64 55 65 38 66 39 67 48 68 40 69 41 70
REMARK SMILES IDX 47 71 49 72 42 73 43 74 44 75 45 76 46 77 72 78 73 79 82 80
REMARK SMILES IDX 74 81 75 82 81 83 83 84 76 85 77 86 78 87 79 88 80 89 56 90
REMARK SMILES IDX 57 91 66 92 58 93 59 94 65 95 67 96 60 97 61 98 62 99 63 100
REMARK SMILES IDX 64 101
REMARK H PARENT 21 6 4 16 14 26 14 27 26 32 88 51 54 62
REMARK Flexibility Score: inf
ROOT
ATOM      1  C   UNL A   1      36.233  22.036  24.932  1.00  0.00     0.023 C 
ENDROOT
BRANCH   1   2
ATOM      2  C   UNL A   1      35.364  21.658  26.148  1.00  0.00     0.116 C 
BRANCH   2   3
ATOM      3  N   UNL A   1      34.380  20.654  25.785  1.00  0.00    -0.352 N 
ATOM      4  C   UNL A   1      33.091  20.655  25.327  1.00  0.00     0.251 C 
ATOM      5  O   UNL A   1      32.599  19.531  25.164  1.00  0.00    -0.269 OA
ATOM      6  H   UNL A   1      34.729  19.740  25.898  1.00  0.00     0.163 HD
BRANCH   4   7
ATOM      7  C   UNL A   1      32.232  21.839  24.966  1.00  0.00     0.044 A 
ATOM      8  C   UNL A   1      33.308  22.503  22.741  1.00  0.00     0.047 C 
ATOM      9  C   UNL A   1      32.286  22.672  23.826  1.00  0.00    -0.015 A 
ATOM     10  C   UNL A   1      31.480  23.843  23.771  1.00  0.00     0.045 A 
ATOM     11  C   UNL A   1      30.691  24.230  24.853  1.00  0.00     0.026 A 
ATOM     12  C   UNL A   1      31.388  22.248  26.028  1.00  0.00     0.014 A 
ATOM     13  C   UNL A   1      30.645  23.429  25.985  1.00  0.00     0.003 A 
BRANCH  10  14
ATOM     14  N   UNL A   1      31.501  24.607  22.592  1.00  0.00    -0.322 N 
ATOM     15  C   UNL A   1      31.621  25.960  22.387  1.00  0.00     0.257 C 
ATOM     16  H   UNL A   1      31.415  24.079  21.766  1.00  0.00     0.170 HD
ATOM     17  O   UNL A   1      31.374  26.417  21.270  1.00  0.00    -0.269 OA
BRANCH  15  18
ATOM     18  C   UNL A   1      32.111  26.893  23.437  1.00  0.00     0.063 A 
ATOM     19  C   UNL A   1      33.370  26.568  23.975  1.00  0.00     0.017 A 
ATOM     20  C   UNL A   1      31.375  27.973  23.973  1.00  0.00     0.045 A 
ATOM     21  C   UNL A   1      33.921  27.319  25.011  1.00  0.00     0.016 A 
ATOM     22  C   UNL A   1      31.956  28.728  25.004  1.00  0.00     0.042 A 
ATOM     23  C   UNL A   1      33.214  28.407  25.512  1.00  0.00     0.020 A 
ATOM     24  Br  UNL A   1      33.940  29.424  26.930  1.00  0.00    -0.051 Br
BRANCH  20  25
ATOM     25  N   UNL A   1      30.038  28.228  23.684  1.00  0.00    -0.398 N 
ATOM     26  H   UNL A   1      29.734  28.260  22.748  1.00  0.00     0.156 HD
ATOM     27  H   UNL A   1      29.396  28.375  24.415  1.00  0.00     0.156 HD
ENDBRANCH  20  25
ENDBRANCH  15  18
ENDBRANCH  10  14
ENDBRANCH   4   7
ENDBRANCH   2   3
ENDBRANCH   1   2
BRANCH   1  28
ATOM     28  C   UNL A   1      37.738  22.056  25.186  1.00  0.00     0.023 C 
BRANCH  28  29
ATOM     29  C   UNL A   1      38.136  23.182  26.120  1.00  0.00     0.116 C 
BRANCH  29  30
ATOM     30  N   UNL A   1      39.352  22.935  26.885  1.00  0.00    -0.352 N 
ATOM     31  C   UNL A   1      40.184  23.882  27.460  1.00  0.00     0.251 C 
ATOM     32  H   UNL A   1      39.610  21.993  27.005  1.00  0.00     0.163 HD
ATOM     33  O   UNL A   1      41.288  23.590  27.906  1.00  0.00    -0.269 OA
BRANCH  31  34
ATOM     34  C   UNL A   1      39.645  25.251  27.604  1.00  0.00     0.039 A 
ATOM     35  C   UNL A   1      40.203  26.251  26.801  1.00  0.00     0.014 A 
ATOM     36  C   UNL A   1      38.895  25.572  28.731  1.00  0.00     0.014 A 
ATOM     37  C   UNL A   1      40.193  27.570  27.249  1.00  0.00     0.010 A 
ATOM     38  C   UNL A   1      38.997  26.853  29.233  1.00  0.00     0.010 A 
ATOM     39  C   UNL A   1      39.686  27.845  28.517  1.00  0.00    -0.014 A 
BRANCH  39  40
ATOM     40  C   UNL A   1      39.897  29.104  29.228  1.00  0.00     0.031 A 
ATOM     41  C   UNL A   1      38.882  30.183  29.130  1.00  0.00     0.074 A 
ATOM     42  C   UNL A   1      40.949  29.252  30.062  1.00  0.00     0.049 A 
ATOM     43  N   UNL A   1      39.060  31.404  29.504  1.00  0.00    -0.248 NA
ATOM     44  C   UNL A   1      37.576  29.964  28.522  1.00  0.00     0.031 C 
ATOM     45  C   UNL A   1      41.097  30.245  31.121  1.00  0.00     0.029 A 
ATOM     46  N   UNL A   1      42.195  28.640  30.004  1.00  0.00    -0.354 N 
ATOM     47  C   UNL A   1      37.838  32.045  29.472  1.00  0.00     0.074 A 
ATOM     48  C   UNL A   1      36.975  31.130  28.766  1.00  0.00     0.031 C 
ATOM     49  C   UNL A   1      42.393  30.339  31.459  1.00  0.00     0.029 A 
ATOM     50  C   UNL A   1      43.148  29.528  30.522  1.00  0.00     0.049 A 
ATOM     51  H   UNL A   1      42.378  27.735  29.658  1.00  0.00     0.167 HD
ATOM     52  C   UNL A   1      37.683  33.210  30.169  1.00  0.00     0.037 A 
ATOM     53  C   UNL A   1      44.164  30.010  29.742  1.00  0.00     0.037 A 
ATOM     54  C   UNL A   1      38.986  33.708  30.630  1.00  0.00     0.049 A 
ATOM     55  C   UNL A   1      44.108  31.504  29.499  1.00  0.00     0.074 A 
ATOM     56  C   UNL A   1      39.638  33.670  31.853  1.00  0.00     0.029 A 
ATOM     57  N   UNL A   1      39.941  34.093  29.692  1.00  0.00    -0.354 N 
ATOM     58  N   UNL A   1      43.078  32.254  29.784  1.00  0.00    -0.248 NA
ATOM     59  C   UNL A   1      45.197  32.271  28.896  1.00  0.00     0.031 C 
ATOM     60  C   UNL A   1      41.012  33.946  31.628  1.00  0.00     0.029 A 
ATOM     61  C   UNL A   1      41.192  34.180  30.275  1.00  0.00     0.049 A 
ATOM     62  H   UNL A   1      39.752  34.277  28.743  1.00  0.00     0.167 HD
ATOM     63  C   UNL A   1      43.313  33.540  29.375  1.00  0.00     0.074 A 
ATOM     64  C   UNL A   1      44.670  33.508  28.860  1.00  0.00     0.031 C 
ATOM     65  C   UNL A   1      42.364  34.519  29.477  1.00  0.00     0.037 A 
BRANCH  52  66
ATOM     66  C   UNL A   1      36.347  33.732  30.696  1.00  0.00     0.058 A 
ATOM     67  C   UNL A   1      35.387  34.275  29.809  1.00  0.00     0.135 A 
ATOM     68  C   UNL A   1      35.979  33.835  32.055  1.00  0.00     0.135 A 
ATOM     69  F   UNL A   1      35.520  34.165  28.479  1.00  0.00    -0.206 F 
ATOM     70  C   UNL A   1      34.245  34.966  30.235  1.00  0.00     0.059 A 
ATOM     71  C   UNL A   1      34.868  34.553  32.508  1.00  0.00     0.059 A 
ATOM     72  F   UNL A   1      36.641  33.197  33.021  1.00  0.00    -0.206 F 
ATOM     73  C   UNL A   1      34.013  35.136  31.592  1.00  0.00     0.060 A 
BRANCH  73  74
ATOM     74  S   UNL A   1      32.593  36.097  32.140  1.00  0.00     0.124 S 
ATOM     75  O   UNL A   1      33.164  36.901  33.216  1.00  0.00    -0.237 OA
ATOM     76  O   UNL A   1      32.227  36.822  30.927  1.00  0.00    -0.237 OA
ATOM     77  O   UNL A   1      31.638  35.080  32.569  1.00  0.00    -0.744 OA
ENDBRANCH  73  74
ENDBRANCH  52  66
BRANCH  53  78
ATOM     78  C   UNL A   1      44.702  28.994  28.798  1.00  0.00     0.058 A 
ATOM     79  C   UNL A   1      44.245  29.056  27.468  1.00  0.00     0.135 A 
ATOM     80  C   UNL A   1      45.928  28.355  29.037  1.00  0.00     0.135 A 
ATOM     81  F   UNL A   1      43.067  29.638  27.190  1.00  0.00    -0.206 F 
ATOM     82  C   UNL A   1      45.053  28.682  26.402  1.00  0.00     0.059 A 
ATOM     83  C   UNL A   1      46.753  27.964  27.981  1.00  0.00     0.059 A 
ATOM     84  F   UNL A   1      46.409  28.262  30.286  1.00  0.00    -0.206 F 
ATOM     85  C   UNL A   1      46.337  28.213  26.672  1.00  0.00     0.060 A 
BRANCH  85  86
ATOM     86  S   UNL A   1      47.513  28.167  25.298  1.00  0.00     0.124 S 
ATOM     87  O   UNL A   1      47.721  26.734  25.122  1.00  0.00    -0.237 OA
ATOM     88  O   UNL A   1      46.744  28.831  24.247  1.00  0.00    -0.237 OA
ATOM     89  O   UNL A   1      48.655  28.914  25.813  1.00  0.00    -0.744 OA
ENDBRANCH  85  86
ENDBRANCH  53  78
BRANCH  65  90
ATOM     90  C   UNL A   1      42.476  35.910  28.901  1.00  0.00     0.058 A 
ATOM     91  C   UNL A   1      43.208  36.951  29.496  1.00  0.00     0.135 A 
ATOM     92  C   UNL A   1      41.941  36.191  27.621  1.00  0.00     0.135 A 
ATOM     93  F   UNL A   1      43.849  36.773  30.660  1.00  0.00    -0.206 F 
ATOM     94  C   UNL A   1      43.347  38.205  28.896  1.00  0.00     0.059 A 
ATOM     95  C   UNL A   1      42.113  37.417  26.982  1.00  0.00     0.059 A 
ATOM     96  F   UNL A   1      41.236  35.273  26.943  1.00  0.00    -0.206 F 
ATOM     97  C   UNL A   1      42.798  38.429  27.638  1.00  0.00     0.060 A 
BRANCH  97  98
ATOM     98  S   UNL A   1      43.022  40.021  26.821  1.00  0.00     0.124 S 
ATOM     99  O   UNL A   1      41.752  40.169  26.118  1.00  0.00    -0.237 OA
ATOM    100  O   UNL A   1      43.232  40.936  27.940  1.00  0.00    -0.237 OA
ATOM    101  O   UNL A   1      44.192  39.797  25.978  1.00  0.00    -0.744 OA
ENDBRANCH  97  98
ENDBRANCH  65  90
ENDBRANCH  39  40
ENDBRANCH  31  34
ENDBRANCH  29  30
ENDBRANCH  28  29
ENDBRANCH   1  28
TORSDOF 17
ENDMDL
MODEL 3
REMARK VINA RESULT:     -13.7      1.537      2.174
REMARK SMILES Cc1c(NC(=O)c2ccc(Br)cc2N)cccc1C(=O)NCCCCNC(=O)c1ccc(-c2c3nc(c(-c4c(F)cc(S(=O)(=O)[O-])cc4F)c4ccc([nH]4)c(-c4c(F)cc(S(=O)(=O)[O-])cc4F)c4nc(c(-c5c(F)cc(S(=O)(=O)[O-])cc5F)c5ccc2[nH]5)C=C4)C=C3)cc1
REMARK SMILES IDX 23 1 22 2 21 3 19 4 20 5 18 7 1 8 2 9 3 10 15 11 17 12 16 13
REMARK SMILES IDX 4 14 5 15 6 17 7 18 8 19 13 20 9 21 12 22 10 23 11 24 14 25
REMARK SMILES IDX 24 28 25 29 26 30 27 31 28 33 29 34 30 35 94 36 31 37 93 38
REMARK SMILES IDX 32 39 33 40 34 41 87 42 35 43 92 44 86 45 88 46 36 47 91 48
REMARK SMILES IDX 85 49 84 50 37 52 71 53 50 54 70 55 51 56 54 57 69 58 89 59
REMARK SMILES IDX 52 60 53 61 68 63 90 64 55 65 38 66 39 67 48 68 40 69 41 70
REMARK SMILES IDX 47 71 49 72 42 73 43 74 44 75 45 76 46 77 72 78 73 79 82 80
REMARK SMILES IDX 74 81 75 82 81 83 83 84 76 85 77 86 78 87 79 88 80 89 56 90
REMARK SMILES IDX 57 91 66 92 58 93 59 94 65 95 67 96 60 97 61 98 62 99 63 100
REMARK SMILES IDX 64 101
REMARK H PARENT 21 6 4 16 14 26 14 27 26 32 88 51 54 62
REMARK Flexibility Score: inf
ROOT
ATOM      1  C   UNL A   1      32.910  29.672  25.532  1.00  0.00     0.023 C 
ENDROOT
BRANCH   1   2
ATOM      2  C   UNL A   1      32.904  29.311  24.033  1.00  0.00     0.116 C 
BRANCH   2   3
ATOM      3  N   UNL A   1      31.744  28.502  23.704  1.00  0.00    -0.352 N 
ATOM      4  C   UNL A   1      31.472  27.166  23.587  1.00  0.00     0.251 C 
ATOM      5  O   UNL A   1      30.311  26.902  23.250  1.00  0.00    -0.269 OA
ATOM      6  H   UNL A   1      30.952  29.056  23.517  1.00  0.00     0.163 HD
BRANCH   4   7
ATOM      7  C   UNL A   1      32.390  26.002  23.855  1.00  0.00     0.044 A 
ATOM      8  C   UNL A   1      32.437  26.057  26.414  1.00  0.00     0.047 C 
ATOM      9  C   UNL A   1      32.829  25.472  25.089  1.00  0.00    -0.015 A 
ATOM     10  C   UNL A   1      33.836  24.467  25.105  1.00  0.00     0.045 A 
ATOM     11  C   UNL A   1      34.457  24.045  23.930  1.00  0.00     0.026 A 
ATOM     12  C   UNL A   1      33.020  25.519  22.681  1.00  0.00     0.014 A 
ATOM     13  C   UNL A   1      34.046  24.573  22.715  1.00  0.00     0.003 A 
BRANCH  10  14
ATOM     14  N   UNL A   1      34.194  23.907  26.344  1.00  0.00    -0.322 N 
ATOM     15  C   UNL A   1      34.002  22.650  26.862  1.00  0.00     0.257 C 
ATOM     16  H   UNL A   1      34.666  24.525  26.945  1.00  0.00     0.170 HD
ATOM     17  O   UNL A   1      34.196  22.467  28.065  1.00  0.00    -0.269 OA
BRANCH  15  18
ATOM     18  C   UNL A   1      33.643  21.478  26.019  1.00  0.00     0.063 A 
ATOM     19  C   UNL A   1      34.738  20.732  25.546  1.00  0.00     0.017 A 
ATOM     20  C   UNL A   1      32.335  21.147  25.601  1.00  0.00     0.045 A 
ATOM     21  C   UNL A   1      34.550  19.646  24.694  1.00  0.00     0.016 A 
ATOM     22  C   UNL A   1      32.166  20.039  24.756  1.00  0.00     0.042 A 
ATOM     23  C   UNL A   1      33.260  19.296  24.314  1.00  0.00     0.020 A 
ATOM     24  Br  UNL A   1      32.991  17.837  23.143  1.00  0.00    -0.051 Br
BRANCH  20  25
ATOM     25  N   UNL A   1      31.219  21.954  25.811  1.00  0.00    -0.398 N 
ATOM     26  H   UNL A   1      31.105  22.781  25.291  1.00  0.00     0.156 HD
ATOM     27  H   UNL A   1      30.545  21.695  26.480  1.00  0.00     0.156 HD
ENDBRANCH  20  25
ENDBRANCH  15  18
ENDBRANCH  10  14
ENDBRANCH   4   7
ENDBRANCH   2   3
ENDBRANCH   1   2
BRANCH   1  28
ATOM     28  C   UNL A   1      34.180  29.297  26.290  1.00  0.00     0.023 C 
BRANCH  28  29
ATOM     29  C   UNL A   1      34.195  29.883  27.688  1.00  0.00     0.116 C 
BRANCH  29  30
ATOM     30  N   UNL A   1      35.039  31.061  27.843  1.00  0.00    -0.352 N 
ATOM     31  C   UNL A   1      36.340  31.101  28.317  1.00  0.00     0.251 C 
ATOM     32  H   UNL A   1      34.640  31.922  27.582  1.00  0.00     0.163 HD
ATOM     33  O   UNL A   1      36.894  32.157  28.603  1.00  0.00    -0.269 OA
BRANCH  31  34
ATOM     34  C   UNL A   1      37.073  29.819  28.374  1.00  0.00     0.039 A 
ATOM     35  C   UNL A   1      37.206  29.207  29.625  1.00  0.00     0.014 A 
ATOM     36  C   UNL A   1      37.888  29.453  27.307  1.00  0.00     0.014 A 
ATOM     37  C   UNL A   1      38.302  28.382  29.867  1.00  0.00     0.010 A 
ATOM     38  C   UNL A   1      39.037  28.741  27.584  1.00  0.00     0.010 A 
ATOM     39  C   UNL A   1      39.271  28.243  28.877  1.00  0.00    -0.014 A 
BRANCH  39  40
ATOM     40  C   UNL A   1      40.599  27.677  29.102  1.00  0.00     0.031 A 
ATOM     41  C   UNL A   1      40.871  26.267  28.727  1.00  0.00     0.074 A 
ATOM     42  C   UNL A   1      41.609  28.457  29.545  1.00  0.00     0.049 A 
ATOM     43  N   UNL A   1      41.908  25.590  29.090  1.00  0.00    -0.248 NA
ATOM     44  C   UNL A   1      39.929  25.478  27.945  1.00  0.00     0.031 C 
ATOM     45  C   UNL A   1      43.040  28.178  29.451  1.00  0.00     0.029 A 
ATOM     46  N   UNL A   1      41.544  29.593  30.342  1.00  0.00    -0.354 N 
ATOM     47  C   UNL A   1      41.925  24.414  28.369  1.00  0.00     0.074 A 
ATOM     48  C   UNL A   1      40.626  24.358  27.746  1.00  0.00     0.031 C 
ATOM     49  C   UNL A   1      43.698  28.958  30.322  1.00  0.00     0.029 A 
ATOM     50  C   UNL A   1      42.707  29.652  31.123  1.00  0.00     0.049 A 
ATOM     51  H   UNL A   1      40.807  30.246  30.355  1.00  0.00     0.167 HD
ATOM     52  C   UNL A   1      43.092  23.708  28.284  1.00  0.00     0.037 A 
ATOM     53  C   UNL A   1      42.646  29.585  32.488  1.00  0.00     0.037 A 
ATOM     54  C   UNL A   1      44.080  24.234  29.235  1.00  0.00     0.049 A 
ATOM     55  C   UNL A   1      43.298  28.352  33.082  1.00  0.00     0.074 A 
ATOM     56  C   UNL A   1      45.180  25.066  29.098  1.00  0.00     0.029 A 
ATOM     57  N   UNL A   1      43.825  24.148  30.602  1.00  0.00    -0.354 N 
ATOM     58  N   UNL A   1      43.675  27.316  32.383  1.00  0.00    -0.248 NA
ATOM     59  C   UNL A   1      43.556  28.177  34.509  1.00  0.00     0.031 C 
ATOM     60  C   UNL A   1      45.527  25.552  30.386  1.00  0.00     0.029 A 
ATOM     61  C   UNL A   1      44.659  24.995  31.309  1.00  0.00     0.049 A 
ATOM     62  H   UNL A   1      43.144  23.565  31.009  1.00  0.00     0.167 HD
ATOM     63  C   UNL A   1      44.155  26.343  33.219  1.00  0.00     0.074 A 
ATOM     64  C   UNL A   1      44.096  26.945  34.538  1.00  0.00     0.031 C 
ATOM     65  C   UNL A   1      44.543  25.116  32.757  1.00  0.00     0.037 A 
BRANCH  52  66
ATOM     66  C   UNL A   1      43.446  22.755  27.141  1.00  0.00     0.058 A 
ATOM     67  C   UNL A   1      42.779  21.514  27.008  1.00  0.00     0.135 A 
ATOM     68  C   UNL A   1      44.492  22.935  26.211  1.00  0.00     0.135 A 
ATOM     69  F   UNL A   1      41.691  21.221  27.735  1.00  0.00    -0.206 F 
ATOM     70  C   UNL A   1      43.194  20.504  26.129  1.00  0.00     0.059 A 
ATOM     71  C   UNL A   1      44.952  21.932  25.353  1.00  0.00     0.059 A 
ATOM     72  F   UNL A   1      45.093  24.113  26.036  1.00  0.00    -0.206 F 
ATOM     73  C   UNL A   1      44.311  20.708  25.331  1.00  0.00     0.060 A 
BRANCH  73  74
ATOM     74  S   UNL A   1      44.897  19.380  24.265  1.00  0.00     0.124 S 
ATOM     75  O   UNL A   1      44.456  19.829  22.947  1.00  0.00    -0.237 OA
ATOM     76  O   UNL A   1      46.337  19.411  24.500  1.00  0.00    -0.237 OA
ATOM     77  O   UNL A   1      44.207  18.200  24.778  1.00  0.00    -0.744 OA
ENDBRANCH  73  74
ENDBRANCH  52  66
BRANCH  53  78
ATOM     78  C   UNL A   1      41.475  30.307  33.053  1.00  0.00     0.058 A 
ATOM     79  C   UNL A   1      41.566  31.710  33.126  1.00  0.00     0.135 A 
ATOM     80  C   UNL A   1      40.193  29.736  33.043  1.00  0.00     0.135 A 
ATOM     81  F   UNL A   1      42.771  32.302  33.162  1.00  0.00    -0.206 F 
ATOM     82  C   UNL A   1      40.446  32.520  32.992  1.00  0.00     0.059 A 
ATOM     83  C   UNL A   1      39.053  30.532  32.916  1.00  0.00     0.059 A 
ATOM     84  F   UNL A   1      40.046  28.405  32.980  1.00  0.00    -0.206 F 
ATOM     85  C   UNL A   1      39.205  31.916  32.807  1.00  0.00     0.060 A 
BRANCH  85  86
ATOM     86  S   UNL A   1      37.857  32.953  32.188  1.00  0.00     0.124 S 
ATOM     87  O   UNL A   1      36.849  31.962  31.832  1.00  0.00    -0.237 OA
ATOM     88  O   UNL A   1      37.562  33.765  33.368  1.00  0.00    -0.237 OA
ATOM     89  O   UNL A   1      38.470  33.663  31.071  1.00  0.00    -0.744 OA
ENDBRANCH  85  86
ENDBRANCH  53  78
BRANCH  65  90
ATOM     90  C   UNL A   1      44.921  23.936  33.620  1.00  0.00     0.058 A 
ATOM     91  C   UNL A   1      44.028  22.919  33.996  1.00  0.00     0.135 A 
ATOM     92  C   UNL A   1      46.273  23.729  33.984  1.00  0.00     0.135 A 
ATOM     93  F   UNL A   1      42.741  22.950  33.620  1.00  0.00    -0.206 F 
ATOM     94  C   UNL A   1      44.432  21.804  34.736  1.00  0.00     0.059 A 
ATOM     95  C   UNL A   1      46.706  22.600  34.675  1.00  0.00     0.059 A 
ATOM     96  F   UNL A   1      47.224  24.621  33.668  1.00  0.00    -0.206 F 
ATOM     97  C   UNL A   1      45.774  21.652  35.070  1.00  0.00     0.060 A 
BRANCH  97  98
ATOM     98  S   UNL A   1      46.323  20.189  35.969  1.00  0.00     0.124 S 
ATOM     99  O   UNL A   1      45.650  19.124  35.233  1.00  0.00    -0.237 OA
ATOM    100  O   UNL A   1      47.775  20.238  35.818  1.00  0.00    -0.237 OA
ATOM    101  O   UNL A   1      45.835  20.432  37.323  1.00  0.00    -0.744 OA
ENDBRANCH  97  98
ENDBRANCH  65  90
ENDBRANCH  39  40
ENDBRANCH  31  34
ENDBRANCH  29  30
ENDBRANCH  28  29
ENDBRANCH   1  28
TORSDOF 17
ENDMDL
