MODEL 1
REMARK VINA RESULT:     -12.0      0.000      0.000
REMARK SMILES CC[C@H]1CC(=O)N(CCn2cc(C(=O)NCCCCNC(=O)c3ccc(-c4c5nc(c(-c6c(F)cc(S(=O)(=O)[O-])cc6F)c6ccc([nH]6)c(-c6c(F)cc(S(=O)(=O)[O-])cc6F)c6nc(c(-c7c(F)cc(S(=O)(=O)[O-])cc7F)c7ccc4[nH]7)C=C6)C=C5)cc3)nn2)C1
REMARK SMILES IDX 17 1 16 2 15 3 13 4 14 5 12 7 10 8 11 9 90 10 89 11 9 12
REMARK SMILES IDX 8 13 7 14 3 15 4 16 91 17 5 18 6 19 2 20 1 21 18 22 19 23
REMARK SMILES IDX 20 24 21 25 22 27 23 28 24 29 88 30 25 31 87 32 26 33 27 34
REMARK SMILES IDX 28 35 81 36 29 37 86 38 80 39 82 40 30 41 85 42 79 43 78 44
REMARK SMILES IDX 31 46 65 47 44 48 64 49 45 50 48 51 63 52 83 53 46 54 47 55
REMARK SMILES IDX 62 57 84 58 49 59 32 60 33 61 42 62 34 63 35 64 41 65 43 66
REMARK SMILES IDX 36 67 37 68 38 69 39 70 40 71 66 72 67 73 76 74 68 75 69 76
REMARK SMILES IDX 75 77 77 78 70 79 71 80 72 81 73 82 74 83 50 84 51 85 60 86
REMARK SMILES IDX 52 87 53 88 59 89 61 90 54 91 55 92 56 93 57 94 58 95
REMARK H PARENT 15 6 20 26 82 45 48 56
REMARK Flexibility Score: inf
ROOT
ATOM      1  C   UNL A   1      32.500  28.883  25.770  1.00  0.00     0.023 C 
ENDROOT
BRANCH   1   2
ATOM      2  C   UNL A   1      32.730  29.261  24.303  1.00  0.00     0.116 C 
BRANCH   2   3
ATOM      3  N   UNL A   1      31.690  29.151  23.310  1.00  0.00    -0.351 N 
ATOM      4  C   UNL A   1      31.355  28.001  22.584  1.00  0.00     0.273 C 
ATOM      5  O   UNL A   1      30.265  27.998  22.015  1.00  0.00    -0.267 OA
ATOM      6  H   UNL A   1      31.164  29.962  23.126  1.00  0.00     0.163 HD
BRANCH   4   7
ATOM      7  C   UNL A   1      32.247  26.826  22.550  1.00  0.00     0.170 A 
ATOM      8  N   UNL A   1      33.134  24.843  22.678  1.00  0.00    -0.250 N 
ATOM      9  C   UNL A   1      32.291  25.691  23.344  1.00  0.00     0.145 A 
ATOM     10  N   UNL A   1      33.808  25.507  21.728  1.00  0.00    -0.067 NA
ATOM     11  N   UNL A   1      33.267  26.715  21.625  1.00  0.00    -0.125 NA
BRANCH   8  12
ATOM     12  C   UNL A   1      33.279  23.403  22.782  1.00  0.00     0.167 C 
BRANCH  12  13
ATOM     13  C   UNL A   1      33.403  22.825  24.203  1.00  0.00     0.143 C 
BRANCH  13  14
ATOM     14  N   UNL A   1      34.686  22.194  24.517  1.00  0.00    -0.341 N 
ATOM     15  C   UNL A   1      37.044  21.882  24.611  1.00  0.00     0.017 C 
ATOM     16  C   UNL A   1      36.329  20.602  25.047  1.00  0.00     0.105 C 
ATOM     17  C   UNL A   1      35.931  22.881  24.367  1.00  0.00     0.123 C 
ATOM     18  C   UNL A   1      34.861  20.849  24.791  1.00  0.00     0.222 C 
ATOM     19  O   UNL A   1      33.987  20.007  24.833  1.00  0.00    -0.275 OA
BRANCH  15  20
ATOM     20  C   UNL A   1      38.048  22.370  25.664  1.00  0.00     0.002 C 
ATOM     21  C   UNL A   1      37.890  23.835  26.030  1.00  0.00     0.004 C 
ENDBRANCH  15  20
ENDBRANCH  13  14
ENDBRANCH  12  13
ENDBRANCH   8  12
ENDBRANCH   4   7
ENDBRANCH   2   3
ENDBRANCH   1   2
BRANCH   1  22
ATOM     22  C   UNL A   1      32.364  29.943  26.868  1.00  0.00     0.023 C 
BRANCH  22  23
ATOM     23  C   UNL A   1      33.612  30.384  27.658  1.00  0.00     0.116 C 
BRANCH  23  24
ATOM     24  N   UNL A   1      34.178  31.698  27.310  1.00  0.00    -0.352 N 
ATOM     25  C   UNL A   1      35.409  32.219  27.720  1.00  0.00     0.251 C 
ATOM     26  H   UNL A   1      33.632  32.271  26.725  1.00  0.00     0.163 HD
ATOM     27  O   UNL A   1      35.635  33.422  27.681  1.00  0.00    -0.269 OA
BRANCH  25  28
ATOM     28  C   UNL A   1      36.472  31.273  28.126  1.00  0.00     0.039 A 
ATOM     29  C   UNL A   1      36.650  29.983  27.626  1.00  0.00     0.014 A 
ATOM     30  C   UNL A   1      37.359  31.775  29.061  1.00  0.00     0.014 A 
ATOM     31  C   UNL A   1      37.811  29.273  27.980  1.00  0.00     0.010 A 
ATOM     32  C   UNL A   1      38.565  31.159  29.266  1.00  0.00     0.010 A 
ATOM     33  C   UNL A   1      38.794  29.888  28.774  1.00  0.00    -0.014 A 
BRANCH  33  34
ATOM     34  C   UNL A   1      40.142  29.336  28.956  1.00  0.00     0.031 A 
ATOM     35  C   UNL A   1      40.500  29.097  30.383  1.00  0.00     0.074 A 
ATOM     36  C   UNL A   1      40.899  28.796  27.969  1.00  0.00     0.049 A 
ATOM     37  N   UNL A   1      41.353  29.755  31.094  1.00  0.00    -0.248 NA
ATOM     38  C   UNL A   1      39.704  28.132  31.158  1.00  0.00     0.031 C 
ATOM     39  C   UNL A   1      40.572  28.595  26.550  1.00  0.00     0.029 A 
ATOM     40  N   UNL A   1      42.123  28.202  28.063  1.00  0.00    -0.354 N 
ATOM     41  C   UNL A   1      41.377  29.132  32.340  1.00  0.00     0.074 A 
ATOM     42  C   UNL A   1      40.206  28.296  32.385  1.00  0.00     0.031 C 
ATOM     43  C   UNL A   1      41.452  27.731  25.993  1.00  0.00     0.029 A 
ATOM     44  C   UNL A   1      42.501  27.446  26.954  1.00  0.00     0.049 A 
ATOM     45  H   UNL A   1      42.698  28.299  28.857  1.00  0.00     0.167 HD
ATOM     46  C   UNL A   1      42.486  29.181  33.131  1.00  0.00     0.037 A 
ATOM     47  C   UNL A   1      43.586  26.631  26.851  1.00  0.00     0.037 A 
ATOM     48  C   UNL A   1      43.415  30.178  32.653  1.00  0.00     0.049 A 
ATOM     49  C   UNL A   1      44.546  27.067  27.904  1.00  0.00     0.074 A 
ATOM     50  C   UNL A   1      43.329  31.536  32.398  1.00  0.00     0.029 A 
ATOM     51  N   UNL A   1      44.521  29.745  31.959  1.00  0.00    -0.354 N 
ATOM     52  N   UNL A   1      45.141  28.231  27.900  1.00  0.00    -0.248 NA
ATOM     53  C   UNL A   1      44.449  26.422  29.205  1.00  0.00     0.031 C 
ATOM     54  C   UNL A   1      44.035  31.720  31.173  1.00  0.00     0.029 A 
ATOM     55  C   UNL A   1      44.589  30.492  30.809  1.00  0.00     0.049 A 
ATOM     56  H   UNL A   1      45.145  29.035  32.234  1.00  0.00     0.167 HD
ATOM     57  C   UNL A   1      45.099  28.657  29.219  1.00  0.00     0.074 A 
ATOM     58  C   UNL A   1      44.719  27.471  29.989  1.00  0.00     0.031 C 
ATOM     59  C   UNL A   1      45.082  29.984  29.546  1.00  0.00     0.037 A 
BRANCH  46  60
ATOM     60  C   UNL A   1      42.909  28.107  34.107  1.00  0.00     0.058 A 
ATOM     61  C   UNL A   1      43.105  28.453  35.462  1.00  0.00     0.135 A 
ATOM     62  C   UNL A   1      43.397  26.837  33.729  1.00  0.00     0.135 A 
ATOM     63  F   UNL A   1      42.676  29.633  35.937  1.00  0.00    -0.206 F 
ATOM     64  C   UNL A   1      43.813  27.640  36.347  1.00  0.00     0.059 A 
ATOM     65  C   UNL A   1      44.057  25.987  34.610  1.00  0.00     0.059 A 
ATOM     66  F   UNL A   1      43.348  26.394  32.468  1.00  0.00    -0.206 F 
ATOM     67  C   UNL A   1      44.301  26.415  35.903  1.00  0.00     0.060 A 
BRANCH  67  68
ATOM     68  S   UNL A   1      45.308  25.415  37.011  1.00  0.00     0.124 S 
ATOM     69  O   UNL A   1      44.306  24.923  37.949  1.00  0.00    -0.237 OA
ATOM     70  O   UNL A   1      45.870  24.426  36.096  1.00  0.00    -0.237 OA
ATOM     71  O   UNL A   1      46.265  26.376  37.552  1.00  0.00    -0.744 OA
ENDBRANCH  67  68
ENDBRANCH  46  60
BRANCH  47  72
ATOM     72  C   UNL A   1      43.692  25.311  26.158  1.00  0.00     0.058 A 
ATOM     73  C   UNL A   1      44.743  25.024  25.265  1.00  0.00     0.135 A 
ATOM     74  C   UNL A   1      42.924  24.202  26.573  1.00  0.00     0.135 A 
ATOM     75  F   UNL A   1      45.542  26.009  24.826  1.00  0.00    -0.206 F 
ATOM     76  C   UNL A   1      45.047  23.717  24.853  1.00  0.00     0.059 A 
ATOM     77  C   UNL A   1      43.201  22.895  26.169  1.00  0.00     0.059 A 
ATOM     78  F   UNL A   1      41.930  24.344  27.462  1.00  0.00    -0.206 F 
ATOM     79  C   UNL A   1      44.282  22.654  25.331  1.00  0.00     0.060 A 
BRANCH  79  80
ATOM     80  S   UNL A   1      44.775  20.952  24.957  1.00  0.00     0.124 S 
ATOM     81  O   UNL A   1      43.771  20.179  25.682  1.00  0.00    -0.237 OA
ATOM     82  O   UNL A   1      44.679  20.914  23.502  1.00  0.00    -0.237 OA
ATOM     83  O   UNL A   1      46.132  20.867  25.491  1.00  0.00    -0.744 OA
ENDBRANCH  79  80
ENDBRANCH  47  72
BRANCH  59  84
ATOM     84  C   UNL A   1      45.370  31.011  28.479  1.00  0.00     0.058 A 
ATOM     85  C   UNL A   1      44.418  31.519  27.576  1.00  0.00     0.135 A 
ATOM     86  C   UNL A   1      46.624  31.642  28.498  1.00  0.00     0.135 A 
ATOM     87  F   UNL A   1      43.162  31.053  27.560  1.00  0.00    -0.206 F 
ATOM     88  C   UNL A   1      44.710  32.577  26.711  1.00  0.00     0.059 A 
ATOM     89  C   UNL A   1      46.927  32.719  27.669  1.00  0.00     0.059 A 
ATOM     90  F   UNL A   1      47.561  31.249  29.377  1.00  0.00    -0.206 F 
ATOM     91  C   UNL A   1      45.968  33.174  26.767  1.00  0.00     0.060 A 
BRANCH  91  92
ATOM     92  S   UNL A   1      46.323  34.589  25.704  1.00  0.00     0.124 S 
ATOM     93  O   UNL A   1      47.744  34.412  25.423  1.00  0.00    -0.237 OA
ATOM     94  O   UNL A   1      45.422  34.374  24.577  1.00  0.00    -0.237 OA
ATOM     95  O   UNL A   1      45.993  35.740  26.542  1.00  0.00    -0.744 OA
ENDBRANCH  91  92
ENDBRANCH  59  84
ENDBRANCH  33  34
ENDBRANCH  25  28
ENDBRANCH  23  24
ENDBRANCH  22  23
ENDBRANCH   1  22
TORSDOF 18
ENDMDL
MODEL 2
REMARK VINA RESULT:     -11.9      2.868      9.750
REMARK SMILES CC[C@H]1CC(=O)N(CCn2cc(C(=O)NCCCCNC(=O)c3ccc(-c4c5nc(c(-c6c(F)cc(S(=O)(=O)[O-])cc6F)c6ccc([nH]6)c(-c6c(F)cc(S(=O)(=O)[O-])cc6F)c6nc(c(-c7c(F)cc(S(=O)(=O)[O-])cc7F)c7ccc4[nH]7)C=C6)C=C5)cc3)nn2)C1
REMARK SMILES IDX 17 1 16 2 15 3 13 4 14 5 12 7 10 8 11 9 90 10 89 11 9 12
REMARK SMILES IDX 8 13 7 14 3 15 4 16 91 17 5 18 6 19 2 20 1 21 18 22 19 23
REMARK SMILES IDX 20 24 21 25 22 27 23 28 24 29 88 30 25 31 87 32 26 33 27 34
REMARK SMILES IDX 28 35 81 36 29 37 86 38 80 39 82 40 30 41 85 42 79 43 78 44
REMARK SMILES IDX 31 46 65 47 44 48 64 49 45 50 48 51 63 52 83 53 46 54 47 55
REMARK SMILES IDX 62 57 84 58 49 59 32 60 33 61 42 62 34 63 35 64 41 65 43 66
REMARK SMILES IDX 36 67 37 68 38 69 39 70 40 71 66 72 67 73 76 74 68 75 69 76
REMARK SMILES IDX 75 77 77 78 70 79 71 80 72 81 73 82 74 83 50 84 51 85 60 86
REMARK SMILES IDX 52 87 53 88 59 89 61 90 54 91 55 92 56 93 57 94 58 95
REMARK H PARENT 15 6 20 26 82 45 48 56
REMARK Flexibility Score: inf
ROOT
ATOM      1  C   UNL A   1      35.602  21.652  24.557  1.00  0.00     0.023 C 
ENDROOT
BRANCH   1   2
ATOM      2  C   UNL A   1      34.959  21.004  25.787  1.00  0.00     0.116 C 
BRANCH   2   3
ATOM      3  N   UNL A   1      33.807  20.145  25.688  1.00  0.00    -0.351 N 
ATOM      4  C   UNL A   1      32.557  20.491  25.157  1.00  0.00     0.273 C 
ATOM      5  O   UNL A   1      31.797  19.567  24.871  1.00  0.00    -0.267 OA
ATOM      6  H   UNL A   1      33.907  19.226  26.025  1.00  0.00     0.163 HD
BRANCH   4   7
ATOM      7  C   UNL A   1      32.193  21.897  24.902  1.00  0.00     0.170 A 
ATOM      8  N   UNL A   1      31.493  23.779  24.062  1.00  0.00    -0.250 N 
ATOM      9  C   UNL A   1      32.164  22.633  23.728  1.00  0.00     0.145 A 
ATOM     10  N   UNL A   1      31.400  23.892  25.395  1.00  0.00    -0.067 NA
ATOM     11  N   UNL A   1      31.807  22.744  25.922  1.00  0.00    -0.125 NA
BRANCH   8  12
ATOM     12  C   UNL A   1      30.815  24.741  23.214  1.00  0.00     0.167 C 
BRANCH  12  13
ATOM     13  C   UNL A   1      31.653  25.934  22.722  1.00  0.00     0.143 C 
BRANCH  13  14
ATOM     14  N   UNL A   1      31.424  27.198  23.425  1.00  0.00    -0.341 N 
ATOM     15  C   UNL A   1      31.348  28.758  25.221  1.00  0.00     0.017 C 
ATOM     16  C   UNL A   1      30.609  29.323  24.006  1.00  0.00     0.105 C 
ATOM     17  C   UNL A   1      31.912  27.433  24.748  1.00  0.00     0.123 C 
ATOM     18  C   UNL A   1      30.571  28.200  22.996  1.00  0.00     0.222 C 
ATOM     19  O   UNL A   1      29.912  28.192  21.977  1.00  0.00    -0.275 OA
BRANCH  15  20
ATOM     20  C   UNL A   1      32.439  29.712  25.728  1.00  0.00     0.002 C 
ATOM     21  C   UNL A   1      31.903  30.885  26.528  1.00  0.00     0.004 C 
ENDBRANCH  15  20
ENDBRANCH  13  14
ENDBRANCH  12  13
ENDBRANCH   8  12
ENDBRANCH   4   7
ENDBRANCH   2   3
ENDBRANCH   1   2
BRANCH   1  22
ATOM     22  C   UNL A   1      37.116  21.852  24.444  1.00  0.00     0.023 C 
BRANCH  22  23
ATOM     23  C   UNL A   1      37.867  22.626  25.545  1.00  0.00     0.116 C 
BRANCH  23  24
ATOM     24  N   UNL A   1      38.788  21.843  26.386  1.00  0.00    -0.352 N 
ATOM     25  C   UNL A   1      39.963  22.296  26.993  1.00  0.00     0.251 C 
ATOM     26  H   UNL A   1      38.551  20.900  26.537  1.00  0.00     0.163 HD
ATOM     27  O   UNL A   1      40.829  21.512  27.363  1.00  0.00    -0.269 OA
BRANCH  25  28
ATOM     28  C   UNL A   1      40.105  23.745  27.257  1.00  0.00     0.039 A 
ATOM     29  C   UNL A   1      39.100  24.702  27.114  1.00  0.00     0.014 A 
ATOM     30  C   UNL A   1      41.353  24.124  27.715  1.00  0.00     0.014 A 
ATOM     31  C   UNL A   1      39.338  26.008  27.574  1.00  0.00     0.010 A 
ATOM     32  C   UNL A   1      41.525  25.342  28.319  1.00  0.00     0.010 A 
ATOM     33  C   UNL A   1      40.548  26.315  28.220  1.00  0.00    -0.014 A 
BRANCH  33  34
ATOM     34  C   UNL A   1      40.766  27.556  28.972  1.00  0.00     0.031 A 
ATOM     35  C   UNL A   1      41.805  28.441  28.372  1.00  0.00     0.074 A 
ATOM     36  C   UNL A   1      39.936  28.040  29.929  1.00  0.00     0.049 A 
ATOM     37  N   UNL A   1      42.983  28.690  28.837  1.00  0.00    -0.248 NA
ATOM     38  C   UNL A   1      41.579  28.978  27.019  1.00  0.00     0.031 C 
ATOM     39  C   UNL A   1      38.655  27.503  30.407  1.00  0.00     0.029 A 
ATOM     40  N   UNL A   1      40.026  29.212  30.621  1.00  0.00    -0.354 N 
ATOM     41  C   UNL A   1      43.559  29.605  27.959  1.00  0.00     0.074 A 
ATOM     42  C   UNL A   1      42.748  29.574  26.770  1.00  0.00     0.031 C 
ATOM     43  C   UNL A   1      37.994  28.450  31.114  1.00  0.00     0.029 A 
ATOM     44  C   UNL A   1      38.864  29.598  31.287  1.00  0.00     0.049 A 
ATOM     45  H   UNL A   1      40.853  29.747  30.648  1.00  0.00     0.167 HD
ATOM     46  C   UNL A   1      44.516  30.479  28.380  1.00  0.00     0.037 A 
ATOM     47  C   UNL A   1      38.635  30.784  31.913  1.00  0.00     0.037 A 
ATOM     48  C   UNL A   1      45.023  30.100  29.679  1.00  0.00     0.049 A 
ATOM     49  C   UNL A   1      39.971  31.379  32.198  1.00  0.00     0.074 A 
ATOM     50  C   UNL A   1      45.604  28.953  30.191  1.00  0.00     0.029 A 
ATOM     51  N   UNL A   1      44.581  30.807  30.773  1.00  0.00    -0.354 N 
ATOM     52  N   UNL A   1      40.831  30.852  33.029  1.00  0.00    -0.248 NA
ATOM     53  C   UNL A   1      40.539  32.261  31.189  1.00  0.00     0.031 C 
ATOM     54  C   UNL A   1      45.006  28.787  31.475  1.00  0.00     0.029 A 
ATOM     55  C   UNL A   1      44.177  29.885  31.708  1.00  0.00     0.049 A 
ATOM     56  H   UNL A   1      44.558  31.787  30.868  1.00  0.00     0.167 HD
ATOM     57  C   UNL A   1      42.059  30.978  32.396  1.00  0.00     0.074 A 
ATOM     58  C   UNL A   1      41.825  31.913  31.295  1.00  0.00     0.031 C 
ATOM     59  C   UNL A   1      43.080  30.098  32.626  1.00  0.00     0.037 A 
BRANCH  46  60
ATOM     60  C   UNL A   1      44.744  31.862  27.813  1.00  0.00     0.058 A 
ATOM     61  C   UNL A   1      45.919  32.112  27.072  1.00  0.00     0.135 A 
ATOM     62  C   UNL A   1      44.014  33.009  28.196  1.00  0.00     0.135 A 
ATOM     63  F   UNL A   1      46.691  31.097  26.648  1.00  0.00    -0.206 F 
ATOM     64  C   UNL A   1      46.381  33.401  26.813  1.00  0.00     0.059 A 
ATOM     65  C   UNL A   1      44.428  34.303  27.900  1.00  0.00     0.059 A 
ATOM     66  F   UNL A   1      42.917  32.942  28.958  1.00  0.00    -0.206 F 
ATOM     67  C   UNL A   1      45.635  34.491  27.248  1.00  0.00     0.060 A 
BRANCH  67  68
ATOM     68  S   UNL A   1      46.283  36.154  27.011  1.00  0.00     0.124 S 
ATOM     69  O   UNL A   1      45.056  36.940  26.963  1.00  0.00    -0.237 OA
ATOM     70  O   UNL A   1      47.109  36.328  28.203  1.00  0.00    -0.237 OA
ATOM     71  O   UNL A   1      47.020  36.050  25.755  1.00  0.00    -0.744 OA
ENDBRANCH  67  68
ENDBRANCH  46  60
BRANCH  47  72
ATOM     72  C   UNL A   1      37.370  31.580  31.956  1.00  0.00     0.058 A 
ATOM     73  C   UNL A   1      36.807  32.013  33.174  1.00  0.00     0.135 A 
ATOM     74  C   UNL A   1      36.839  32.176  30.794  1.00  0.00     0.135 A 
ATOM     75  F   UNL A   1      37.257  31.517  34.337  1.00  0.00    -0.206 F 
ATOM     76  C   UNL A   1      35.821  33.009  33.237  1.00  0.00     0.059 A 
ATOM     77  C   UNL A   1      35.852  33.162  30.830  1.00  0.00     0.059 A 
ATOM     78  F   UNL A   1      37.330  31.883  29.580  1.00  0.00    -0.206 F 
ATOM     79  C   UNL A   1      35.365  33.596  32.057  1.00  0.00     0.060 A 
BRANCH  79  80
ATOM     80  S   UNL A   1      34.234  35.008  32.134  1.00  0.00     0.124 S 
ATOM     81  O   UNL A   1      35.014  35.981  32.891  1.00  0.00    -0.237 OA
ATOM     82  O   UNL A   1      34.027  35.316  30.722  1.00  0.00    -0.237 OA
ATOM     83  O   UNL A   1      33.067  34.470  32.827  1.00  0.00    -0.744 OA
ENDBRANCH  79  80
ENDBRANCH  47  72
BRANCH  59  84
ATOM     84  C   UNL A   1      42.970  29.123  33.774  1.00  0.00     0.058 A 
ATOM     85  C   UNL A   1      43.201  29.444  35.124  1.00  0.00     0.135 A 
ATOM     86  C   UNL A   1      42.425  27.857  33.508  1.00  0.00     0.135 A 
ATOM     87  F   UNL A   1      43.618  30.665  35.483  1.00  0.00    -0.206 F 
ATOM     88  C   UNL A   1      42.937  28.538  36.155  1.00  0.00     0.059 A 
ATOM     89  C   UNL A   1      42.123  26.951  34.521  1.00  0.00     0.059 A 
ATOM     90  F   UNL A   1      42.122  27.507  32.246  1.00  0.00    -0.206 F 
ATOM     91  C   UNL A   1      42.393  27.293  35.843  1.00  0.00     0.060 A 
BRANCH  91  92
ATOM     92  S   UNL A   1      41.981  26.150  37.178  1.00  0.00     0.124 S 
ATOM     93  O   UNL A   1      40.681  26.647  37.617  1.00  0.00    -0.237 OA
ATOM     94  O   UNL A   1      41.969  24.858  36.498  1.00  0.00    -0.237 OA
ATOM     95  O   UNL A   1      43.072  26.330  38.133  1.00  0.00    -0.744 OA
ENDBRANCH  91  92
ENDBRANCH  59  84
ENDBRANCH  33  34
ENDBRANCH  25  28
ENDBRANCH  23  24
ENDBRANCH  22  23
ENDBRANCH   1  22
TORSDOF 18
ENDMDL
MODEL 3
REMARK VINA RESULT:     -11.8      3.804      6.339
REMARK SMILES CC[C@H]1CC(=O)N(CCn2cc(C(=O)NCCCCNC(=O)c3ccc(-c4c5nc(c(-c6c(F)cc(S(=O)(=O)[O-])cc6F)c6ccc([nH]6)c(-c6c(F)cc(S(=O)(=O)[O-])cc6F)c6nc(c(-c7c(F)cc(S(=O)(=O)[O-])cc7F)c7ccc4[nH]7)C=C6)C=C5)cc3)nn2)C1
REMARK SMILES IDX 17 1 16 2 15 3 13 4 14 5 12 7 10 8 11 9 90 10 89 11 9 12
REMARK SMILES IDX 8 13 7 14 3 15 4 16 91 17 5 18 6 19 2 20 1 21 18 22 19 23
REMARK SMILES IDX 20 24 21 25 22 27 23 28 24 29 88 30 25 31 87 32 26 33 27 34
REMARK SMILES IDX 28 35 81 36 29 37 86 38 80 39 82 40 30 41 85 42 79 43 78 44
REMARK SMILES IDX 31 46 65 47 44 48 64 49 45 50 48 51 63 52 83 53 46 54 47 55
REMARK SMILES IDX 62 57 84 58 49 59 32 60 33 61 42 62 34 63 35 64 41 65 43 66
REMARK SMILES IDX 36 67 37 68 38 69 39 70 40 71 66 72 67 73 76 74 68 75 69 76
REMARK SMILES IDX 75 77 77 78 70 79 71 80 72 81 73 82 74 83 50 84 51 85 60 86
REMARK SMILES IDX 52 87 53 88 59 89 61 90 54 91 55 92 56 93 57 94 58 95
REMARK H PARENT 15 6 20 26 82 45 48 56
REMARK Flexibility Score: inf
ROOT
ATOM      1  C   UNL A   1      34.613  35.008  28.895  1.00  0.00     0.023 C 
ENDROOT
BRANCH   1   2
ATOM      2  C   UNL A   1      33.233  34.700  29.485  1.00  0.00     0.116 C 
BRANCH   2   3
ATOM      3  N   UNL A   1      32.567  35.602  30.391  1.00  0.00    -0.351 N 
ATOM      4  C   UNL A   1      32.949  35.884  31.709  1.00  0.00     0.273 C 
ATOM      5  O   UNL A   1      32.463  36.888  32.227  1.00  0.00    -0.267 OA
ATOM      6  H   UNL A   1      31.768  36.064  30.051  1.00  0.00     0.163 HD
BRANCH   4   7
ATOM      7  C   UNL A   1      33.931  35.046  32.422  1.00  0.00     0.170 A 
ATOM      8  N   UNL A   1      35.586  34.277  33.608  1.00  0.00    -0.250 N 
ATOM      9  C   UNL A   1      35.274  35.249  32.697  1.00  0.00     0.145 A 
ATOM     10  N   UNL A   1      34.616  33.352  33.652  1.00  0.00    -0.067 NA
ATOM     11  N   UNL A   1      33.591  33.815  32.946  1.00  0.00    -0.125 NA
BRANCH   8  12
ATOM     12  C   UNL A   1      36.688  34.201  34.549  1.00  0.00     0.167 C 
BRANCH  12  13
ATOM     13  C   UNL A   1      37.746  33.117  34.281  1.00  0.00     0.143 C 
BRANCH  13  14
ATOM     14  N   UNL A   1      38.327  33.120  32.937  1.00  0.00    -0.341 N 
ATOM     15  C   UNL A   1      39.177  33.980  30.887  1.00  0.00     0.017 C 
ATOM     16  C   UNL A   1      38.983  32.467  30.778  1.00  0.00     0.105 C 
ATOM     17  C   UNL A   1      38.815  34.314  32.320  1.00  0.00     0.123 C 
ATOM     18  C   UNL A   1      38.290  32.054  32.055  1.00  0.00     0.222 C 
ATOM     19  O   UNL A   1      37.798  30.964  32.268  1.00  0.00    -0.275 OA
BRANCH  15  20
ATOM     20  C   UNL A   1      40.607  34.407  30.529  1.00  0.00     0.002 C 
ATOM     21  C   UNL A   1      40.727  35.070  29.169  1.00  0.00     0.004 C 
ENDBRANCH  15  20
ENDBRANCH  13  14
ENDBRANCH  12  13
ENDBRANCH   8  12
ENDBRANCH   4   7
ENDBRANCH   2   3
ENDBRANCH   1   2
BRANCH   1  22
ATOM     22  C   UNL A   1      35.797  34.049  29.057  1.00  0.00     0.023 C 
BRANCH  22  23
ATOM     23  C   UNL A   1      35.590  32.698  29.769  1.00  0.00     0.116 C 
BRANCH  23  24
ATOM     24  N   UNL A   1      34.548  31.818  29.216  1.00  0.00    -0.352 N 
ATOM     25  C   UNL A   1      34.732  30.745  28.337  1.00  0.00     0.251 C 
ATOM     26  H   UNL A   1      33.622  32.003  29.494  1.00  0.00     0.163 HD
ATOM     27  O   UNL A   1      33.805  30.308  27.665  1.00  0.00    -0.269 OA
BRANCH  25  28
ATOM     28  C   UNL A   1      36.058  30.090  28.296  1.00  0.00     0.039 A 
ATOM     29  C   UNL A   1      36.983  30.186  27.256  1.00  0.00     0.014 A 
ATOM     30  C   UNL A   1      36.371  29.358  29.426  1.00  0.00     0.014 A 
ATOM     31  C   UNL A   1      38.270  29.652  27.442  1.00  0.00     0.010 A 
ATOM     32  C   UNL A   1      37.668  28.994  29.675  1.00  0.00     0.010 A 
ATOM     33  C   UNL A   1      38.623  29.090  28.680  1.00  0.00    -0.014 A 
BRANCH  33  34
ATOM     34  C   UNL A   1      40.006  28.770  29.052  1.00  0.00     0.031 A 
ATOM     35  C   UNL A   1      40.243  28.771  30.524  1.00  0.00     0.074 A 
ATOM     36  C   UNL A   1      40.928  28.226  28.220  1.00  0.00     0.049 A 
ATOM     37  N   UNL A   1      40.921  29.633  31.205  1.00  0.00    -0.248 NA
ATOM     38  C   UNL A   1      39.507  27.806  31.358  1.00  0.00     0.031 C 
ATOM     39  C   UNL A   1      40.781  27.799  26.821  1.00  0.00     0.029 A 
ATOM     40  N   UNL A   1      42.204  27.835  28.501  1.00  0.00    -0.354 N 
ATOM     41  C   UNL A   1      40.897  29.185  32.524  1.00  0.00     0.074 A 
ATOM     42  C   UNL A   1      39.851  28.199  32.587  1.00  0.00     0.031 C 
ATOM     43  C   UNL A   1      41.823  27.010  26.469  1.00  0.00     0.029 A 
ATOM     44  C   UNL A   1      42.794  27.007  27.547  1.00  0.00     0.049 A 
ATOM     45  H   UNL A   1      42.675  28.117  29.319  1.00  0.00     0.167 HD
ATOM     46  C   UNL A   1      41.901  29.498  33.392  1.00  0.00     0.037 A 
ATOM     47  C   UNL A   1      43.984  26.355  27.652  1.00  0.00     0.037 A 
ATOM     48  C   UNL A   1      42.733  30.552  32.858  1.00  0.00     0.049 A 
ATOM     49  C   UNL A   1      44.761  27.059  28.711  1.00  0.00     0.074 A 
ATOM     50  C   UNL A   1      42.492  31.837  32.407  1.00  0.00     0.029 A 
ATOM     51  N   UNL A   1      43.953  30.201  32.329  1.00  0.00    -0.354 N 
ATOM     52  N   UNL A   1      45.191  28.287  28.593  1.00  0.00    -0.248 NA
ATOM     53  C   UNL A   1      44.616  26.579  30.078  1.00  0.00     0.031 C 
ATOM     54  C   UNL A   1      43.291  31.966  31.233  1.00  0.00     0.029 A 
ATOM     55  C   UNL A   1      44.040  30.796  31.095  1.00  0.00     0.049 A 
ATOM     56  H   UNL A   1      44.635  29.631  32.754  1.00  0.00     0.167 HD
ATOM     57  C   UNL A   1      44.955  28.868  29.831  1.00  0.00     0.074 A 
ATOM     58  C   UNL A   1      44.660  27.748  30.725  1.00  0.00     0.031 C 
ATOM     59  C   UNL A   1      44.725  30.209  29.964  1.00  0.00     0.037 A 
BRANCH  46  60
ATOM     60  C   UNL A   1      42.360  28.631  34.543  1.00  0.00     0.058 A 
ATOM     61  C   UNL A   1      42.516  29.215  35.819  1.00  0.00     0.135 A 
ATOM     62  C   UNL A   1      42.918  27.342  34.394  1.00  0.00     0.135 A 
ATOM     63  F   UNL A   1      42.020  30.436  36.079  1.00  0.00    -0.206 F 
ATOM     64  C   UNL A   1      43.248  28.606  36.836  1.00  0.00     0.059 A 
ATOM     65  C   UNL A   1      43.605  26.693  35.414  1.00  0.00     0.059 A 
ATOM     66  F   UNL A   1      42.913  26.687  33.228  1.00  0.00    -0.206 F 
ATOM     67  C   UNL A   1      43.804  27.350  36.616  1.00  0.00     0.060 A 
BRANCH  67  68
ATOM     68  S   UNL A   1      44.841  26.610  37.888  1.00  0.00     0.124 S 
ATOM     69  O   UNL A   1      43.952  26.646  39.044  1.00  0.00    -0.237 OA
ATOM     70  O   UNL A   1      45.110  25.290  37.327  1.00  0.00    -0.237 OA
ATOM     71  O   UNL A   1      45.992  27.506  37.945  1.00  0.00    -0.744 OA
ENDBRANCH  67  68
ENDBRANCH  46  60
BRANCH  47  72
ATOM     72  C   UNL A   1      44.337  24.987  27.165  1.00  0.00     0.058 A 
ATOM     73  C   UNL A   1      43.594  23.850  27.542  1.00  0.00     0.135 A 
ATOM     74  C   UNL A   1      45.237  24.800  26.095  1.00  0.00     0.135 A 
ATOM     75  F   UNL A   1      42.699  23.931  28.538  1.00  0.00    -0.206 F 
ATOM     76  C   UNL A   1      43.698  22.624  26.867  1.00  0.00     0.059 A 
ATOM     77  C   UNL A   1      45.365  23.588  25.415  1.00  0.00     0.059 A 
ATOM     78  F   UNL A   1      45.961  25.821  25.614  1.00  0.00    -0.206 F 
ATOM     79  C   UNL A   1      44.572  22.510  25.786  1.00  0.00     0.060 A 
BRANCH  79  80
ATOM     80  S   UNL A   1      44.579  20.996  24.792  1.00  0.00     0.124 S 
ATOM     81  O   UNL A   1      43.379  20.315  25.267  1.00  0.00    -0.237 OA
ATOM     82  O   UNL A   1      44.518  21.519  23.431  1.00  0.00    -0.237 OA
ATOM     83  O   UNL A   1      45.842  20.359  25.155  1.00  0.00    -0.744 OA
ENDBRANCH  79  80
ENDBRANCH  47  72
BRANCH  59  84
ATOM     84  C   UNL A   1      44.983  31.122  28.790  1.00  0.00     0.058 A 
ATOM     85  C   UNL A   1      44.065  31.375  27.754  1.00  0.00     0.135 A 
ATOM     86  C   UNL A   1      46.140  31.917  28.820  1.00  0.00     0.135 A 
ATOM     87  F   UNL A   1      42.886  30.742  27.704  1.00  0.00    -0.206 F 
ATOM     88  C   UNL A   1      44.304  32.345  26.776  1.00  0.00     0.059 A 
ATOM     89  C   UNL A   1      46.382  32.911  27.875  1.00  0.00     0.059 A 
ATOM     90  F   UNL A   1      47.030  31.772  29.816  1.00  0.00    -0.206 F 
ATOM     91  C   UNL A   1      45.465  33.112  26.848  1.00  0.00     0.060 A 
BRANCH  91  92
ATOM     92  S   UNL A   1      45.739  34.416  25.629  1.00  0.00     0.124 S 
ATOM     93  O   UNL A   1      47.181  34.342  25.420  1.00  0.00    -0.237 OA
ATOM     94  O   UNL A   1      44.912  33.982  24.507  1.00  0.00    -0.237 OA
ATOM     95  O   UNL A   1      45.269  35.622  26.307  1.00  0.00    -0.744 OA
ENDBRANCH  91  92
ENDBRANCH  59  84
ENDBRANCH  33  34
ENDBRANCH  25  28
ENDBRANCH  23  24
ENDBRANCH  22  23
ENDBRANCH   1  22
TORSDOF 18
ENDMDL
