MODEL 1
REMARK VINA RESULT:     -11.9      0.000      0.000
REMARK SMILES COc1ccccc1[C@@H]1CN(C(=O)Cc2csc(C)n2)C[C@H]1C(=O)NCCCCNC(=O)c1ccc(-c2c3nc(c(-c4c(F)cc(S(=O)(=O)[O-])cc4F)c4ccc([nH]4)c(-c4c(F)cc(S(=O)(=O)[O-])cc4F)c4nc(c(-c5c(F)cc(S(=O)(=O)[O-])cc5F)c5ccc2[nH]5)C=C4)C=C3)cc1
REMARK SMILES IDX 27 1 26 2 25 3 23 4 24 5 22 7 9 8 10 9 11 10 21 11 8 12 3 13
REMARK SMILES IDX 4 14 5 15 7 16 6 17 2 18 1 19 12 20 13 21 14 22 15 23 16 24
REMARK SMILES IDX 20 25 17 26 18 27 19 28 28 29 29 30 30 31 31 32 32 34 33 35
REMARK SMILES IDX 34 36 98 37 35 38 97 39 36 40 37 41 38 42 91 43 39 44 96 45
REMARK SMILES IDX 90 46 92 47 40 48 95 49 89 50 88 51 41 53 75 54 54 55 74 56
REMARK SMILES IDX 55 57 58 58 73 59 93 60 56 61 57 62 72 64 94 65 59 66 42 67
REMARK SMILES IDX 43 68 52 69 44 70 45 71 51 72 53 73 46 74 47 75 48 76 49 77
REMARK SMILES IDX 50 78 76 79 77 80 86 81 78 82 79 83 85 84 87 85 80 86 81 87
REMARK SMILES IDX 82 88 83 89 84 90 60 91 61 92 70 93 62 94 63 95 69 96 71 97
REMARK SMILES IDX 64 98 65 99 66 100 67 101 68 102
REMARK H PARENT 25 6 30 33 92 52 58 63
REMARK Flexibility Score: inf
ROOT
ATOM      1  C   UNL A   1      39.220  22.287  26.199  1.00  0.00     0.023 C 
ENDROOT
BRANCH   1   2
ATOM      2  C   UNL A   1      37.846  22.873  25.883  1.00  0.00     0.116 C 
BRANCH   2   3
ATOM      3  N   UNL A   1      37.656  23.036  24.456  1.00  0.00    -0.356 N 
ATOM      4  C   UNL A   1      36.523  23.121  23.713  1.00  0.00     0.225 C 
ATOM      5  O   UNL A   1      36.652  23.224  22.490  1.00  0.00    -0.275 OA
ATOM      6  H   UNL A   1      38.490  23.098  23.937  1.00  0.00     0.163 HD
BRANCH   4   7
ATOM      7  C   UNL A   1      35.139  23.097  24.332  1.00  0.00     0.107 C 
ATOM      8  C   UNL A   1      34.067  23.842  23.518  1.00  0.00     0.057 C 
ATOM      9  C   UNL A   1      32.812  22.989  23.638  1.00  0.00     0.128 C 
ATOM     10  N   UNL A   1      33.281  21.652  23.929  1.00  0.00    -0.341 N 
ATOM     11  C   UNL A   1      34.608  21.675  24.529  1.00  0.00     0.133 C 
BRANCH   8  12
ATOM     12  C   UNL A   1      33.863  25.312  23.815  1.00  0.00    -0.000 A 
ATOM     13  C   UNL A   1      33.614  26.310  22.859  1.00  0.00     0.122 A 
ATOM     14  C   UNL A   1      33.490  27.651  23.246  1.00  0.00     0.047 A 
ATOM     15  C   UNL A   1      33.635  28.022  24.583  1.00  0.00     0.004 A 
ATOM     16  C   UNL A   1      34.008  25.715  25.161  1.00  0.00     0.008 A 
ATOM     17  C   UNL A   1      33.912  27.054  25.539  1.00  0.00     0.001 A 
BRANCH  13  18
ATOM     18  O   UNL A   1      33.713  26.095  21.510  1.00  0.00    -0.496 OA
ATOM     19  C   UNL A   1      32.467  25.915  20.848  1.00  0.00     0.278 C 
ENDBRANCH  13  18
ENDBRANCH   8  12
BRANCH  10  20
ATOM     20  C   UNL A   1      32.570  20.476  23.792  1.00  0.00     0.228 C 
ATOM     21  O   UNL A   1      32.040  20.183  22.716  1.00  0.00    -0.274 OA
BRANCH  20  22
ATOM     22  C   UNL A   1      32.348  19.617  25.030  1.00  0.00     0.157 C 
BRANCH  22  23
ATOM     23  C   UNL A   1      32.949  18.250  24.940  1.00  0.00     0.061 A 
ATOM     24  C   UNL A   1      34.233  17.934  24.533  1.00  0.00     0.091 A 
ATOM     25  N   UNL A   1      32.209  17.159  25.371  1.00  0.00    -0.246 NA
ATOM     26  S   UNL A   1      34.488  16.244  24.601  1.00  0.00    -0.127 S 
ATOM     27  C   UNL A   1      32.913  16.054  25.257  1.00  0.00     0.090 A 
ATOM     28  C   UNL A   1      32.436  14.705  25.660  1.00  0.00     0.079 C 
ENDBRANCH  22  23
ENDBRANCH  20  22
ENDBRANCH  10  20
ENDBRANCH   4   7
ENDBRANCH   2   3
ENDBRANCH   1   2
BRANCH   1  29
ATOM     29  C   UNL A   1      39.356  20.805  25.863  1.00  0.00     0.023 C 
BRANCH  29  30
ATOM     30  C   UNL A   1      40.172  20.006  26.868  1.00  0.00     0.116 C 
BRANCH  30  31
ATOM     31  N   UNL A   1      41.207  19.206  26.231  1.00  0.00    -0.352 N 
ATOM     32  C   UNL A   1      42.454  19.594  25.809  1.00  0.00     0.251 C 
ATOM     33  H   UNL A   1      40.983  18.258  26.084  1.00  0.00     0.163 HD
ATOM     34  O   UNL A   1      43.139  18.834  25.138  1.00  0.00    -0.269 OA
BRANCH  32  35
ATOM     35  C   UNL A   1      42.937  20.946  26.155  1.00  0.00     0.039 A 
ATOM     36  C   UNL A   1      43.120  21.876  25.134  1.00  0.00     0.014 A 
ATOM     37  C   UNL A   1      43.187  21.291  27.487  1.00  0.00     0.014 A 
ATOM     38  C   UNL A   1      43.526  23.170  25.456  1.00  0.00     0.010 A 
ATOM     39  C   UNL A   1      43.490  22.606  27.812  1.00  0.00     0.010 A 
ATOM     40  C   UNL A   1      43.696  23.551  26.799  1.00  0.00    -0.014 A 
BRANCH  40  41
ATOM     41  C   UNL A   1      44.143  24.921  27.147  1.00  0.00     0.031 A 
ATOM     42  C   UNL A   1      45.586  25.309  26.961  1.00  0.00     0.074 A 
ATOM     43  C   UNL A   1      43.256  25.803  27.647  1.00  0.00     0.049 A 
ATOM     44  N   UNL A   1      46.163  26.465  27.167  1.00  0.00    -0.248 NA
ATOM     45  C   UNL A   1      46.510  24.253  26.512  1.00  0.00     0.031 C 
ATOM     46  C   UNL A   1      41.845  25.523  27.923  1.00  0.00     0.029 A 
ATOM     47  N   UNL A   1      43.408  27.120  27.998  1.00  0.00    -0.354 N 
ATOM     48  C   UNL A   1      47.511  26.269  26.889  1.00  0.00     0.074 A 
ATOM     49  C   UNL A   1      47.679  24.870  26.568  1.00  0.00     0.031 C 
ATOM     50  C   UNL A   1      41.249  26.648  28.348  1.00  0.00     0.029 A 
ATOM     51  C   UNL A   1      42.239  27.718  28.408  1.00  0.00     0.049 A 
ATOM     52  H   UNL A   1      44.270  27.592  27.961  1.00  0.00     0.167 HD
ATOM     53  C   UNL A   1      48.514  27.179  26.872  1.00  0.00     0.037 A 
ATOM     54  C   UNL A   1      41.994  28.991  28.771  1.00  0.00     0.037 A 
ATOM     55  C   UNL A   1      48.328  28.575  27.169  1.00  0.00     0.049 A 
ATOM     56  C   UNL A   1      43.121  29.988  28.736  1.00  0.00     0.074 A 
ATOM     57  C   UNL A   1      49.259  29.597  27.119  1.00  0.00     0.029 A 
ATOM     58  N   UNL A   1      47.131  29.143  27.580  1.00  0.00    -0.354 N 
ATOM     59  N   UNL A   1      44.375  29.806  28.392  1.00  0.00    -0.248 NA
ATOM     60  C   UNL A   1      42.795  31.365  29.124  1.00  0.00     0.031 C 
ATOM     61  C   UNL A   1      48.638  30.773  27.555  1.00  0.00     0.029 A 
ATOM     62  C   UNL A   1      47.305  30.498  27.813  1.00  0.00     0.049 A 
ATOM     63  H   UNL A   1      46.283  28.656  27.690  1.00  0.00     0.167 HD
ATOM     64  C   UNL A   1      44.978  31.057  28.482  1.00  0.00     0.074 A 
ATOM     65  C   UNL A   1      43.948  31.983  28.906  1.00  0.00     0.031 C 
ATOM     66  C   UNL A   1      46.265  31.407  28.230  1.00  0.00     0.037 A 
BRANCH  53  67
ATOM     67  C   UNL A   1      49.896  26.685  26.534  1.00  0.00     0.058 A 
ATOM     68  C   UNL A   1      50.772  26.187  27.515  1.00  0.00     0.135 A 
ATOM     69  C   UNL A   1      50.353  26.708  25.207  1.00  0.00     0.135 A 
ATOM     70  F   UNL A   1      50.396  26.155  28.803  1.00  0.00    -0.206 F 
ATOM     71  C   UNL A   1      52.062  25.776  27.200  1.00  0.00     0.059 A 
ATOM     72  C   UNL A   1      51.629  26.268  24.863  1.00  0.00     0.059 A 
ATOM     73  F   UNL A   1      49.562  27.171  24.226  1.00  0.00    -0.206 F 
ATOM     74  C   UNL A   1      52.483  25.824  25.869  1.00  0.00     0.060 A 
BRANCH  74  75
ATOM     75  S   UNL A   1      54.167  25.303  25.479  1.00  0.00     0.124 S 
ATOM     76  O   UNL A   1      53.929  24.312  24.435  1.00  0.00    -0.237 OA
ATOM     77  O   UNL A   1      54.786  26.550  25.041  1.00  0.00    -0.237 OA
ATOM     78  O   UNL A   1      54.661  24.773  26.746  1.00  0.00    -0.744 OA
ENDBRANCH  74  75
ENDBRANCH  53  67
BRANCH  54  79
ATOM     79  C   UNL A   1      40.613  29.408  29.136  1.00  0.00     0.058 A 
ATOM     80  C   UNL A   1      40.265  29.650  30.474  1.00  0.00     0.135 A 
ATOM     81  C   UNL A   1      39.621  29.591  28.162  1.00  0.00     0.135 A 
ATOM     82  F   UNL A   1      41.178  29.487  31.444  1.00  0.00    -0.206 F 
ATOM     83  C   UNL A   1      38.980  30.041  30.836  1.00  0.00     0.059 A 
ATOM     84  C   UNL A   1      38.336  30.008  28.495  1.00  0.00     0.059 A 
ATOM     85  F   UNL A   1      39.906  29.391  26.866  1.00  0.00    -0.206 F 
ATOM     86  C   UNL A   1      38.022  30.222  29.837  1.00  0.00     0.060 A 
BRANCH  86  87
ATOM     87  S   UNL A   1      36.372  30.780  30.314  1.00  0.00     0.124 S 
ATOM     88  O   UNL A   1      35.639  30.637  29.062  1.00  0.00    -0.237 OA
ATOM     89  O   UNL A   1      36.025  29.835  31.370  1.00  0.00    -0.237 OA
ATOM     90  O   UNL A   1      36.599  32.152  30.761  1.00  0.00    -0.744 OA
ENDBRANCH  86  87
ENDBRANCH  54  79
BRANCH  66  91
ATOM     91  C   UNL A   1      46.617  32.866  28.352  1.00  0.00     0.058 A 
ATOM     92  C   UNL A   1      47.128  33.415  29.539  1.00  0.00     0.135 A 
ATOM     93  C   UNL A   1      46.457  33.724  27.251  1.00  0.00     0.135 A 
ATOM     94  F   UNL A   1      47.300  32.641  30.623  1.00  0.00    -0.206 F 
ATOM     95  C   UNL A   1      47.423  34.770  29.644  1.00  0.00     0.059 A 
ATOM     96  C   UNL A   1      46.779  35.075  27.323  1.00  0.00     0.059 A 
ATOM     97  F   UNL A   1      45.988  33.250  26.086  1.00  0.00    -0.206 F 
ATOM     98  C   UNL A   1      47.240  35.593  28.531  1.00  0.00     0.060 A 
BRANCH  98  99
ATOM     99  S   UNL A   1      47.623  37.350  28.680  1.00  0.00     0.124 S 
ATOM    100  O   UNL A   1      46.814  37.728  29.834  1.00  0.00    -0.237 OA
ATOM    101  O   UNL A   1      49.067  37.339  28.893  1.00  0.00    -0.237 OA
ATOM    102  O   UNL A   1      47.188  37.903  27.400  1.00  0.00    -0.744 OA
ENDBRANCH  98  99
ENDBRANCH  66  91
ENDBRANCH  40  41
ENDBRANCH  32  35
ENDBRANCH  30  31
ENDBRANCH  29  30
ENDBRANCH   1  29
TORSDOF 19
ENDMDL
MODEL 2
REMARK VINA RESULT:     -11.9      6.364      9.177
REMARK SMILES COc1ccccc1[C@@H]1CN(C(=O)Cc2csc(C)n2)C[C@H]1C(=O)NCCCCNC(=O)c1ccc(-c2c3nc(c(-c4c(F)cc(S(=O)(=O)[O-])cc4F)c4ccc([nH]4)c(-c4c(F)cc(S(=O)(=O)[O-])cc4F)c4nc(c(-c5c(F)cc(S(=O)(=O)[O-])cc5F)c5ccc2[nH]5)C=C4)C=C3)cc1
REMARK SMILES IDX 27 1 26 2 25 3 23 4 24 5 22 7 9 8 10 9 11 10 21 11 8 12 3 13
REMARK SMILES IDX 4 14 5 15 7 16 6 17 2 18 1 19 12 20 13 21 14 22 15 23 16 24
REMARK SMILES IDX 20 25 17 26 18 27 19 28 28 29 29 30 30 31 31 32 32 34 33 35
REMARK SMILES IDX 34 36 98 37 35 38 97 39 36 40 37 41 38 42 91 43 39 44 96 45
REMARK SMILES IDX 90 46 92 47 40 48 95 49 89 50 88 51 41 53 75 54 54 55 74 56
REMARK SMILES IDX 55 57 58 58 73 59 93 60 56 61 57 62 72 64 94 65 59 66 42 67
REMARK SMILES IDX 43 68 52 69 44 70 45 71 51 72 53 73 46 74 47 75 48 76 49 77
REMARK SMILES IDX 50 78 76 79 77 80 86 81 78 82 79 83 85 84 87 85 80 86 81 87
REMARK SMILES IDX 82 88 83 89 84 90 60 91 61 92 70 93 62 94 63 95 69 96 71 97
REMARK SMILES IDX 64 98 65 99 66 100 67 101 68 102
REMARK H PARENT 25 6 30 33 92 52 58 63
REMARK Flexibility Score: inf
ROOT
ATOM      1  C   UNL A   1      38.158  23.388  26.098  1.00  0.00     0.023 C 
ENDROOT
BRANCH   1   2
ATOM      2  C   UNL A   1      37.091  22.543  25.407  1.00  0.00     0.116 C 
BRANCH   2   3
ATOM      3  N   UNL A   1      36.164  21.975  26.366  1.00  0.00    -0.356 N 
ATOM      4  C   UNL A   1      34.810  22.029  26.435  1.00  0.00     0.225 C 
ATOM      5  O   UNL A   1      34.266  21.476  27.395  1.00  0.00    -0.275 OA
ATOM      6  H   UNL A   1      36.590  21.460  27.090  1.00  0.00     0.163 HD
BRANCH   4   7
ATOM      7  C   UNL A   1      33.968  22.730  25.386  1.00  0.00     0.107 C 
ATOM      8  C   UNL A   1      32.557  22.143  25.207  1.00  0.00     0.057 C 
ATOM      9  C   UNL A   1      31.650  23.346  24.994  1.00  0.00     0.128 C 
ATOM     10  N   UNL A   1      32.338  24.462  25.604  1.00  0.00    -0.341 N 
ATOM     11  C   UNL A   1      33.771  24.218  25.689  1.00  0.00     0.133 C 
BRANCH   8  12
ATOM     12  C   UNL A   1      32.388  21.034  24.191  1.00  0.00    -0.000 A 
ATOM     13  C   UNL A   1      32.490  19.659  24.460  1.00  0.00     0.122 A 
ATOM     14  C   UNL A   1      32.362  18.721  23.426  1.00  0.00     0.047 A 
ATOM     15  C   UNL A   1      32.156  19.136  22.111  1.00  0.00     0.004 A 
ATOM     16  C   UNL A   1      32.181  21.427  22.850  1.00  0.00     0.008 A 
ATOM     17  C   UNL A   1      32.083  20.492  21.820  1.00  0.00     0.001 A 
BRANCH  13  18
ATOM     18  O   UNL A   1      32.945  19.162  25.652  1.00  0.00    -0.496 OA
ATOM     19  C   UNL A   1      32.737  17.765  25.827  1.00  0.00     0.278 C 
ENDBRANCH  13  18
ENDBRANCH   8  12
BRANCH  10  20
ATOM     20  C   UNL A   1      31.788  25.674  25.971  1.00  0.00     0.228 C 
ATOM     21  O   UNL A   1      31.047  25.756  26.955  1.00  0.00    -0.274 OA
BRANCH  20  22
ATOM     22  C   UNL A   1      32.015  26.875  25.063  1.00  0.00     0.157 C 
BRANCH  22  23
ATOM     23  C   UNL A   1      32.532  28.087  25.771  1.00  0.00     0.061 A 
ATOM     24  C   UNL A   1      31.841  29.260  26.020  1.00  0.00     0.091 A 
ATOM     25  N   UNL A   1      33.804  28.053  26.323  1.00  0.00    -0.246 NA
ATOM     26  S   UNL A   1      32.826  30.369  26.874  1.00  0.00    -0.127 S 
ATOM     27  C   UNL A   1      34.066  29.185  26.939  1.00  0.00     0.090 A 
ATOM     28  C   UNL A   1      35.329  29.475  27.669  1.00  0.00     0.079 C 
ENDBRANCH  22  23
ENDBRANCH  20  22
ENDBRANCH  10  20
ENDBRANCH   4   7
ENDBRANCH   2   3
ENDBRANCH   1   2
BRANCH   1  29
ATOM     29  C   UNL A   1      39.348  22.585  26.616  1.00  0.00     0.023 C 
BRANCH  29  30
ATOM     30  C   UNL A   1      40.496  23.434  27.141  1.00  0.00     0.116 C 
BRANCH  30  31
ATOM     31  N   UNL A   1      41.163  24.179  26.085  1.00  0.00    -0.352 N 
ATOM     32  C   UNL A   1      41.464  25.518  26.038  1.00  0.00     0.251 C 
ATOM     33  H   UNL A   1      41.437  23.654  25.299  1.00  0.00     0.163 HD
ATOM     34  O   UNL A   1      41.877  26.018  25.001  1.00  0.00    -0.269 OA
BRANCH  32  35
ATOM     35  C   UNL A   1      41.255  26.340  27.246  1.00  0.00     0.039 A 
ATOM     36  C   UNL A   1      42.095  27.429  27.472  1.00  0.00     0.014 A 
ATOM     37  C   UNL A   1      40.218  26.044  28.136  1.00  0.00     0.014 A 
ATOM     38  C   UNL A   1      41.874  28.243  28.581  1.00  0.00     0.010 A 
ATOM     39  C   UNL A   1      39.937  26.914  29.180  1.00  0.00     0.010 A 
ATOM     40  C   UNL A   1      40.782  28.003  29.434  1.00  0.00    -0.014 A 
BRANCH  40  41
ATOM     41  C   UNL A   1      40.549  28.855  30.625  1.00  0.00     0.031 A 
ATOM     42  C   UNL A   1      41.418  28.693  31.844  1.00  0.00     0.074 A 
ATOM     43  C   UNL A   1      39.548  29.757  30.614  1.00  0.00     0.049 A 
ATOM     44  N   UNL A   1      41.401  29.366  32.966  1.00  0.00    -0.248 NA
ATOM     45  C   UNL A   1      42.418  27.611  31.814  1.00  0.00     0.031 C 
ATOM     46  C   UNL A   1      38.607  29.964  29.510  1.00  0.00     0.029 A 
ATOM     47  N   UNL A   1      39.164  30.677  31.555  1.00  0.00    -0.354 N 
ATOM     48  C   UNL A   1      42.371  28.782  33.772  1.00  0.00     0.074 A 
ATOM     49  C   UNL A   1      42.909  27.658  33.041  1.00  0.00     0.031 C 
ATOM     50  C   UNL A   1      37.791  30.985  29.815  1.00  0.00     0.029 A 
ATOM     51  C   UNL A   1      38.126  31.482  31.146  1.00  0.00     0.049 A 
ATOM     52  H   UNL A   1      39.590  30.755  32.438  1.00  0.00     0.167 HD
ATOM     53  C   UNL A   1      42.798  29.166  34.999  1.00  0.00     0.037 A 
ATOM     54  C   UNL A   1      37.528  32.514  31.770  1.00  0.00     0.037 A 
ATOM     55  C   UNL A   1      42.271  30.305  35.705  1.00  0.00     0.049 A 
ATOM     56  C   UNL A   1      38.025  32.931  33.127  1.00  0.00     0.074 A 
ATOM     57  C   UNL A   1      42.674  30.825  36.922  1.00  0.00     0.029 A 
ATOM     58  N   UNL A   1      41.222  31.095  35.259  1.00  0.00    -0.354 N 
ATOM     59  N   UNL A   1      38.999  32.420  33.844  1.00  0.00    -0.248 NA
ATOM     60  C   UNL A   1      37.351  34.074  33.754  1.00  0.00     0.031 C 
ATOM     61  C   UNL A   1      41.830  31.894  37.239  1.00  0.00     0.029 A 
ATOM     62  C   UNL A   1      40.944  32.083  36.190  1.00  0.00     0.049 A 
ATOM     63  H   UNL A   1      40.744  30.972  34.408  1.00  0.00     0.167 HD
ATOM     64  C   UNL A   1      39.082  33.206  34.989  1.00  0.00     0.074 A 
ATOM     65  C   UNL A   1      38.064  34.229  34.862  1.00  0.00     0.031 C 
ATOM     66  C   UNL A   1      39.928  33.098  36.045  1.00  0.00     0.037 A 
BRANCH  53  67
ATOM     67  C   UNL A   1      43.875  28.341  35.651  1.00  0.00     0.058 A 
ATOM     68  C   UNL A   1      43.578  27.314  36.564  1.00  0.00     0.135 A 
ATOM     69  C   UNL A   1      45.228  28.578  35.358  1.00  0.00     0.135 A 
ATOM     70  F   UNL A   1      42.304  27.050  36.895  1.00  0.00    -0.206 F 
ATOM     71  C   UNL A   1      44.581  26.587  37.196  1.00  0.00     0.059 A 
ATOM     72  C   UNL A   1      46.247  27.839  35.952  1.00  0.00     0.059 A 
ATOM     73  F   UNL A   1      45.573  29.545  34.494  1.00  0.00    -0.206 F 
ATOM     74  C   UNL A   1      45.915  26.860  36.886  1.00  0.00     0.060 A 
BRANCH  74  75
ATOM     75  S   UNL A   1      47.205  25.920  37.727  1.00  0.00     0.124 S 
ATOM     76  O   UNL A   1      47.413  26.722  38.928  1.00  0.00    -0.237 OA
ATOM     77  O   UNL A   1      46.566  24.625  37.931  1.00  0.00    -0.237 OA
ATOM     78  O   UNL A   1      48.309  25.927  36.772  1.00  0.00    -0.744 OA
ENDBRANCH  74  75
ENDBRANCH  53  67
BRANCH  54  79
ATOM     79  C   UNL A   1      36.440  33.265  31.088  1.00  0.00     0.058 A 
ATOM     80  C   UNL A   1      36.717  34.098  29.993  1.00  0.00     0.135 A 
ATOM     81  C   UNL A   1      35.103  33.155  31.501  1.00  0.00     0.135 A 
ATOM     82  F   UNL A   1      37.980  34.239  29.562  1.00  0.00    -0.206 F 
ATOM     83  C   UNL A   1      35.714  34.808  29.342  1.00  0.00     0.059 A 
ATOM     84  C   UNL A   1      34.078  33.834  30.849  1.00  0.00     0.059 A 
ATOM     85  F   UNL A   1      34.781  32.358  32.531  1.00  0.00    -0.206 F 
ATOM     86  C   UNL A   1      34.395  34.666  29.775  1.00  0.00     0.060 A 
BRANCH  86  87
ATOM     87  S   UNL A   1      33.095  35.552  28.890  1.00  0.00     0.124 S 
ATOM     88  O   UNL A   1      32.308  36.098  29.989  1.00  0.00    -0.237 OA
ATOM     89  O   UNL A   1      33.861  36.519  28.111  1.00  0.00    -0.237 OA
ATOM     90  O   UNL A   1      32.446  34.502  28.108  1.00  0.00    -0.744 OA
ENDBRANCH  86  87
ENDBRANCH  54  79
BRANCH  66  91
ATOM     91  C   UNL A   1      39.824  34.145  37.120  1.00  0.00     0.058 A 
ATOM     92  C   UNL A   1      40.462  35.391  37.015  1.00  0.00     0.135 A 
ATOM     93  C   UNL A   1      39.053  33.901  38.269  1.00  0.00     0.135 A 
ATOM     94  F   UNL A   1      41.213  35.678  35.940  1.00  0.00    -0.206 F 
ATOM     95  C   UNL A   1      40.379  36.338  38.030  1.00  0.00     0.059 A 
ATOM     96  C   UNL A   1      38.926  34.847  39.280  1.00  0.00     0.059 A 
ATOM     97  F   UNL A   1      38.408  32.732  38.416  1.00  0.00    -0.206 F 
ATOM     98  C   UNL A   1      39.611  36.054  39.161  1.00  0.00     0.060 A 
BRANCH  98  99
ATOM     99  S   UNL A   1      39.512  37.289  40.474  1.00  0.00     0.124 S 
ATOM    100  O   UNL A   1      40.923  37.576  40.712  1.00  0.00    -0.237 OA
ATOM    101  O   UNL A   1      38.745  38.357  39.841  1.00  0.00    -0.237 OA
ATOM    102  O   UNL A   1      38.824  36.585  41.552  1.00  0.00    -0.744 OA
ENDBRANCH  98  99
ENDBRANCH  66  91
ENDBRANCH  40  41
ENDBRANCH  32  35
ENDBRANCH  30  31
ENDBRANCH  29  30
ENDBRANCH   1  29
TORSDOF 19
ENDMDL
MODEL 3
REMARK VINA RESULT:     -11.5      6.285      8.966
REMARK SMILES COc1ccccc1[C@@H]1CN(C(=O)Cc2csc(C)n2)C[C@H]1C(=O)NCCCCNC(=O)c1ccc(-c2c3nc(c(-c4c(F)cc(S(=O)(=O)[O-])cc4F)c4ccc([nH]4)c(-c4c(F)cc(S(=O)(=O)[O-])cc4F)c4nc(c(-c5c(F)cc(S(=O)(=O)[O-])cc5F)c5ccc2[nH]5)C=C4)C=C3)cc1
REMARK SMILES IDX 27 1 26 2 25 3 23 4 24 5 22 7 9 8 10 9 11 10 21 11 8 12 3 13
REMARK SMILES IDX 4 14 5 15 7 16 6 17 2 18 1 19 12 20 13 21 14 22 15 23 16 24
REMARK SMILES IDX 20 25 17 26 18 27 19 28 28 29 29 30 30 31 31 32 32 34 33 35
REMARK SMILES IDX 34 36 98 37 35 38 97 39 36 40 37 41 38 42 91 43 39 44 96 45
REMARK SMILES IDX 90 46 92 47 40 48 95 49 89 50 88 51 41 53 75 54 54 55 74 56
REMARK SMILES IDX 55 57 58 58 73 59 93 60 56 61 57 62 72 64 94 65 59 66 42 67
REMARK SMILES IDX 43 68 52 69 44 70 45 71 51 72 53 73 46 74 47 75 48 76 49 77
REMARK SMILES IDX 50 78 76 79 77 80 86 81 78 82 79 83 85 84 87 85 80 86 81 87
REMARK SMILES IDX 82 88 83 89 84 90 60 91 61 92 70 93 62 94 63 95 69 96 71 97
REMARK SMILES IDX 64 98 65 99 66 100 67 101 68 102
REMARK H PARENT 25 6 30 33 92 52 58 63
REMARK Flexibility Score: inf
ROOT
ATOM      1  C   UNL A   1      37.761  23.801  26.198  1.00  0.00     0.023 C 
ENDROOT
BRANCH   1   2
ATOM      2  C   UNL A   1      36.584  23.173  25.456  1.00  0.00     0.116 C 
BRANCH   2   3
ATOM      3  N   UNL A   1      35.824  22.291  26.320  1.00  0.00    -0.356 N 
ATOM      4  C   UNL A   1      34.514  21.940  26.302  1.00  0.00     0.225 C 
ATOM      5  O   UNL A   1      34.115  21.185  27.193  1.00  0.00    -0.275 OA
ATOM      6  H   UNL A   1      36.349  21.875  27.041  1.00  0.00     0.163 HD
BRANCH   4   7
ATOM      7  C   UNL A   1      33.552  22.435  25.239  1.00  0.00     0.107 C 
ATOM      8  C   UNL A   1      32.257  21.613  25.122  1.00  0.00     0.057 C 
ATOM      9  C   UNL A   1      31.158  22.636  24.870  1.00  0.00     0.128 C 
ATOM     10  N   UNL A   1      31.659  23.881  25.408  1.00  0.00    -0.341 N 
ATOM     11  C   UNL A   1      33.114  23.883  25.472  1.00  0.00     0.133 C 
BRANCH   8  12
ATOM     12  C   UNL A   1      32.260  20.439  24.167  1.00  0.00    -0.000 A 
ATOM     13  C   UNL A   1      32.440  19.094  24.528  1.00  0.00     0.122 A 
ATOM     14  C   UNL A   1      32.474  18.092  23.549  1.00  0.00     0.047 A 
ATOM     15  C   UNL A   1      32.354  18.415  22.197  1.00  0.00     0.004 A 
ATOM     16  C   UNL A   1      32.143  20.738  22.791  1.00  0.00     0.008 A 
ATOM     17  C   UNL A   1      32.206  19.742  21.817  1.00  0.00     0.001 A 
BRANCH  13  18
ATOM     18  O   UNL A   1      32.825  18.702  25.783  1.00  0.00    -0.496 OA
ATOM     19  C   UNL A   1      32.778  17.297  26.003  1.00  0.00     0.278 C 
ENDBRANCH  13  18
ENDBRANCH   8  12
BRANCH  10  20
ATOM     20  C   UNL A   1      30.919  25.003  25.726  1.00  0.00     0.228 C 
ATOM     21  O   UNL A   1      30.605  25.238  26.896  1.00  0.00    -0.274 OA
BRANCH  20  22
ATOM     22  C   UNL A   1      30.396  25.870  24.589  1.00  0.00     0.157 C 
BRANCH  22  23
ATOM     23  C   UNL A   1      31.402  26.143  23.517  1.00  0.00     0.061 A 
ATOM     24  C   UNL A   1      31.551  25.456  22.324  1.00  0.00     0.091 A 
ATOM     25  N   UNL A   1      32.247  27.235  23.647  1.00  0.00    -0.246 NA
ATOM     26  S   UNL A   1      32.823  26.126  21.398  1.00  0.00    -0.127 S 
ATOM     27  C   UNL A   1      33.028  27.339  22.594  1.00  0.00     0.090 A 
ATOM     28  C   UNL A   1      34.030  28.417  22.391  1.00  0.00     0.079 C 
ENDBRANCH  22  23
ENDBRANCH  20  22
ENDBRANCH  10  20
ENDBRANCH   4   7
ENDBRANCH   2   3
ENDBRANCH   1   2
BRANCH   1  29
ATOM     29  C   UNL A   1      38.917  22.839  26.459  1.00  0.00     0.023 C 
BRANCH  29  30
ATOM     30  C   UNL A   1      40.152  23.492  27.060  1.00  0.00     0.116 C 
BRANCH  30  31
ATOM     31  N   UNL A   1      40.970  24.160  26.059  1.00  0.00    -0.352 N 
ATOM     32  C   UNL A   1      41.419  25.457  26.045  1.00  0.00     0.251 C 
ATOM     33  H   UNL A   1      41.237  23.609  25.288  1.00  0.00     0.163 HD
ATOM     34  O   UNL A   1      41.956  25.910  25.044  1.00  0.00    -0.269 OA
BRANCH  32  35
ATOM     35  C   UNL A   1      41.221  26.295  27.244  1.00  0.00     0.039 A 
ATOM     36  C   UNL A   1      42.029  27.417  27.421  1.00  0.00     0.014 A 
ATOM     37  C   UNL A   1      40.225  25.981  28.174  1.00  0.00     0.014 A 
ATOM     38  C   UNL A   1      41.814  28.244  28.523  1.00  0.00     0.010 A 
ATOM     39  C   UNL A   1      39.947  26.861  29.210  1.00  0.00     0.010 A 
ATOM     40  C   UNL A   1      40.760  27.983  29.416  1.00  0.00    -0.014 A 
BRANCH  40  41
ATOM     41  C   UNL A   1      40.536  28.850  30.597  1.00  0.00     0.031 A 
ATOM     42  C   UNL A   1      41.411  28.700  31.814  1.00  0.00     0.074 A 
ATOM     43  C   UNL A   1      39.538  29.754  30.581  1.00  0.00     0.049 A 
ATOM     44  N   UNL A   1      41.402  29.386  32.927  1.00  0.00    -0.248 NA
ATOM     45  C   UNL A   1      42.407  27.615  31.791  1.00  0.00     0.031 C 
ATOM     46  C   UNL A   1      38.592  29.951  29.480  1.00  0.00     0.029 A 
ATOM     47  N   UNL A   1      39.161  30.687  31.513  1.00  0.00    -0.354 N 
ATOM     48  C   UNL A   1      42.374  28.809  33.736  1.00  0.00     0.074 A 
ATOM     49  C   UNL A   1      42.905  27.674  33.015  1.00  0.00     0.031 C 
ATOM     50  C   UNL A   1      37.780  30.979  29.777  1.00  0.00     0.029 A 
ATOM     51  C   UNL A   1      38.124  31.490  31.100  1.00  0.00     0.049 A 
ATOM     52  H   UNL A   1      39.592  30.774  32.393  1.00  0.00     0.167 HD
ATOM     53  C   UNL A   1      42.809  29.206  34.955  1.00  0.00     0.037 A 
ATOM     54  C   UNL A   1      37.532  32.531  31.714  1.00  0.00     0.037 A 
ATOM     55  C   UNL A   1      42.289  30.355  35.651  1.00  0.00     0.049 A 
ATOM     56  C   UNL A   1      38.037  32.962  33.064  1.00  0.00     0.074 A 
ATOM     57  C   UNL A   1      42.699  30.888  36.859  1.00  0.00     0.029 A 
ATOM     58  N   UNL A   1      41.239  31.143  35.201  1.00  0.00    -0.354 N 
ATOM     59  N   UNL A   1      39.013  32.457  33.782  1.00  0.00    -0.248 NA
ATOM     60  C   UNL A   1      37.369  34.115  33.681  1.00  0.00     0.031 C 
ATOM     61  C   UNL A   1      41.860  31.963  37.168  1.00  0.00     0.029 A 
ATOM     62  C   UNL A   1      40.969  32.142  36.122  1.00  0.00     0.049 A 
ATOM     63  H   UNL A   1      40.757  31.011  34.354  1.00  0.00     0.167 HD
ATOM     64  C   UNL A   1      39.104  33.257  34.917  1.00  0.00     0.074 A 
ATOM     65  C   UNL A   1      38.088  34.281  34.783  1.00  0.00     0.031 C 
ATOM     66  C   UNL A   1      39.956  33.158  35.969  1.00  0.00     0.037 A 
BRANCH  53  67
ATOM     67  C   UNL A   1      43.886  28.385  35.611  1.00  0.00     0.058 A 
ATOM     68  C   UNL A   1      45.252  28.608  35.361  1.00  0.00     0.135 A 
ATOM     69  C   UNL A   1      43.550  27.358  36.507  1.00  0.00     0.135 A 
ATOM     70  F   UNL A   1      45.634  29.566  34.502  1.00  0.00    -0.206 F 
ATOM     71  C   UNL A   1      46.239  27.814  35.937  1.00  0.00     0.059 A 
ATOM     72  C   UNL A   1      44.522  26.574  37.123  1.00  0.00     0.059 A 
ATOM     73  F   UNL A   1      42.263  27.098  36.787  1.00  0.00    -0.206 F 
ATOM     74  C   UNL A   1      45.863  26.795  36.815  1.00  0.00     0.060 A 
BRANCH  74  75
ATOM     75  S   UNL A   1      47.153  25.763  37.540  1.00  0.00     0.124 S 
ATOM     76  O   UNL A   1      48.187  25.827  36.513  1.00  0.00    -0.237 OA
ATOM     77  O   UNL A   1      47.451  26.464  38.784  1.00  0.00    -0.237 OA
ATOM     78  O   UNL A   1      46.503  24.465  37.694  1.00  0.00    -0.744 OA
ENDBRANCH  74  75
ENDBRANCH  53  67
BRANCH  54  79
ATOM     79  C   UNL A   1      36.442  33.277  31.029  1.00  0.00     0.058 A 
ATOM     80  C   UNL A   1      35.113  33.170  31.467  1.00  0.00     0.135 A 
ATOM     81  C   UNL A   1      36.703  34.123  29.941  1.00  0.00     0.135 A 
ATOM     82  F   UNL A   1      34.811  32.371  32.502  1.00  0.00    -0.206 F 
ATOM     83  C   UNL A   1      34.079  33.859  30.841  1.00  0.00     0.059 A 
ATOM     84  C   UNL A   1      35.691  34.844  29.315  1.00  0.00     0.059 A 
ATOM     85  F   UNL A   1      37.959  34.276  29.495  1.00  0.00    -0.206 F 
ATOM     86  C   UNL A   1      34.379  34.698  29.768  1.00  0.00     0.060 A 
BRANCH  86  87
ATOM     87  S   UNL A   1      33.037  35.628  28.996  1.00  0.00     0.124 S 
ATOM     88  O   UNL A   1      33.770  36.652  28.262  1.00  0.00    -0.237 OA
ATOM     89  O   UNL A   1      32.384  34.605  28.187  1.00  0.00    -0.237 OA
ATOM     90  O   UNL A   1      32.260  36.103  30.138  1.00  0.00    -0.744 OA
ENDBRANCH  86  87
ENDBRANCH  54  79
BRANCH  66  91
ATOM     91  C   UNL A   1      39.860  34.219  37.033  1.00  0.00     0.058 A 
ATOM     92  C   UNL A   1      39.013  34.088  38.145  1.00  0.00     0.135 A 
ATOM     93  C   UNL A   1      40.649  35.378  36.944  1.00  0.00     0.135 A 
ATOM     94  F   UNL A   1      38.236  33.002  38.280  1.00  0.00    -0.206 F 
ATOM     95  C   UNL A   1      38.916  35.089  39.106  1.00  0.00     0.059 A 
ATOM     96  C   UNL A   1      40.595  36.376  37.912  1.00  0.00     0.059 A 
ATOM     97  F   UNL A   1      41.489  35.549  35.911  1.00  0.00    -0.206 F 
ATOM     98  C   UNL A   1      39.708  36.232  38.977  1.00  0.00     0.060 A 
BRANCH  98  99
ATOM     99  S   UNL A   1      39.572  37.526  40.227  1.00  0.00     0.124 S 
ATOM    100  O   UNL A   1      38.245  38.065  39.947  1.00  0.00    -0.237 OA
ATOM    101  O   UNL A   1      39.701  36.774  41.472  1.00  0.00    -0.237 OA
ATOM    102  O   UNL A   1      40.689  38.416  39.921  1.00  0.00    -0.744 OA
ENDBRANCH  98  99
ENDBRANCH  66  91
ENDBRANCH  40  41
ENDBRANCH  32  35
ENDBRANCH  30  31
ENDBRANCH  29  30
ENDBRANCH   1  29
TORSDOF 19
ENDMDL
