MODEL 1
REMARK VINA RESULT:     -11.9      0.000      0.000
REMARK SMILES COc1ccc2cc([C@H](C)C(=O)NCCCCNC(=O)c3ccc(-c4c5nc(c(-c6c(F)cc(S(=O)(=O)[O-])cc6F)c6ccc([nH]6)c(-c6c(F)cc(S(=O)(=O)[O-])cc6F)c6nc(c(-c7c(F)cc(S(=O)(=O)[O-])cc7F)c7ccc4[nH]7)C=C6)C=C5)cc3)ccc2c1
REMARK SMILES IDX 16 1 15 2 14 3 13 4 11 5 12 6 9 8 10 9 8 10 3 11 4 12 90 13
REMARK SMILES IDX 5 14 89 15 6 16 88 17 7 18 87 19 2 20 1 21 17 22 18 23 19 24
REMARK SMILES IDX 20 26 21 27 22 28 86 29 23 30 85 31 24 32 25 33 26 34 79 35
REMARK SMILES IDX 27 36 84 37 78 38 80 39 28 40 83 41 77 42 76 43 29 45 63 46
REMARK SMILES IDX 42 47 62 48 43 49 46 50 61 51 81 52 44 53 45 54 60 56 82 57
REMARK SMILES IDX 47 58 30 59 31 60 40 61 32 62 33 63 39 64 41 65 34 66 35 67
REMARK SMILES IDX 36 68 37 69 38 70 64 71 65 72 74 73 66 74 67 75 73 76 75 77
REMARK SMILES IDX 68 78 69 79 70 80 71 81 72 82 48 83 49 84 58 85 50 86 51 87
REMARK SMILES IDX 57 88 59 89 52 90 53 91 54 92 55 93 56 94
REMARK H PARENT 13 7 18 25 80 44 46 55
REMARK Flexibility Score: inf
ROOT
ATOM      1  C   UNL A   1      37.328  23.505  25.270  1.00  0.00     0.023 C 
ENDROOT
BRANCH   1   2
ATOM      2  C   UNL A   1      37.524  21.998  25.130  1.00  0.00     0.023 C 
BRANCH   2   3
ATOM      3  C   UNL A   1      36.246  21.179  25.248  1.00  0.00     0.116 C 
BRANCH   3   4
ATOM      4  N   UNL A   1      35.569  21.401  26.516  1.00  0.00    -0.356 N 
ATOM      5  C   UNL A   1      34.307  21.873  26.750  1.00  0.00     0.227 C 
ATOM      6  O   UNL A   1      33.906  21.914  27.916  1.00  0.00    -0.274 OA
ATOM      7  H   UNL A   1      36.094  21.182  27.319  1.00  0.00     0.163 HD
BRANCH   5   8
ATOM      8  C   UNL A   1      33.415  22.358  25.595  1.00  0.00     0.105 C 
ATOM      9  C   UNL A   1      32.346  21.290  25.332  1.00  0.00     0.023 C 
BRANCH   8  10
ATOM     10  C   UNL A   1      32.961  23.803  25.796  1.00  0.00    -0.035 A 
ATOM     11  C   UNL A   1      32.254  28.837  25.616  1.00  0.00     0.119 A 
ATOM     12  C   UNL A   1      33.618  28.632  25.428  1.00  0.00     0.047 A 
ATOM     13  C   UNL A   1      31.424  27.746  25.879  1.00  0.00     0.055 A 
ATOM     14  C   UNL A   1      34.144  27.335  25.460  1.00  0.00     0.012 A 
ATOM     15  C   UNL A   1      31.935  26.439  25.905  1.00  0.00    -0.015 A 
ATOM     16  C   UNL A   1      33.311  26.225  25.678  1.00  0.00    -0.018 A 
ATOM     17  C   UNL A   1      31.100  25.342  26.137  1.00  0.00     0.009 A 
ATOM     18  C   UNL A   1      33.811  24.910  25.645  1.00  0.00     0.013 A 
ATOM     19  C   UNL A   1      31.609  24.044  26.096  1.00  0.00     0.005 A 
BRANCH  11  20
ATOM     20  O   UNL A   1      31.629  30.054  25.603  1.00  0.00    -0.497 OA
ATOM     21  C   UNL A   1      31.865  30.879  26.739  1.00  0.00     0.278 C 
ENDBRANCH  11  20
ENDBRANCH   8  10
ENDBRANCH   5   8
ENDBRANCH   3   4
ENDBRANCH   2   3
ENDBRANCH   1   2
BRANCH   1  22
ATOM     22  C   UNL A   1      38.182  24.172  26.344  1.00  0.00     0.116 C 
BRANCH  22  23
ATOM     23  N   UNL A   1      39.596  23.836  26.238  1.00  0.00    -0.352 N 
ATOM     24  C   UNL A   1      40.686  24.497  26.752  1.00  0.00     0.251 C 
ATOM     25  H   UNL A   1      39.800  23.020  25.725  1.00  0.00     0.163 HD
ATOM     26  O   UNL A   1      41.823  24.152  26.441  1.00  0.00    -0.269 OA
BRANCH  24  27
ATOM     27  C   UNL A   1      40.479  25.650  27.654  1.00  0.00     0.039 A 
ATOM     28  C   UNL A   1      39.464  25.587  28.612  1.00  0.00     0.014 A 
ATOM     29  C   UNL A   1      41.314  26.768  27.581  1.00  0.00     0.014 A 
ATOM     30  C   UNL A   1      39.347  26.609  29.557  1.00  0.00     0.010 A 
ATOM     31  C   UNL A   1      41.241  27.748  28.567  1.00  0.00     0.010 A 
ATOM     32  C   UNL A   1      40.266  27.672  29.572  1.00  0.00    -0.014 A 
BRANCH  32  33
ATOM     33  C   UNL A   1      40.250  28.692  30.652  1.00  0.00     0.031 A 
ATOM     34  C   UNL A   1      41.148  28.543  31.849  1.00  0.00     0.074 A 
ATOM     35  C   UNL A   1      39.365  29.707  30.592  1.00  0.00     0.049 A 
ATOM     36  N   UNL A   1      41.214  29.281  32.927  1.00  0.00    -0.248 NA
ATOM     37  C   UNL A   1      42.074  27.400  31.847  1.00  0.00     0.031 C 
ATOM     38  C   UNL A   1      38.400  29.926  29.511  1.00  0.00     0.029 A 
ATOM     39  N   UNL A   1      39.117  30.735  31.468  1.00  0.00    -0.354 N 
ATOM     40  C   UNL A   1      42.173  28.686  33.737  1.00  0.00     0.074 A 
ATOM     41  C   UNL A   1      42.631  27.499  33.046  1.00  0.00     0.031 C 
ATOM     42  C   UNL A   1      37.680  31.027  29.779  1.00  0.00     0.029 A 
ATOM     43  C   UNL A   1      38.100  31.570  31.067  1.00  0.00     0.049 A 
ATOM     44  H   UNL A   1      39.621  30.863  32.304  1.00  0.00     0.167 HD
ATOM     45  C   UNL A   1      42.646  29.102  34.935  1.00  0.00     0.037 A 
ATOM     46  C   UNL A   1      37.557  32.645  31.673  1.00  0.00     0.037 A 
ATOM     47  C   UNL A   1      42.206  30.300  35.605  1.00  0.00     0.049 A 
ATOM     48  C   UNL A   1      38.099  33.087  33.004  1.00  0.00     0.074 A 
ATOM     49  C   UNL A   1      42.679  30.849  36.784  1.00  0.00     0.029 A 
ATOM     50  N   UNL A   1      41.188  31.130  35.157  1.00  0.00    -0.354 N 
ATOM     51  N   UNL A   1      39.062  32.555  33.718  1.00  0.00    -0.248 NA
ATOM     52  C   UNL A   1      37.482  34.274  33.612  1.00  0.00     0.031 C 
ATOM     53  C   UNL A   1      41.917  31.986  37.073  1.00  0.00     0.029 A 
ATOM     54  C   UNL A   1      41.000  32.172  36.051  1.00  0.00     0.049 A 
ATOM     55  H   UNL A   1      40.676  30.999  34.327  1.00  0.00     0.167 HD
ATOM     56  C   UNL A   1      39.178  33.352  34.852  1.00  0.00     0.074 A 
ATOM     57  C   UNL A   1      38.199  34.412  34.720  1.00  0.00     0.031 C 
ATOM     58  C   UNL A   1      40.018  33.218  35.907  1.00  0.00     0.037 A 
BRANCH  45  59
ATOM     59  C   UNL A   1      43.699  28.262  35.601  1.00  0.00     0.058 A 
ATOM     60  C   UNL A   1      43.365  27.257  36.523  1.00  0.00     0.135 A 
ATOM     61  C   UNL A   1      45.057  28.436  35.285  1.00  0.00     0.135 A 
ATOM     62  F   UNL A   1      42.084  27.058  36.872  1.00  0.00    -0.206 F 
ATOM     63  C   UNL A   1      44.340  26.473  37.130  1.00  0.00     0.059 A 
ATOM     64  C   UNL A   1      46.048  27.643  35.860  1.00  0.00     0.059 A 
ATOM     65  F   UNL A   1      45.432  29.382  34.411  1.00  0.00    -0.206 F 
ATOM     66  C   UNL A   1      45.680  26.674  36.792  1.00  0.00     0.060 A 
BRANCH  66  67
ATOM     67  S   UNL A   1      46.933  25.642  37.584  1.00  0.00     0.124 S 
ATOM     68  O   UNL A   1      46.953  24.481  36.699  1.00  0.00    -0.237 OA
ATOM     69  O   UNL A   1      48.115  26.496  37.536  1.00  0.00    -0.237 OA
ATOM     70  O   UNL A   1      46.387  25.407  38.916  1.00  0.00    -0.744 OA
ENDBRANCH  66  67
ENDBRANCH  45  59
BRANCH  46  71
ATOM     71  C   UNL A   1      36.443  33.381  31.019  1.00  0.00     0.058 A 
ATOM     72  C   UNL A   1      36.672  34.178  29.889  1.00  0.00     0.135 A 
ATOM     73  C   UNL A   1      35.127  33.288  31.499  1.00  0.00     0.135 A 
ATOM     74  F   UNL A   1      37.914  34.304  29.397  1.00  0.00    -0.206 F 
ATOM     75  C   UNL A   1      35.639  34.871  29.264  1.00  0.00     0.059 A 
ATOM     76  C   UNL A   1      34.073  33.951  30.877  1.00  0.00     0.059 A 
ATOM     77  F   UNL A   1      34.853  32.525  32.568  1.00  0.00    -0.206 F 
ATOM     78  C   UNL A   1      34.341  34.747  29.765  1.00  0.00     0.060 A 
BRANCH  78  79
ATOM     79  S   UNL A   1      32.999  35.607  28.914  1.00  0.00     0.124 S 
ATOM     80  O   UNL A   1      32.232  36.136  30.036  1.00  0.00    -0.237 OA
ATOM     81  O   UNL A   1      33.723  36.590  28.115  1.00  0.00    -0.237 OA
ATOM     82  O   UNL A   1      32.352  34.543  28.151  1.00  0.00    -0.744 OA
ENDBRANCH  78  79
ENDBRANCH  46  71
BRANCH  58  83
ATOM     83  C   UNL A   1      39.927  34.246  36.999  1.00  0.00     0.058 A 
ATOM     84  C   UNL A   1      40.545  35.500  36.878  1.00  0.00     0.135 A 
ATOM     85  C   UNL A   1      39.165  33.998  38.152  1.00  0.00     0.135 A 
ATOM     86  F   UNL A   1      41.292  35.785  35.800  1.00  0.00    -0.206 F 
ATOM     87  C   UNL A   1      40.427  36.467  37.871  1.00  0.00     0.059 A 
ATOM     88  C   UNL A   1      39.012  34.959  39.146  1.00  0.00     0.059 A 
ATOM     89  F   UNL A   1      38.546  32.817  38.312  1.00  0.00    -0.206 F 
ATOM     90  C   UNL A   1      39.654  36.189  39.001  1.00  0.00     0.060 A 
BRANCH  90  91
ATOM     91  S   UNL A   1      39.473  37.467  40.262  1.00  0.00     0.124 S 
ATOM     92  O   UNL A   1      38.812  36.731  41.334  1.00  0.00    -0.237 OA
ATOM     93  O   UNL A   1      40.857  37.854  40.517  1.00  0.00    -0.237 OA
ATOM     94  O   UNL A   1      38.656  38.481  39.602  1.00  0.00    -0.744 OA
ENDBRANCH  90  91
ENDBRANCH  58  83
ENDBRANCH  32  33
ENDBRANCH  24  27
ENDBRANCH  22  23
ENDBRANCH   1  22
TORSDOF 16
ENDMDL
MODEL 2
REMARK VINA RESULT:     -11.8      6.880     12.226
REMARK SMILES COc1ccc2cc([C@H](C)C(=O)NCCCCNC(=O)c3ccc(-c4c5nc(c(-c6c(F)cc(S(=O)(=O)[O-])cc6F)c6ccc([nH]6)c(-c6c(F)cc(S(=O)(=O)[O-])cc6F)c6nc(c(-c7c(F)cc(S(=O)(=O)[O-])cc7F)c7ccc4[nH]7)C=C6)C=C5)cc3)ccc2c1
REMARK SMILES IDX 16 1 15 2 14 3 13 4 11 5 12 6 9 8 10 9 8 10 3 11 4 12 90 13
REMARK SMILES IDX 5 14 89 15 6 16 88 17 7 18 87 19 2 20 1 21 17 22 18 23 19 24
REMARK SMILES IDX 20 26 21 27 22 28 86 29 23 30 85 31 24 32 25 33 26 34 79 35
REMARK SMILES IDX 27 36 84 37 78 38 80 39 28 40 83 41 77 42 76 43 29 45 63 46
REMARK SMILES IDX 42 47 62 48 43 49 46 50 61 51 81 52 44 53 45 54 60 56 82 57
REMARK SMILES IDX 47 58 30 59 31 60 40 61 32 62 33 63 39 64 41 65 34 66 35 67
REMARK SMILES IDX 36 68 37 69 38 70 64 71 65 72 74 73 66 74 67 75 73 76 75 77
REMARK SMILES IDX 68 78 69 79 70 80 71 81 72 82 48 83 49 84 58 85 50 86 51 87
REMARK SMILES IDX 57 88 59 89 52 90 53 91 54 92 55 93 56 94
REMARK H PARENT 13 7 18 25 80 44 46 55
REMARK Flexibility Score: inf
ROOT
ATOM      1  C   UNL A   1      33.602  29.018  27.402  1.00  0.00     0.023 C 
ENDROOT
BRANCH   1   2
ATOM      2  C   UNL A   1      33.375  28.331  26.059  1.00  0.00     0.023 C 
BRANCH   2   3
ATOM      3  C   UNL A   1      33.439  26.809  26.106  1.00  0.00     0.116 C 
BRANCH   3   4
ATOM      4  N   UNL A   1      32.189  26.224  26.563  1.00  0.00    -0.356 N 
ATOM      5  C   UNL A   1      31.233  25.560  25.845  1.00  0.00     0.227 C 
ATOM      6  O   UNL A   1      30.275  25.078  26.455  1.00  0.00    -0.274 OA
ATOM      7  H   UNL A   1      32.004  26.319  27.525  1.00  0.00     0.163 HD
BRANCH   5   8
ATOM      8  C   UNL A   1      31.336  25.432  24.316  1.00  0.00     0.105 C 
ATOM      9  C   UNL A   1      30.761  24.070  23.908  1.00  0.00     0.023 C 
BRANCH   8  10
ATOM     10  C   UNL A   1      30.815  26.680  23.605  1.00  0.00    -0.035 A 
ATOM     11  C   UNL A   1      28.312  30.861  22.145  1.00  0.00     0.119 A 
ATOM     12  C   UNL A   1      27.356  30.012  22.698  1.00  0.00     0.047 A 
ATOM     13  C   UNL A   1      29.632  30.424  22.024  1.00  0.00     0.055 A 
ATOM     14  C   UNL A   1      27.729  28.747  23.167  1.00  0.00     0.012 A 
ATOM     15  C   UNL A   1      30.022  29.162  22.499  1.00  0.00    -0.015 A 
ATOM     16  C   UNL A   1      29.063  28.315  23.093  1.00  0.00    -0.018 A 
ATOM     17  C   UNL A   1      31.350  28.735  22.407  1.00  0.00     0.009 A 
ATOM     18  C   UNL A   1      29.468  27.075  23.622  1.00  0.00     0.013 A 
ATOM     19  C   UNL A   1      31.738  27.506  22.941  1.00  0.00     0.005 A 
BRANCH  11  20
ATOM     20  O   UNL A   1      28.068  32.115  21.658  1.00  0.00    -0.497 OA
ATOM     21  C   UNL A   1      27.875  32.202  20.250  1.00  0.00     0.278 C 
ENDBRANCH  11  20
ENDBRANCH   8  10
ENDBRANCH   5   8
ENDBRANCH   3   4
ENDBRANCH   2   3
ENDBRANCH   1   2
BRANCH   1  22
ATOM     22  C   UNL A   1      35.055  29.363  27.716  1.00  0.00     0.116 C 
BRANCH  22  23
ATOM     23  N   UNL A   1      35.190  30.321  28.806  1.00  0.00    -0.352 N 
ATOM     24  C   UNL A   1      36.282  30.582  29.600  1.00  0.00     0.251 C 
ATOM     25  H   UNL A   1      34.388  30.856  29.001  1.00  0.00     0.163 HD
ATOM     26  O   UNL A   1      36.175  31.325  30.573  1.00  0.00    -0.269 OA
BRANCH  24  27
ATOM     27  C   UNL A   1      37.575  29.935  29.295  1.00  0.00     0.039 A 
ATOM     28  C   UNL A   1      37.988  29.838  27.964  1.00  0.00     0.014 A 
ATOM     29  C   UNL A   1      38.396  29.469  30.326  1.00  0.00     0.014 A 
ATOM     30  C   UNL A   1      39.265  29.354  27.674  1.00  0.00     0.010 A 
ATOM     31  C   UNL A   1      39.693  29.055  30.039  1.00  0.00     0.010 A 
ATOM     32  C   UNL A   1      40.146  29.006  28.712  1.00  0.00    -0.014 A 
BRANCH  32  33
ATOM     33  C   UNL A   1      41.555  28.627  28.435  1.00  0.00     0.031 A 
ATOM     34  C   UNL A   1      42.633  29.676  28.412  1.00  0.00     0.074 A 
ATOM     35  C   UNL A   1      41.849  27.349  28.122  1.00  0.00     0.049 A 
ATOM     36  N   UNL A   1      43.898  29.551  28.106  1.00  0.00    -0.248 NA
ATOM     37  C   UNL A   1      42.229  31.050  28.748  1.00  0.00     0.031 C 
ATOM     38  C   UNL A   1      40.881  26.250  28.054  1.00  0.00     0.029 A 
ATOM     39  N   UNL A   1      43.041  26.758  27.784  1.00  0.00    -0.354 N 
ATOM     40  C   UNL A   1      44.439  30.828  28.198  1.00  0.00     0.074 A 
ATOM     41  C   UNL A   1      43.353  31.721  28.542  1.00  0.00     0.031 C 
ATOM     42  C   UNL A   1      41.520  25.120  27.714  1.00  0.00     0.029 A 
ATOM     43  C   UNL A   1      42.932  25.416  27.500  1.00  0.00     0.049 A 
ATOM     44  H   UNL A   1      43.894  27.249  27.749  1.00  0.00     0.167 HD
ATOM     45  C   UNL A   1      45.725  31.216  28.032  1.00  0.00     0.037 A 
ATOM     46  C   UNL A   1      43.863  24.527  27.100  1.00  0.00     0.037 A 
ATOM     47  C   UNL A   1      46.806  30.318  27.716  1.00  0.00     0.049 A 
ATOM     48  C   UNL A   1      45.285  24.983  26.922  1.00  0.00     0.074 A 
ATOM     49  C   UNL A   1      48.155  30.601  27.604  1.00  0.00     0.029 A 
ATOM     50  N   UNL A   1      46.659  28.962  27.456  1.00  0.00    -0.354 N 
ATOM     51  N   UNL A   1      45.792  26.181  27.090  1.00  0.00    -0.248 NA
ATOM     52  C   UNL A   1      46.261  23.968  26.501  1.00  0.00     0.031 C 
ATOM     53  C   UNL A   1      48.820  29.428  27.232  1.00  0.00     0.029 A 
ATOM     54  C   UNL A   1      47.891  28.402  27.157  1.00  0.00     0.049 A 
ATOM     55  H   UNL A   1      45.807  28.472  27.480  1.00  0.00     0.167 HD
ATOM     56  C   UNL A   1      47.149  26.061  26.812  1.00  0.00     0.074 A 
ATOM     57  C   UNL A   1      47.387  24.670  26.481  1.00  0.00     0.031 C 
ATOM     58  C   UNL A   1      48.111  27.016  26.827  1.00  0.00     0.037 A 
BRANCH  45  59
ATOM     59  C   UNL A   1      46.040  32.677  28.195  1.00  0.00     0.058 A 
ATOM     60  C   UNL A   1      45.948  33.574  27.119  1.00  0.00     0.135 A 
ATOM     61  C   UNL A   1      46.401  33.194  29.450  1.00  0.00     0.135 A 
ATOM     62  F   UNL A   1      45.621  33.131  25.895  1.00  0.00    -0.206 F 
ATOM     63  C   UNL A   1      46.229  34.928  27.275  1.00  0.00     0.059 A 
ATOM     64  C   UNL A   1      46.660  34.550  29.634  1.00  0.00     0.059 A 
ATOM     65  F   UNL A   1      46.504  32.381  30.513  1.00  0.00    -0.206 F 
ATOM     66  C   UNL A   1      46.585  35.406  28.536  1.00  0.00     0.060 A 
BRANCH  66  67
ATOM     67  S   UNL A   1      46.940  37.167  28.722  1.00  0.00     0.124 S 
ATOM     68  O   UNL A   1      46.217  37.480  29.951  1.00  0.00    -0.237 OA
ATOM     69  O   UNL A   1      48.396  37.183  28.822  1.00  0.00    -0.237 OA
ATOM     70  O   UNL A   1      46.392  37.754  27.504  1.00  0.00    -0.744 OA
ENDBRANCH  66  67
ENDBRANCH  45  59
BRANCH  46  71
ATOM     71  C   UNL A   1      43.477  23.113  26.849  1.00  0.00     0.058 A 
ATOM     72  C   UNL A   1      43.401  22.608  25.544  1.00  0.00     0.135 A 
ATOM     73  C   UNL A   1      43.197  22.234  27.908  1.00  0.00     0.135 A 
ATOM     74  F   UNL A   1      43.654  23.410  24.498  1.00  0.00    -0.206 F 
ATOM     75  C   UNL A   1      43.045  21.286  25.293  1.00  0.00     0.059 A 
ATOM     76  C   UNL A   1      42.862  20.903  27.685  1.00  0.00     0.059 A 
ATOM     77  F   UNL A   1      43.272  22.664  29.177  1.00  0.00    -0.206 F 
ATOM     78  C   UNL A   1      42.780  20.440  26.372  1.00  0.00     0.060 A 
BRANCH  78  79
ATOM     79  S   UNL A   1      42.372  18.712  26.038  1.00  0.00     0.124 S 
ATOM     80  O   UNL A   1      43.283  18.402  24.942  1.00  0.00    -0.237 OA
ATOM     81  O   UNL A   1      42.671  18.074  27.316  1.00  0.00    -0.237 OA
ATOM     82  O   UNL A   1      40.956  18.765  25.688  1.00  0.00    -0.744 OA
ENDBRANCH  78  79
ENDBRANCH  46  71
BRANCH  58  83
ATOM     83  C   UNL A   1      49.512  26.592  26.488  1.00  0.00     0.058 A 
ATOM     84  C   UNL A   1      50.325  25.935  27.425  1.00  0.00     0.135 A 
ATOM     85  C   UNL A   1      50.027  26.791  25.197  1.00  0.00     0.135 A 
ATOM     86  F   UNL A   1      49.884  25.727  28.675  1.00  0.00    -0.206 F 
ATOM     87  C   UNL A   1      51.607  25.506  27.098  1.00  0.00     0.059 A 
ATOM     88  C   UNL A   1      51.296  26.348  24.841  1.00  0.00     0.059 A 
ATOM     89  F   UNL A   1      49.285  27.407  24.262  1.00  0.00    -0.206 F 
ATOM     90  C   UNL A   1      52.084  25.714  25.802  1.00  0.00     0.060 A 
BRANCH  90  91
ATOM     91  S   UNL A   1      53.732  25.114  25.379  1.00  0.00     0.124 S 
ATOM     92  O   UNL A   1      54.538  25.683  26.454  1.00  0.00    -0.237 OA
ATOM     93  O   UNL A   1      53.558  23.665  25.416  1.00  0.00    -0.237 OA
ATOM     94  O   UNL A   1      53.969  25.677  24.053  1.00  0.00    -0.744 OA
ENDBRANCH  90  91
ENDBRANCH  58  83
ENDBRANCH  32  33
ENDBRANCH  24  27
ENDBRANCH  22  23
ENDBRANCH   1  22
TORSDOF 16
ENDMDL
MODEL 3
REMARK VINA RESULT:     -11.8      4.980     11.929
REMARK SMILES COc1ccc2cc([C@H](C)C(=O)NCCCCNC(=O)c3ccc(-c4c5nc(c(-c6c(F)cc(S(=O)(=O)[O-])cc6F)c6ccc([nH]6)c(-c6c(F)cc(S(=O)(=O)[O-])cc6F)c6nc(c(-c7c(F)cc(S(=O)(=O)[O-])cc7F)c7ccc4[nH]7)C=C6)C=C5)cc3)ccc2c1
REMARK SMILES IDX 16 1 15 2 14 3 13 4 11 5 12 6 9 8 10 9 8 10 3 11 4 12 90 13
REMARK SMILES IDX 5 14 89 15 6 16 88 17 7 18 87 19 2 20 1 21 17 22 18 23 19 24
REMARK SMILES IDX 20 26 21 27 22 28 86 29 23 30 85 31 24 32 25 33 26 34 79 35
REMARK SMILES IDX 27 36 84 37 78 38 80 39 28 40 83 41 77 42 76 43 29 45 63 46
REMARK SMILES IDX 42 47 62 48 43 49 46 50 61 51 81 52 44 53 45 54 60 56 82 57
REMARK SMILES IDX 47 58 30 59 31 60 40 61 32 62 33 63 39 64 41 65 34 66 35 67
REMARK SMILES IDX 36 68 37 69 38 70 64 71 65 72 74 73 66 74 67 75 73 76 75 77
REMARK SMILES IDX 68 78 69 79 70 80 71 81 72 82 48 83 49 84 58 85 50 86 51 87
REMARK SMILES IDX 57 88 59 89 52 90 53 91 54 92 55 93 56 94
REMARK H PARENT 13 7 18 25 80 44 46 55
REMARK Flexibility Score: inf
ROOT
ATOM      1  C   UNL A   1      34.353  34.078  30.117  1.00  0.00     0.023 C 
ENDROOT
BRANCH   1   2
ATOM      2  C   UNL A   1      34.170  34.246  31.622  1.00  0.00     0.023 C 
BRANCH   2   3
ATOM      3  C   UNL A   1      34.304  32.958  32.426  1.00  0.00     0.116 C 
BRANCH   3   4
ATOM      4  N   UNL A   1      34.961  33.177  33.704  1.00  0.00    -0.356 N 
ATOM      5  C   UNL A   1      36.286  33.381  33.970  1.00  0.00     0.227 C 
ATOM      6  O   UNL A   1      36.619  33.621  35.133  1.00  0.00    -0.274 OA
ATOM      7  H   UNL A   1      34.368  33.180  34.489  1.00  0.00     0.163 HD
BRANCH   5   8
ATOM      8  C   UNL A   1      37.342  33.294  32.854  1.00  0.00     0.105 C 
ATOM      9  C   UNL A   1      37.747  34.722  32.464  1.00  0.00     0.023 C 
BRANCH   8  10
ATOM     10  C   UNL A   1      38.446  32.295  33.192  1.00  0.00    -0.035 A 
ATOM     11  C   UNL A   1      41.721  28.406  33.346  1.00  0.00     0.119 A 
ATOM     12  C   UNL A   1      40.512  27.874  32.907  1.00  0.00     0.047 A 
ATOM     13  C   UNL A   1      41.789  29.752  33.710  1.00  0.00     0.055 A 
ATOM     14  C   UNL A   1      39.385  28.697  32.791  1.00  0.00     0.012 A 
ATOM     15  C   UNL A   1      40.671  30.590  33.591  1.00  0.00    -0.015 A 
ATOM     16  C   UNL A   1      39.454  30.063  33.110  1.00  0.00    -0.018 A 
ATOM     17  C   UNL A   1      40.746  31.946  33.925  1.00  0.00     0.009 A 
ATOM     18  C   UNL A   1      38.349  30.918  32.934  1.00  0.00     0.013 A 
ATOM     19  C   UNL A   1      39.645  32.783  33.740  1.00  0.00     0.005 A 
BRANCH  11  20
ATOM     20  O   UNL A   1      42.885  27.703  33.496  1.00  0.00    -0.497 OA
ATOM     21  C   UNL A   1      43.700  28.089  34.598  1.00  0.00     0.278 C 
ENDBRANCH  11  20
ENDBRANCH   8  10
ENDBRANCH   5   8
ENDBRANCH   3   4
ENDBRANCH   2   3
ENDBRANCH   1   2
BRANCH   1  22
ATOM     22  C   UNL A   1      35.044  32.786  29.689  1.00  0.00     0.116 C 
BRANCH  22  23
ATOM     23  N   UNL A   1      34.181  31.911  28.905  1.00  0.00    -0.352 N 
ATOM     24  C   UNL A   1      34.493  30.739  28.257  1.00  0.00     0.251 C 
ATOM     25  H   UNL A   1      33.244  32.201  28.827  1.00  0.00     0.163 HD
ATOM     26  O   UNL A   1      33.671  30.204  27.517  1.00  0.00    -0.269 OA
BRANCH  24  27
ATOM     27  C   UNL A   1      35.835  30.146  28.432  1.00  0.00     0.039 A 
ATOM     28  C   UNL A   1      36.731  30.169  27.361  1.00  0.00     0.014 A 
ATOM     29  C   UNL A   1      36.220  29.612  29.665  1.00  0.00     0.014 A 
ATOM     30  C   UNL A   1      38.045  29.736  27.554  1.00  0.00     0.010 A 
ATOM     31  C   UNL A   1      37.548  29.250  29.874  1.00  0.00     0.010 A 
ATOM     32  C   UNL A   1      38.477  29.321  28.825  1.00  0.00    -0.014 A 
BRANCH  32  33
ATOM     33  C   UNL A   1      39.902  28.995  29.089  1.00  0.00     0.031 A 
ATOM     34  C   UNL A   1      40.834  30.046  29.626  1.00  0.00     0.074 A 
ATOM     35  C   UNL A   1      40.374  27.775  28.763  1.00  0.00     0.049 A 
ATOM     36  N   UNL A   1      42.123  29.975  29.838  1.00  0.00    -0.248 NA
ATOM     37  C   UNL A   1      40.245  31.357  29.941  1.00  0.00     0.031 C 
ATOM     38  C   UNL A   1      39.582  26.689  28.179  1.00  0.00     0.029 A 
ATOM     39  N   UNL A   1      41.637  27.246  28.858  1.00  0.00    -0.354 N 
ATOM     40  C   UNL A   1      42.502  31.230  30.295  1.00  0.00     0.074 A 
ATOM     41  C   UNL A   1      41.316  32.059  30.286  1.00  0.00     0.031 C 
ATOM     42  C   UNL A   1      40.372  25.621  27.985  1.00  0.00     0.029 A 
ATOM     43  C   UNL A   1      41.733  25.955  28.390  1.00  0.00     0.049 A 
ATOM     44  H   UNL A   1      42.403  27.744  29.227  1.00  0.00     0.167 HD
ATOM     45  C   UNL A   1      43.723  31.648  30.705  1.00  0.00     0.037 A 
ATOM     46  C   UNL A   1      42.799  25.137  28.288  1.00  0.00     0.037 A 
ATOM     47  C   UNL A   1      44.894  30.810  30.737  1.00  0.00     0.049 A 
ATOM     48  C   UNL A   1      44.145  25.625  28.749  1.00  0.00     0.074 A 
ATOM     49  C   UNL A   1      46.158  31.117  31.209  1.00  0.00     0.029 A 
ATOM     50  N   UNL A   1      44.947  29.503  30.275  1.00  0.00    -0.354 N 
ATOM     51  N   UNL A   1      44.469  26.792  29.253  1.00  0.00    -0.248 NA
ATOM     52  C   UNL A   1      45.269  24.686  28.631  1.00  0.00     0.031 C 
ATOM     53  C   UNL A   1      46.987  30.012  30.991  1.00  0.00     0.029 A 
ATOM     54  C   UNL A   1      46.229  28.999  30.425  1.00  0.00     0.049 A 
ATOM     55  H   UNL A   1      44.186  29.007  29.897  1.00  0.00     0.167 HD
ATOM     56  C   UNL A   1      45.831  26.723  29.526  1.00  0.00     0.074 A 
ATOM     57  C   UNL A   1      46.266  25.393  29.149  1.00  0.00     0.031 C 
ATOM     58  C   UNL A   1      46.647  27.674  30.041  1.00  0.00     0.037 A 
BRANCH  45  59
ATOM     59  C   UNL A   1      43.856  33.075  31.159  1.00  0.00     0.058 A 
ATOM     60  C   UNL A   1      43.885  33.413  32.521  1.00  0.00     0.135 A 
ATOM     61  C   UNL A   1      43.996  34.113  30.223  1.00  0.00     0.135 A 
ATOM     62  F   UNL A   1      43.741  32.463  33.458  1.00  0.00    -0.206 F 
ATOM     63  C   UNL A   1      44.019  34.733  32.940  1.00  0.00     0.059 A 
ATOM     64  C   UNL A   1      44.159  35.438  30.621  1.00  0.00     0.059 A 
ATOM     65  F   UNL A   1      43.975  33.845  28.908  1.00  0.00    -0.206 F 
ATOM     66  C   UNL A   1      44.155  35.739  31.982  1.00  0.00     0.060 A 
BRANCH  66  67
ATOM     67  S   UNL A   1      44.336  37.446  32.543  1.00  0.00     0.124 S 
ATOM     68  O   UNL A   1      43.331  37.511  33.599  1.00  0.00    -0.237 OA
ATOM     69  O   UNL A   1      45.726  37.482  32.988  1.00  0.00    -0.237 OA
ATOM     70  O   UNL A   1      44.043  38.229  31.348  1.00  0.00    -0.744 OA
ENDBRANCH  66  67
ENDBRANCH  45  59
BRANCH  46  71
ATOM     71  C   UNL A   1      42.633  23.769  27.732  1.00  0.00     0.058 A 
ATOM     72  C   UNL A   1      42.532  22.655  28.577  1.00  0.00     0.135 A 
ATOM     73  C   UNL A   1      42.553  23.548  26.347  1.00  0.00     0.135 A 
ATOM     74  F   UNL A   1      42.609  22.814  29.908  1.00  0.00    -0.206 F 
ATOM     75  C   UNL A   1      42.373  21.368  28.072  1.00  0.00     0.059 A 
ATOM     76  C   UNL A   1      42.370  22.275  25.819  1.00  0.00     0.059 A 
ATOM     77  F   UNL A   1      42.628  24.583  25.496  1.00  0.00    -0.206 F 
ATOM     78  C   UNL A   1      42.290  21.189  26.690  1.00  0.00     0.060 A 
BRANCH  78  79
ATOM     79  S   UNL A   1      42.028  19.522  26.046  1.00  0.00     0.124 S 
ATOM     80  O   UNL A   1      40.590  19.522  25.804  1.00  0.00    -0.237 OA
ATOM     81  O   UNL A   1      42.876  19.515  24.858  1.00  0.00    -0.237 OA
ATOM     82  O   UNL A   1      42.485  18.667  27.138  1.00  0.00    -0.744 OA
ENDBRANCH  78  79
ENDBRANCH  46  71
BRANCH  58  83
ATOM     83  C   UNL A   1      48.092  27.312  30.240  1.00  0.00     0.058 A 
ATOM     84  C   UNL A   1      49.067  27.634  29.284  1.00  0.00     0.135 A 
ATOM     85  C   UNL A   1      48.515  26.688  31.426  1.00  0.00     0.135 A 
ATOM     86  F   UNL A   1      48.715  28.222  28.131  1.00  0.00    -0.206 F 
ATOM     87  C   UNL A   1      50.410  27.334  29.488  1.00  0.00     0.059 A 
ATOM     88  C   UNL A   1      49.856  26.402  31.661  1.00  0.00     0.059 A 
ATOM     89  F   UNL A   1      47.622  26.367  32.376  1.00  0.00    -0.206 F 
ATOM     90  C   UNL A   1      50.796  26.721  30.682  1.00  0.00     0.060 A 
BRANCH  90  91
ATOM     91  S   UNL A   1      52.547  26.377  30.952  1.00  0.00     0.124 S 
ATOM     92  O   UNL A   1      52.487  25.178  31.781  1.00  0.00    -0.237 OA
ATOM     93  O   UNL A   1      53.042  26.185  29.592  1.00  0.00    -0.237 OA
ATOM     94  O   UNL A   1      53.030  27.580  31.624  1.00  0.00    -0.744 OA
ENDBRANCH  90  91
ENDBRANCH  58  83
ENDBRANCH  32  33
ENDBRANCH  24  27
ENDBRANCH  22  23
ENDBRANCH   1  22
TORSDOF 16
ENDMDL
