MODEL 1
REMARK VINA RESULT:     -12.0      0.000      0.000
REMARK SMILES C[C@@H]1[C@H](C(=O)NCCCCNC(=O)c2ccc(-c3c4nc(c(-c5c(F)cc(S(=O)(=O)[O-])cc5F)c5ccc([nH]5)c(-c5c(F)cc(S(=O)(=O)[O-])cc5F)c5nc(c(-c6c(F)cc(S(=O)(=O)[O-])cc6F)c6ccc3[nH]6)C=C5)C=C4)cc2)CCN1C(=O)c1c(Cl)cccc1[N+](=O)[O-]
REMARK SMILES IDX 8 1 7 2 6 3 4 4 5 5 3 7 1 8 2 9 82 10 80 11 81 12 83 13
REMARK SMILES IDX 84 14 85 15 86 16 91 17 87 18 88 19 90 20 89 21 92 22 93 23
REMARK SMILES IDX 94 24 9 25 10 26 11 27 12 28 13 30 14 31 15 32 79 33 16 34
REMARK SMILES IDX 78 35 17 36 18 37 19 38 72 39 20 40 77 41 71 42 73 43 21 44
REMARK SMILES IDX 76 45 70 46 69 47 22 49 56 50 35 51 55 52 36 53 39 54 54 55
REMARK SMILES IDX 74 56 37 57 38 58 53 60 75 61 40 62 23 63 24 64 33 65 25 66
REMARK SMILES IDX 26 67 32 68 34 69 27 70 28 71 29 72 30 73 31 74 57 75 58 76
REMARK SMILES IDX 67 77 59 78 60 79 66 80 68 81 61 82 62 83 63 84 64 85 65 86
REMARK SMILES IDX 41 87 42 88 51 89 43 90 44 91 50 92 52 93 45 94 46 95 47 96
REMARK SMILES IDX 48 97 49 98
REMARK H PARENT 6 6 11 29 73 48 39 59
REMARK Flexibility Score: inf
ROOT
ATOM      1  C   UNL A   1      37.299  22.355  25.085  1.00  0.00     0.023 C 
ENDROOT
BRANCH   1   2
ATOM      2  C   UNL A   1      36.163  21.516  25.671  1.00  0.00     0.116 C 
BRANCH   2   3
ATOM      3  N   UNL A   1      35.059  21.347  24.741  1.00  0.00    -0.356 N 
ATOM      4  C   UNL A   1      33.781  21.806  24.757  1.00  0.00     0.225 C 
ATOM      5  O   UNL A   1      33.050  21.465  23.820  1.00  0.00    -0.275 OA
ATOM      6  H   UNL A   1      35.278  20.798  23.954  1.00  0.00     0.163 HD
BRANCH   4   7
ATOM      7  C   UNL A   1      33.212  22.688  25.860  1.00  0.00     0.102 C 
ATOM      8  C   UNL A   1      34.219  24.707  24.561  1.00  0.00     0.032 C 
ATOM      9  C   UNL A   1      33.461  24.212  25.781  1.00  0.00     0.094 C 
ATOM     10  N   UNL A   1      32.136  24.820  26.011  1.00  0.00    -0.335 N 
ATOM     11  C   UNL A   1      31.718  22.487  26.112  1.00  0.00     0.037 C 
ATOM     12  C   UNL A   1      31.212  23.842  26.555  1.00  0.00     0.121 C 
BRANCH  10  13
ATOM     13  C   UNL A   1      31.772  26.156  26.122  1.00  0.00     0.262 C 
ATOM     14  O   UNL A   1      31.344  26.664  27.155  1.00  0.00    -0.269 OA
BRANCH  13  15
ATOM     15  C   UNL A   1      31.885  27.045  24.962  1.00  0.00     0.136 A 
ATOM     16  C   UNL A   1      32.907  28.001  24.923  1.00  0.00     0.060 A 
ATOM     17  C   UNL A   1      30.956  27.003  23.914  1.00  0.00     0.283 A 
ATOM     18  Cl  UNL A   1      34.086  28.150  26.178  1.00  0.00    -0.083 Cl
ATOM     19  C   UNL A   1      33.017  28.868  23.828  1.00  0.00     0.022 A 
ATOM     20  C   UNL A   1      31.076  27.860  22.808  1.00  0.00     0.086 A 
ATOM     21  C   UNL A   1      32.110  28.794  22.770  1.00  0.00     0.009 A 
BRANCH  17  22
ATOM     22  N   UNL A   1      29.870  26.032  23.897  1.00  0.00     0.063 N 
ATOM     23  O   UNL A   1      30.105  24.949  23.343  1.00  0.00    -0.258 OA
ATOM     24  O   UNL A   1      28.791  26.345  24.406  1.00  0.00    -0.258 OA
ENDBRANCH  17  22
ENDBRANCH  13  15
ENDBRANCH  10  13
ENDBRANCH   4   7
ENDBRANCH   2   3
ENDBRANCH   1   2
BRANCH   1  25
ATOM     25  C   UNL A   1      37.528  23.715  25.732  1.00  0.00     0.023 C 
BRANCH  25  26
ATOM     26  C   UNL A   1      38.643  23.761  26.763  1.00  0.00     0.116 C 
BRANCH  26  27
ATOM     27  N   UNL A   1      39.967  23.886  26.172  1.00  0.00    -0.352 N 
ATOM     28  C   UNL A   1      40.919  24.861  26.370  1.00  0.00     0.251 C 
ATOM     29  H   UNL A   1      40.217  23.173  25.542  1.00  0.00     0.163 HD
ATOM     30  O   UNL A   1      41.941  24.870  25.697  1.00  0.00    -0.269 OA
BRANCH  28  31
ATOM     31  C   UNL A   1      40.677  25.915  27.378  1.00  0.00     0.039 A 
ATOM     32  C   UNL A   1      39.762  25.675  28.405  1.00  0.00     0.014 A 
ATOM     33  C   UNL A   1      41.386  27.117  27.331  1.00  0.00     0.014 A 
ATOM     34  C   UNL A   1      39.614  26.614  29.428  1.00  0.00     0.010 A 
ATOM     35  C   UNL A   1      41.310  28.003  28.398  1.00  0.00     0.010 A 
ATOM     36  C   UNL A   1      40.416  27.767  29.453  1.00  0.00    -0.014 A 
BRANCH  36  37
ATOM     37  C   UNL A   1      40.319  28.762  30.550  1.00  0.00     0.031 A 
ATOM     38  C   UNL A   1      41.213  28.624  31.754  1.00  0.00     0.074 A 
ATOM     39  C   UNL A   1      39.383  29.730  30.504  1.00  0.00     0.049 A 
ATOM     40  N   UNL A   1      41.214  29.310  32.867  1.00  0.00    -0.248 NA
ATOM     41  C   UNL A   1      42.211  27.542  31.717  1.00  0.00     0.031 C 
ATOM     42  C   UNL A   1      38.422  29.930  29.418  1.00  0.00     0.029 A 
ATOM     43  N   UNL A   1      39.079  30.722  31.401  1.00  0.00    -0.354 N 
ATOM     44  C   UNL A   1      42.187  28.726  33.670  1.00  0.00     0.074 A 
ATOM     45  C   UNL A   1      42.715  27.594  32.940  1.00  0.00     0.031 C 
ATOM     46  C   UNL A   1      37.654  30.995  29.701  1.00  0.00     0.029 A 
ATOM     47  C   UNL A   1      38.043  31.532  31.000  1.00  0.00     0.049 A 
ATOM     48  H   UNL A   1      39.558  30.843  32.253  1.00  0.00     0.167 HD
ATOM     49  C   UNL A   1      42.624  29.115  34.891  1.00  0.00     0.037 A 
ATOM     50  C   UNL A   1      37.473  32.588  31.614  1.00  0.00     0.037 A 
ATOM     51  C   UNL A   1      42.129  30.272  35.587  1.00  0.00     0.049 A 
ATOM     52  C   UNL A   1      38.002  33.028  32.951  1.00  0.00     0.074 A 
ATOM     53  C   UNL A   1      42.542  30.790  36.801  1.00  0.00     0.029 A 
ATOM     54  N   UNL A   1      41.117  31.098  35.122  1.00  0.00    -0.354 N 
ATOM     55  N   UNL A   1      38.958  32.494  33.675  1.00  0.00    -0.248 NA
ATOM     56  C   UNL A   1      37.386  34.219  33.552  1.00  0.00     0.031 C 
ATOM     57  C   UNL A   1      41.762  31.915  37.083  1.00  0.00     0.029 A 
ATOM     58  C   UNL A   1      40.889  32.121  36.026  1.00  0.00     0.049 A 
ATOM     59  H   UNL A   1      40.632  30.975  34.274  1.00  0.00     0.167 HD
ATOM     60  C   UNL A   1      39.079  33.301  34.801  1.00  0.00     0.074 A 
ATOM     61  C   UNL A   1      38.103  34.363  34.658  1.00  0.00     0.031 C 
ATOM     62  C   UNL A   1      39.923  33.177  35.855  1.00  0.00     0.037 A 
BRANCH  49  63
ATOM     63  C   UNL A   1      43.699  28.285  35.536  1.00  0.00     0.058 A 
ATOM     64  C   UNL A   1      45.060  28.512  35.277  1.00  0.00     0.135 A 
ATOM     65  C   UNL A   1      43.367  27.249  36.424  1.00  0.00     0.135 A 
ATOM     66  F   UNL A   1      45.434  29.478  34.421  1.00  0.00    -0.206 F 
ATOM     67  C   UNL A   1      46.052  27.718  35.842  1.00  0.00     0.059 A 
ATOM     68  C   UNL A   1      44.345  26.460  37.025  1.00  0.00     0.059 A 
ATOM     69  F   UNL A   1      42.082  26.987  36.708  1.00  0.00    -0.206 F 
ATOM     70  C   UNL A   1      45.684  26.690  36.711  1.00  0.00     0.060 A 
BRANCH  70  71
ATOM     71  S   UNL A   1      46.980  25.659  37.427  1.00  0.00     0.124 S 
ATOM     72  O   UNL A   1      46.312  24.363  37.500  1.00  0.00    -0.237 OA
ATOM     73  O   UNL A   1      48.048  25.763  36.437  1.00  0.00    -0.237 OA
ATOM     74  O   UNL A   1      47.254  26.298  38.710  1.00  0.00    -0.744 OA
ENDBRANCH  70  71
ENDBRANCH  49  63
BRANCH  50  75
ATOM     75  C   UNL A   1      36.369  33.328  30.946  1.00  0.00     0.058 A 
ATOM     76  C   UNL A   1      35.061  33.273  31.451  1.00  0.00     0.135 A 
ATOM     77  C   UNL A   1      36.599  34.117  29.809  1.00  0.00     0.135 A 
ATOM     78  F   UNL A   1      34.792  32.528  32.533  1.00  0.00    -0.206 F 
ATOM     79  C   UNL A   1      34.016  33.963  30.846  1.00  0.00     0.059 A 
ATOM     80  C   UNL A   1      35.574  34.834  29.199  1.00  0.00     0.059 A 
ATOM     81  F   UNL A   1      37.835  34.217  29.298  1.00  0.00    -0.206 F 
ATOM     82  C   UNL A   1      34.283  34.744  29.720  1.00  0.00     0.060 A 
BRANCH  82  83
ATOM     83  S   UNL A   1      32.930  35.680  28.974  1.00  0.00     0.124 S 
ATOM     84  O   UNL A   1      32.073  35.927  30.128  1.00  0.00    -0.237 OA
ATOM     85  O   UNL A   1      33.622  36.844  28.432  1.00  0.00    -0.237 OA
ATOM     86  O   UNL A   1      32.396  34.758  27.977  1.00  0.00    -0.744 OA
ENDBRANCH  82  83
ENDBRANCH  50  75
BRANCH  62  87
ATOM     87  C   UNL A   1      39.862  34.240  36.915  1.00  0.00     0.058 A 
ATOM     88  C   UNL A   1      40.529  35.465  36.771  1.00  0.00     0.135 A 
ATOM     89  C   UNL A   1      39.077  34.046  38.063  1.00  0.00     0.135 A 
ATOM     90  F   UNL A   1      41.294  35.696  35.694  1.00  0.00    -0.206 F 
ATOM     91  C   UNL A   1      40.438  36.457  37.743  1.00  0.00     0.059 A 
ATOM     92  C   UNL A   1      38.953  35.033  39.036  1.00  0.00     0.059 A 
ATOM     93  F   UNL A   1      38.411  32.895  38.242  1.00  0.00    -0.206 F 
ATOM     94  C   UNL A   1      39.646  36.232  38.871  1.00  0.00     0.060 A 
BRANCH  94  95
ATOM     95  S   UNL A   1      39.507  37.539  40.108  1.00  0.00     0.124 S 
ATOM     96  O   UNL A   1      39.065  36.788  41.279  1.00  0.00    -0.237 OA
ATOM     97  O   UNL A   1      40.869  38.061  40.168  1.00  0.00    -0.237 OA
ATOM     98  O   UNL A   1      38.520  38.447  39.533  1.00  0.00    -0.744 OA
ENDBRANCH  94  95
ENDBRANCH  62  87
ENDBRANCH  36  37
ENDBRANCH  28  31
ENDBRANCH  26  27
ENDBRANCH  25  26
ENDBRANCH   1  25
TORSDOF 17
ENDMDL
MODEL 2
REMARK VINA RESULT:     -12.0      2.944      3.702
REMARK SMILES C[C@@H]1[C@H](C(=O)NCCCCNC(=O)c2ccc(-c3c4nc(c(-c5c(F)cc(S(=O)(=O)[O-])cc5F)c5ccc([nH]5)c(-c5c(F)cc(S(=O)(=O)[O-])cc5F)c5nc(c(-c6c(F)cc(S(=O)(=O)[O-])cc6F)c6ccc3[nH]6)C=C5)C=C4)cc2)CCN1C(=O)c1c(Cl)cccc1[N+](=O)[O-]
REMARK SMILES IDX 8 1 7 2 6 3 4 4 5 5 3 7 1 8 2 9 82 10 80 11 81 12 83 13
REMARK SMILES IDX 84 14 85 15 86 16 91 17 87 18 88 19 90 20 89 21 92 22 93 23
REMARK SMILES IDX 94 24 9 25 10 26 11 27 12 28 13 30 14 31 15 32 79 33 16 34
REMARK SMILES IDX 78 35 17 36 18 37 19 38 72 39 20 40 77 41 71 42 73 43 21 44
REMARK SMILES IDX 76 45 70 46 69 47 22 49 56 50 35 51 55 52 36 53 39 54 54 55
REMARK SMILES IDX 74 56 37 57 38 58 53 60 75 61 40 62 23 63 24 64 33 65 25 66
REMARK SMILES IDX 26 67 32 68 34 69 27 70 28 71 29 72 30 73 31 74 57 75 58 76
REMARK SMILES IDX 67 77 59 78 60 79 66 80 68 81 61 82 62 83 63 84 64 85 65 86
REMARK SMILES IDX 41 87 42 88 51 89 43 90 44 91 50 92 52 93 45 94 46 95 47 96
REMARK SMILES IDX 48 97 49 98
REMARK H PARENT 6 6 11 29 73 48 39 59
REMARK Flexibility Score: inf
ROOT
ATOM      1  C   UNL A   1      35.715  21.934  26.124  1.00  0.00     0.023 C 
ENDROOT
BRANCH   1   2
ATOM      2  C   UNL A   1      35.135  21.046  25.022  1.00  0.00     0.116 C 
BRANCH   2   3
ATOM      3  N   UNL A   1      34.330  19.957  25.550  1.00  0.00    -0.356 N 
ATOM      4  C   UNL A   1      33.025  19.627  25.376  1.00  0.00     0.225 C 
ATOM      5  O   UNL A   1      32.608  18.640  25.992  1.00  0.00    -0.275 OA
ATOM      6  H   UNL A   1      34.823  19.347  26.145  1.00  0.00     0.163 HD
BRANCH   4   7
ATOM      7  C   UNL A   1      32.065  20.409  24.490  1.00  0.00     0.102 C 
ATOM      8  C   UNL A   1      32.063  22.230  26.351  1.00  0.00     0.032 C 
ATOM      9  C   UNL A   1      31.532  21.766  25.005  1.00  0.00     0.094 C 
ATOM     10  N   UNL A   1      31.723  22.697  23.877  1.00  0.00    -0.335 N 
ATOM     11  C   UNL A   1      32.574  20.636  23.066  1.00  0.00     0.037 C 
ATOM     12  C   UNL A   1      31.987  21.968  22.651  1.00  0.00     0.121 C 
BRANCH  10  13
ATOM     13  C   UNL A   1      31.361  24.031  23.747  1.00  0.00     0.262 C 
ATOM     14  O   UNL A   1      30.426  24.421  23.052  1.00  0.00    -0.269 OA
BRANCH  13  15
ATOM     15  C   UNL A   1      32.113  25.069  24.458  1.00  0.00     0.136 A 
ATOM     16  C   UNL A   1      31.597  25.604  25.645  1.00  0.00     0.060 A 
ATOM     17  C   UNL A   1      33.311  25.584  23.948  1.00  0.00     0.283 A 
ATOM     18  Cl  UNL A   1      30.114  25.054  26.342  1.00  0.00    -0.083 Cl
ATOM     19  C   UNL A   1      32.297  26.608  26.326  1.00  0.00     0.022 A 
ATOM     20  C   UNL A   1      34.023  26.578  24.640  1.00  0.00     0.086 A 
ATOM     21  C   UNL A   1      33.511  27.088  25.831  1.00  0.00     0.009 A 
BRANCH  17  22
ATOM     22  N   UNL A   1      33.900  25.070  22.717  1.00  0.00     0.063 N 
ATOM     23  O   UNL A   1      34.662  24.101  22.832  1.00  0.00    -0.258 OA
ATOM     24  O   UNL A   1      33.628  25.632  21.654  1.00  0.00    -0.258 OA
ENDBRANCH  17  22
ENDBRANCH  13  15
ENDBRANCH  10  13
ENDBRANCH   4   7
ENDBRANCH   2   3
ENDBRANCH   1   2
BRANCH   1  25
ATOM     25  C   UNL A   1      35.752  23.427  25.829  1.00  0.00     0.023 C 
BRANCH  25  26
ATOM     26  C   UNL A   1      37.094  23.960  25.358  1.00  0.00     0.116 C 
BRANCH  26  27
ATOM     27  N   UNL A   1      38.190  23.027  25.573  1.00  0.00    -0.352 N 
ATOM     28  C   UNL A   1      39.376  23.219  26.247  1.00  0.00     0.251 C 
ATOM     29  H   UNL A   1      38.067  22.133  25.181  1.00  0.00     0.163 HD
ATOM     30  O   UNL A   1      40.241  22.354  26.231  1.00  0.00    -0.269 OA
BRANCH  28  31
ATOM     31  C   UNL A   1      39.606  24.494  26.959  1.00  0.00     0.039 A 
ATOM     32  C   UNL A   1      39.078  24.660  28.241  1.00  0.00     0.014 A 
ATOM     33  C   UNL A   1      40.379  25.501  26.377  1.00  0.00     0.014 A 
ATOM     34  C   UNL A   1      39.390  25.810  28.970  1.00  0.00     0.010 A 
ATOM     35  C   UNL A   1      40.766  26.596  27.138  1.00  0.00     0.010 A 
ATOM     36  C   UNL A   1      40.268  26.768  28.439  1.00  0.00    -0.014 A 
BRANCH  36  37
ATOM     37  C   UNL A   1      40.659  27.978  29.204  1.00  0.00     0.031 A 
ATOM     38  C   UNL A   1      41.997  28.019  29.893  1.00  0.00     0.074 A 
ATOM     39  C   UNL A   1      39.788  28.997  29.349  1.00  0.00     0.049 A 
ATOM     40  N   UNL A   1      42.486  28.923  30.700  1.00  0.00    -0.248 NA
ATOM     41  C   UNL A   1      42.888  26.866  29.675  1.00  0.00     0.031 C 
ATOM     42  C   UNL A   1      38.440  29.049  28.778  1.00  0.00     0.029 A 
ATOM     43  N   UNL A   1      39.903  30.181  30.032  1.00  0.00    -0.354 N 
ATOM     44  C   UNL A   1      43.722  28.436  31.108  1.00  0.00     0.074 A 
ATOM     45  C   UNL A   1      43.883  27.131  30.506  1.00  0.00     0.031 C 
ATOM     46  C   UNL A   1      37.866  30.217  29.113  1.00  0.00     0.029 A 
ATOM     47  C   UNL A   1      38.788  30.979  29.948  1.00  0.00     0.049 A 
ATOM     48  H   UNL A   1      40.711  30.436  30.535  1.00  0.00     0.167 HD
ATOM     49  C   UNL A   1      44.653  29.033  31.889  1.00  0.00     0.037 A 
ATOM     50  C   UNL A   1      38.537  32.190  30.486  1.00  0.00     0.037 A 
ATOM     51  C   UNL A   1      44.506  30.352  32.443  1.00  0.00     0.049 A 
ATOM     52  C   UNL A   1      39.602  32.853  31.315  1.00  0.00     0.074 A 
ATOM     53  C   UNL A   1      45.411  31.077  33.198  1.00  0.00     0.029 A 
ATOM     54  N   UNL A   1      43.383  31.151  32.289  1.00  0.00    -0.354 N 
ATOM     55  N   UNL A   1      40.787  32.400  31.651  1.00  0.00    -0.248 NA
ATOM     56  C   UNL A   1      39.304  34.197  31.830  1.00  0.00     0.031 C 
ATOM     57  C   UNL A   1      44.825  32.303  33.522  1.00  0.00     0.029 A 
ATOM     58  C   UNL A   1      43.569  32.359  32.937  1.00  0.00     0.049 A 
ATOM     59  H   UNL A   1      42.572  30.895  31.793  1.00  0.00     0.167 HD
ATOM     60  C   UNL A   1      41.387  33.413  32.390  1.00  0.00     0.074 A 
ATOM     61  C   UNL A   1      40.437  34.506  32.446  1.00  0.00     0.031 C 
ATOM     62  C   UNL A   1      42.615  33.439  32.966  1.00  0.00     0.037 A 
BRANCH  49  63
ATOM     63  C   UNL A   1      45.914  28.264  32.172  1.00  0.00     0.058 A 
ATOM     64  C   UNL A   1      47.023  28.325  31.314  1.00  0.00     0.135 A 
ATOM     65  C   UNL A   1      46.016  27.455  33.317  1.00  0.00     0.135 A 
ATOM     66  F   UNL A   1      46.973  29.068  30.196  1.00  0.00    -0.206 F 
ATOM     67  C   UNL A   1      48.173  27.581  31.554  1.00  0.00     0.059 A 
ATOM     68  C   UNL A   1      47.169  26.725  33.594  1.00  0.00     0.059 A 
ATOM     69  F   UNL A   1      44.988  27.359  34.172  1.00  0.00    -0.206 F 
ATOM     70  C   UNL A   1      48.235  26.780  32.695  1.00  0.00     0.060 A 
BRANCH  70  71
ATOM     71  S   UNL A   1      49.728  25.810  32.989  1.00  0.00     0.124 S 
ATOM     72  O   UNL A   1      50.228  26.414  34.221  1.00  0.00    -0.237 OA
ATOM     73  O   UNL A   1      49.202  24.454  33.119  1.00  0.00    -0.237 OA
ATOM     74  O   UNL A   1      50.533  26.055  31.797  1.00  0.00    -0.744 OA
ENDBRANCH  70  71
ENDBRANCH  49  63
BRANCH  50  75
ATOM     75  C   UNL A   1      37.243  32.869  30.216  1.00  0.00     0.058 A 
ATOM     76  C   UNL A   1      36.169  32.748  31.112  1.00  0.00     0.135 A 
ATOM     77  C   UNL A   1      37.056  33.666  29.076  1.00  0.00     0.135 A 
ATOM     78  F   UNL A   1      36.298  31.993  32.213  1.00  0.00    -0.206 F 
ATOM     79  C   UNL A   1      34.953  33.381  30.882  1.00  0.00     0.059 A 
ATOM     80  C   UNL A   1      35.855  34.327  28.836  1.00  0.00     0.059 A 
ATOM     81  F   UNL A   1      38.058  33.829  28.199  1.00  0.00    -0.206 F 
ATOM     82  C   UNL A   1      34.805  34.171  29.741  1.00  0.00     0.060 A 
BRANCH  82  83
ATOM     83  S   UNL A   1      33.239  35.033  29.480  1.00  0.00     0.124 S 
ATOM     84  O   UNL A   1      32.646  34.973  30.810  1.00  0.00    -0.237 OA
ATOM     85  O   UNL A   1      33.683  36.351  29.037  1.00  0.00    -0.237 OA
ATOM     86  O   UNL A   1      32.581  34.227  28.457  1.00  0.00    -0.744 OA
ENDBRANCH  82  83
ENDBRANCH  50  75
BRANCH  62  87
ATOM     87  C   UNL A   1      43.019  34.704  33.669  1.00  0.00     0.058 A 
ATOM     88  C   UNL A   1      42.897  34.847  35.059  1.00  0.00     0.135 A 
ATOM     89  C   UNL A   1      43.590  35.762  32.944  1.00  0.00     0.135 A 
ATOM     90  F   UNL A   1      42.355  33.866  35.795  1.00  0.00    -0.206 F 
ATOM     91  C   UNL A   1      43.307  36.009  35.705  1.00  0.00     0.059 A 
ATOM     92  C   UNL A   1      44.029  36.923  33.572  1.00  0.00     0.059 A 
ATOM     93  F   UNL A   1      43.738  35.669  31.613  1.00  0.00    -0.206 F 
ATOM     94  C   UNL A   1      43.873  37.041  34.953  1.00  0.00     0.060 A 
BRANCH  94  95
ATOM     95  S   UNL A   1      44.433  38.530  35.807  1.00  0.00     0.124 S 
ATOM     96  O   UNL A   1      43.746  38.410  37.088  1.00  0.00    -0.237 OA
ATOM     97  O   UNL A   1      45.881  38.344  35.844  1.00  0.00    -0.237 OA
ATOM     98  O   UNL A   1      43.969  39.610  34.943  1.00  0.00    -0.744 OA
ENDBRANCH  94  95
ENDBRANCH  62  87
ENDBRANCH  36  37
ENDBRANCH  28  31
ENDBRANCH  26  27
ENDBRANCH  25  26
ENDBRANCH   1  25
TORSDOF 17
ENDMDL
MODEL 3
REMARK VINA RESULT:     -12.0      1.002      1.967
REMARK SMILES C[C@@H]1[C@H](C(=O)NCCCCNC(=O)c2ccc(-c3c4nc(c(-c5c(F)cc(S(=O)(=O)[O-])cc5F)c5ccc([nH]5)c(-c5c(F)cc(S(=O)(=O)[O-])cc5F)c5nc(c(-c6c(F)cc(S(=O)(=O)[O-])cc6F)c6ccc3[nH]6)C=C5)C=C4)cc2)CCN1C(=O)c1c(Cl)cccc1[N+](=O)[O-]
REMARK SMILES IDX 8 1 7 2 6 3 4 4 5 5 3 7 1 8 2 9 82 10 80 11 81 12 83 13
REMARK SMILES IDX 84 14 85 15 86 16 91 17 87 18 88 19 90 20 89 21 92 22 93 23
REMARK SMILES IDX 94 24 9 25 10 26 11 27 12 28 13 30 14 31 15 32 79 33 16 34
REMARK SMILES IDX 78 35 17 36 18 37 19 38 72 39 20 40 77 41 71 42 73 43 21 44
REMARK SMILES IDX 76 45 70 46 69 47 22 49 56 50 35 51 55 52 36 53 39 54 54 55
REMARK SMILES IDX 74 56 37 57 38 58 53 60 75 61 40 62 23 63 24 64 33 65 25 66
REMARK SMILES IDX 26 67 32 68 34 69 27 70 28 71 29 72 30 73 31 74 57 75 58 76
REMARK SMILES IDX 67 77 59 78 60 79 66 80 68 81 61 82 62 83 63 84 64 85 65 86
REMARK SMILES IDX 41 87 42 88 51 89 43 90 44 91 50 92 52 93 45 94 46 95 47 96
REMARK SMILES IDX 48 97 49 98
REMARK H PARENT 6 6 11 29 73 48 39 59
REMARK Flexibility Score: inf
ROOT
ATOM      1  C   UNL A   1      39.677  21.875  26.197  1.00  0.00     0.023 C 
ENDROOT
BRANCH   1   2
ATOM      2  C   UNL A   1      38.271  22.474  26.138  1.00  0.00     0.116 C 
BRANCH   2   3
ATOM      3  N   UNL A   1      37.300  21.559  25.562  1.00  0.00    -0.356 N 
ATOM      4  C   UNL A   1      35.951  21.474  25.685  1.00  0.00     0.225 C 
ATOM      5  O   UNL A   1      35.389  20.551  25.085  1.00  0.00    -0.275 OA
ATOM      6  H   UNL A   1      37.693  20.873  24.977  1.00  0.00     0.163 HD
BRANCH   4   7
ATOM      7  C   UNL A   1      35.115  22.433  26.522  1.00  0.00     0.102 C 
ATOM      8  C   UNL A   1      35.244  24.074  24.505  1.00  0.00     0.032 C 
ATOM      9  C   UNL A   1      34.762  23.813  25.922  1.00  0.00     0.094 C 
ATOM     10  N   UNL A   1      33.311  23.962  26.149  1.00  0.00    -0.335 N 
ATOM     11  C   UNL A   1      33.816  21.828  27.055  1.00  0.00     0.037 C 
ATOM     12  C   UNL A   1      32.843  22.985  27.114  1.00  0.00     0.121 C 
BRANCH  10  13
ATOM     13  C   UNL A   1      32.469  25.032  25.882  1.00  0.00     0.262 C 
ATOM     14  O   UNL A   1      31.502  25.331  26.578  1.00  0.00    -0.269 OA
BRANCH  13  15
ATOM     15  C   UNL A   1      32.706  25.878  24.709  1.00  0.00     0.136 A 
ATOM     16  C   UNL A   1      33.390  27.091  24.860  1.00  0.00     0.060 A 
ATOM     17  C   UNL A   1      32.214  25.531  23.444  1.00  0.00     0.283 A 
ATOM     18  Cl  UNL A   1      34.014  27.620  26.382  1.00  0.00    -0.083 Cl
ATOM     19  C   UNL A   1      33.609  27.916  23.749  1.00  0.00     0.022 A 
ATOM     20  C   UNL A   1      32.449  26.350  22.328  1.00  0.00     0.086 A 
ATOM     21  C   UNL A   1      33.149  27.545  22.485  1.00  0.00     0.009 A 
BRANCH  17  22
ATOM     22  N   UNL A   1      31.494  24.283  23.222  1.00  0.00     0.063 N 
ATOM     23  O   UNL A   1      30.263  24.324  23.352  1.00  0.00    -0.258 OA
ATOM     24  O   UNL A   1      32.141  23.270  22.944  1.00  0.00    -0.258 OA
ENDBRANCH  17  22
ENDBRANCH  13  15
ENDBRANCH  10  13
ENDBRANCH   4   7
ENDBRANCH   2   3
ENDBRANCH   1   2
BRANCH   1  25
ATOM     25  C   UNL A   1      40.425  22.054  27.511  1.00  0.00     0.023 C 
BRANCH  25  26
ATOM     26  C   UNL A   1      41.530  23.096  27.490  1.00  0.00     0.116 C 
BRANCH  26  27
ATOM     27  N   UNL A   1      41.541  23.897  26.275  1.00  0.00    -0.352 N 
ATOM     28  C   UNL A   1      41.399  25.259  26.130  1.00  0.00     0.251 C 
ATOM     29  H   UNL A   1      41.670  23.394  25.439  1.00  0.00     0.163 HD
ATOM     30  O   UNL A   1      41.318  25.755  25.013  1.00  0.00    -0.269 OA
BRANCH  28  31
ATOM     31  C   UNL A   1      41.307  26.110  27.335  1.00  0.00     0.039 A 
ATOM     32  C   UNL A   1      42.301  27.062  27.570  1.00  0.00     0.014 A 
ATOM     33  C   UNL A   1      40.219  25.996  28.202  1.00  0.00     0.014 A 
ATOM     34  C   UNL A   1      42.163  27.952  28.638  1.00  0.00     0.010 A 
ATOM     35  C   UNL A   1      40.035  26.942  29.203  1.00  0.00     0.010 A 
ATOM     36  C   UNL A   1      41.010  27.923  29.438  1.00  0.00    -0.014 A 
BRANCH  36  37
ATOM     37  C   UNL A   1      40.808  28.885  30.551  1.00  0.00     0.031 A 
ATOM     38  C   UNL A   1      41.653  28.768  31.792  1.00  0.00     0.074 A 
ATOM     39  C   UNL A   1      39.823  29.802  30.482  1.00  0.00     0.049 A 
ATOM     40  N   UNL A   1      41.565  29.426  32.918  1.00  0.00    -0.248 NA
ATOM     41  C   UNL A   1      42.710  27.743  31.779  1.00  0.00     0.031 C 
ATOM     42  C   UNL A   1      38.902  29.975  29.357  1.00  0.00     0.029 A 
ATOM     43  N   UNL A   1      39.423  30.754  31.385  1.00  0.00    -0.354 N 
ATOM     44  C   UNL A   1      42.532  28.877  33.753  1.00  0.00     0.074 A 
ATOM     45  C   UNL A   1      43.154  27.793  33.024  1.00  0.00     0.031 C 
ATOM     46  C   UNL A   1      38.064  30.990  29.626  1.00  0.00     0.029 A 
ATOM     47  C   UNL A   1      38.364  31.516  30.954  1.00  0.00     0.049 A 
ATOM     48  H   UNL A   1      39.857  30.880  32.261  1.00  0.00     0.167 HD
ATOM     49  C   UNL A   1      42.891  29.260  35.001  1.00  0.00     0.037 A 
ATOM     50  C   UNL A   1      37.708  32.524  31.562  1.00  0.00     0.037 A 
ATOM     51  C   UNL A   1      42.301  30.371  35.698  1.00  0.00     0.049 A 
ATOM     52  C   UNL A   1      38.152  32.960  32.931  1.00  0.00     0.074 A 
ATOM     53  C   UNL A   1      42.630  30.881  36.941  1.00  0.00     0.029 A 
ATOM     54  N   UNL A   1      41.267  31.152  35.203  1.00  0.00    -0.354 N 
ATOM     55  N   UNL A   1      39.102  32.462  33.688  1.00  0.00    -0.248 NA
ATOM     56  C   UNL A   1      37.444  34.101  33.528  1.00  0.00     0.031 C 
ATOM     57  C   UNL A   1      41.776  31.956  37.210  1.00  0.00     0.029 A 
ATOM     58  C   UNL A   1      40.942  32.139  36.118  1.00  0.00     0.049 A 
ATOM     59  H   UNL A   1      40.828  31.022  34.332  1.00  0.00     0.167 HD
ATOM     60  C   UNL A   1      39.126  33.247  34.835  1.00  0.00     0.074 A 
ATOM     61  C   UNL A   1      38.100  34.257  34.670  1.00  0.00     0.031 C 
ATOM     62  C   UNL A   1      39.927  33.144  35.924  1.00  0.00     0.037 A 
BRANCH  49  63
ATOM     63  C   UNL A   1      43.980  28.474  35.677  1.00  0.00     0.058 A 
ATOM     64  C   UNL A   1      43.691  27.399  36.533  1.00  0.00     0.135 A 
ATOM     65  C   UNL A   1      45.331  28.798  35.468  1.00  0.00     0.135 A 
ATOM     66  F   UNL A   1      42.416  27.058  36.783  1.00  0.00    -0.206 F 
ATOM     67  C   UNL A   1      44.698  26.700  37.190  1.00  0.00     0.059 A 
ATOM     68  C   UNL A   1      46.356  28.092  36.091  1.00  0.00     0.059 A 
ATOM     69  F   UNL A   1      45.666  29.816  34.660  1.00  0.00    -0.206 F 
ATOM     70  C   UNL A   1      46.028  27.057  36.967  1.00  0.00     0.060 A 
BRANCH  70  71
ATOM     71  S   UNL A   1      47.324  26.149  37.835  1.00  0.00     0.124 S 
ATOM     72  O   UNL A   1      47.990  27.224  38.566  1.00  0.00    -0.237 OA
ATOM     73  O   UNL A   1      46.558  25.211  38.651  1.00  0.00    -0.237 OA
ATOM     74  O   UNL A   1      48.100  25.548  36.756  1.00  0.00    -0.744 OA
ENDBRANCH  70  71
ENDBRANCH  49  63
BRANCH  50  75
ATOM     75  C   UNL A   1      36.597  33.218  30.860  1.00  0.00     0.058 A 
ATOM     76  C   UNL A   1      35.269  33.050  31.279  1.00  0.00     0.135 A 
ATOM     77  C   UNL A   1      36.837  34.076  29.775  1.00  0.00     0.135 A 
ATOM     78  F   UNL A   1      34.988  32.237  32.308  1.00  0.00    -0.206 F 
ATOM     79  C   UNL A   1      34.215  33.696  30.640  1.00  0.00     0.059 A 
ATOM     80  C   UNL A   1      35.802  34.749  29.134  1.00  0.00     0.059 A 
ATOM     81  F   UNL A   1      38.092  34.284  29.349  1.00  0.00    -0.206 F 
ATOM     82  C   UNL A   1      34.492  34.547  29.568  1.00  0.00     0.060 A 
BRANCH  82  83
ATOM     83  S   UNL A   1      33.123  35.423  28.781  1.00  0.00     0.124 S 
ATOM     84  O   UNL A   1      33.828  36.452  28.027  1.00  0.00    -0.237 OA
ATOM     85  O   UNL A   1      32.495  34.369  27.992  1.00  0.00    -0.237 OA
ATOM     86  O   UNL A   1      32.336  35.899  29.915  1.00  0.00    -0.744 OA
ENDBRANCH  82  83
ENDBRANCH  50  75
BRANCH  62  87
ATOM     87  C   UNL A   1      39.759  34.176  37.003  1.00  0.00     0.058 A 
ATOM     88  C   UNL A   1      38.950  33.945  38.126  1.00  0.00     0.135 A 
ATOM     89  C   UNL A   1      40.464  35.388  36.936  1.00  0.00     0.135 A 
ATOM     90  F   UNL A   1      38.253  32.804  38.233  1.00  0.00    -0.206 F 
ATOM     91  C   UNL A   1      38.828  34.893  39.137  1.00  0.00     0.059 A 
ATOM     92  C   UNL A   1      40.376  36.340  37.948  1.00  0.00     0.059 A 
ATOM     93  F   UNL A   1      41.260  35.652  35.888  1.00  0.00    -0.206 F 
ATOM     94  C   UNL A   1      39.545  36.086  39.039  1.00  0.00     0.060 A 
BRANCH  94  95
ATOM     95  S   UNL A   1      39.407  37.294  40.374  1.00  0.00     0.124 S 
ATOM     96  O   UNL A   1      38.718  38.393  39.705  1.00  0.00    -0.237 OA
ATOM     97  O   UNL A   1      38.625  36.570  41.373  1.00  0.00    -0.237 OA
ATOM     98  O   UNL A   1      40.795  37.554  40.742  1.00  0.00    -0.744 OA
ENDBRANCH  94  95
ENDBRANCH  62  87
ENDBRANCH  36  37
ENDBRANCH  28  31
ENDBRANCH  26  27
ENDBRANCH  25  26
ENDBRANCH   1  25
TORSDOF 17
ENDMDL
