MODEL 1
REMARK VINA RESULT:     -11.1      0.000      0.000
REMARK SMILES CCC[C@H](CNC(=O)N1C[C@H]2CCC[N@H+]2C[C@@H]1C)C(=O)NCCCCNC(=O)c1ccc(-c2c3nc(c(-c4c(F)cc(S(=O)(=O)[O-])cc4F)c4ccc([nH]4)c(-c4c(F)cc(S(=O)(=O)[O-])cc4F)c4nc(c(-c5c(F)cc(S(=O)(=O)[O-])cc5F)c5ccc2[nH]5)C=C4)C=C3)cc1
REMARK SMILES IDX 23 1 22 2 21 3 19 4 20 5 4 7 3 8 2 9 1 10 5 11 6 12 7 13
REMARK SMILES IDX 8 15 9 16 10 17 17 18 11 19 16 20 18 21 12 22 15 23 13 24
REMARK SMILES IDX 14 25 24 27 25 28 26 29 27 30 28 32 29 33 30 34 94 35 31 36
REMARK SMILES IDX 93 37 32 38 33 39 34 40 87 41 35 42 92 43 86 44 88 45 36 46
REMARK SMILES IDX 91 47 85 48 84 49 37 51 71 52 50 53 70 54 51 55 54 56 69 57
REMARK SMILES IDX 89 58 52 59 53 60 68 62 90 63 55 64 38 65 39 66 48 67 40 68
REMARK SMILES IDX 41 69 47 70 49 71 42 72 43 73 44 74 45 75 46 76 72 77 73 78
REMARK SMILES IDX 82 79 74 80 75 81 81 82 83 83 76 84 77 85 78 86 79 87 80 88
REMARK SMILES IDX 56 89 57 90 66 91 58 92 59 93 65 94 67 95 60 96 61 97 62 98
REMARK SMILES IDX 63 99 64 100
REMARK H PARENT 21 6 6 14 15 26 26 31 88 50 54 61
REMARK Flexibility Score: inf
ROOT
ATOM      1  C   UNL A   1      34.393  30.391  27.358  1.00  0.00     0.023 C 
ENDROOT
BRANCH   1   2
ATOM      2  C   UNL A   1      34.055  28.964  26.939  1.00  0.00     0.116 C 
BRANCH   2   3
ATOM      3  N   UNL A   1      32.834  28.497  27.558  1.00  0.00    -0.356 N 
ATOM      4  C   UNL A   1      31.777  27.830  27.029  1.00  0.00     0.224 C 
ATOM      5  O   UNL A   1      30.810  27.613  27.763  1.00  0.00    -0.275 OA
ATOM      6  H   UNL A   1      32.758  28.695  28.519  1.00  0.00     0.163 HD
BRANCH   4   7
ATOM      7  C   UNL A   1      31.759  27.353  25.582  1.00  0.00     0.097 C 
BRANCH   7   8
ATOM      8  C   UNL A   1      30.543  27.837  24.769  1.00  0.00     0.015 C 
BRANCH   8   9
ATOM      9  C   UNL A   1      30.800  29.068  23.891  1.00  0.00    -0.003 C 
ATOM     10  C   UNL A   1      29.584  29.518  23.100  1.00  0.00     0.004 C 
ENDBRANCH   8   9
ENDBRANCH   7   8
BRANCH   7  11
ATOM     11  C   UNL A   1      32.099  25.851  25.496  1.00  0.00     0.131 C 
BRANCH  11  12
ATOM     12  N   UNL A   1      31.652  25.047  26.621  1.00  0.00    -0.337 N 
ATOM     13  C   UNL A   1      31.648  23.703  26.752  1.00  0.00     0.318 C 
ATOM     14  H   UNL A   1      31.305  25.550  27.392  1.00  0.00     0.165 HD
ATOM     15  O   UNL A   1      30.750  23.209  27.436  1.00  0.00    -0.249 OA
BRANCH  13  16
ATOM     16  N   UNL A   1      32.594  22.951  26.116  1.00  0.00    -0.311 N 
ATOM     17  C   UNL A   1      32.149  22.127  24.997  1.00  0.00     0.186 C 
ATOM     18  C   UNL A   1      33.993  22.726  26.574  1.00  0.00     0.139 C 
ATOM     19  C   UNL A   1      32.473  20.647  25.220  1.00  0.00     0.204 C 
ATOM     20  C   UNL A   1      34.684  21.575  25.771  1.00  0.00     0.287 C 
ATOM     21  C   UNL A   1      34.097  22.443  28.079  1.00  0.00     0.037 C 
ATOM     22  C   UNL A   1      32.254  19.825  23.952  1.00  0.00     0.073 C 
ATOM     23  N   UNL A   1      33.861  20.358  25.656  1.00  0.00    -0.329 N 
ATOM     24  C   UNL A   1      33.235  18.683  24.109  1.00  0.00     0.068 C 
ATOM     25  C   UNL A   1      34.435  19.365  24.742  1.00  0.00     0.262 C 
ATOM     26  H   UNL A   1      33.846  19.971  26.599  1.00  0.00     0.348 HD
ENDBRANCH  13  16
ENDBRANCH  11  12
ENDBRANCH   7  11
ENDBRANCH   4   7
ENDBRANCH   2   3
ENDBRANCH   1   2
BRANCH   1  27
ATOM     27  C   UNL A   1      35.774  30.552  27.993  1.00  0.00     0.023 C 
BRANCH  27  28
ATOM     28  C   UNL A   1      36.002  29.729  29.257  1.00  0.00     0.116 C 
BRANCH  28  29
ATOM     29  N   UNL A   1      35.958  30.523  30.475  1.00  0.00    -0.352 N 
ATOM     30  C   UNL A   1      37.008  30.922  31.268  1.00  0.00     0.251 C 
ATOM     31  H   UNL A   1      35.063  30.811  30.770  1.00  0.00     0.163 HD
ATOM     32  O   UNL A   1      36.799  31.500  32.331  1.00  0.00    -0.269 OA
BRANCH  30  33
ATOM     33  C   UNL A   1      38.384  30.610  30.838  1.00  0.00     0.039 A 
ATOM     34  C   UNL A   1      39.166  29.771  31.634  1.00  0.00     0.014 A 
ATOM     35  C   UNL A   1      38.874  31.099  29.624  1.00  0.00     0.014 A 
ATOM     36  C   UNL A   1      40.423  29.368  31.177  1.00  0.00     0.010 A 
ATOM     37  C   UNL A   1      40.093  30.640  29.139  1.00  0.00     0.010 A 
ATOM     38  C   UNL A   1      40.880  29.771  29.912  1.00  0.00    -0.014 A 
BRANCH  38  39
ATOM     39  C   UNL A   1      42.184  29.306  29.379  1.00  0.00     0.031 A 
ATOM     40  C   UNL A   1      43.334  30.268  29.271  1.00  0.00     0.074 A 
ATOM     41  C   UNL A   1      42.309  28.041  28.929  1.00  0.00     0.049 A 
ATOM     42  N   UNL A   1      44.521  30.081  28.757  1.00  0.00    -0.248 NA
ATOM     43  C   UNL A   1      43.107  31.631  29.781  1.00  0.00     0.031 C 
ATOM     44  C   UNL A   1      41.249  27.030  28.932  1.00  0.00     0.029 A 
ATOM     45  N   UNL A   1      43.381  27.393  28.369  1.00  0.00    -0.354 N 
ATOM     46  C   UNL A   1      45.176  31.304  28.864  1.00  0.00     0.074 A 
ATOM     47  C   UNL A   1      44.235  32.237  29.442  1.00  0.00     0.031 C 
ATOM     48  C   UNL A   1      41.730  25.886  28.420  1.00  0.00     0.029 A 
ATOM     49  C   UNL A   1      43.120  26.088  28.022  1.00  0.00     0.049 A 
ATOM     50  H   UNL A   1      44.257  27.822  28.230  1.00  0.00     0.167 HD
ATOM     51  C   UNL A   1      46.452  31.612  28.534  1.00  0.00     0.037 A 
ATOM     52  C   UNL A   1      43.910  25.163  27.444  1.00  0.00     0.037 A 
ATOM     53  C   UNL A   1      47.393  30.667  27.993  1.00  0.00     0.049 A 
ATOM     54  C   UNL A   1      45.332  25.524  27.105  1.00  0.00     0.074 A 
ATOM     55  C   UNL A   1      48.726  30.864  27.678  1.00  0.00     0.029 A 
ATOM     56  N   UNL A   1      47.101  29.346  27.690  1.00  0.00    -0.354 N 
ATOM     57  N   UNL A   1      45.952  26.669  27.265  1.00  0.00    -0.248 NA
ATOM     58  C   UNL A   1      46.163  24.467  26.514  1.00  0.00     0.031 C 
ATOM     59  C   UNL A   1      49.231  29.670  27.154  1.00  0.00     0.029 A 
ATOM     60  C   UNL A   1      48.225  28.717  27.181  1.00  0.00     0.049 A 
ATOM     61  H   UNL A   1      46.223  28.917  27.817  1.00  0.00     0.167 HD
ATOM     62  C   UNL A   1      47.253  26.462  26.822  1.00  0.00     0.074 A 
ATOM     63  C   UNL A   1      47.333  25.080  26.395  1.00  0.00     0.031 C 
ATOM     64  C   UNL A   1      48.288  27.336  26.774  1.00  0.00     0.037 A 
BRANCH  51  65
ATOM     65  C   UNL A   1      46.904  33.027  28.764  1.00  0.00     0.058 A 
ATOM     66  C   UNL A   1      46.786  34.008  27.766  1.00  0.00     0.135 A 
ATOM     67  C   UNL A   1      47.442  33.415  30.002  1.00  0.00     0.135 A 
ATOM     68  F   UNL A   1      46.295  33.688  26.559  1.00  0.00    -0.206 F 
ATOM     69  C   UNL A   1      47.215  35.314  27.975  1.00  0.00     0.059 A 
ATOM     70  C   UNL A   1      47.852  34.723  30.242  1.00  0.00     0.059 A 
ATOM     71  F   UNL A   1      47.579  32.517  30.991  1.00  0.00    -0.206 F 
ATOM     72  C   UNL A   1      47.750  35.661  29.216  1.00  0.00     0.060 A 
BRANCH  72  73
ATOM     73  S   UNL A   1      48.303  37.361  29.472  1.00  0.00     0.124 S 
ATOM     74  O   UNL A   1      48.734  37.318  30.866  1.00  0.00    -0.237 OA
ATOM     75  O   UNL A   1      49.368  37.496  28.483  1.00  0.00    -0.237 OA
ATOM     76  O   UNL A   1      47.104  38.151  29.209  1.00  0.00    -0.744 OA
ENDBRANCH  72  73
ENDBRANCH  51  65
BRANCH  52  77
ATOM     77  C   UNL A   1      43.386  23.797  27.180  1.00  0.00     0.058 A 
ATOM     78  C   UNL A   1      43.020  23.406  25.883  1.00  0.00     0.135 A 
ATOM     79  C   UNL A   1      43.248  22.855  28.210  1.00  0.00     0.135 A 
ATOM     80  F   UNL A   1      43.129  24.274  24.865  1.00  0.00    -0.206 F 
ATOM     81  C   UNL A   1      42.519  22.136  25.618  1.00  0.00     0.059 A 
ATOM     82  C   UNL A   1      42.772  21.570  27.967  1.00  0.00     0.059 A 
ATOM     83  F   UNL A   1      43.601  23.174  29.465  1.00  0.00    -0.206 F 
ATOM     84  C   UNL A   1      42.400  21.224  26.668  1.00  0.00     0.060 A 
BRANCH  84  85
ATOM     85  S   UNL A   1      41.792  19.561  26.306  1.00  0.00     0.124 S 
ATOM     86  O   UNL A   1      42.499  19.254  25.069  1.00  0.00    -0.237 OA
ATOM     87  O   UNL A   1      42.215  18.816  27.488  1.00  0.00    -0.237 OA
ATOM     88  O   UNL A   1      40.350  19.754  26.181  1.00  0.00    -0.744 OA
ENDBRANCH  84  85
ENDBRANCH  52  77
BRANCH  64  89
ATOM     89  C   UNL A   1      49.608  26.816  26.279  1.00  0.00     0.058 A 
ATOM     90  C   UNL A   1      49.991  26.938  24.935  1.00  0.00     0.135 A 
ATOM     91  C   UNL A   1      50.523  26.238  27.174  1.00  0.00     0.135 A 
ATOM     92  F   UNL A   1      49.151  27.479  24.038  1.00  0.00    -0.206 F 
ATOM     93  C   UNL A   1      51.229  26.486  24.490  1.00  0.00     0.059 A 
ATOM     94  C   UNL A   1      51.775  25.801  26.756  1.00  0.00     0.059 A 
ATOM     95  F   UNL A   1      50.207  26.107  28.472  1.00  0.00    -0.206 F 
ATOM     96  C   UNL A   1      52.115  25.919  25.408  1.00  0.00     0.060 A 
BRANCH  96  97
ATOM     97  S   UNL A   1      53.732  25.368  24.827  1.00  0.00     0.124 S 
ATOM     98  O   UNL A   1      53.565  23.918  24.826  1.00  0.00    -0.237 OA
ATOM     99  O   UNL A   1      53.825  25.997  23.513  1.00  0.00    -0.237 OA
ATOM    100  O   UNL A   1      54.652  25.893  25.832  1.00  0.00    -0.744 OA
ENDBRANCH  96  97
ENDBRANCH  64  89
ENDBRANCH  38  39
ENDBRANCH  30  33
ENDBRANCH  28  29
ENDBRANCH  27  28
ENDBRANCH   1  27
TORSDOF 19
ENDMDL
MODEL 2
REMARK VINA RESULT:     -10.9      1.673      8.408
REMARK SMILES CCC[C@H](CNC(=O)N1C[C@H]2CCC[N@H+]2C[C@@H]1C)C(=O)NCCCCNC(=O)c1ccc(-c2c3nc(c(-c4c(F)cc(S(=O)(=O)[O-])cc4F)c4ccc([nH]4)c(-c4c(F)cc(S(=O)(=O)[O-])cc4F)c4nc(c(-c5c(F)cc(S(=O)(=O)[O-])cc5F)c5ccc2[nH]5)C=C4)C=C3)cc1
REMARK SMILES IDX 23 1 22 2 21 3 19 4 20 5 4 7 3 8 2 9 1 10 5 11 6 12 7 13
REMARK SMILES IDX 8 15 9 16 10 17 17 18 11 19 16 20 18 21 12 22 15 23 13 24
REMARK SMILES IDX 14 25 24 27 25 28 26 29 27 30 28 32 29 33 30 34 94 35 31 36
REMARK SMILES IDX 93 37 32 38 33 39 34 40 87 41 35 42 92 43 86 44 88 45 36 46
REMARK SMILES IDX 91 47 85 48 84 49 37 51 71 52 50 53 70 54 51 55 54 56 69 57
REMARK SMILES IDX 89 58 52 59 53 60 68 62 90 63 55 64 38 65 39 66 48 67 40 68
REMARK SMILES IDX 41 69 47 70 49 71 42 72 43 73 44 74 45 75 46 76 72 77 73 78
REMARK SMILES IDX 82 79 74 80 75 81 81 82 83 83 76 84 77 85 78 86 79 87 80 88
REMARK SMILES IDX 56 89 57 90 66 91 58 92 59 93 65 94 67 95 60 96 61 97 62 98
REMARK SMILES IDX 63 99 64 100
REMARK H PARENT 21 6 6 14 15 26 26 31 88 50 54 61
REMARK Flexibility Score: inf
ROOT
ATOM      1  C   UNL A   1      33.312  30.031  26.929  1.00  0.00     0.023 C 
ENDROOT
BRANCH   1   2
ATOM      2  C   UNL A   1      32.435  29.689  25.729  1.00  0.00     0.116 C 
BRANCH   2   3
ATOM      3  N   UNL A   1      33.218  29.509  24.525  1.00  0.00    -0.356 N 
ATOM      4  C   UNL A   1      32.875  28.982  23.322  1.00  0.00     0.224 C 
ATOM      5  O   UNL A   1      33.761  28.869  22.473  1.00  0.00    -0.275 OA
ATOM      6  H   UNL A   1      34.149  29.819  24.590  1.00  0.00     0.163 HD
BRANCH   4   7
ATOM      7  C   UNL A   1      31.452  28.538  23.006  1.00  0.00     0.097 C 
BRANCH   7   8
ATOM      8  C   UNL A   1      30.357  29.455  23.583  1.00  0.00     0.015 C 
BRANCH   8   9
ATOM      9  C   UNL A   1      29.162  29.700  22.653  1.00  0.00    -0.003 C 
ATOM     10  C   UNL A   1      27.947  28.850  22.983  1.00  0.00     0.004 C 
ENDBRANCH   8   9
ENDBRANCH   7   8
BRANCH   7  11
ATOM     11  C   UNL A   1      31.285  27.023  23.244  1.00  0.00     0.131 C 
BRANCH  11  12
ATOM     12  N   UNL A   1      31.814  26.166  22.197  1.00  0.00    -0.337 N 
ATOM     13  C   UNL A   1      32.833  25.284  22.259  1.00  0.00     0.318 C 
ATOM     14  H   UNL A   1      31.368  26.239  21.322  1.00  0.00     0.165 HD
ATOM     15  O   UNL A   1      33.494  25.117  21.233  1.00  0.00    -0.249 OA
BRANCH  13  16
ATOM     16  N   UNL A   1      33.112  24.643  23.433  1.00  0.00    -0.311 N 
ATOM     17  C   UNL A   1      34.413  24.902  24.040  1.00  0.00     0.186 C 
ATOM     18  C   UNL A   1      32.312  23.551  24.051  1.00  0.00     0.139 C 
ATOM     19  C   UNL A   1      35.215  23.611  24.235  1.00  0.00     0.204 C 
ATOM     20  C   UNL A   1      33.089  22.854  25.216  1.00  0.00     0.287 C 
ATOM     21  C   UNL A   1      31.845  22.497  23.037  1.00  0.00     0.037 C 
ATOM     22  C   UNL A   1      36.450  23.841  25.102  1.00  0.00     0.073 C 
ATOM     23  N   UNL A   1      34.475  22.492  24.868  1.00  0.00    -0.329 N 
ATOM     24  C   UNL A   1      36.669  22.491  25.752  1.00  0.00     0.068 C 
ATOM     25  C   UNL A   1      35.249  22.022  26.021  1.00  0.00     0.262 C 
ATOM     26  H   UNL A   1      34.379  21.729  24.199  1.00  0.00     0.348 HD
ENDBRANCH  13  16
ENDBRANCH  11  12
ENDBRANCH   7  11
ENDBRANCH   4   7
ENDBRANCH   2   3
ENDBRANCH   1   2
BRANCH   1  27
ATOM     27  C   UNL A   1      34.443  29.034  27.188  1.00  0.00     0.023 C 
BRANCH  27  28
ATOM     28  C   UNL A   1      35.675  29.622  27.868  1.00  0.00     0.116 C 
BRANCH  28  29
ATOM     29  N   UNL A   1      35.533  29.740  29.311  1.00  0.00    -0.352 N 
ATOM     30  C   UNL A   1      36.518  29.685  30.269  1.00  0.00     0.251 C 
ATOM     31  H   UNL A   1      34.616  29.877  29.644  1.00  0.00     0.163 HD
ATOM     32  O   UNL A   1      36.226  29.692  31.461  1.00  0.00    -0.269 OA
BRANCH  30  33
ATOM     33  C   UNL A   1      37.926  29.578  29.839  1.00  0.00     0.039 A 
ATOM     34  C   UNL A   1      38.876  29.112  30.749  1.00  0.00     0.014 A 
ATOM     35  C   UNL A   1      38.287  29.882  28.524  1.00  0.00     0.014 A 
ATOM     36  C   UNL A   1      40.185  28.888  30.318  1.00  0.00     0.010 A 
ATOM     37  C   UNL A   1      39.572  29.590  28.080  1.00  0.00     0.010 A 
ATOM     38  C   UNL A   1      40.534  29.092  28.973  1.00  0.00    -0.014 A 
BRANCH  38  39
ATOM     39  C   UNL A   1      41.902  28.801  28.478  1.00  0.00     0.031 A 
ATOM     40  C   UNL A   1      42.259  27.405  28.046  1.00  0.00     0.074 A 
ATOM     41  C   UNL A   1      42.837  29.772  28.485  1.00  0.00     0.049 A 
ATOM     42  N   UNL A   1      43.415  26.929  27.666  1.00  0.00    -0.248 NA
ATOM     43  C   UNL A   1      41.178  26.406  28.077  1.00  0.00     0.031 C 
ATOM     44  C   UNL A   1      42.625  31.151  28.931  1.00  0.00     0.029 A 
ATOM     45  N   UNL A   1      44.159  29.743  28.117  1.00  0.00    -0.354 N 
ATOM     46  C   UNL A   1      43.207  25.574  27.430  1.00  0.00     0.074 A 
ATOM     47  C   UNL A   1      41.827  25.295  27.761  1.00  0.00     0.031 C 
ATOM     48  C   UNL A   1      43.768  31.840  28.790  1.00  0.00     0.029 A 
ATOM     49  C   UNL A   1      44.803  30.948  28.276  1.00  0.00     0.049 A 
ATOM     50  H   UNL A   1      44.603  28.937  27.770  1.00  0.00     0.167 HD
ATOM     51  C   UNL A   1      44.079  24.655  26.956  1.00  0.00     0.037 A 
ATOM     52  C   UNL A   1      46.084  31.291  28.039  1.00  0.00     0.037 A 
ATOM     53  C   UNL A   1      45.441  24.948  26.594  1.00  0.00     0.049 A 
ATOM     54  C   UNL A   1      47.030  30.255  27.493  1.00  0.00     0.074 A 
ATOM     55  C   UNL A   1      46.389  24.100  26.051  1.00  0.00     0.029 A 
ATOM     56  N   UNL A   1      46.046  26.188  26.736  1.00  0.00    -0.354 N 
ATOM     57  N   UNL A   1      46.801  28.992  27.222  1.00  0.00    -0.248 NA
ATOM     58  C   UNL A   1      48.404  30.691  27.214  1.00  0.00     0.031 C 
ATOM     59  C   UNL A   1      47.579  24.820  25.894  1.00  0.00     0.029 A 
ATOM     60  C   UNL A   1      47.359  26.127  26.300  1.00  0.00     0.049 A 
ATOM     61  H   UNL A   1      45.607  26.994  27.093  1.00  0.00     0.167 HD
ATOM     62  C   UNL A   1      47.994  28.490  26.714  1.00  0.00     0.074 A 
ATOM     63  C   UNL A   1      48.939  29.588  26.707  1.00  0.00     0.031 C 
ATOM     64  C   UNL A   1      48.281  27.235  26.289  1.00  0.00     0.037 A 
BRANCH  51  65
ATOM     65  C   UNL A   1      43.579  23.246  26.790  1.00  0.00     0.058 A 
ATOM     66  C   UNL A   1      43.349  22.413  27.898  1.00  0.00     0.135 A 
ATOM     67  C   UNL A   1      43.305  22.729  25.514  1.00  0.00     0.135 A 
ATOM     68  F   UNL A   1      43.610  22.851  29.139  1.00  0.00    -0.206 F 
ATOM     69  C   UNL A   1      42.897  21.107  27.743  1.00  0.00     0.059 A 
ATOM     70  C   UNL A   1      42.826  21.434  25.338  1.00  0.00     0.059 A 
ATOM     71  F   UNL A   1      43.509  23.482  24.421  1.00  0.00    -0.206 F 
ATOM     72  C   UNL A   1      42.641  20.626  26.458  1.00  0.00     0.060 A 
BRANCH  72  73
ATOM     73  S   UNL A   1      42.056  18.928  26.275  1.00  0.00     0.124 S 
ATOM     74  O   UNL A   1      42.172  18.432  27.642  1.00  0.00    -0.237 OA
ATOM     75  O   UNL A   1      40.694  19.117  25.784  1.00  0.00    -0.237 OA
ATOM     76  O   UNL A   1      42.989  18.349  25.314  1.00  0.00    -0.744 OA
ENDBRANCH  72  73
ENDBRANCH  51  65
BRANCH  52  77
ATOM     77  C   UNL A   1      46.538  32.685  28.285  1.00  0.00     0.058 A 
ATOM     78  C   UNL A   1      46.413  33.668  27.292  1.00  0.00     0.135 A 
ATOM     79  C   UNL A   1      47.096  33.065  29.515  1.00  0.00     0.135 A 
ATOM     80  F   UNL A   1      45.890  33.351  26.098  1.00  0.00    -0.206 F 
ATOM     81  C   UNL A   1      46.840  34.975  27.501  1.00  0.00     0.059 A 
ATOM     82  C   UNL A   1      47.509  34.372  29.757  1.00  0.00     0.059 A 
ATOM     83  F   UNL A   1      47.221  32.167  30.504  1.00  0.00    -0.206 F 
ATOM     84  C   UNL A   1      47.387  35.317  28.739  1.00  0.00     0.060 A 
BRANCH  84  85
ATOM     85  S   UNL A   1      47.896  37.028  29.018  1.00  0.00     0.124 S 
ATOM     86  O   UNL A   1      46.635  37.740  28.852  1.00  0.00    -0.237 OA
ATOM     87  O   UNL A   1      48.427  36.974  30.376  1.00  0.00    -0.237 OA
ATOM     88  O   UNL A   1      48.892  37.253  27.973  1.00  0.00    -0.744 OA
ENDBRANCH  84  85
ENDBRANCH  52  77
BRANCH  64  89
ATOM     89  C   UNL A   1      49.659  26.988  25.745  1.00  0.00     0.058 A 
ATOM     90  C   UNL A   1      49.979  27.243  24.403  1.00  0.00     0.135 A 
ATOM     91  C   UNL A   1      50.686  26.544  26.593  1.00  0.00     0.135 A 
ATOM     92  F   UNL A   1      49.031  27.665  23.550  1.00  0.00    -0.206 F 
ATOM     93  C   UNL A   1      51.266  27.045  23.915  1.00  0.00     0.059 A 
ATOM     94  C   UNL A   1      51.986  26.362  26.132  1.00  0.00     0.059 A 
ATOM     95  F   UNL A   1      50.433  26.295  27.888  1.00  0.00    -0.206 F 
ATOM     96  C   UNL A   1      52.263  26.605  24.787  1.00  0.00     0.060 A 
BRANCH  96  97
ATOM     97  S   UNL A   1      53.938  26.386  24.151  1.00  0.00     0.124 S 
ATOM     98  O   UNL A   1      54.549  27.668  24.485  1.00  0.00    -0.237 OA
ATOM     99  O   UNL A   1      54.416  25.237  24.914  1.00  0.00    -0.237 OA
ATOM    100  O   UNL A   1      53.731  26.142  22.726  1.00  0.00    -0.744 OA
ENDBRANCH  96  97
ENDBRANCH  64  89
ENDBRANCH  38  39
ENDBRANCH  30  33
ENDBRANCH  28  29
ENDBRANCH  27  28
ENDBRANCH   1  27
TORSDOF 19
ENDMDL
MODEL 3
REMARK VINA RESULT:     -10.9      1.654      2.417
REMARK SMILES CCC[C@H](CNC(=O)N1C[C@H]2CCC[N@H+]2C[C@@H]1C)C(=O)NCCCCNC(=O)c1ccc(-c2c3nc(c(-c4c(F)cc(S(=O)(=O)[O-])cc4F)c4ccc([nH]4)c(-c4c(F)cc(S(=O)(=O)[O-])cc4F)c4nc(c(-c5c(F)cc(S(=O)(=O)[O-])cc5F)c5ccc2[nH]5)C=C4)C=C3)cc1
REMARK SMILES IDX 23 1 22 2 21 3 19 4 20 5 4 7 3 8 2 9 1 10 5 11 6 12 7 13
REMARK SMILES IDX 8 15 9 16 10 17 17 18 11 19 16 20 18 21 12 22 15 23 13 24
REMARK SMILES IDX 14 25 24 27 25 28 26 29 27 30 28 32 29 33 30 34 94 35 31 36
REMARK SMILES IDX 93 37 32 38 33 39 34 40 87 41 35 42 92 43 86 44 88 45 36 46
REMARK SMILES IDX 91 47 85 48 84 49 37 51 71 52 50 53 70 54 51 55 54 56 69 57
REMARK SMILES IDX 89 58 52 59 53 60 68 62 90 63 55 64 38 65 39 66 48 67 40 68
REMARK SMILES IDX 41 69 47 70 49 71 42 72 43 73 44 74 45 75 46 76 72 77 73 78
REMARK SMILES IDX 82 79 74 80 75 81 81 82 83 83 76 84 77 85 78 86 79 87 80 88
REMARK SMILES IDX 56 89 57 90 66 91 58 92 59 93 65 94 67 95 60 96 61 97 62 98
REMARK SMILES IDX 63 99 64 100
REMARK H PARENT 21 6 6 14 15 26 26 31 88 50 54 61
REMARK Flexibility Score: inf
ROOT
ATOM      1  C   UNL A   1      33.222  30.140  26.824  1.00  0.00     0.023 C 
ENDROOT
BRANCH   1   2
ATOM      2  C   UNL A   1      32.330  29.781  25.641  1.00  0.00     0.116 C 
BRANCH   2   3
ATOM      3  N   UNL A   1      33.101  29.548  24.438  1.00  0.00    -0.356 N 
ATOM      4  C   UNL A   1      32.787  28.864  23.309  1.00  0.00     0.224 C 
ATOM      5  O   UNL A   1      33.662  28.746  22.448  1.00  0.00    -0.275 OA
ATOM      6  H   UNL A   1      33.998  29.952  24.440  1.00  0.00     0.163 HD
BRANCH   4   7
ATOM      7  C   UNL A   1      31.409  28.254  23.086  1.00  0.00     0.097 C 
BRANCH   7   8
ATOM      8  C   UNL A   1      30.254  29.037  23.739  1.00  0.00     0.015 C 
BRANCH   8   9
ATOM      9  C   UNL A   1      29.606  30.100  22.843  1.00  0.00    -0.003 C 
ATOM     10  C   UNL A   1      28.783  31.123  23.608  1.00  0.00     0.004 C 
ENDBRANCH   8   9
ENDBRANCH   7   8
BRANCH   7  11
ATOM     11  C   UNL A   1      31.439  26.730  23.328  1.00  0.00     0.131 C 
BRANCH  11  12
ATOM     12  N   UNL A   1      31.858  25.928  22.191  1.00  0.00    -0.337 N 
ATOM     13  C   UNL A   1      32.840  25.004  22.124  1.00  0.00     0.318 C 
ATOM     14  H   UNL A   1      31.358  26.078  21.357  1.00  0.00     0.165 HD
ATOM     15  O   UNL A   1      33.423  24.882  21.046  1.00  0.00    -0.249 OA
BRANCH  13  16
ATOM     16  N   UNL A   1      33.168  24.273  23.230  1.00  0.00    -0.311 N 
ATOM     17  C   UNL A   1      34.421  24.604  23.900  1.00  0.00     0.186 C 
ATOM     18  C   UNL A   1      32.483  23.039  23.705  1.00  0.00     0.139 C 
ATOM     19  C   UNL A   1      35.358  23.394  23.979  1.00  0.00     0.204 C 
ATOM     20  C   UNL A   1      33.312  22.308  24.811  1.00  0.00     0.287 C 
ATOM     21  C   UNL A   1      32.153  22.058  22.572  1.00  0.00     0.037 C 
ATOM     22  C   UNL A   1      36.544  23.660  24.902  1.00  0.00     0.073 C 
ATOM     23  N   UNL A   1      34.736  22.139  24.467  1.00  0.00    -0.329 N 
ATOM     24  C   UNL A   1      36.900  22.278  25.410  1.00  0.00     0.068 C 
ATOM     25  C   UNL A   1      35.537  21.632  25.586  1.00  0.00     0.262 C 
ATOM     26  H   UNL A   1      34.736  21.447  23.718  1.00  0.00     0.348 HD
ENDBRANCH  13  16
ENDBRANCH  11  12
ENDBRANCH   7  11
ENDBRANCH   4   7
ENDBRANCH   2   3
ENDBRANCH   1   2
BRANCH   1  27
ATOM     27  C   UNL A   1      34.322  29.119  27.119  1.00  0.00     0.023 C 
BRANCH  27  28
ATOM     28  C   UNL A   1      35.571  29.692  27.779  1.00  0.00     0.116 C 
BRANCH  28  29
ATOM     29  N   UNL A   1      35.379  30.019  29.184  1.00  0.00    -0.352 N 
ATOM     30  C   UNL A   1      36.326  30.081  30.179  1.00  0.00     0.251 C 
ATOM     31  H   UNL A   1      34.455  30.221  29.457  1.00  0.00     0.163 HD
ATOM     32  O   UNL A   1      35.991  30.265  31.345  1.00  0.00    -0.269 OA
BRANCH  30  33
ATOM     33  C   UNL A   1      37.745  29.884  29.826  1.00  0.00     0.039 A 
ATOM     34  C   UNL A   1      38.643  29.503  30.824  1.00  0.00     0.014 A 
ATOM     35  C   UNL A   1      38.169  30.019  28.501  1.00  0.00     0.014 A 
ATOM     36  C   UNL A   1      39.960  29.192  30.480  1.00  0.00     0.010 A 
ATOM     37  C   UNL A   1      39.460  29.640  28.150  1.00  0.00     0.010 A 
ATOM     38  C   UNL A   1      40.368  29.225  29.136  1.00  0.00    -0.014 A 
BRANCH  38  39
ATOM     39  C   UNL A   1      41.744  28.838  28.739  1.00  0.00     0.031 A 
ATOM     40  C   UNL A   1      42.832  29.876  28.706  1.00  0.00     0.074 A 
ATOM     41  C   UNL A   1      41.996  27.574  28.342  1.00  0.00     0.049 A 
ATOM     42  N   UNL A   1      44.072  29.760  28.308  1.00  0.00    -0.248 NA
ATOM     43  C   UNL A   1      42.467  31.232  29.149  1.00  0.00     0.031 C 
ATOM     44  C   UNL A   1      41.011  26.492  28.281  1.00  0.00     0.029 A 
ATOM     45  N   UNL A   1      43.157  26.989  27.903  1.00  0.00    -0.354 N 
ATOM     46  C   UNL A   1      44.629  31.028  28.435  1.00  0.00     0.074 A 
ATOM     47  C   UNL A   1      43.578  31.907  28.896  1.00  0.00     0.031 C 
ATOM     48  C   UNL A   1      41.614  25.372  27.852  1.00  0.00     0.029 A 
ATOM     49  C   UNL A   1      43.018  25.661  27.575  1.00  0.00     0.049 A 
ATOM     50  H   UNL A   1      44.011  27.475  27.831  1.00  0.00     0.167 HD
ATOM     51  C   UNL A   1      45.907  31.416  28.213  1.00  0.00     0.037 A 
ATOM     52  C   UNL A   1      43.919  24.780  27.101  1.00  0.00     0.037 A 
ATOM     53  C   UNL A   1      46.956  30.527  27.790  1.00  0.00     0.049 A 
ATOM     54  C   UNL A   1      45.338  25.231  26.881  1.00  0.00     0.074 A 
ATOM     55  C   UNL A   1      48.296  30.809  27.592  1.00  0.00     0.029 A 
ATOM     56  N   UNL A   1      46.783  29.181  27.504  1.00  0.00    -0.354 N 
ATOM     57  N   UNL A   1      45.862  26.420  27.062  1.00  0.00    -0.248 NA
ATOM     58  C   UNL A   1      46.290  24.220  26.402  1.00  0.00     0.031 C 
ATOM     59  C   UNL A   1      48.928  29.640  27.154  1.00  0.00     0.029 A 
ATOM     60  C   UNL A   1      47.990  28.619  27.120  1.00  0.00     0.049 A 
ATOM     61  H   UNL A   1      45.929  28.695  27.564  1.00  0.00     0.167 HD
ATOM     62  C   UNL A   1      47.210  26.293  26.745  1.00  0.00     0.074 A 
ATOM     63  C   UNL A   1      47.422  24.910  26.371  1.00  0.00     0.031 C 
ATOM     64  C   UNL A   1      48.184  27.236  26.764  1.00  0.00     0.037 A 
BRANCH  51  65
ATOM     65  C   UNL A   1      46.240  32.865  28.439  1.00  0.00     0.058 A 
ATOM     66  C   UNL A   1      46.142  33.811  27.405  1.00  0.00     0.135 A 
ATOM     67  C   UNL A   1      46.639  33.319  29.706  1.00  0.00     0.135 A 
ATOM     68  F   UNL A   1      45.781  33.428  26.170  1.00  0.00    -0.206 F 
ATOM     69  C   UNL A   1      46.461  35.148  27.611  1.00  0.00     0.059 A 
ATOM     70  C   UNL A   1      46.935  34.659  29.941  1.00  0.00     0.059 A 
ATOM     71  F   UNL A   1      46.750  32.457  30.729  1.00  0.00    -0.206 F 
ATOM     72  C   UNL A   1      46.859  35.562  28.882  1.00  0.00     0.060 A 
BRANCH  72  73
ATOM     73  S   UNL A   1      47.270  37.302  29.133  1.00  0.00     0.124 S 
ATOM     74  O   UNL A   1      46.249  37.705  30.095  1.00  0.00    -0.237 OA
ATOM     75  O   UNL A   1      48.634  37.232  29.649  1.00  0.00    -0.237 OA
ATOM     76  O   UNL A   1      47.138  37.878  27.799  1.00  0.00    -0.744 OA
ENDBRANCH  72  73
ENDBRANCH  51  65
BRANCH  52  77
ATOM     77  C   UNL A   1      43.515  23.374  26.834  1.00  0.00     0.058 A 
ATOM     78  C   UNL A   1      43.276  22.481  27.889  1.00  0.00     0.135 A 
ATOM     79  C   UNL A   1      43.351  22.897  25.525  1.00  0.00     0.135 A 
ATOM     80  F   UNL A   1      43.426  22.889  29.159  1.00  0.00    -0.206 F 
ATOM     81  C   UNL A   1      42.905  21.161  27.659  1.00  0.00     0.059 A 
ATOM     82  C   UNL A   1      42.958  21.587  25.267  1.00  0.00     0.059 A 
ATOM     83  F   UNL A   1      43.549  23.716  24.480  1.00  0.00    -0.206 F 
ATOM     84  C   UNL A   1      42.748  20.723  26.342  1.00  0.00     0.060 A 
BRANCH  84  85
ATOM     85  S   UNL A   1      42.222  19.019  26.053  1.00  0.00     0.124 S 
ATOM     86  O   UNL A   1      43.054  18.644  24.917  1.00  0.00    -0.237 OA
ATOM     87  O   UNL A   1      42.545  18.378  27.323  1.00  0.00    -0.237 OA
ATOM     88  O   UNL A   1      40.794  19.155  25.774  1.00  0.00    -0.744 OA
ENDBRANCH  84  85
ENDBRANCH  52  77
BRANCH  64  89
ATOM     89  C   UNL A   1      49.576  26.798  26.407  1.00  0.00     0.058 A 
ATOM     90  C   UNL A   1      50.409  26.160  27.338  1.00  0.00     0.135 A 
ATOM     91  C   UNL A   1      50.060  26.971  25.101  1.00  0.00     0.135 A 
ATOM     92  F   UNL A   1      49.995  25.976  28.602  1.00  0.00    -0.206 F 
ATOM     93  C   UNL A   1      51.685  25.726  26.991  1.00  0.00     0.059 A 
ATOM     94  C   UNL A   1      51.322  26.523  24.725  1.00  0.00     0.059 A 
ATOM     95  F   UNL A   1      49.297  27.567  24.171  1.00  0.00    -0.206 F 
ATOM     96  C   UNL A   1      52.132  25.911  25.682  1.00  0.00     0.060 A 
BRANCH  96  97
ATOM     97  S   UNL A   1      53.774  25.312  25.233  1.00  0.00     0.124 S 
ATOM     98  O   UNL A   1      53.736  23.944  25.739  1.00  0.00    -0.237 OA
ATOM     99  O   UNL A   1      53.773  25.451  23.780  1.00  0.00    -0.237 OA
ATOM    100  O   UNL A   1      54.672  26.219  25.942  1.00  0.00    -0.744 OA
ENDBRANCH  96  97
ENDBRANCH  64  89
ENDBRANCH  38  39
ENDBRANCH  30  33
ENDBRANCH  28  29
ENDBRANCH  27  28
ENDBRANCH   1  27
TORSDOF 19
ENDMDL
