MODEL 1
REMARK VINA RESULT:     -13.0      0.000      0.000
REMARK SMILES Cc1ccccc1NC(=O)C[NH+]1CCC(CC(=O)NCCCCNC(=O)c2ccc(-c3c4nc(c(-c5c(F)cc(S(=O)(=O)[O-])cc5F)c5ccc([nH]5)c(-c5c(F)cc(S(=O)(=O)[O-])cc5F)c5nc(c(-c6c(F)cc(S(=O)(=O)[O-])cc6F)c6ccc3[nH]6)C=C5)C=C4)cc2)CC1
REMARK SMILES IDX 21 1 20 2 19 3 17 4 18 5 16 7 15 8 12 9 13 10 94 11 14 13
REMARK SMILES IDX 93 14 11 15 9 16 8 17 10 19 7 20 1 21 2 22 3 23 4 24 6 25
REMARK SMILES IDX 5 26 22 27 23 28 24 29 25 30 26 32 27 33 28 34 92 35 29 36
REMARK SMILES IDX 91 37 30 38 31 39 32 40 85 41 33 42 90 43 84 44 86 45 34 46
REMARK SMILES IDX 89 47 83 48 82 49 35 51 69 52 48 53 68 54 49 55 52 56 67 57
REMARK SMILES IDX 87 58 50 59 51 60 66 62 88 63 53 64 36 65 37 66 46 67 38 68
REMARK SMILES IDX 39 69 45 70 47 71 40 72 41 73 42 74 43 75 44 76 70 77 71 78
REMARK SMILES IDX 80 79 72 80 73 81 79 82 81 83 74 84 75 85 76 86 77 87 78 88
REMARK SMILES IDX 54 89 55 90 64 91 56 92 57 93 63 94 65 95 58 96 59 97 60 98
REMARK SMILES IDX 61 99 62 100
REMARK H PARENT 19 6 12 12 8 18 24 31 86 50 52 61
REMARK Flexibility Score: inf
ROOT
ATOM      1  C   UNL A   1      32.086  29.863  25.351  1.00  0.00     0.023 C 
ENDROOT
BRANCH   1   2
ATOM      2  C   UNL A   1      31.574  28.926  24.238  1.00  0.00     0.116 C 
BRANCH   2   3
ATOM      3  N   UNL A   1      32.497  28.725  23.119  1.00  0.00    -0.356 N 
ATOM      4  C   UNL A   1      33.399  27.733  22.861  1.00  0.00     0.220 C 
ATOM      5  O   UNL A   1      34.015  27.757  21.791  1.00  0.00    -0.275 OA
ATOM      6  H   UNL A   1      32.460  29.428  22.431  1.00  0.00     0.163 HD
BRANCH   4   7
ATOM      7  C   UNL A   1      33.687  26.653  23.890  1.00  0.00     0.104 C 
BRANCH   7   8
ATOM      8  C   UNL A   1      33.006  25.317  23.550  1.00  0.00     0.009 C 
ATOM      9  N   UNL A   1      32.906  22.400  23.954  1.00  0.00    -0.327 N 
ATOM     10  C   UNL A   1      33.463  22.930  22.716  1.00  0.00     0.262 C 
ATOM     11  C   UNL A   1      31.879  23.271  24.513  1.00  0.00     0.262 C 
ATOM     12  H   UNL A   1      33.638  22.412  24.663  1.00  0.00     0.348 HD
ATOM     13  C   UNL A   1      34.000  24.327  22.962  1.00  0.00     0.066 C 
ATOM     14  C   UNL A   1      32.394  24.684  24.807  1.00  0.00     0.066 C 
BRANCH   9  15
ATOM     15  C   UNL A   1      32.569  20.963  23.858  1.00  0.00     0.363 C 
BRANCH  15  16
ATOM     16  C   UNL A   1      33.004  20.085  25.045  1.00  0.00     0.279 C 
ATOM     17  N   UNL A   1      34.121  20.332  25.796  1.00  0.00    -0.321 N 
ATOM     18  H   UNL A   1      34.238  19.731  26.568  1.00  0.00     0.170 HD
ATOM     19  O   UNL A   1      32.302  19.134  25.417  1.00  0.00    -0.268 OA
BRANCH  17  20
ATOM     20  C   UNL A   1      35.123  21.295  25.647  1.00  0.00     0.044 A 
ATOM     21  C   UNL A   1      34.069  22.712  27.519  1.00  0.00     0.046 C 
ATOM     22  C   UNL A   1      35.074  22.469  26.425  1.00  0.00    -0.027 A 
ATOM     23  C   UNL A   1      35.977  23.507  26.134  1.00  0.00     0.005 A 
ATOM     24  C   UNL A   1      36.920  23.375  25.115  1.00  0.00     0.000 A 
ATOM     25  C   UNL A   1      36.137  21.136  24.696  1.00  0.00     0.026 A 
ATOM     26  C   UNL A   1      37.019  22.180  24.415  1.00  0.00     0.002 A 
ENDBRANCH  17  20
ENDBRANCH  15  16
ENDBRANCH   9  15
ENDBRANCH   7   8
ENDBRANCH   4   7
ENDBRANCH   2   3
ENDBRANCH   1   2
BRANCH   1  27
ATOM     27  C   UNL A   1      31.821  29.410  26.783  1.00  0.00     0.023 C 
BRANCH  27  28
ATOM     28  C   UNL A   1      33.087  29.485  27.609  1.00  0.00     0.116 C 
BRANCH  28  29
ATOM     29  N   UNL A   1      33.642  30.821  27.792  1.00  0.00    -0.352 N 
ATOM     30  C   UNL A   1      34.864  31.147  28.380  1.00  0.00     0.251 C 
ATOM     31  H   UNL A   1      33.097  31.573  27.465  1.00  0.00     0.163 HD
ATOM     32  O   UNL A   1      35.205  32.268  28.678  1.00  0.00    -0.269 OA
BRANCH  30  33
ATOM     33  C   UNL A   1      35.831  30.027  28.486  1.00  0.00     0.039 A 
ATOM     34  C   UNL A   1      36.207  29.694  29.793  1.00  0.00     0.014 A 
ATOM     35  C   UNL A   1      36.658  29.768  27.398  1.00  0.00     0.014 A 
ATOM     36  C   UNL A   1      37.530  29.356  30.039  1.00  0.00     0.010 A 
ATOM     37  C   UNL A   1      37.999  29.558  27.660  1.00  0.00     0.010 A 
ATOM     38  C   UNL A   1      38.440  29.426  28.983  1.00  0.00    -0.014 A 
BRANCH  38  39
ATOM     39  C   UNL A   1      39.881  29.446  29.215  1.00  0.00     0.031 A 
ATOM     40  C   UNL A   1      40.648  28.238  28.855  1.00  0.00     0.074 A 
ATOM     41  C   UNL A   1      40.490  30.489  29.826  1.00  0.00     0.049 A 
ATOM     42  N   UNL A   1      41.616  27.754  29.555  1.00  0.00    -0.248 NA
ATOM     43  C   UNL A   1      40.311  27.430  27.689  1.00  0.00     0.031 C 
ATOM     44  C   UNL A   1      41.923  30.636  30.073  1.00  0.00     0.029 A 
ATOM     45  N   UNL A   1      39.911  31.524  30.570  1.00  0.00    -0.354 N 
ATOM     46  C   UNL A   1      42.192  26.746  28.811  1.00  0.00     0.074 A 
ATOM     47  C   UNL A   1      41.297  26.533  27.700  1.00  0.00     0.031 C 
ATOM     48  C   UNL A   1      42.088  31.444  31.132  1.00  0.00     0.029 A 
ATOM     49  C   UNL A   1      40.769  31.769  31.651  1.00  0.00     0.049 A 
ATOM     50  H   UNL A   1      39.066  31.990  30.372  1.00  0.00     0.167 HD
ATOM     51  C   UNL A   1      43.443  26.298  29.117  1.00  0.00     0.037 A 
ATOM     52  C   UNL A   1      40.396  31.685  32.959  1.00  0.00     0.037 A 
ATOM     53  C   UNL A   1      43.974  27.001  30.281  1.00  0.00     0.049 A 
ATOM     54  C   UNL A   1      41.187  30.639  33.720  1.00  0.00     0.074 A 
ATOM     55  C   UNL A   1      44.782  28.121  30.391  1.00  0.00     0.029 A 
ATOM     56  N   UNL A   1      43.401  26.808  31.536  1.00  0.00    -0.354 N 
ATOM     57  N   UNL A   1      41.909  29.714  33.146  1.00  0.00    -0.248 NA
ATOM     58  C   UNL A   1      41.223  30.541  35.177  1.00  0.00     0.031 C 
ATOM     59  C   UNL A   1      44.630  28.650  31.696  1.00  0.00     0.029 A 
ATOM     60  C   UNL A   1      43.757  27.834  32.394  1.00  0.00     0.049 A 
ATOM     61  H   UNL A   1      42.823  26.048  31.777  1.00  0.00     0.167 HD
ATOM     62  C   UNL A   1      42.491  28.916  34.101  1.00  0.00     0.074 A 
ATOM     63  C   UNL A   1      42.040  29.486  35.357  1.00  0.00     0.031 C 
ATOM     64  C   UNL A   1      43.299  27.859  33.777  1.00  0.00     0.037 A 
BRANCH  51  65
ATOM     65  C   UNL A   1      44.267  25.526  28.106  1.00  0.00     0.058 A 
ATOM     66  C   UNL A   1      44.829  26.165  26.983  1.00  0.00     0.135 A 
ATOM     67  C   UNL A   1      44.450  24.129  28.144  1.00  0.00     0.135 A 
ATOM     68  F   UNL A   1      44.845  27.500  26.871  1.00  0.00    -0.206 F 
ATOM     69  C   UNL A   1      45.386  25.463  25.913  1.00  0.00     0.059 A 
ATOM     70  C   UNL A   1      44.945  23.396  27.059  1.00  0.00     0.059 A 
ATOM     71  F   UNL A   1      44.166  23.426  29.251  1.00  0.00    -0.206 F 
ATOM     72  C   UNL A   1      45.397  24.075  25.936  1.00  0.00     0.060 A 
BRANCH  72  73
ATOM     73  S   UNL A   1      46.005  23.185  24.490  1.00  0.00     0.124 S 
ATOM     74  O   UNL A   1      47.012  24.100  23.962  1.00  0.00    -0.237 OA
ATOM     75  O   UNL A   1      46.515  21.955  25.086  1.00  0.00    -0.237 OA
ATOM     76  O   UNL A   1      44.813  23.035  23.660  1.00  0.00    -0.744 OA
ENDBRANCH  72  73
ENDBRANCH  51  65
BRANCH  52  77
ATOM     77  C   UNL A   1      39.005  32.128  33.243  1.00  0.00     0.058 A 
ATOM     78  C   UNL A   1      38.725  33.506  33.152  1.00  0.00     0.135 A 
ATOM     79  C   UNL A   1      37.915  31.249  33.208  1.00  0.00     0.135 A 
ATOM     80  F   UNL A   1      39.729  34.397  33.215  1.00  0.00    -0.206 F 
ATOM     81  C   UNL A   1      37.446  33.983  32.888  1.00  0.00     0.059 A 
ATOM     82  C   UNL A   1      36.621  31.705  32.935  1.00  0.00     0.059 A 
ATOM     83  F   UNL A   1      38.117  29.927  33.295  1.00  0.00    -0.206 F 
ATOM     84  C   UNL A   1      36.411  33.067  32.713  1.00  0.00     0.060 A 
BRANCH  84  85
ATOM     85  S   UNL A   1      34.812  33.673  32.115  1.00  0.00     0.124 S 
ATOM     86  O   UNL A   1      35.203  34.523  30.996  1.00  0.00    -0.237 OA
ATOM     87  O   UNL A   1      34.142  32.424  31.756  1.00  0.00    -0.237 OA
ATOM     88  O   UNL A   1      34.277  34.372  33.275  1.00  0.00    -0.744 OA
ENDBRANCH  84  85
ENDBRANCH  52  77
BRANCH  64  89
ATOM     89  C   UNL A   1      43.837  26.805  34.725  1.00  0.00     0.058 A 
ATOM     90  C   UNL A   1      43.108  25.687  35.165  1.00  0.00     0.135 A 
ATOM     91  C   UNL A   1      45.204  26.823  35.110  1.00  0.00     0.135 A 
ATOM     92  F   UNL A   1      41.837  25.490  34.790  1.00  0.00    -0.206 F 
ATOM     93  C   UNL A   1      43.674  24.693  35.971  1.00  0.00     0.059 A 
ATOM     94  C   UNL A   1      45.802  25.814  35.859  1.00  0.00     0.059 A 
ATOM     95  F   UNL A   1      46.021  27.826  34.753  1.00  0.00    -0.206 F 
ATOM     96  C   UNL A   1      45.022  24.760  36.308  1.00  0.00     0.060 A 
BRANCH  96  97
ATOM     97  S   UNL A   1      45.784  23.442  37.272  1.00  0.00     0.124 S 
ATOM     98  O   UNL A   1      47.202  23.756  37.124  1.00  0.00    -0.237 OA
ATOM     99  O   UNL A   1      45.229  23.652  38.606  1.00  0.00    -0.237 OA
ATOM    100  O   UNL A   1      45.328  22.231  36.597  1.00  0.00    -0.744 OA
ENDBRANCH  96  97
ENDBRANCH  64  89
ENDBRANCH  38  39
ENDBRANCH  30  33
ENDBRANCH  28  29
ENDBRANCH  27  28
ENDBRANCH   1  27
TORSDOF 18
ENDMDL
MODEL 2
REMARK VINA RESULT:     -12.7      2.478      3.447
REMARK SMILES Cc1ccccc1NC(=O)C[NH+]1CCC(CC(=O)NCCCCNC(=O)c2ccc(-c3c4nc(c(-c5c(F)cc(S(=O)(=O)[O-])cc5F)c5ccc([nH]5)c(-c5c(F)cc(S(=O)(=O)[O-])cc5F)c5nc(c(-c6c(F)cc(S(=O)(=O)[O-])cc6F)c6ccc3[nH]6)C=C5)C=C4)cc2)CC1
REMARK SMILES IDX 21 1 20 2 19 3 17 4 18 5 16 7 15 8 12 9 13 10 94 11 14 13
REMARK SMILES IDX 93 14 11 15 9 16 8 17 10 19 7 20 1 21 2 22 3 23 4 24 6 25
REMARK SMILES IDX 5 26 22 27 23 28 24 29 25 30 26 32 27 33 28 34 92 35 29 36
REMARK SMILES IDX 91 37 30 38 31 39 32 40 85 41 33 42 90 43 84 44 86 45 34 46
REMARK SMILES IDX 89 47 83 48 82 49 35 51 69 52 48 53 68 54 49 55 52 56 67 57
REMARK SMILES IDX 87 58 50 59 51 60 66 62 88 63 53 64 36 65 37 66 46 67 38 68
REMARK SMILES IDX 39 69 45 70 47 71 40 72 41 73 42 74 43 75 44 76 70 77 71 78
REMARK SMILES IDX 80 79 72 80 73 81 79 82 81 83 74 84 75 85 76 86 77 87 78 88
REMARK SMILES IDX 54 89 55 90 64 91 56 92 57 93 63 94 65 95 58 96 59 97 60 98
REMARK SMILES IDX 61 99 62 100
REMARK H PARENT 19 6 12 12 8 18 24 31 86 50 52 61
REMARK Flexibility Score: inf
ROOT
ATOM      1  C   UNL A   1      33.587  29.748  26.781  1.00  0.00     0.023 C 
ENDROOT
BRANCH   1   2
ATOM      2  C   UNL A   1      32.093  29.363  26.772  1.00  0.00     0.116 C 
BRANCH   2   3
ATOM      3  N   UNL A   1      31.429  29.469  25.472  1.00  0.00    -0.356 N 
ATOM      4  C   UNL A   1      31.533  28.711  24.341  1.00  0.00     0.220 C 
ATOM      5  O   UNL A   1      30.796  28.969  23.385  1.00  0.00    -0.275 OA
ATOM      6  H   UNL A   1      30.795  30.218  25.400  1.00  0.00     0.163 HD
BRANCH   4   7
ATOM      7  C   UNL A   1      32.573  27.609  24.233  1.00  0.00     0.104 C 
BRANCH   7   8
ATOM      8  C   UNL A   1      32.275  26.421  25.165  1.00  0.00     0.009 C 
ATOM      9  N   UNL A   1      32.379  23.509  25.598  1.00  0.00    -0.327 N 
ATOM     10  C   UNL A   1      31.105  24.137  25.273  1.00  0.00     0.262 C 
ATOM     11  C   UNL A   1      33.266  24.409  26.325  1.00  0.00     0.262 C 
ATOM     12  H   UNL A   1      32.880  23.337  24.726  1.00  0.00     0.348 HD
ATOM     13  C   UNL A   1      31.355  25.413  24.493  1.00  0.00     0.066 C 
ATOM     14  C   UNL A   1      33.570  25.697  25.553  1.00  0.00     0.066 C 
BRANCH   9  15
ATOM     15  C   UNL A   1      32.219  22.149  26.156  1.00  0.00     0.363 C 
BRANCH  15  16
ATOM     16  C   UNL A   1      32.610  20.985  25.228  1.00  0.00     0.279 C 
ATOM     17  N   UNL A   1      33.857  20.840  24.685  1.00  0.00    -0.321 N 
ATOM     18  H   UNL A   1      33.987  20.011  24.169  1.00  0.00     0.170 HD
ATOM     19  O   UNL A   1      31.806  20.074  24.986  1.00  0.00    -0.268 OA
BRANCH  17  20
ATOM     20  C   UNL A   1      34.977  21.675  24.742  1.00  0.00     0.044 A 
ATOM     21  C   UNL A   1      34.111  23.011  22.719  1.00  0.00     0.046 C 
ATOM     22  C   UNL A   1      35.140  22.680  23.768  1.00  0.00    -0.027 A 
ATOM     23  C   UNL A   1      36.356  23.386  23.726  1.00  0.00     0.005 A 
ATOM     24  C   UNL A   1      37.373  23.120  24.643  1.00  0.00     0.000 A 
ATOM     25  C   UNL A   1      35.964  21.488  25.716  1.00  0.00     0.026 A 
ATOM     26  C   UNL A   1      37.167  22.192  25.654  1.00  0.00     0.002 A 
ENDBRANCH  17  20
ENDBRANCH  15  16
ENDBRANCH   9  15
ENDBRANCH   7   8
ENDBRANCH   4   7
ENDBRANCH   2   3
ENDBRANCH   1   2
BRANCH   1  27
ATOM     27  C   UNL A   1      33.947  31.018  27.543  1.00  0.00     0.023 C 
BRANCH  27  28
ATOM     28  C   UNL A   1      35.449  31.188  27.619  1.00  0.00     0.116 C 
BRANCH  28  29
ATOM     29  N   UNL A   1      35.968  31.638  28.906  1.00  0.00    -0.352 N 
ATOM     30  C   UNL A   1      36.688  30.882  29.830  1.00  0.00     0.251 C 
ATOM     31  H   UNL A   1      35.792  32.577  29.148  1.00  0.00     0.163 HD
ATOM     32  O   UNL A   1      36.940  31.235  30.959  1.00  0.00    -0.269 OA
BRANCH  30  33
ATOM     33  C   UNL A   1      37.288  29.636  29.294  1.00  0.00     0.039 A 
ATOM     34  C   UNL A   1      37.622  28.678  30.259  1.00  0.00     0.014 A 
ATOM     35  C   UNL A   1      37.941  29.696  28.067  1.00  0.00     0.014 A 
ATOM     36  C   UNL A   1      38.799  27.960  30.105  1.00  0.00     0.010 A 
ATOM     37  C   UNL A   1      39.174  29.078  27.977  1.00  0.00     0.010 A 
ATOM     38  C   UNL A   1      39.630  28.271  29.028  1.00  0.00    -0.014 A 
BRANCH  38  39
ATOM     39  C   UNL A   1      41.023  27.841  28.986  1.00  0.00     0.031 A 
ATOM     40  C   UNL A   1      41.304  26.476  28.500  1.00  0.00     0.074 A 
ATOM     41  C   UNL A   1      42.023  28.617  29.465  1.00  0.00     0.049 A 
ATOM     42  N   UNL A   1      42.185  25.686  29.011  1.00  0.00    -0.248 NA
ATOM     43  C   UNL A   1      40.531  25.868  27.423  1.00  0.00     0.031 C 
ATOM     44  C   UNL A   1      43.452  28.310  29.439  1.00  0.00     0.029 A 
ATOM     45  N   UNL A   1      41.935  29.741  30.295  1.00  0.00    -0.354 N 
ATOM     46  C   UNL A   1      42.279  24.590  28.180  1.00  0.00     0.074 A 
ATOM     47  C   UNL A   1      41.177  24.714  27.257  1.00  0.00     0.031 C 
ATOM     48  C   UNL A   1      44.046  28.975  30.442  1.00  0.00     0.029 A 
ATOM     49  C   UNL A   1      43.007  29.660  31.196  1.00  0.00     0.049 A 
ATOM     50  H   UNL A   1      41.253  30.452  30.254  1.00  0.00     0.167 HD
ATOM     51  C   UNL A   1      43.365  23.768  28.251  1.00  0.00     0.037 A 
ATOM     52  C   UNL A   1      42.868  29.628  32.551  1.00  0.00     0.037 A 
ATOM     53  C   UNL A   1      44.287  24.218  29.291  1.00  0.00     0.049 A 
ATOM     54  C   UNL A   1      43.422  28.355  33.159  1.00  0.00     0.074 A 
ATOM     55  C   UNL A   1      45.406  25.033  29.238  1.00  0.00     0.029 A 
ATOM     56  N   UNL A   1      43.917  24.146  30.631  1.00  0.00    -0.354 N 
ATOM     57  N   UNL A   1      43.709  27.283  32.468  1.00  0.00    -0.248 NA
ATOM     58  C   UNL A   1      43.688  28.178  34.585  1.00  0.00     0.031 C 
ATOM     59  C   UNL A   1      45.662  25.516  30.544  1.00  0.00     0.029 A 
ATOM     60  C   UNL A   1      44.721  24.970  31.400  1.00  0.00     0.049 A 
ATOM     61  H   UNL A   1      43.187  23.587  30.983  1.00  0.00     0.167 HD
ATOM     62  C   UNL A   1      44.178  26.299  33.304  1.00  0.00     0.074 A 
ATOM     63  C   UNL A   1      44.159  26.917  34.618  1.00  0.00     0.031 C 
ATOM     64  C   UNL A   1      44.549  25.065  32.844  1.00  0.00     0.037 A 
BRANCH  51  65
ATOM     65  C   UNL A   1      43.715  22.834  27.111  1.00  0.00     0.058 A 
ATOM     66  C   UNL A   1      42.970  21.662  26.874  1.00  0.00     0.135 A 
ATOM     67  C   UNL A   1      44.844  22.994  26.281  1.00  0.00     0.135 A 
ATOM     68  F   UNL A   1      41.806  21.434  27.496  1.00  0.00    -0.206 F 
ATOM     69  C   UNL A   1      43.392  20.660  25.999  1.00  0.00     0.059 A 
ATOM     70  C   UNL A   1      45.324  21.980  25.445  1.00  0.00     0.059 A 
ATOM     71  F   UNL A   1      45.511  24.158  26.243  1.00  0.00    -0.206 F 
ATOM     72  C   UNL A   1      44.597  20.805  25.323  1.00  0.00     0.060 A 
BRANCH  72  73
ATOM     73  S   UNL A   1      45.187  19.445  24.296  1.00  0.00     0.124 S 
ATOM     74  O   UNL A   1      44.582  19.746  23.002  1.00  0.00    -0.237 OA
ATOM     75  O   UNL A   1      46.634  19.614  24.375  1.00  0.00    -0.237 OA
ATOM     76  O   UNL A   1      44.655  18.261  24.964  1.00  0.00    -0.744 OA
ENDBRANCH  72  73
ENDBRANCH  51  65
BRANCH  52  77
ATOM     77  C   UNL A   1      41.756  30.458  33.086  1.00  0.00     0.058 A 
ATOM     78  C   UNL A   1      40.543  29.808  33.390  1.00  0.00     0.135 A 
ATOM     79  C   UNL A   1      41.967  31.720  33.654  1.00  0.00     0.135 A 
ATOM     80  F   UNL A   1      40.272  28.610  32.845  1.00  0.00    -0.206 F 
ATOM     81  C   UNL A   1      39.649  30.315  34.327  1.00  0.00     0.059 A 
ATOM     82  C   UNL A   1      41.087  32.245  34.606  1.00  0.00     0.059 A 
ATOM     83  F   UNL A   1      43.099  32.390  33.400  1.00  0.00    -0.206 F 
ATOM     84  C   UNL A   1      39.965  31.503  34.981  1.00  0.00     0.060 A 
BRANCH  84  85
ATOM     85  S   UNL A   1      38.936  32.021  36.379  1.00  0.00     0.124 S 
ATOM     86  O   UNL A   1      38.024  30.891  36.527  1.00  0.00    -0.237 OA
ATOM     87  O   UNL A   1      39.933  32.171  37.437  1.00  0.00    -0.237 OA
ATOM     88  O   UNL A   1      38.331  33.254  35.895  1.00  0.00    -0.744 OA
ENDBRANCH  84  85
ENDBRANCH  52  77
BRANCH  64  89
ATOM     89  C   UNL A   1      44.898  23.851  33.683  1.00  0.00     0.058 A 
ATOM     90  C   UNL A   1      43.992  22.831  34.020  1.00  0.00     0.135 A 
ATOM     91  C   UNL A   1      46.246  23.608  34.059  1.00  0.00     0.135 A 
ATOM     92  F   UNL A   1      42.709  22.883  33.636  1.00  0.00    -0.206 F 
ATOM     93  C   UNL A   1      44.379  21.686  34.723  1.00  0.00     0.059 A 
ATOM     94  C   UNL A   1      46.662  22.447  34.705  1.00  0.00     0.059 A 
ATOM     95  F   UNL A   1      47.220  24.491  33.794  1.00  0.00    -0.206 F 
ATOM     96  C   UNL A   1      45.716  21.498  35.056  1.00  0.00     0.060 A 
BRANCH  96  97
ATOM     97  S   UNL A   1      46.243  19.987  35.885  1.00  0.00     0.124 S 
ATOM     98  O   UNL A   1      45.761  20.216  37.243  1.00  0.00    -0.237 OA
ATOM     99  O   UNL A   1      45.545  18.945  35.137  1.00  0.00    -0.237 OA
ATOM    100  O   UNL A   1      47.692  20.004  35.714  1.00  0.00    -0.744 OA
ENDBRANCH  96  97
ENDBRANCH  64  89
ENDBRANCH  38  39
ENDBRANCH  30  33
ENDBRANCH  28  29
ENDBRANCH  27  28
ENDBRANCH   1  27
TORSDOF 18
ENDMDL
MODEL 3
REMARK VINA RESULT:     -11.8      4.154     10.698
REMARK SMILES Cc1ccccc1NC(=O)C[NH+]1CCC(CC(=O)NCCCCNC(=O)c2ccc(-c3c4nc(c(-c5c(F)cc(S(=O)(=O)[O-])cc5F)c5ccc([nH]5)c(-c5c(F)cc(S(=O)(=O)[O-])cc5F)c5nc(c(-c6c(F)cc(S(=O)(=O)[O-])cc6F)c6ccc3[nH]6)C=C5)C=C4)cc2)CC1
REMARK SMILES IDX 21 1 20 2 19 3 17 4 18 5 16 7 15 8 12 9 13 10 94 11 14 13
REMARK SMILES IDX 93 14 11 15 9 16 8 17 10 19 7 20 1 21 2 22 3 23 4 24 6 25
REMARK SMILES IDX 5 26 22 27 23 28 24 29 25 30 26 32 27 33 28 34 92 35 29 36
REMARK SMILES IDX 91 37 30 38 31 39 32 40 85 41 33 42 90 43 84 44 86 45 34 46
REMARK SMILES IDX 89 47 83 48 82 49 35 51 69 52 48 53 68 54 49 55 52 56 67 57
REMARK SMILES IDX 87 58 50 59 51 60 66 62 88 63 53 64 36 65 37 66 46 67 38 68
REMARK SMILES IDX 39 69 45 70 47 71 40 72 41 73 42 74 43 75 44 76 70 77 71 78
REMARK SMILES IDX 80 79 72 80 73 81 79 82 81 83 74 84 75 85 76 86 77 87 78 88
REMARK SMILES IDX 54 89 55 90 64 91 56 92 57 93 63 94 65 95 58 96 59 97 60 98
REMARK SMILES IDX 61 99 62 100
REMARK H PARENT 19 6 12 12 8 18 24 31 86 50 52 61
REMARK Flexibility Score: inf
ROOT
ATOM      1  C   UNL A   1      39.934  21.264  26.520  1.00  0.00     0.023 C 
ENDROOT
BRANCH   1   2
ATOM      2  C   UNL A   1      38.756  22.002  25.851  1.00  0.00     0.116 C 
BRANCH   2   3
ATOM      3  N   UNL A   1      37.541  21.205  25.672  1.00  0.00    -0.356 N 
ATOM      4  C   UNL A   1      36.519  21.307  24.774  1.00  0.00     0.220 C 
ATOM      5  O   UNL A   1      35.631  20.450  24.787  1.00  0.00    -0.275 OA
ATOM      6  H   UNL A   1      37.445  20.464  26.313  1.00  0.00     0.163 HD
BRANCH   4   7
ATOM      7  C   UNL A   1      36.438  22.482  23.814  1.00  0.00     0.104 C 
BRANCH   7   8
ATOM      8  C   UNL A   1      35.732  23.702  24.431  1.00  0.00     0.009 C 
ATOM      9  N   UNL A   1      33.189  25.021  25.120  1.00  0.00    -0.327 N 
ATOM     10  C   UNL A   1      33.949  25.494  23.970  1.00  0.00     0.262 C 
ATOM     11  C   UNL A   1      34.049  24.460  26.154  1.00  0.00     0.262 C 
ATOM     12  H   UNL A   1      32.626  24.225  24.823  1.00  0.00     0.348 HD
ATOM     13  C   UNL A   1      34.799  24.361  23.426  1.00  0.00     0.066 C 
ATOM     14  C   UNL A   1      34.900  23.289  25.650  1.00  0.00     0.066 C 
BRANCH   9  15
ATOM     15  C   UNL A   1      32.169  25.993  25.568  1.00  0.00     0.363 C 
BRANCH  15  16
ATOM     16  C   UNL A   1      30.775  25.855  24.929  1.00  0.00     0.279 C 
ATOM     17  N   UNL A   1      30.275  24.672  24.458  1.00  0.00    -0.321 N 
ATOM     18  H   UNL A   1      29.343  24.716  24.142  1.00  0.00     0.170 HD
ATOM     19  O   UNL A   1      30.006  26.825  24.878  1.00  0.00    -0.268 OA
BRANCH  17  20
ATOM     20  C   UNL A   1      30.870  23.411  24.352  1.00  0.00     0.044 A 
ATOM     21  C   UNL A   1      30.322  22.920  26.818  1.00  0.00     0.046 C 
ATOM     22  C   UNL A   1      30.953  22.587  25.491  1.00  0.00    -0.027 A 
ATOM     23  C   UNL A   1      31.714  21.407  25.415  1.00  0.00     0.005 A 
ATOM     24  C   UNL A   1      32.356  21.041  24.232  1.00  0.00     0.000 A 
ATOM     25  C   UNL A   1      31.434  22.983  23.145  1.00  0.00     0.026 A 
ATOM     26  C   UNL A   1      32.193  21.814  23.090  1.00  0.00     0.002 A 
ENDBRANCH  17  20
ENDBRANCH  15  16
ENDBRANCH   9  15
ENDBRANCH   7   8
ENDBRANCH   4   7
ENDBRANCH   2   3
ENDBRANCH   1   2
BRANCH   1  27
ATOM     27  C   UNL A   1      41.298  21.934  26.403  1.00  0.00     0.023 C 
BRANCH  27  28
ATOM     28  C   UNL A   1      41.229  23.370  26.875  1.00  0.00     0.116 C 
BRANCH  28  29
ATOM     29  N   UNL A   1      42.301  24.241  26.404  1.00  0.00    -0.352 N 
ATOM     30  C   UNL A   1      42.227  25.616  26.183  1.00  0.00     0.251 C 
ATOM     31  H   UNL A   1      43.169  23.812  26.223  1.00  0.00     0.163 HD
ATOM     32  O   UNL A   1      43.077  26.267  25.621  1.00  0.00    -0.269 OA
BRANCH  30  33
ATOM     33  C   UNL A   1      41.082  26.298  26.834  1.00  0.00     0.039 A 
ATOM     34  C   UNL A   1      40.758  27.550  26.297  1.00  0.00     0.014 A 
ATOM     35  C   UNL A   1      40.783  25.968  28.152  1.00  0.00     0.014 A 
ATOM     36  C   UNL A   1      40.386  28.569  27.161  1.00  0.00     0.010 A 
ATOM     37  C   UNL A   1      40.539  27.012  29.024  1.00  0.00     0.010 A 
ATOM     38  C   UNL A   1      40.415  28.319  28.534  1.00  0.00    -0.014 A 
BRANCH  38  39
ATOM     39  C   UNL A   1      40.396  29.402  29.511  1.00  0.00     0.031 A 
ATOM     40  C   UNL A   1      39.275  30.360  29.450  1.00  0.00     0.074 A 
ATOM     41  C   UNL A   1      41.415  29.593  30.382  1.00  0.00     0.049 A 
ATOM     42  N   UNL A   1      39.392  31.632  29.625  1.00  0.00    -0.248 NA
ATOM     43  C   UNL A   1      37.923  29.941  29.101  1.00  0.00     0.031 C 
ATOM     44  C   UNL A   1      41.486  30.613  31.426  1.00  0.00     0.029 A 
ATOM     45  N   UNL A   1      42.706  29.053  30.348  1.00  0.00    -0.354 N 
ATOM     46  C   UNL A   1      38.117  32.154  29.674  1.00  0.00     0.074 A 
ATOM     47  C   UNL A   1      37.248  31.078  29.265  1.00  0.00     0.031 C 
ATOM     48  C   UNL A   1      42.779  30.860  31.688  1.00  0.00     0.029 A 
ATOM     49  C   UNL A   1      43.577  30.072  30.760  1.00  0.00     0.049 A 
ATOM     50  H   UNL A   1      42.955  28.136  30.086  1.00  0.00     0.167 HD
ATOM     51  C   UNL A   1      37.904  33.391  30.205  1.00  0.00     0.037 A 
ATOM     52  C   UNL A   1      44.609  30.548  30.009  1.00  0.00     0.037 A 
ATOM     53  C   UNL A   1      39.164  33.995  30.632  1.00  0.00     0.049 A 
ATOM     54  C   UNL A   1      44.461  32.024  29.694  1.00  0.00     0.074 A 
ATOM     55  C   UNL A   1      39.805  34.016  31.861  1.00  0.00     0.029 A 
ATOM     56  N   UNL A   1      40.117  34.365  29.687  1.00  0.00    -0.354 N 
ATOM     57  N   UNL A   1      43.348  32.692  29.844  1.00  0.00    -0.248 NA
ATOM     58  C   UNL A   1      45.542  32.863  29.180  1.00  0.00     0.031 C 
ATOM     59  C   UNL A   1      41.170  34.323  31.642  1.00  0.00     0.029 A 
ATOM     60  C   UNL A   1      41.356  34.523  30.285  1.00  0.00     0.049 A 
ATOM     61  H   UNL A   1      39.935  34.496  28.728  1.00  0.00     0.167 HD
ATOM     62  C   UNL A   1      43.533  34.000  29.464  1.00  0.00     0.074 A 
ATOM     63  C   UNL A   1      44.929  34.057  29.070  1.00  0.00     0.031 C 
ATOM     64  C   UNL A   1      42.524  34.924  29.513  1.00  0.00     0.037 A 
BRANCH  51  65
ATOM     65  C   UNL A   1      36.526  33.820  30.665  1.00  0.00     0.058 A 
ATOM     66  C   UNL A   1      35.555  34.263  29.745  1.00  0.00     0.135 A 
ATOM     67  C   UNL A   1      36.141  33.910  32.018  1.00  0.00     0.135 A 
ATOM     68  F   UNL A   1      35.727  34.123  28.424  1.00  0.00    -0.206 F 
ATOM     69  C   UNL A   1      34.369  34.886  30.136  1.00  0.00     0.059 A 
ATOM     70  C   UNL A   1      34.991  34.587  32.439  1.00  0.00     0.059 A 
ATOM     71  F   UNL A   1      36.867  33.324  32.982  1.00  0.00    -0.206 F 
ATOM     72  C   UNL A   1      34.115  35.088  31.486  1.00  0.00     0.060 A 
BRANCH  72  73
ATOM     73  S   UNL A   1      32.640  36.009  31.966  1.00  0.00     0.124 S 
ATOM     74  O   UNL A   1      33.168  36.951  32.948  1.00  0.00    -0.237 OA
ATOM     75  O   UNL A   1      32.219  36.586  30.694  1.00  0.00    -0.237 OA
ATOM     76  O   UNL A   1      31.761  34.978  32.511  1.00  0.00    -0.744 OA
ENDBRANCH  72  73
ENDBRANCH  51  65
BRANCH  52  77
ATOM     77  C   UNL A   1      45.302  29.528  29.178  1.00  0.00     0.058 A 
ATOM     78  C   UNL A   1      44.885  29.380  27.841  1.00  0.00     0.135 A 
ATOM     79  C   UNL A   1      46.557  29.009  29.520  1.00  0.00     0.135 A 
ATOM     80  F   UNL A   1      43.676  29.828  27.465  1.00  0.00    -0.206 F 
ATOM     81  C   UNL A   1      45.729  28.876  26.856  1.00  0.00     0.059 A 
ATOM     82  C   UNL A   1      47.426  28.507  28.545  1.00  0.00     0.059 A 
ATOM     83  F   UNL A   1      47.008  29.115  30.777  1.00  0.00    -0.206 F 
ATOM     84  C   UNL A   1      47.024  28.506  27.208  1.00  0.00     0.060 A 
BRANCH  84  85
ATOM     85  S   UNL A   1      48.197  28.101  25.888  1.00  0.00     0.124 S 
ATOM     86  O   UNL A   1      49.285  29.040  26.143  1.00  0.00    -0.237 OA
ATOM     87  O   UNL A   1      48.491  26.699  26.178  1.00  0.00    -0.237 OA
ATOM     88  O   UNL A   1      47.423  28.354  24.680  1.00  0.00    -0.744 OA
ENDBRANCH  84  85
ENDBRANCH  52  77
BRANCH  64  89
ATOM     89  C   UNL A   1      42.556  36.331  28.949  1.00  0.00     0.058 A 
ATOM     90  C   UNL A   1      43.193  37.421  29.568  1.00  0.00     0.135 A 
ATOM     91  C   UNL A   1      42.050  36.589  27.647  1.00  0.00     0.135 A 
ATOM     92  F   UNL A   1      43.805  37.290  30.753  1.00  0.00    -0.206 F 
ATOM     93  C   UNL A   1      43.273  38.682  28.969  1.00  0.00     0.059 A 
ATOM     94  C   UNL A   1      42.173  37.820  27.008  1.00  0.00     0.059 A 
ATOM     95  F   UNL A   1      41.426  35.640  26.935  1.00  0.00    -0.206 F 
ATOM     96  C   UNL A   1      42.766  38.872  27.687  1.00  0.00     0.060 A 
BRANCH  96  97
ATOM     97  S   UNL A   1      42.939  40.468  26.869  1.00  0.00     0.124 S 
ATOM     98  O   UNL A   1      43.756  40.117  25.713  1.00  0.00    -0.237 OA
ATOM     99  O   UNL A   1      41.556  40.835  26.575  1.00  0.00    -0.237 OA
ATOM    100  O   UNL A   1      43.594  41.291  27.882  1.00  0.00    -0.744 OA
ENDBRANCH  96  97
ENDBRANCH  64  89
ENDBRANCH  38  39
ENDBRANCH  30  33
ENDBRANCH  28  29
ENDBRANCH  27  28
ENDBRANCH   1  27
TORSDOF 18
ENDMDL
