MODEL 1
REMARK VINA RESULT:     -12.0      0.000      0.000
REMARK SMILES COCC[C@@]1(C(=O)NCCCCNC(=O)c2ccc(-c3c4nc(c(-c5c(F)cc(S(=O)(=O)[O-])cc5F)c5ccc([nH]5)c(-c5c(F)cc(S(=O)(=O)[O-])cc5F)c5nc(c(-c6c(F)cc(S(=O)(=O)[O-])cc6F)c6ccc3[nH]6)C=C5)C=C4)cc2)CCCN(C(=O)NCc2ccc(OC)cc2)C1
REMARK SMILES IDX 10 1 9 2 8 3 6 4 7 5 5 7 82 8 98 9 83 10 85 11 84 12 4 13
REMARK SMILES IDX 3 14 2 15 1 16 86 17 87 18 88 19 89 21 90 22 91 23 97 24
REMARK SMILES IDX 92 25 96 26 93 27 94 28 95 29 11 30 12 31 13 32 14 33 15 35
REMARK SMILES IDX 16 36 17 37 81 38 18 39 80 40 19 41 20 42 21 43 74 44 22 45
REMARK SMILES IDX 79 46 73 47 75 48 23 49 78 50 72 51 71 52 24 54 58 55 37 56
REMARK SMILES IDX 57 57 38 58 41 59 56 60 76 61 39 62 40 63 55 65 77 66 42 67
REMARK SMILES IDX 25 68 26 69 35 70 27 71 28 72 34 73 36 74 29 75 30 76 31 77
REMARK SMILES IDX 32 78 33 79 59 80 60 81 69 82 61 83 62 84 68 85 70 86 63 87
REMARK SMILES IDX 64 88 65 89 66 90 67 91 43 92 44 93 53 94 45 95 46 96 52 97
REMARK SMILES IDX 54 98 47 99 48 100 49 101 50 102 51 103
REMARK H PARENT 8 6 88 20 13 34 75 53 41 64
REMARK Flexibility Score: inf
ROOT
ATOM      1  C   UNL A   1      37.323  22.219  24.839  1.00  0.00     0.023 C 
ENDROOT
BRANCH   1   2
ATOM      2  C   UNL A   1      36.500  21.095  25.452  1.00  0.00     0.116 C 
BRANCH   2   3
ATOM      3  N   UNL A   1      35.516  21.578  26.396  1.00  0.00    -0.356 N 
ATOM      4  C   UNL A   1      34.168  21.515  26.483  1.00  0.00     0.228 C 
ATOM      5  O   UNL A   1      33.718  21.946  27.557  1.00  0.00    -0.274 OA
ATOM      6  H   UNL A   1      35.921  22.065  27.149  1.00  0.00     0.163 HD
BRANCH   4   7
ATOM      7  C   UNL A   1      33.167  21.063  25.380  1.00  0.00     0.069 C 
ATOM      8  C   UNL A   1      33.455  21.432  23.899  1.00  0.00     0.021 C 
ATOM      9  C   UNL A   1      31.775  21.554  25.831  1.00  0.00     0.138 C 
ATOM     10  C   UNL A   1      32.789  22.691  23.327  1.00  0.00     0.023 C 
ATOM     11  N   UNL A   1      31.405  22.878  25.341  1.00  0.00    -0.324 N 
ATOM     12  C   UNL A   1      31.405  22.974  23.893  1.00  0.00     0.121 C 
BRANCH   7  13
ATOM     13  C   UNL A   1      33.229  19.474  25.421  1.00  0.00     0.047 C 
BRANCH  13  14
ATOM     14  C   UNL A   1      33.945  18.745  24.270  1.00  0.00     0.161 C 
BRANCH  14  15
ATOM     15  O   UNL A   1      34.250  17.389  24.633  1.00  0.00    -0.385 OA
ATOM     16  C   UNL A   1      33.127  16.659  25.111  1.00  0.00     0.194 C 
ENDBRANCH  14  15
ENDBRANCH  13  14
ENDBRANCH   7  13
BRANCH  11  17
ATOM     17  C   UNL A   1      30.796  23.712  26.237  1.00  0.00     0.317 C 
ATOM     18  O   UNL A   1      30.473  23.333  27.366  1.00  0.00    -0.249 OA
ATOM     19  N   UNL A   1      30.543  25.002  25.988  1.00  0.00    -0.334 N 
ATOM     20  H   UNL A   1      29.968  25.397  26.684  1.00  0.00     0.165 HD
BRANCH  19  21
ATOM     21  C   UNL A   1      30.886  25.971  24.970  1.00  0.00     0.153 C 
BRANCH  21  22
ATOM     22  C   UNL A   1      31.334  27.268  25.595  1.00  0.00    -0.028 A 
ATOM     23  C   UNL A   1      31.547  27.369  26.974  1.00  0.00     0.009 A 
ATOM     24  C   UNL A   1      31.528  28.409  24.801  1.00  0.00     0.009 A 
ATOM     25  C   UNL A   1      31.976  28.576  27.533  1.00  0.00     0.047 A 
ATOM     26  C   UNL A   1      31.962  29.613  25.362  1.00  0.00     0.047 A 
ATOM     27  C   UNL A   1      32.193  29.700  26.732  1.00  0.00     0.118 A 
BRANCH  27  28
ATOM     28  O   UNL A   1      32.624  30.813  27.402  1.00  0.00    -0.497 OA
ATOM     29  C   UNL A   1      34.012  31.112  27.306  1.00  0.00     0.278 C 
ENDBRANCH  27  28
ENDBRANCH  21  22
ENDBRANCH  19  21
ENDBRANCH  11  17
ENDBRANCH   4   7
ENDBRANCH   2   3
ENDBRANCH   1   2
BRANCH   1  30
ATOM     30  C   UNL A   1      37.102  23.615  25.403  1.00  0.00     0.023 C 
BRANCH  30  31
ATOM     31  C   UNL A   1      38.061  24.010  26.514  1.00  0.00     0.116 C 
BRANCH  31  32
ATOM     32  N   UNL A   1      39.473  23.845  26.183  1.00  0.00    -0.352 N 
ATOM     33  C   UNL A   1      40.531  24.621  26.601  1.00  0.00     0.251 C 
ATOM     34  H   UNL A   1      39.695  23.091  25.590  1.00  0.00     0.163 HD
ATOM     35  O   UNL A   1      41.667  24.399  26.196  1.00  0.00    -0.269 OA
BRANCH  33  36
ATOM     36  C   UNL A   1      40.252  25.760  27.497  1.00  0.00     0.039 A 
ATOM     37  C   UNL A   1      39.367  25.582  28.561  1.00  0.00     0.014 A 
ATOM     38  C   UNL A   1      40.960  26.954  27.349  1.00  0.00     0.014 A 
ATOM     39  C   UNL A   1      39.263  26.575  29.536  1.00  0.00     0.010 A 
ATOM     40  C   UNL A   1      40.924  27.899  28.366  1.00  0.00     0.010 A 
ATOM     41  C   UNL A   1      40.080  27.717  29.471  1.00  0.00    -0.014 A 
BRANCH  41  42
ATOM     42  C   UNL A   1      40.077  28.737  30.548  1.00  0.00     0.031 A 
ATOM     43  C   UNL A   1      40.978  28.564  31.738  1.00  0.00     0.074 A 
ATOM     44  C   UNL A   1      39.193  29.755  30.500  1.00  0.00     0.049 A 
ATOM     45  N   UNL A   1      41.041  29.273  32.835  1.00  0.00    -0.248 NA
ATOM     46  C   UNL A   1      41.902  27.418  31.710  1.00  0.00     0.031 C 
ATOM     47  C   UNL A   1      38.212  29.981  29.436  1.00  0.00     0.029 A 
ATOM     48  N   UNL A   1      38.962  30.780  31.382  1.00  0.00    -0.354 N 
ATOM     49  C   UNL A   1      41.982  28.639  33.638  1.00  0.00     0.074 A 
ATOM     50  C   UNL A   1      42.432  27.466  32.923  1.00  0.00     0.031 C 
ATOM     51  C   UNL A   1      37.498  31.083  29.719  1.00  0.00     0.029 A 
ATOM     52  C   UNL A   1      37.949  31.625  30.996  1.00  0.00     0.049 A 
ATOM     53  H   UNL A   1      39.476  30.900  32.214  1.00  0.00     0.167 HD
ATOM     54  C   UNL A   1      42.448  29.019  34.850  1.00  0.00     0.037 A 
ATOM     55  C   UNL A   1      37.439  32.712  31.607  1.00  0.00     0.037 A 
ATOM     56  C   UNL A   1      42.044  30.222  35.525  1.00  0.00     0.049 A 
ATOM     57  C   UNL A   1      38.026  33.154  32.921  1.00  0.00     0.074 A 
ATOM     58  C   UNL A   1      42.523  30.747  36.712  1.00  0.00     0.029 A 
ATOM     59  N   UNL A   1      41.069  31.095  35.064  1.00  0.00    -0.354 N 
ATOM     60  N   UNL A   1      38.973  32.587  33.630  1.00  0.00    -0.248 NA
ATOM     61  C   UNL A   1      37.486  34.385  33.512  1.00  0.00     0.031 C 
ATOM     62  C   UNL A   1      41.822  31.926  36.982  1.00  0.00     0.029 A 
ATOM     63  C   UNL A   1      40.928  32.152  35.946  1.00  0.00     0.049 A 
ATOM     64  H   UNL A   1      40.554  30.980  34.233  1.00  0.00     0.167 HD
ATOM     65  C   UNL A   1      39.157  33.404  34.739  1.00  0.00     0.074 A 
ATOM     66  C   UNL A   1      38.233  34.510  34.600  1.00  0.00     0.031 C 
ATOM     67  C   UNL A   1      40.012  33.251  35.779  1.00  0.00     0.037 A 
BRANCH  54  68
ATOM     68  C   UNL A   1      43.465  28.134  35.514  1.00  0.00     0.058 A 
ATOM     69  C   UNL A   1      44.842  28.339  35.337  1.00  0.00     0.135 A 
ATOM     70  C   UNL A   1      43.060  27.092  36.362  1.00  0.00     0.135 A 
ATOM     71  F   UNL A   1      45.283  29.310  34.521  1.00  0.00    -0.206 F 
ATOM     72  C   UNL A   1      45.783  27.526  35.958  1.00  0.00     0.059 A 
ATOM     73  C   UNL A   1      43.983  26.282  37.014  1.00  0.00     0.059 A 
ATOM     74  F   UNL A   1      41.754  26.852  36.561  1.00  0.00    -0.206 F 
ATOM     75  C   UNL A   1      45.344  26.498  36.795  1.00  0.00     0.060 A 
BRANCH  75  76
ATOM     76  S   UNL A   1      46.577  25.460  37.607  1.00  0.00     0.124 S 
ATOM     77  O   UNL A   1      46.037  25.374  38.961  1.00  0.00    -0.237 OA
ATOM     78  O   UNL A   1      46.516  24.230  36.823  1.00  0.00    -0.237 OA
ATOM     79  O   UNL A   1      47.810  26.227  37.469  1.00  0.00    -0.744 OA
ENDBRANCH  75  76
ENDBRANCH  54  68
BRANCH  55  80
ATOM     80  C   UNL A   1      36.333  33.477  30.973  1.00  0.00     0.058 A 
ATOM     81  C   UNL A   1      36.552  34.227  29.808  1.00  0.00     0.135 A 
ATOM     82  C   UNL A   1      35.039  33.471  31.513  1.00  0.00     0.135 A 
ATOM     83  F   UNL A   1      37.775  34.266  29.256  1.00  0.00    -0.206 F 
ATOM     84  C   UNL A   1      35.534  34.963  29.212  1.00  0.00     0.059 A 
ATOM     85  C   UNL A   1      33.998  34.182  30.924  1.00  0.00     0.059 A 
ATOM     86  F   UNL A   1      34.773  32.752  32.615  1.00  0.00    -0.206 F 
ATOM     87  C   UNL A   1      34.258  34.935  29.779  1.00  0.00     0.060 A 
BRANCH  87  88
ATOM     88  S   UNL A   1      32.931  35.861  28.978  1.00  0.00     0.124 S 
ATOM     89  O   UNL A   1      32.360  34.851  28.095  1.00  0.00    -0.237 OA
ATOM     90  O   UNL A   1      32.103  36.260  30.112  1.00  0.00    -0.237 OA
ATOM     91  O   UNL A   1      33.639  36.954  28.317  1.00  0.00    -0.744 OA
ENDBRANCH  87  88
ENDBRANCH  55  80
BRANCH  67  92
ATOM     92  C   UNL A   1      40.014  34.320  36.832  1.00  0.00     0.058 A 
ATOM     93  C   UNL A   1      40.864  35.432  36.747  1.00  0.00     0.135 A 
ATOM     94  C   UNL A   1      39.110  34.260  37.904  1.00  0.00     0.135 A 
ATOM     95  F   UNL A   1      41.750  35.530  35.743  1.00  0.00    -0.206 F 
ATOM     96  C   UNL A   1      40.828  36.445  37.700  1.00  0.00     0.059 A 
ATOM     97  C   UNL A   1      39.042  35.272  38.857  1.00  0.00     0.059 A 
ATOM     98  F   UNL A   1      38.269  33.220  38.023  1.00  0.00    -0.206 F 
ATOM     99  C   UNL A   1      39.913  36.356  38.750  1.00  0.00     0.060 A 
BRANCH  99 100
ATOM    100  S   UNL A   1      39.843  37.697  39.957  1.00  0.00     0.124 S 
ATOM    101  O   UNL A   1      41.041  38.458  39.618  1.00  0.00    -0.237 OA
ATOM    102  O   UNL A   1      38.572  38.341  39.639  1.00  0.00    -0.237 OA
ATOM    103  O   UNL A   1      39.882  37.001  41.239  1.00  0.00    -0.744 OA
ENDBRANCH  99 100
ENDBRANCH  67  92
ENDBRANCH  41  42
ENDBRANCH  33  36
ENDBRANCH  31  32
ENDBRANCH  30  31
ENDBRANCH   1  30
TORSDOF 21
ENDMDL
MODEL 2
REMARK VINA RESULT:     -11.9      2.524      3.229
REMARK SMILES COCC[C@@]1(C(=O)NCCCCNC(=O)c2ccc(-c3c4nc(c(-c5c(F)cc(S(=O)(=O)[O-])cc5F)c5ccc([nH]5)c(-c5c(F)cc(S(=O)(=O)[O-])cc5F)c5nc(c(-c6c(F)cc(S(=O)(=O)[O-])cc6F)c6ccc3[nH]6)C=C5)C=C4)cc2)CCCN(C(=O)NCc2ccc(OC)cc2)C1
REMARK SMILES IDX 10 1 9 2 8 3 6 4 7 5 5 7 82 8 98 9 83 10 85 11 84 12 4 13
REMARK SMILES IDX 3 14 2 15 1 16 86 17 87 18 88 19 89 21 90 22 91 23 97 24
REMARK SMILES IDX 92 25 96 26 93 27 94 28 95 29 11 30 12 31 13 32 14 33 15 35
REMARK SMILES IDX 16 36 17 37 81 38 18 39 80 40 19 41 20 42 21 43 74 44 22 45
REMARK SMILES IDX 79 46 73 47 75 48 23 49 78 50 72 51 71 52 24 54 58 55 37 56
REMARK SMILES IDX 57 57 38 58 41 59 56 60 76 61 39 62 40 63 55 65 77 66 42 67
REMARK SMILES IDX 25 68 26 69 35 70 27 71 28 72 34 73 36 74 29 75 30 76 31 77
REMARK SMILES IDX 32 78 33 79 59 80 60 81 69 82 61 83 62 84 68 85 70 86 63 87
REMARK SMILES IDX 64 88 65 89 66 90 67 91 43 92 44 93 53 94 45 95 46 96 52 97
REMARK SMILES IDX 54 98 47 99 48 100 49 101 50 102 51 103
REMARK H PARENT 8 6 88 20 13 34 75 53 41 64
REMARK Flexibility Score: inf
ROOT
ATOM      1  C   UNL A   1      36.550  21.757  24.097  1.00  0.00     0.023 C 
ENDROOT
BRANCH   1   2
ATOM      2  C   UNL A   1      36.018  20.672  25.023  1.00  0.00     0.116 C 
BRANCH   2   3
ATOM      3  N   UNL A   1      35.110  21.191  26.022  1.00  0.00    -0.356 N 
ATOM      4  C   UNL A   1      33.769  21.347  26.101  1.00  0.00     0.228 C 
ATOM      5  O   UNL A   1      33.375  21.708  27.222  1.00  0.00    -0.274 OA
ATOM      6  H   UNL A   1      35.575  21.503  26.831  1.00  0.00     0.163 HD
BRANCH   4   7
ATOM      7  C   UNL A   1      32.730  21.216  24.949  1.00  0.00     0.069 C 
ATOM      8  C   UNL A   1      33.027  21.887  23.580  1.00  0.00     0.021 C 
ATOM      9  C   UNL A   1      31.377  21.679  25.530  1.00  0.00     0.138 C 
ATOM     10  C   UNL A   1      32.440  23.281  23.318  1.00  0.00     0.023 C 
ATOM     11  N   UNL A   1      31.090  23.099  25.356  1.00  0.00    -0.324 N 
ATOM     12  C   UNL A   1      31.084  23.516  23.966  1.00  0.00     0.121 C 
BRANCH   7  13
ATOM     13  C   UNL A   1      32.687  19.656  24.635  1.00  0.00     0.047 C 
BRANCH  13  14
ATOM     14  C   UNL A   1      32.332  19.214  23.204  1.00  0.00     0.161 C 
BRANCH  14  15
ATOM     15  O   UNL A   1      32.461  17.790  23.061  1.00  0.00    -0.385 OA
ATOM     16  C   UNL A   1      33.676  17.271  23.587  1.00  0.00     0.194 C 
ENDBRANCH  14  15
ENDBRANCH  13  14
ENDBRANCH   7  13
BRANCH  11  17
ATOM     17  C   UNL A   1      30.546  23.748  26.428  1.00  0.00     0.317 C 
ATOM     18  O   UNL A   1      30.369  23.184  27.512  1.00  0.00    -0.249 OA
ATOM     19  N   UNL A   1      30.206  25.042  26.412  1.00  0.00    -0.334 N 
ATOM     20  H   UNL A   1      29.694  25.290  27.216  1.00  0.00     0.165 HD
BRANCH  19  21
ATOM     21  C   UNL A   1      30.388  26.173  25.528  1.00  0.00     0.153 C 
BRANCH  21  22
ATOM     22  C   UNL A   1      31.555  27.017  25.971  1.00  0.00    -0.028 A 
ATOM     23  C   UNL A   1      32.709  27.121  25.188  1.00  0.00     0.009 A 
ATOM     24  C   UNL A   1      31.512  27.702  27.197  1.00  0.00     0.009 A 
ATOM     25  C   UNL A   1      33.777  27.920  25.609  1.00  0.00     0.047 A 
ATOM     26  C   UNL A   1      32.578  28.503  27.613  1.00  0.00     0.047 A 
ATOM     27  C   UNL A   1      33.715  28.620  26.817  1.00  0.00     0.118 A 
BRANCH  27  28
ATOM     28  O   UNL A   1      34.820  29.374  27.105  1.00  0.00    -0.497 OA
ATOM     29  C   UNL A   1      34.580  30.655  27.678  1.00  0.00     0.278 C 
ENDBRANCH  27  28
ENDBRANCH  21  22
ENDBRANCH  19  21
ENDBRANCH  11  17
ENDBRANCH   4   7
ENDBRANCH   2   3
ENDBRANCH   1   2
BRANCH   1  30
ATOM     30  C   UNL A   1      36.387  23.196  24.564  1.00  0.00     0.023 C 
BRANCH  30  31
ATOM     31  C   UNL A   1      37.346  23.619  25.665  1.00  0.00     0.116 C 
BRANCH  31  32
ATOM     32  N   UNL A   1      38.593  22.862  25.705  1.00  0.00    -0.352 N 
ATOM     33  C   UNL A   1      39.785  23.234  26.287  1.00  0.00     0.251 C 
ATOM     34  H   UNL A   1      38.582  21.982  25.264  1.00  0.00     0.163 HD
ATOM     35  O   UNL A   1      40.776  22.518  26.195  1.00  0.00    -0.269 OA
BRANCH  33  36
ATOM     36  C   UNL A   1      39.852  24.542  26.968  1.00  0.00     0.039 A 
ATOM     37  C   UNL A   1      39.374  24.649  28.274  1.00  0.00     0.014 A 
ATOM     38  C   UNL A   1      40.497  25.616  26.353  1.00  0.00     0.014 A 
ATOM     39  C   UNL A   1      39.629  25.812  29.001  1.00  0.00     0.010 A 
ATOM     40  C   UNL A   1      40.829  26.734  27.105  1.00  0.00     0.010 A 
ATOM     41  C   UNL A   1      40.403  26.841  28.438  1.00  0.00    -0.014 A 
BRANCH  41  42
ATOM     42  C   UNL A   1      40.788  28.042  29.220  1.00  0.00     0.031 A 
ATOM     43  C   UNL A   1      42.099  28.061  29.954  1.00  0.00     0.074 A 
ATOM     44  C   UNL A   1      39.915  29.061  29.351  1.00  0.00     0.049 A 
ATOM     45  N   UNL A   1      42.567  28.956  30.784  1.00  0.00    -0.248 NA
ATOM     46  C   UNL A   1      42.985  26.900  29.763  1.00  0.00     0.031 C 
ATOM     47  C   UNL A   1      38.579  29.120  28.752  1.00  0.00     0.029 A 
ATOM     48  N   UNL A   1      40.013  30.238  30.050  1.00  0.00    -0.354 N 
ATOM     49  C   UNL A   1      43.780  28.451  31.237  1.00  0.00     0.074 A 
ATOM     50  C   UNL A   1      43.956  27.153  30.627  1.00  0.00     0.031 C 
ATOM     51  C   UNL A   1      37.991  30.278  29.096  1.00  0.00     0.029 A 
ATOM     52  C   UNL A   1      38.893  31.030  29.961  1.00  0.00     0.049 A 
ATOM     53  H   UNL A   1      40.812  30.492  30.566  1.00  0.00     0.167 HD
ATOM     54  C   UNL A   1      44.677  29.032  32.068  1.00  0.00     0.037 A 
ATOM     55  C   UNL A   1      38.624  32.227  30.518  1.00  0.00     0.037 A 
ATOM     56  C   UNL A   1      44.525  30.351  32.618  1.00  0.00     0.049 A 
ATOM     57  C   UNL A   1      39.670  32.883  31.379  1.00  0.00     0.074 A 
ATOM     58  C   UNL A   1      45.418  31.069  33.394  1.00  0.00     0.029 A 
ATOM     59  N   UNL A   1      43.409  31.155  32.442  1.00  0.00    -0.354 N 
ATOM     60  N   UNL A   1      40.847  32.426  31.734  1.00  0.00    -0.248 NA
ATOM     61  C   UNL A   1      39.359  34.218  31.905  1.00  0.00     0.031 C 
ATOM     62  C   UNL A   1      44.832  32.300  33.706  1.00  0.00     0.029 A 
ATOM     63  C   UNL A   1      43.587  32.360  33.099  1.00  0.00     0.049 A 
ATOM     64  H   UNL A   1      42.608  30.907  31.926  1.00  0.00     0.167 HD
ATOM     65  C   UNL A   1      41.425  33.425  32.506  1.00  0.00     0.074 A 
ATOM     66  C   UNL A   1      40.475  34.517  32.556  1.00  0.00     0.031 C 
ATOM     67  C   UNL A   1      42.633  33.439  33.120  1.00  0.00     0.037 A 
BRANCH  54  68
ATOM     68  C   UNL A   1      45.914  28.252  32.411  1.00  0.00     0.058 A 
ATOM     69  C   UNL A   1      45.964  27.412  33.535  1.00  0.00     0.135 A 
ATOM     70  C   UNL A   1      47.051  28.318  31.591  1.00  0.00     0.135 A 
ATOM     71  F   UNL A   1      44.910  27.328  34.363  1.00  0.00    -0.206 F 
ATOM     72  C   UNL A   1      47.105  26.683  33.848  1.00  0.00     0.059 A 
ATOM     73  C   UNL A   1      48.196  27.578  31.870  1.00  0.00     0.059 A 
ATOM     74  F   UNL A   1      47.057  29.110  30.507  1.00  0.00    -0.206 F 
ATOM     75  C   UNL A   1      48.217  26.773  33.009  1.00  0.00     0.060 A 
BRANCH  75  76
ATOM     76  S   UNL A   1      49.687  25.810  33.419  1.00  0.00     0.124 S 
ATOM     77  O   UNL A   1      49.762  25.995  34.865  1.00  0.00    -0.237 OA
ATOM     78  O   UNL A   1      49.319  24.470  32.972  1.00  0.00    -0.237 OA
ATOM     79  O   UNL A   1      50.743  26.456  32.646  1.00  0.00    -0.744 OA
ENDBRANCH  75  76
ENDBRANCH  54  68
BRANCH  55  80
ATOM     80  C   UNL A   1      37.323  32.897  30.258  1.00  0.00     0.058 A 
ATOM     81  C   UNL A   1      37.153  33.735  29.146  1.00  0.00     0.135 A 
ATOM     82  C   UNL A   1      36.224  32.712  31.110  1.00  0.00     0.135 A 
ATOM     83  F   UNL A   1      38.178  33.945  28.304  1.00  0.00    -0.206 F 
ATOM     84  C   UNL A   1      35.949  34.385  28.899  1.00  0.00     0.059 A 
ATOM     85  C   UNL A   1      35.002  33.334  30.873  1.00  0.00     0.059 A 
ATOM     86  F   UNL A   1      36.329  31.903  32.177  1.00  0.00    -0.206 F 
ATOM     87  C   UNL A   1      34.878  34.179  29.770  1.00  0.00     0.060 A 
BRANCH  87  88
ATOM     88  S   UNL A   1      33.305  34.994  29.420  1.00  0.00     0.124 S 
ATOM     89  O   UNL A   1      32.717  34.089  28.440  1.00  0.00    -0.237 OA
ATOM     90  O   UNL A   1      32.668  35.015  30.733  1.00  0.00    -0.237 OA
ATOM     91  O   UNL A   1      33.713  36.301  28.911  1.00  0.00    -0.744 OA
ENDBRANCH  87  88
ENDBRANCH  55  80
BRANCH  67  92
ATOM     92  C   UNL A   1      43.011  34.682  33.871  1.00  0.00     0.058 A 
ATOM     93  C   UNL A   1      42.757  34.816  35.244  1.00  0.00     0.135 A 
ATOM     94  C   UNL A   1      43.691  35.724  33.220  1.00  0.00     0.135 A 
ATOM     95  F   UNL A   1      42.104  33.848  35.907  1.00  0.00    -0.206 F 
ATOM     96  C   UNL A   1      43.153  35.949  35.946  1.00  0.00     0.059 A 
ATOM     97  C   UNL A   1      44.115  36.857  33.908  1.00  0.00     0.059 A 
ATOM     98  F   UNL A   1      43.966  35.638  31.909  1.00  0.00    -0.206 F 
ATOM     99  C   UNL A   1      43.833  36.963  35.269  1.00  0.00     0.060 A 
BRANCH  99 100
ATOM    100  S   UNL A   1      44.382  38.411  36.198  1.00  0.00     0.124 S 
ATOM    101  O   UNL A   1      43.591  38.292  37.419  1.00  0.00    -0.237 OA
ATOM    102  O   UNL A   1      45.813  38.166  36.344  1.00  0.00    -0.237 OA
ATOM    103  O   UNL A   1      44.029  39.526  35.326  1.00  0.00    -0.744 OA
ENDBRANCH  99 100
ENDBRANCH  67  92
ENDBRANCH  41  42
ENDBRANCH  33  36
ENDBRANCH  31  32
ENDBRANCH  30  31
ENDBRANCH   1  30
TORSDOF 21
ENDMDL
MODEL 3
REMARK VINA RESULT:     -11.7      2.726      5.333
REMARK SMILES COCC[C@@]1(C(=O)NCCCCNC(=O)c2ccc(-c3c4nc(c(-c5c(F)cc(S(=O)(=O)[O-])cc5F)c5ccc([nH]5)c(-c5c(F)cc(S(=O)(=O)[O-])cc5F)c5nc(c(-c6c(F)cc(S(=O)(=O)[O-])cc6F)c6ccc3[nH]6)C=C5)C=C4)cc2)CCCN(C(=O)NCc2ccc(OC)cc2)C1
REMARK SMILES IDX 10 1 9 2 8 3 6 4 7 5 5 7 82 8 98 9 83 10 85 11 84 12 4 13
REMARK SMILES IDX 3 14 2 15 1 16 86 17 87 18 88 19 89 21 90 22 91 23 97 24
REMARK SMILES IDX 92 25 96 26 93 27 94 28 95 29 11 30 12 31 13 32 14 33 15 35
REMARK SMILES IDX 16 36 17 37 81 38 18 39 80 40 19 41 20 42 21 43 74 44 22 45
REMARK SMILES IDX 79 46 73 47 75 48 23 49 78 50 72 51 71 52 24 54 58 55 37 56
REMARK SMILES IDX 57 57 38 58 41 59 56 60 76 61 39 62 40 63 55 65 77 66 42 67
REMARK SMILES IDX 25 68 26 69 35 70 27 71 28 72 34 73 36 74 29 75 30 76 31 77
REMARK SMILES IDX 32 78 33 79 59 80 60 81 69 82 61 83 62 84 68 85 70 86 63 87
REMARK SMILES IDX 64 88 65 89 66 90 67 91 43 92 44 93 53 94 45 95 46 96 52 97
REMARK SMILES IDX 54 98 47 99 48 100 49 101 50 102 51 103
REMARK H PARENT 8 6 88 20 13 34 75 53 41 64
REMARK Flexibility Score: inf
ROOT
ATOM      1  C   UNL A   1      34.700  23.392  26.034  1.00  0.00     0.023 C 
ENDROOT
BRANCH   1   2
ATOM      2  C   UNL A   1      34.249  24.833  25.832  1.00  0.00     0.116 C 
BRANCH   2   3
ATOM      3  N   UNL A   1      32.893  25.059  26.283  1.00  0.00    -0.356 N 
ATOM      4  C   UNL A   1      31.910  25.923  25.946  1.00  0.00     0.228 C 
ATOM      5  O   UNL A   1      30.822  25.677  26.494  1.00  0.00    -0.274 OA
ATOM      6  H   UNL A   1      32.625  24.441  27.001  1.00  0.00     0.163 HD
BRANCH   4   7
ATOM      7  C   UNL A   1      32.028  27.194  25.055  1.00  0.00     0.069 C 
ATOM      8  C   UNL A   1      30.737  27.962  24.656  1.00  0.00     0.021 C 
ATOM      9  C   UNL A   1      32.851  26.780  23.817  1.00  0.00     0.138 C 
ATOM     10  C   UNL A   1      30.098  27.641  23.298  1.00  0.00     0.023 C 
ATOM     11  N   UNL A   1      32.060  26.306  22.686  1.00  0.00    -0.324 N 
ATOM     12  C   UNL A   1      31.099  27.282  22.209  1.00  0.00     0.121 C 
BRANCH   7  13
ATOM     13  C   UNL A   1      32.853  28.223  25.945  1.00  0.00     0.047 C 
BRANCH  13  14
ATOM     14  C   UNL A   1      32.650  29.727  25.691  1.00  0.00     0.161 C 
BRANCH  14  15
ATOM     15  O   UNL A   1      33.472  30.510  26.570  1.00  0.00    -0.385 OA
ATOM     16  C   UNL A   1      34.489  29.760  27.221  1.00  0.00     0.194 C 
ENDBRANCH  14  15
ENDBRANCH  13  14
ENDBRANCH   7  13
BRANCH  11  17
ATOM     17  C   UNL A   1      32.534  25.205  22.028  1.00  0.00     0.317 C 
ATOM     18  O   UNL A   1      33.355  25.297  21.110  1.00  0.00    -0.249 OA
ATOM     19  N   UNL A   1      32.192  23.952  22.345  1.00  0.00    -0.334 N 
ATOM     20  H   UNL A   1      32.510  23.309  21.670  1.00  0.00     0.165 HD
BRANCH  19  21
ATOM     21  C   UNL A   1      31.478  23.288  23.415  1.00  0.00     0.153 C 
BRANCH  21  22
ATOM     22  C   UNL A   1      31.879  21.838  23.506  1.00  0.00    -0.028 A 
ATOM     23  C   UNL A   1      31.923  21.028  22.367  1.00  0.00     0.009 A 
ATOM     24  C   UNL A   1      32.199  21.266  24.749  1.00  0.00     0.009 A 
ATOM     25  C   UNL A   1      32.311  19.689  22.469  1.00  0.00     0.047 A 
ATOM     26  C   UNL A   1      32.591  19.929  24.848  1.00  0.00     0.047 A 
ATOM     27  C   UNL A   1      32.654  19.134  23.706  1.00  0.00     0.118 A 
BRANCH  27  28
ATOM     28  O   UNL A   1      33.027  17.818  23.666  1.00  0.00    -0.497 OA
ATOM     29  C   UNL A   1      34.283  17.499  24.253  1.00  0.00     0.278 C 
ENDBRANCH  27  28
ENDBRANCH  21  22
ENDBRANCH  19  21
ENDBRANCH  11  17
ENDBRANCH   4   7
ENDBRANCH   2   3
ENDBRANCH   1   2
BRANCH   1  30
ATOM     30  C   UNL A   1      35.787  22.878  25.102  1.00  0.00     0.023 C 
BRANCH  30  31
ATOM     31  C   UNL A   1      37.114  23.613  25.209  1.00  0.00     0.116 C 
BRANCH  31  32
ATOM     32  N   UNL A   1      38.273  22.746  25.399  1.00  0.00    -0.352 N 
ATOM     33  C   UNL A   1      39.417  23.016  26.116  1.00  0.00     0.251 C 
ATOM     34  H   UNL A   1      38.232  21.864  24.963  1.00  0.00     0.163 HD
ATOM     35  O   UNL A   1      40.341  22.211  26.145  1.00  0.00    -0.269 OA
BRANCH  33  36
ATOM     36  C   UNL A   1      39.524  24.322  26.796  1.00  0.00     0.039 A 
ATOM     37  C   UNL A   1      38.978  24.468  28.071  1.00  0.00     0.014 A 
ATOM     38  C   UNL A   1      40.270  25.350  26.216  1.00  0.00     0.014 A 
ATOM     39  C   UNL A   1      39.260  25.618  28.807  1.00  0.00     0.010 A 
ATOM     40  C   UNL A   1      40.624  26.451  26.983  1.00  0.00     0.010 A 
ATOM     41  C   UNL A   1      40.129  26.594  28.288  1.00  0.00    -0.014 A 
BRANCH  41  42
ATOM     42  C   UNL A   1      40.539  27.774  29.087  1.00  0.00     0.031 A 
ATOM     43  C   UNL A   1      41.842  27.747  29.836  1.00  0.00     0.074 A 
ATOM     44  C   UNL A   1      39.696  28.818  29.219  1.00  0.00     0.049 A 
ATOM     45  N   UNL A   1      42.327  28.619  30.681  1.00  0.00    -0.248 NA
ATOM     46  C   UNL A   1      42.695  26.562  29.642  1.00  0.00     0.031 C 
ATOM     47  C   UNL A   1      38.369  28.922  28.606  1.00  0.00     0.029 A 
ATOM     48  N   UNL A   1      39.821  29.984  29.931  1.00  0.00    -0.354 N 
ATOM     49  C   UNL A   1      43.518  28.073  31.143  1.00  0.00     0.074 A 
ATOM     50  C   UNL A   1      43.663  26.776  30.521  1.00  0.00     0.031 C 
ATOM     51  C   UNL A   1      37.812  30.094  28.955  1.00  0.00     0.029 A 
ATOM     52  C   UNL A   1      38.726  30.810  29.838  1.00  0.00     0.049 A 
ATOM     53  H   UNL A   1      40.621  30.208  30.460  1.00  0.00     0.167 HD
ATOM     54  C   UNL A   1      44.423  28.618  31.989  1.00  0.00     0.037 A 
ATOM     55  C   UNL A   1      38.486  32.008  30.405  1.00  0.00     0.037 A 
ATOM     56  C   UNL A   1      44.303  29.935  32.552  1.00  0.00     0.049 A 
ATOM     57  C   UNL A   1      39.541  32.624  31.285  1.00  0.00     0.074 A 
ATOM     58  C   UNL A   1      45.208  30.617  33.346  1.00  0.00     0.029 A 
ATOM     59  N   UNL A   1      43.214  30.774  32.372  1.00  0.00    -0.354 N 
ATOM     60  N   UNL A   1      40.700  32.128  31.648  1.00  0.00    -0.248 NA
ATOM     61  C   UNL A   1      39.264  33.962  31.822  1.00  0.00     0.031 C 
ATOM     62  C   UNL A   1      44.656  31.862  33.665  1.00  0.00     0.029 A 
ATOM     63  C   UNL A   1      43.420  31.966  33.044  1.00  0.00     0.049 A 
ATOM     64  H   UNL A   1      42.413  30.555  31.844  1.00  0.00     0.167 HD
ATOM     65  C   UNL A   1      41.298  33.101  32.438  1.00  0.00     0.074 A 
ATOM     66  C   UNL A   1      40.380  34.221  32.488  1.00  0.00     0.031 C 
ATOM     67  C   UNL A   1      42.499  33.073  33.066  1.00  0.00     0.037 A 
BRANCH  54  68
ATOM     68  C   UNL A   1      45.632  27.797  32.339  1.00  0.00     0.058 A 
ATOM     69  C   UNL A   1      45.669  27.001  33.494  1.00  0.00     0.135 A 
ATOM     70  C   UNL A   1      46.753  27.780  31.493  1.00  0.00     0.135 A 
ATOM     71  F   UNL A   1      44.632  26.996  34.346  1.00  0.00    -0.206 F 
ATOM     72  C   UNL A   1      46.785  26.234  33.812  1.00  0.00     0.059 A 
ATOM     73  C   UNL A   1      47.869  27.002  31.779  1.00  0.00     0.059 A 
ATOM     74  F   UNL A   1      46.769  28.528  30.379  1.00  0.00    -0.206 F 
ATOM     75  C   UNL A   1      47.881  26.242  32.948  1.00  0.00     0.060 A 
BRANCH  75  76
ATOM     76  S   UNL A   1      49.316  25.231  33.366  1.00  0.00     0.124 S 
ATOM     77  O   UNL A   1      49.966  25.098  32.066  1.00  0.00    -0.237 OA
ATOM     78  O   UNL A   1      50.014  26.064  34.340  1.00  0.00    -0.237 OA
ATOM     79  O   UNL A   1      48.726  24.008  33.902  1.00  0.00    -0.744 OA
ENDBRANCH  75  76
ENDBRANCH  54  68
BRANCH  55  80
ATOM     80  C   UNL A   1      37.209  32.720  30.138  1.00  0.00     0.058 A 
ATOM     81  C   UNL A   1      37.105  33.643  29.087  1.00  0.00     0.135 A 
ATOM     82  C   UNL A   1      36.068  32.491  30.922  1.00  0.00     0.135 A 
ATOM     83  F   UNL A   1      38.170  33.897  28.311  1.00  0.00    -0.206 F 
ATOM     84  C   UNL A   1      35.923  34.331  28.834  1.00  0.00     0.059 A 
ATOM     85  C   UNL A   1      34.868  33.151  30.676  1.00  0.00     0.059 A 
ATOM     86  F   UNL A   1      36.110  31.602  31.927  1.00  0.00    -0.206 F 
ATOM     87  C   UNL A   1      34.809  34.079  29.637  1.00  0.00     0.060 A 
BRANCH  87  88
ATOM     88  S   UNL A   1      33.266  34.947  29.278  1.00  0.00     0.124 S 
ATOM     89  O   UNL A   1      32.635  34.978  30.592  1.00  0.00    -0.237 OA
ATOM     90  O   UNL A   1      33.743  36.229  28.769  1.00  0.00    -0.237 OA
ATOM     91  O   UNL A   1      32.625  34.089  28.285  1.00  0.00    -0.744 OA
ENDBRANCH  87  88
ENDBRANCH  55  80
BRANCH  67  92
ATOM     92  C   UNL A   1      42.905  34.296  33.834  1.00  0.00     0.058 A 
ATOM     93  C   UNL A   1      42.660  34.413  35.210  1.00  0.00     0.135 A 
ATOM     94  C   UNL A   1      43.602  35.334  33.197  1.00  0.00     0.135 A 
ATOM     95  F   UNL A   1      41.991  33.448  35.862  1.00  0.00    -0.206 F 
ATOM     96  C   UNL A   1      43.082  35.527  35.929  1.00  0.00     0.059 A 
ATOM     97  C   UNL A   1      44.052  36.448  33.900  1.00  0.00     0.059 A 
ATOM     98  F   UNL A   1      43.869  35.264  31.883  1.00  0.00    -0.206 F 
ATOM     99  C   UNL A   1      43.778  36.538  35.264  1.00  0.00     0.060 A 
BRANCH  99 100
ATOM    100  S   UNL A   1      44.360  37.959  36.213  1.00  0.00     0.124 S 
ATOM    101  O   UNL A   1      43.509  37.890  37.396  1.00  0.00    -0.237 OA
ATOM    102  O   UNL A   1      45.768  37.640  36.426  1.00  0.00    -0.237 OA
ATOM    103  O   UNL A   1      44.108  39.087  35.322  1.00  0.00    -0.744 OA
ENDBRANCH  99 100
ENDBRANCH  67  92
ENDBRANCH  41  42
ENDBRANCH  33  36
ENDBRANCH  31  32
ENDBRANCH  30  31
ENDBRANCH   1  30
TORSDOF 21
ENDMDL
