MODEL 1
REMARK VINA RESULT:     -11.4      0.000      0.000
REMARK SMILES Cc1cc(CS(=O)(=O)NC[C@@H]2CC[C@H](C(=O)NCCCCNC(=O)c3ccc(-c4c5nc(c(-c6c(F)cc(S(=O)(=O)[O-])cc6F)c6ccc([nH]6)c(-c6c(F)cc(S(=O)(=O)[O-])cc6F)c6nc(c(-c7c(F)cc(S(=O)(=O)[O-])cc7F)c7ccc4[nH]7)C=C6)C=C5)cc3)O2)no1
REMARK SMILES IDX 18 1 17 2 15 3 16 4 14 6 11 7 12 8 91 9 13 10 10 11 9 12
REMARK SMILES IDX 6 14 7 15 8 16 5 17 4 18 1 19 2 20 3 21 93 22 92 23 19 24
REMARK SMILES IDX 20 25 21 26 22 27 23 28 24 30 25 31 26 32 90 33 27 34 89 35
REMARK SMILES IDX 28 36 29 37 30 38 83 39 31 40 88 41 82 42 84 43 32 44 87 45
REMARK SMILES IDX 81 46 80 47 33 49 67 50 46 51 66 52 47 53 50 54 65 55 85 56
REMARK SMILES IDX 48 57 49 58 64 60 86 61 51 62 34 63 35 64 44 65 36 66 37 67
REMARK SMILES IDX 43 68 45 69 38 70 39 71 40 72 41 73 42 74 68 75 69 76 78 77
REMARK SMILES IDX 70 78 71 79 77 80 79 81 72 82 73 83 74 84 75 85 76 86 52 87
REMARK SMILES IDX 53 88 62 89 54 90 55 91 61 92 63 93 56 94 57 95 58 96 59 97
REMARK SMILES IDX 60 98
REMARK H PARENT 17 5 9 13 22 29 84 48 50 59
REMARK Flexibility Score: inf
ROOT
ATOM      1  C   UNL A   1      38.082  21.846  25.368  1.00  0.00     0.116 C 
ENDROOT
BRANCH   1   2
ATOM      2  N   UNL A   1      37.416  22.543  24.288  1.00  0.00    -0.354 N 
ATOM      3  C   UNL A   1      36.086  22.683  24.015  1.00  0.00     0.249 C 
ATOM      4  O   UNL A   1      35.780  23.349  23.020  1.00  0.00    -0.272 OA
ATOM      5  H   UNL A   1      38.017  22.987  23.649  1.00  0.00     0.163 HD
BRANCH   3   6
ATOM      6  C   UNL A   1      34.984  21.996  24.857  1.00  0.00     0.207 C 
ATOM      7  C   UNL A   1      32.960  22.380  25.961  1.00  0.00     0.134 C 
ATOM      8  C   UNL A   1      34.068  22.707  26.950  1.00  0.00     0.037 C 
ATOM      9  O   UNL A   1      33.639  22.443  24.677  1.00  0.00    -0.364 OA
ATOM     10  C   UNL A   1      35.276  22.028  26.349  1.00  0.00     0.045 C 
BRANCH   7  11
ATOM     11  C   UNL A   1      31.801  23.375  25.900  1.00  0.00     0.130 C 
BRANCH  11  12
ATOM     12  N   UNL A   1      31.641  24.196  24.687  1.00  0.00    -0.212 NA
ATOM     13  H   UNL A   1      32.586  24.490  24.440  1.00  0.00     0.141 HD
BRANCH  12  14
ATOM     14  S   UNL A   1      30.710  25.563  24.532  1.00  0.00     0.217 S 
ATOM     15  O   UNL A   1      30.243  25.940  25.844  1.00  0.00    -0.212 OA
ATOM     16  O   UNL A   1      29.738  25.192  23.518  1.00  0.00    -0.212 OA
BRANCH  14  17
ATOM     17  C   UNL A   1      31.724  26.885  23.816  1.00  0.00     0.213 C 
BRANCH  17  18
ATOM     18  C   UNL A   1      30.944  28.019  23.288  1.00  0.00     0.100 A 
ATOM     19  C   UNL A   1      28.607  30.816  23.323  1.00  0.00     0.091 C 
ATOM     20  C   UNL A   1      29.623  29.766  23.141  1.00  0.00     0.133 A 
ATOM     21  C   UNL A   1      30.524  29.175  23.989  1.00  0.00     0.073 A 
ATOM     22  O   UNL A   1      29.648  29.122  21.945  1.00  0.00    -0.361 OA
ATOM     23  N   UNL A   1      30.487  28.022  22.030  1.00  0.00    -0.084 NA
ENDBRANCH  17  18
ENDBRANCH  14  17
ENDBRANCH  12  14
ENDBRANCH  11  12
ENDBRANCH   7  11
ENDBRANCH   3   6
ENDBRANCH   1   2
BRANCH   1  24
ATOM     24  C   UNL A   1      38.872  22.803  26.264  1.00  0.00     0.023 C 
BRANCH  24  25
ATOM     25  C   UNL A   1      40.085  22.190  26.975  1.00  0.00     0.023 C 
BRANCH  25  26
ATOM     26  C   UNL A   1      41.401  22.951  26.827  1.00  0.00     0.116 C 
BRANCH  26  27
ATOM     27  N   UNL A   1      41.379  24.024  25.844  1.00  0.00    -0.352 N 
ATOM     28  C   UNL A   1      41.442  25.386  26.058  1.00  0.00     0.251 C 
ATOM     29  H   UNL A   1      41.309  23.741  24.904  1.00  0.00     0.163 HD
ATOM     30  O   UNL A   1      41.445  26.164  25.109  1.00  0.00    -0.269 OA
BRANCH  28  31
ATOM     31  C   UNL A   1      41.426  25.909  27.441  1.00  0.00     0.039 A 
ATOM     32  C   UNL A   1      42.518  26.674  27.858  1.00  0.00     0.014 A 
ATOM     33  C   UNL A   1      40.314  25.756  28.271  1.00  0.00     0.014 A 
ATOM     34  C   UNL A   1      42.432  27.405  29.042  1.00  0.00     0.010 A 
ATOM     35  C   UNL A   1      40.196  26.546  29.409  1.00  0.00     0.010 A 
ATOM     36  C   UNL A   1      41.237  27.410  29.778  1.00  0.00    -0.014 A 
BRANCH  36  37
ATOM     37  C   UNL A   1      41.025  28.393  30.869  1.00  0.00     0.031 A 
ATOM     38  C   UNL A   1      41.864  28.354  32.109  1.00  0.00     0.074 A 
ATOM     39  C   UNL A   1      40.010  29.273  30.757  1.00  0.00     0.049 A 
ATOM     40  N   UNL A   1      41.803  29.120  33.169  1.00  0.00    -0.248 NA
ATOM     41  C   UNL A   1      42.887  27.301  32.182  1.00  0.00     0.031 C 
ATOM     42  C   UNL A   1      39.085  29.357  29.622  1.00  0.00     0.029 A 
ATOM     43  N   UNL A   1      39.584  30.265  31.602  1.00  0.00    -0.354 N 
ATOM     44  C   UNL A   1      42.774  28.639  34.037  1.00  0.00     0.074 A 
ATOM     45  C   UNL A   1      43.368  27.480  33.403  1.00  0.00     0.031 C 
ATOM     46  C   UNL A   1      38.235  30.377  29.819  1.00  0.00     0.029 A 
ATOM     47  C   UNL A   1      38.528  30.996  31.107  1.00  0.00     0.049 A 
ATOM     48  H   UNL A   1      39.993  30.440  32.480  1.00  0.00     0.167 HD
ATOM     49  C   UNL A   1      43.151  29.133  35.240  1.00  0.00     0.037 A 
ATOM     50  C   UNL A   1      37.876  32.052  31.628  1.00  0.00     0.037 A 
ATOM     51  C   UNL A   1      42.554  30.288  35.857  1.00  0.00     0.049 A 
ATOM     52  C   UNL A   1      38.312  32.586  32.963  1.00  0.00     0.074 A 
ATOM     53  C   UNL A   1      42.886  30.898  37.053  1.00  0.00     0.029 A 
ATOM     54  N   UNL A   1      41.491  31.005  35.324  1.00  0.00    -0.354 N 
ATOM     55  N   UNL A   1      39.278  32.161  33.743  1.00  0.00    -0.248 NA
ATOM     56  C   UNL A   1      37.574  33.741  33.488  1.00  0.00     0.031 C 
ATOM     57  C   UNL A   1      42.003  31.966  37.259  1.00  0.00     0.029 A 
ATOM     58  C   UNL A   1      41.143  32.043  36.173  1.00  0.00     0.049 A 
ATOM     59  H   UNL A   1      41.049  30.806  34.468  1.00  0.00     0.167 HD
ATOM     60  C   UNL A   1      39.281  33.012  34.841  1.00  0.00     0.074 A 
ATOM     61  C   UNL A   1      38.224  33.980  34.621  1.00  0.00     0.031 C 
ATOM     62  C   UNL A   1      40.086  32.995  35.932  1.00  0.00     0.037 A 
BRANCH  49  63
ATOM     63  C   UNL A   1      44.258  28.406  35.954  1.00  0.00     0.058 A 
ATOM     64  C   UNL A   1      45.607  28.744  35.751  1.00  0.00     0.135 A 
ATOM     65  C   UNL A   1      43.976  27.329  36.809  1.00  0.00     0.135 A 
ATOM     66  F   UNL A   1      45.934  29.757  34.931  1.00  0.00    -0.206 F 
ATOM     67  C   UNL A   1      46.637  28.002  36.318  1.00  0.00     0.059 A 
ATOM     68  C   UNL A   1      44.991  26.590  37.410  1.00  0.00     0.059 A 
ATOM     69  F   UNL A   1      42.706  26.966  37.043  1.00  0.00    -0.206 F 
ATOM     70  C   UNL A   1      46.319  26.916  37.132  1.00  0.00     0.060 A 
BRANCH  70  71
ATOM     71  S   UNL A   1      47.662  25.912  37.802  1.00  0.00     0.124 S 
ATOM     72  O   UNL A   1      46.919  24.860  38.488  1.00  0.00    -0.237 OA
ATOM     73  O   UNL A   1      48.379  25.500  36.600  1.00  0.00    -0.237 OA
ATOM     74  O   UNL A   1      48.379  26.843  38.668  1.00  0.00    -0.744 OA
ENDBRANCH  70  71
ENDBRANCH  49  63
BRANCH  50  75
ATOM     75  C   UNL A   1      36.793  32.709  30.850  1.00  0.00     0.058 A 
ATOM     76  C   UNL A   1      35.461  32.297  30.997  1.00  0.00     0.135 A 
ATOM     77  C   UNL A   1      37.055  33.787  29.991  1.00  0.00     0.135 A 
ATOM     78  F   UNL A   1      35.163  31.268  31.804  1.00  0.00    -0.206 F 
ATOM     79  C   UNL A   1      34.423  32.930  30.321  1.00  0.00     0.059 A 
ATOM     80  C   UNL A   1      36.031  34.449  29.318  1.00  0.00     0.059 A 
ATOM     81  F   UNL A   1      38.311  34.230  29.830  1.00  0.00    -0.206 F 
ATOM     82  C   UNL A   1      34.719  34.010  29.487  1.00  0.00     0.060 A 
BRANCH  82  83
ATOM     83  S   UNL A   1      33.354  34.873  28.676  1.00  0.00     0.124 S 
ATOM     84  O   UNL A   1      32.871  33.856  27.750  1.00  0.00    -0.237 OA
ATOM     85  O   UNL A   1      32.475  35.182  29.801  1.00  0.00    -0.237 OA
ATOM     86  O   UNL A   1      34.005  36.028  28.065  1.00  0.00    -0.744 OA
ENDBRANCH  82  83
ENDBRANCH  50  75
BRANCH  62  87
ATOM     87  C   UNL A   1      39.870  34.071  36.958  1.00  0.00     0.058 A 
ATOM     88  C   UNL A   1      39.104  33.843  38.110  1.00  0.00     0.135 A 
ATOM     89  C   UNL A   1      40.481  35.326  36.809  1.00  0.00     0.135 A 
ATOM     90  F   UNL A   1      38.493  32.662  38.294  1.00  0.00    -0.206 F 
ATOM     91  C   UNL A   1      38.936  34.831  39.075  1.00  0.00     0.059 A 
ATOM     92  C   UNL A   1      40.344  36.320  37.772  1.00  0.00     0.059 A 
ATOM     93  F   UNL A   1      41.229  35.590  35.727  1.00  0.00    -0.206 F 
ATOM     94  C   UNL A   1      39.562  36.066  38.897  1.00  0.00     0.060 A 
BRANCH  94  95
ATOM     95  S   UNL A   1      39.375  37.326  40.177  1.00  0.00     0.124 S 
ATOM     96  O   UNL A   1      38.543  38.313  39.497  1.00  0.00    -0.237 OA
ATOM     97  O   UNL A   1      38.726  36.586  41.255  1.00  0.00    -0.237 OA
ATOM     98  O   UNL A   1      40.747  37.740  40.447  1.00  0.00    -0.744 OA
ENDBRANCH  94  95
ENDBRANCH  62  87
ENDBRANCH  36  37
ENDBRANCH  28  31
ENDBRANCH  26  27
ENDBRANCH  25  26
ENDBRANCH  24  25
ENDBRANCH   1  24
TORSDOF 19
ENDMDL
MODEL 2
REMARK VINA RESULT:     -11.0      4.153     10.577
REMARK SMILES Cc1cc(CS(=O)(=O)NC[C@@H]2CC[C@H](C(=O)NCCCCNC(=O)c3ccc(-c4c5nc(c(-c6c(F)cc(S(=O)(=O)[O-])cc6F)c6ccc([nH]6)c(-c6c(F)cc(S(=O)(=O)[O-])cc6F)c6nc(c(-c7c(F)cc(S(=O)(=O)[O-])cc7F)c7ccc4[nH]7)C=C6)C=C5)cc3)O2)no1
REMARK SMILES IDX 18 1 17 2 15 3 16 4 14 6 11 7 12 8 91 9 13 10 10 11 9 12
REMARK SMILES IDX 6 14 7 15 8 16 5 17 4 18 1 19 2 20 3 21 93 22 92 23 19 24
REMARK SMILES IDX 20 25 21 26 22 27 23 28 24 30 25 31 26 32 90 33 27 34 89 35
REMARK SMILES IDX 28 36 29 37 30 38 83 39 31 40 88 41 82 42 84 43 32 44 87 45
REMARK SMILES IDX 81 46 80 47 33 49 67 50 46 51 66 52 47 53 50 54 65 55 85 56
REMARK SMILES IDX 48 57 49 58 64 60 86 61 51 62 34 63 35 64 44 65 36 66 37 67
REMARK SMILES IDX 43 68 45 69 38 70 39 71 40 72 41 73 42 74 68 75 69 76 78 77
REMARK SMILES IDX 70 78 71 79 77 80 79 81 72 82 73 83 74 84 75 85 76 86 52 87
REMARK SMILES IDX 53 88 62 89 54 90 55 91 61 92 63 93 56 94 57 95 58 96 59 97
REMARK SMILES IDX 60 98
REMARK H PARENT 17 5 9 13 22 29 84 48 50 59
REMARK Flexibility Score: inf
ROOT
ATOM      1  C   UNL A   1      44.781  24.484  28.773  1.00  0.00     0.116 C 
ENDROOT
BRANCH   1   2
ATOM      2  N   UNL A   1      45.031  25.910  28.767  1.00  0.00    -0.354 N 
ATOM      3  C   UNL A   1      45.510  26.719  27.777  1.00  0.00     0.249 C 
ATOM      4  O   UNL A   1      45.618  27.924  28.034  1.00  0.00    -0.272 OA
ATOM      5  H   UNL A   1      44.821  26.370  29.611  1.00  0.00     0.163 HD
BRANCH   3   6
ATOM      6  C   UNL A   1      45.968  26.175  26.403  1.00  0.00     0.207 C 
ATOM      7  C   UNL A   1      45.941  24.277  25.040  1.00  0.00     0.134 C 
ATOM      8  C   UNL A   1      47.160  24.151  25.941  1.00  0.00     0.037 C 
ATOM      9  O   UNL A   1      45.112  25.241  25.743  1.00  0.00    -0.364 OA
ATOM     10  C   UNL A   1      47.359  25.562  26.446  1.00  0.00     0.045 C 
BRANCH   7  11
ATOM     11  C   UNL A   1      45.102  23.010  24.867  1.00  0.00     0.130 C 
BRANCH  11  12
ATOM     12  N   UNL A   1      45.598  21.753  25.453  1.00  0.00    -0.212 NA
ATOM     13  H   UNL A   1      46.541  21.966  25.779  1.00  0.00     0.141 HD
BRANCH  12  14
ATOM     14  S   UNL A   1      45.730  20.286  24.683  1.00  0.00     0.217 S 
ATOM     15  O   UNL A   1      47.132  19.986  24.524  1.00  0.00    -0.212 OA
ATOM     16  O   UNL A   1      44.906  20.456  23.499  1.00  0.00    -0.212 OA
BRANCH  14  17
ATOM     17  C   UNL A   1      44.921  19.018  25.697  1.00  0.00     0.213 C 
BRANCH  17  18
ATOM     18  C   UNL A   1      43.449  19.100  25.697  1.00  0.00     0.100 A 
ATOM     19  C   UNL A   1      40.137  20.339  26.582  1.00  0.00     0.091 C 
ATOM     20  C   UNL A   1      41.387  19.756  26.066  1.00  0.00     0.133 A 
ATOM     21  C   UNL A   1      42.652  20.254  25.888  1.00  0.00     0.073 A 
ATOM     22  O   UNL A   1      41.393  18.422  25.806  1.00  0.00    -0.361 OA
ATOM     23  N   UNL A   1      42.692  18.004  25.565  1.00  0.00    -0.084 NA
ENDBRANCH  17  18
ENDBRANCH  14  17
ENDBRANCH  12  14
ENDBRANCH  11  12
ENDBRANCH   7  11
ENDBRANCH   3   6
ENDBRANCH   1   2
BRANCH   1  24
ATOM     24  C   UNL A   1      43.492  24.133  29.520  1.00  0.00     0.023 C 
BRANCH  24  25
ATOM     25  C   UNL A   1      42.729  22.916  28.981  1.00  0.00     0.023 C 
BRANCH  25  26
ATOM     26  C   UNL A   1      41.502  23.224  28.126  1.00  0.00     0.116 C 
BRANCH  26  27
ATOM     27  N   UNL A   1      41.796  23.651  26.765  1.00  0.00    -0.352 N 
ATOM     28  C   UNL A   1      41.779  24.928  26.243  1.00  0.00     0.251 C 
ATOM     29  H   UNL A   1      42.038  22.934  26.135  1.00  0.00     0.163 HD
ATOM     30  O   UNL A   1      42.087  25.124  25.072  1.00  0.00    -0.269 OA
BRANCH  28  31
ATOM     31  C   UNL A   1      41.311  26.053  27.081  1.00  0.00     0.039 A 
ATOM     32  C   UNL A   1      40.241  25.815  27.948  1.00  0.00     0.014 A 
ATOM     33  C   UNL A   1      41.980  27.277  27.106  1.00  0.00     0.014 A 
ATOM     34  C   UNL A   1      39.940  26.749  28.939  1.00  0.00     0.010 A 
ATOM     35  C   UNL A   1      41.733  28.171  28.142  1.00  0.00     0.010 A 
ATOM     36  C   UNL A   1      40.740  27.891  29.093  1.00  0.00    -0.014 A 
BRANCH  36  37
ATOM     37  C   UNL A   1      40.621  28.741  30.303  1.00  0.00     0.031 A 
ATOM     38  C   UNL A   1      39.580  29.815  30.385  1.00  0.00     0.074 A 
ATOM     39  C   UNL A   1      41.517  28.580  31.296  1.00  0.00     0.049 A 
ATOM     40  N   UNL A   1      39.346  30.662  31.354  1.00  0.00    -0.248 NA
ATOM     41  C   UNL A   1      38.704  29.977  29.215  1.00  0.00     0.031 C 
ATOM     42  C   UNL A   1      42.617  27.610  31.294  1.00  0.00     0.029 A 
ATOM     43  N   UNL A   1      41.651  29.224  32.499  1.00  0.00    -0.354 N 
ATOM     44  C   UNL A   1      38.301  31.462  30.910  1.00  0.00     0.074 A 
ATOM     45  C   UNL A   1      37.988  31.036  29.562  1.00  0.00     0.031 C 
ATOM     46  C   UNL A   1      43.279  27.689  32.460  1.00  0.00     0.029 A 
ATOM     47  C   UNL A   1      42.677  28.737  33.276  1.00  0.00     0.049 A 
ATOM     48  H   UNL A   1      41.067  29.965  32.783  1.00  0.00     0.167 HD
ATOM     49  C   UNL A   1      37.649  32.446  31.575  1.00  0.00     0.037 A 
ATOM     50  C   UNL A   1      43.081  29.089  34.511  1.00  0.00     0.037 A 
ATOM     51  C   UNL A   1      37.970  32.858  32.916  1.00  0.00     0.049 A 
ATOM     52  C   UNL A   1      42.342  30.180  35.232  1.00  0.00     0.074 A 
ATOM     53  C   UNL A   1      37.348  33.815  33.699  1.00  0.00     0.029 A 
ATOM     54  N   UNL A   1      39.012  32.339  33.673  1.00  0.00    -0.354 N 
ATOM     55  N   UNL A   1      41.312  30.883  34.824  1.00  0.00    -0.248 NA
ATOM     56  C   UNL A   1      42.816  30.526  36.577  1.00  0.00     0.031 C 
ATOM     57  C   UNL A   1      38.034  33.895  34.917  1.00  0.00     0.029 A 
ATOM     58  C   UNL A   1      39.061  32.964  34.908  1.00  0.00     0.049 A 
ATOM     59  H   UNL A   1      39.626  31.630  33.375  1.00  0.00     0.167 HD
ATOM     60  C   UNL A   1      40.998  31.739  35.873  1.00  0.00     0.074 A 
ATOM     61  C   UNL A   1      41.945  31.460  36.935  1.00  0.00     0.031 C 
ATOM     62  C   UNL A   1      40.014  32.669  35.951  1.00  0.00     0.037 A 
BRANCH  49  63
ATOM     63  C   UNL A   1      36.532  33.135  30.840  1.00  0.00     0.058 A 
ATOM     64  C   UNL A   1      36.790  34.086  29.838  1.00  0.00     0.135 A 
ATOM     65  C   UNL A   1      35.192  32.883  31.173  1.00  0.00     0.135 A 
ATOM     66  F   UNL A   1      38.055  34.376  29.492  1.00  0.00    -0.206 F 
ATOM     67  C   UNL A   1      35.765  34.808  29.238  1.00  0.00     0.059 A 
ATOM     68  C   UNL A   1      34.147  33.573  30.564  1.00  0.00     0.059 A 
ATOM     69  F   UNL A   1      34.887  31.981  32.118  1.00  0.00    -0.206 F 
ATOM     70  C   UNL A   1      34.447  34.557  29.621  1.00  0.00     0.060 A 
BRANCH  70  71
ATOM     71  S   UNL A   1      33.129  35.552  28.891  1.00  0.00     0.124 S 
ATOM     72  O   UNL A   1      33.896  36.506  28.096  1.00  0.00    -0.237 OA
ATOM     73  O   UNL A   1      32.369  34.564  28.133  1.00  0.00    -0.237 OA
ATOM     74  O   UNL A   1      32.444  36.109  30.053  1.00  0.00    -0.744 OA
ENDBRANCH  70  71
ENDBRANCH  49  63
BRANCH  50  75
ATOM     75  C   UNL A   1      44.195  28.350  35.161  1.00  0.00     0.058 A 
ATOM     76  C   UNL A   1      43.942  27.186  35.900  1.00  0.00     0.135 A 
ATOM     77  C   UNL A   1      45.531  28.756  35.015  1.00  0.00     0.135 A 
ATOM     78  F   UNL A   1      42.680  26.762  36.069  1.00  0.00    -0.206 F 
ATOM     79  C   UNL A   1      44.971  26.447  36.473  1.00  0.00     0.059 A 
ATOM     80  C   UNL A   1      46.580  28.023  35.564  1.00  0.00     0.059 A 
ATOM     81  F   UNL A   1      45.826  29.854  34.303  1.00  0.00    -0.206 F 
ATOM     82  C   UNL A   1      46.289  26.871  36.294  1.00  0.00     0.060 A 
BRANCH  82  83
ATOM     83  S   UNL A   1      47.622  25.860  36.978  1.00  0.00     0.124 S 
ATOM     84  O   UNL A   1      48.802  26.603  36.552  1.00  0.00    -0.237 OA
ATOM     85  O   UNL A   1      47.327  25.891  38.407  1.00  0.00    -0.237 OA
ATOM     86  O   UNL A   1      47.422  24.566  36.334  1.00  0.00    -0.744 OA
ENDBRANCH  82  83
ENDBRANCH  50  75
BRANCH  62  87
ATOM     87  C   UNL A   1      39.898  33.435  37.237  1.00  0.00     0.058 A 
ATOM     88  C   UNL A   1      39.010  33.041  38.248  1.00  0.00     0.135 A 
ATOM     89  C   UNL A   1      40.723  34.544  37.480  1.00  0.00     0.135 A 
ATOM     90  F   UNL A   1      38.193  31.992  38.060  1.00  0.00    -0.206 F 
ATOM     91  C   UNL A   1      38.930  33.731  39.453  1.00  0.00     0.059 A 
ATOM     92  C   UNL A   1      40.676  35.236  38.685  1.00  0.00     0.059 A 
ATOM     93  F   UNL A   1      41.595  34.956  36.546  1.00  0.00    -0.206 F 
ATOM     94  C   UNL A   1      39.770  34.827  39.663  1.00  0.00     0.060 A 
BRANCH  94  95
ATOM     95  S   UNL A   1      39.692  35.690  41.247  1.00  0.00     0.124 S 
ATOM     96  O   UNL A   1      40.433  36.912  40.952  1.00  0.00    -0.237 OA
ATOM     97  O   UNL A   1      38.255  35.853  41.447  1.00  0.00    -0.237 OA
ATOM     98  O   UNL A   1      40.345  34.766  42.168  1.00  0.00    -0.744 OA
ENDBRANCH  94  95
ENDBRANCH  62  87
ENDBRANCH  36  37
ENDBRANCH  28  31
ENDBRANCH  26  27
ENDBRANCH  25  26
ENDBRANCH  24  25
ENDBRANCH   1  24
TORSDOF 19
ENDMDL
MODEL 3
REMARK VINA RESULT:     -10.9      1.538      8.513
REMARK SMILES Cc1cc(CS(=O)(=O)NC[C@@H]2CC[C@H](C(=O)NCCCCNC(=O)c3ccc(-c4c5nc(c(-c6c(F)cc(S(=O)(=O)[O-])cc6F)c6ccc([nH]6)c(-c6c(F)cc(S(=O)(=O)[O-])cc6F)c6nc(c(-c7c(F)cc(S(=O)(=O)[O-])cc7F)c7ccc4[nH]7)C=C6)C=C5)cc3)O2)no1
REMARK SMILES IDX 18 1 17 2 15 3 16 4 14 6 11 7 12 8 91 9 13 10 10 11 9 12
REMARK SMILES IDX 6 14 7 15 8 16 5 17 4 18 1 19 2 20 3 21 93 22 92 23 19 24
REMARK SMILES IDX 20 25 21 26 22 27 23 28 24 30 25 31 26 32 90 33 27 34 89 35
REMARK SMILES IDX 28 36 29 37 30 38 83 39 31 40 88 41 82 42 84 43 32 44 87 45
REMARK SMILES IDX 81 46 80 47 33 49 67 50 46 51 66 52 47 53 50 54 65 55 85 56
REMARK SMILES IDX 48 57 49 58 64 60 86 61 51 62 34 63 35 64 44 65 36 66 37 67
REMARK SMILES IDX 43 68 45 69 38 70 39 71 40 72 41 73 42 74 68 75 69 76 78 77
REMARK SMILES IDX 70 78 71 79 77 80 79 81 72 82 73 83 74 84 75 85 76 86 52 87
REMARK SMILES IDX 53 88 62 89 54 90 55 91 61 92 63 93 56 94 57 95 58 96 59 97
REMARK SMILES IDX 60 98
REMARK H PARENT 17 5 9 13 22 29 84 48 50 59
REMARK Flexibility Score: inf
ROOT
ATOM      1  C   UNL A   1      37.277  21.056  25.232  1.00  0.00     0.116 C 
ENDROOT
BRANCH   1   2
ATOM      2  N   UNL A   1      36.210  21.483  26.113  1.00  0.00    -0.354 N 
ATOM      3  C   UNL A   1      34.889  21.711  25.855  1.00  0.00     0.249 C 
ATOM      4  O   UNL A   1      34.180  22.063  26.804  1.00  0.00    -0.272 OA
ATOM      5  H   UNL A   1      36.479  21.632  27.047  1.00  0.00     0.163 HD
BRANCH   3   6
ATOM      6  C   UNL A   1      34.287  21.605  24.433  1.00  0.00     0.207 C 
ATOM      7  C   UNL A   1      33.210  22.833  22.762  1.00  0.00     0.134 C 
ATOM      8  C   UNL A   1      32.125  22.312  23.690  1.00  0.00     0.037 C 
ATOM      9  O   UNL A   1      34.410  22.742  23.577  1.00  0.00    -0.364 OA
ATOM     10  C   UNL A   1      32.821  21.201  24.442  1.00  0.00     0.045 C 
BRANCH   7  11
ATOM     11  C   UNL A   1      33.076  24.294  22.328  1.00  0.00     0.130 C 
BRANCH  11  12
ATOM     12  N   UNL A   1      32.595  25.278  23.313  1.00  0.00    -0.212 NA
ATOM     13  H   UNL A   1      31.914  25.846  22.809  1.00  0.00     0.141 HD
BRANCH  12  14
ATOM     14  S   UNL A   1      33.523  26.367  24.158  1.00  0.00     0.217 S 
ATOM     15  O   UNL A   1      33.849  27.462  23.276  1.00  0.00    -0.212 OA
ATOM     16  O   UNL A   1      34.597  25.548  24.691  1.00  0.00    -0.212 OA
BRANCH  14  17
ATOM     17  C   UNL A   1      32.573  26.964  25.583  1.00  0.00     0.213 C 
BRANCH  17  18
ATOM     18  C   UNL A   1      31.626  25.974  26.128  1.00  0.00     0.100 A 
ATOM     19  C   UNL A   1      30.198  22.693  26.821  1.00  0.00     0.091 C 
ATOM     20  C   UNL A   1      30.665  24.084  26.694  1.00  0.00     0.133 A 
ATOM     21  C   UNL A   1      31.905  24.646  26.529  1.00  0.00     0.073 A 
ATOM     22  O   UNL A   1      29.718  25.054  26.592  1.00  0.00    -0.361 OA
ATOM     23  N   UNL A   1      30.321  26.251  26.242  1.00  0.00    -0.084 NA
ENDBRANCH  17  18
ENDBRANCH  14  17
ENDBRANCH  12  14
ENDBRANCH  11  12
ENDBRANCH   7  11
ENDBRANCH   3   6
ENDBRANCH   1   2
BRANCH   1  24
ATOM     24  C   UNL A   1      38.648  21.522  25.730  1.00  0.00     0.023 C 
BRANCH  24  25
ATOM     25  C   UNL A   1      38.702  22.959  26.265  1.00  0.00     0.023 C 
BRANCH  25  26
ATOM     26  C   UNL A   1      39.960  23.334  27.046  1.00  0.00     0.116 C 
BRANCH  26  27
ATOM     27  N   UNL A   1      41.078  23.779  26.226  1.00  0.00    -0.352 N 
ATOM     28  C   UNL A   1      41.723  24.999  26.243  1.00  0.00     0.251 C 
ATOM     29  H   UNL A   1      41.417  23.124  25.574  1.00  0.00     0.163 HD
ATOM     30  O   UNL A   1      42.679  25.206  25.502  1.00  0.00    -0.269 OA
BRANCH  28  31
ATOM     31  C   UNL A   1      41.206  26.086  27.102  1.00  0.00     0.039 A 
ATOM     32  C   UNL A   1      40.236  25.757  28.052  1.00  0.00     0.014 A 
ATOM     33  C   UNL A   1      41.746  27.372  27.061  1.00  0.00     0.014 A 
ATOM     34  C   UNL A   1      39.917  26.673  29.053  1.00  0.00     0.010 A 
ATOM     35  C   UNL A   1      41.488  28.255  28.105  1.00  0.00     0.010 A 
ATOM     36  C   UNL A   1      40.605  27.894  29.132  1.00  0.00    -0.014 A 
BRANCH  36  37
ATOM     37  C   UNL A   1      40.491  28.750  30.338  1.00  0.00     0.031 A 
ATOM     38  C   UNL A   1      39.463  29.837  30.412  1.00  0.00     0.074 A 
ATOM     39  C   UNL A   1      41.381  28.581  31.337  1.00  0.00     0.049 A 
ATOM     40  N   UNL A   1      39.236  30.691  31.377  1.00  0.00    -0.248 NA
ATOM     41  C   UNL A   1      38.594  30.006  29.238  1.00  0.00     0.031 C 
ATOM     42  C   UNL A   1      42.468  27.597  31.343  1.00  0.00     0.029 A 
ATOM     43  N   UNL A   1      41.517  29.227  32.538  1.00  0.00    -0.354 N 
ATOM     44  C   UNL A   1      38.203  31.503  30.926  1.00  0.00     0.074 A 
ATOM     45  C   UNL A   1      37.891  31.075  29.578  1.00  0.00     0.031 C 
ATOM     46  C   UNL A   1      43.125  27.672  32.511  1.00  0.00     0.029 A 
ATOM     47  C   UNL A   1      42.534  28.730  33.320  1.00  0.00     0.049 A 
ATOM     48  H   UNL A   1      40.942  29.977  32.816  1.00  0.00     0.167 HD
ATOM     49  C   UNL A   1      37.561  32.497  31.584  1.00  0.00     0.037 A 
ATOM     50  C   UNL A   1      42.936  29.081  34.556  1.00  0.00     0.037 A 
ATOM     51  C   UNL A   1      37.881  32.910  32.925  1.00  0.00     0.049 A 
ATOM     52  C   UNL A   1      42.209  30.184  35.270  1.00  0.00     0.074 A 
ATOM     53  C   UNL A   1      37.268  33.877  33.702  1.00  0.00     0.029 A 
ATOM     54  N   UNL A   1      38.913  32.380  33.688  1.00  0.00    -0.354 N 
ATOM     55  N   UNL A   1      41.189  30.899  34.855  1.00  0.00    -0.248 NA
ATOM     56  C   UNL A   1      42.681  30.529  36.616  1.00  0.00     0.031 C 
ATOM     57  C   UNL A   1      37.950  33.953  34.922  1.00  0.00     0.029 A 
ATOM     58  C   UNL A   1      38.965  33.009  34.922  1.00  0.00     0.049 A 
ATOM     59  H   UNL A   1      39.519  31.662  33.396  1.00  0.00     0.167 HD
ATOM     60  C   UNL A   1      40.881  31.763  35.899  1.00  0.00     0.074 A 
ATOM     61  C   UNL A   1      41.820  31.475  36.967  1.00  0.00     0.031 C 
ATOM     62  C   UNL A   1      39.909  32.706  35.969  1.00  0.00     0.037 A 
BRANCH  49  63
ATOM     63  C   UNL A   1      36.456  33.197  30.841  1.00  0.00     0.058 A 
ATOM     64  C   UNL A   1      36.730  34.124  29.822  1.00  0.00     0.135 A 
ATOM     65  C   UNL A   1      35.112  32.980  31.184  1.00  0.00     0.135 A 
ATOM     66  F   UNL A   1      38.000  34.381  29.466  1.00  0.00    -0.206 F 
ATOM     67  C   UNL A   1      35.718  34.859  29.213  1.00  0.00     0.059 A 
ATOM     68  C   UNL A   1      34.080  33.683  30.568  1.00  0.00     0.059 A 
ATOM     69  F   UNL A   1      34.792  32.102  32.146  1.00  0.00    -0.206 F 
ATOM     70  C   UNL A   1      34.397  34.643  29.606  1.00  0.00     0.060 A 
BRANCH  70  71
ATOM     71  S   UNL A   1      33.098  35.654  28.865  1.00  0.00     0.124 S 
ATOM     72  O   UNL A   1      32.389  34.665  28.058  1.00  0.00    -0.237 OA
ATOM     73  O   UNL A   1      32.379  36.151  30.032  1.00  0.00    -0.237 OA
ATOM     74  O   UNL A   1      33.841  36.661  28.114  1.00  0.00    -0.744 OA
ENDBRANCH  70  71
ENDBRANCH  49  63
BRANCH  50  75
ATOM     75  C   UNL A   1      44.038  28.331  35.214  1.00  0.00     0.058 A 
ATOM     76  C   UNL A   1      45.357  28.802  35.150  1.00  0.00     0.135 A 
ATOM     77  C   UNL A   1      43.794  27.168  35.960  1.00  0.00     0.135 A 
ATOM     78  F   UNL A   1      45.640  29.909  34.445  1.00  0.00    -0.206 F 
ATOM     79  C   UNL A   1      46.398  28.149  35.801  1.00  0.00     0.059 A 
ATOM     80  C   UNL A   1      44.815  26.506  36.636  1.00  0.00     0.059 A 
ATOM     81  F   UNL A   1      42.546  26.687  36.066  1.00  0.00    -0.206 F 
ATOM     82  C   UNL A   1      46.115  27.004  36.548  1.00  0.00     0.060 A 
BRANCH  82  83
ATOM     83  S   UNL A   1      47.462  26.209  37.453  1.00  0.00     0.124 S 
ATOM     84  O   UNL A   1      47.837  27.252  38.400  1.00  0.00    -0.237 OA
ATOM     85  O   UNL A   1      46.801  25.037  38.020  1.00  0.00    -0.237 OA
ATOM     86  O   UNL A   1      48.442  25.921  36.409  1.00  0.00    -0.744 OA
ENDBRANCH  82  83
ENDBRANCH  50  75
BRANCH  62  87
ATOM     87  C   UNL A   1      39.797  33.478  37.253  1.00  0.00     0.058 A 
ATOM     88  C   UNL A   1      40.568  34.626  37.488  1.00  0.00     0.135 A 
ATOM     89  C   UNL A   1      38.871  33.092  38.234  1.00  0.00     0.135 A 
ATOM     90  F   UNL A   1      41.474  35.030  36.583  1.00  0.00    -0.206 F 
ATOM     91  C   UNL A   1      40.435  35.359  38.663  1.00  0.00     0.059 A 
ATOM     92  C   UNL A   1      38.707  33.822  39.406  1.00  0.00     0.059 A 
ATOM     93  F   UNL A   1      38.106  32.005  38.052  1.00  0.00    -0.206 F 
ATOM     94  C   UNL A   1      39.500  34.950  39.616  1.00  0.00     0.060 A 
BRANCH  94  95
ATOM     95  S   UNL A   1      39.304  35.933  41.117  1.00  0.00     0.124 S 
ATOM     96  O   UNL A   1      40.319  35.346  41.986  1.00  0.00    -0.237 OA
ATOM     97  O   UNL A   1      39.579  37.286  40.646  1.00  0.00    -0.237 OA
ATOM     98  O   UNL A   1      37.921  35.681  41.508  1.00  0.00    -0.744 OA
ENDBRANCH  94  95
ENDBRANCH  62  87
ENDBRANCH  36  37
ENDBRANCH  28  31
ENDBRANCH  26  27
ENDBRANCH  25  26
ENDBRANCH  24  25
ENDBRANCH   1  24
TORSDOF 19
ENDMDL
