MODEL 1
REMARK VINA RESULT:      -9.5      0.000      0.000
REMARK SMILES CCCCCCC(=O)N[C@@H](C)C(=O)NCCCCNC(=O)c1ccc(-c2c3nc(c(-c4c(F)cc(S(=O)(=O)[O-])cc4F)c4ccc([nH]4)c(-c4c(F)cc(S(=O)(=O)[O-])cc4F)c4nc(c(-c5c(F)cc(S(=O)(=O)[O-])cc5F)c5ccc2[nH]5)C=C4)C=C3)cc1
REMARK SMILES IDX 15 1 14 2 12 3 13 4 10 6 11 7 9 8 7 9 8 10 6 12 5 13 4 14
REMARK SMILES IDX 3 15 2 16 1 17 16 18 17 19 18 20 19 21 20 22 21 24 22 25
REMARK SMILES IDX 23 26 87 27 24 28 86 29 25 30 26 31 27 32 80 33 28 34 85 35
REMARK SMILES IDX 79 36 81 37 29 38 84 39 78 40 77 41 30 43 64 44 43 45 63 46
REMARK SMILES IDX 44 47 47 48 62 49 82 50 45 51 46 52 61 54 83 55 48 56 31 57
REMARK SMILES IDX 32 58 41 59 33 60 34 61 40 62 42 63 35 64 36 65 37 66 38 67
REMARK SMILES IDX 39 68 65 69 66 70 75 71 67 72 68 73 74 74 76 75 69 76 70 77
REMARK SMILES IDX 71 78 72 79 73 80 49 81 50 82 59 83 51 84 52 85 58 86 60 87
REMARK SMILES IDX 53 88 54 89 55 90 56 91 57 92
REMARK H PARENT 14 5 9 11 19 23 81 42 47 53
REMARK Flexibility Score: inf
ROOT
ATOM      1  C   UNL A   1      30.793  26.744  25.736  1.00  0.00     0.116 C 
ENDROOT
BRANCH   1   2
ATOM      2  N   UNL A   1      30.350  25.627  26.539  1.00  0.00    -0.354 N 
ATOM      3  C   UNL A   1      30.511  24.294  26.332  1.00  0.00     0.242 C 
ATOM      4  O   UNL A   1      29.995  23.515  27.138  1.00  0.00    -0.273 OA
ATOM      5  H   UNL A   1      29.859  25.868  27.357  1.00  0.00     0.163 HD
BRANCH   3   6
ATOM      6  C   UNL A   1      31.398  23.774  25.196  1.00  0.00     0.168 C 
ATOM      7  C   UNL A   1      30.743  23.982  23.830  1.00  0.00     0.041 C 
BRANCH   6   8
ATOM      8  N   UNL A   1      31.896  22.411  25.352  1.00  0.00    -0.345 N 
ATOM      9  C   UNL A   1      32.925  21.962  26.121  1.00  0.00     0.220 C 
ATOM     10  O   UNL A   1      33.241  20.773  26.028  1.00  0.00    -0.275 OA
ATOM     11  H   UNL A   1      31.423  21.723  24.829  1.00  0.00     0.164 HD
BRANCH   9  12
ATOM     12  C   UNL A   1      33.651  22.890  27.080  1.00  0.00     0.100 C 
BRANCH  12  13
ATOM     13  C   UNL A   1      35.091  23.248  26.691  1.00  0.00     0.010 C 
BRANCH  13  14
ATOM     14  C   UNL A   1      35.319  23.965  25.353  1.00  0.00     0.001 C 
BRANCH  14  15
ATOM     15  C   UNL A   1      36.478  23.430  24.496  1.00  0.00    -0.000 C 
BRANCH  15  16
ATOM     16  C   UNL A   1      37.374  22.412  25.192  1.00  0.00    -0.003 C 
ATOM     17  C   UNL A   1      38.452  23.073  26.036  1.00  0.00     0.004 C 
ENDBRANCH  15  16
ENDBRANCH  14  15
ENDBRANCH  13  14
ENDBRANCH  12  13
ENDBRANCH   9  12
ENDBRANCH   6   8
ENDBRANCH   3   6
ENDBRANCH   1   2
BRANCH   1  18
ATOM     18  C   UNL A   1      31.850  27.554  26.476  1.00  0.00     0.023 C 
BRANCH  18  19
ATOM     19  C   UNL A   1      33.275  27.038  26.271  1.00  0.00     0.023 C 
BRANCH  19  20
ATOM     20  C   UNL A   1      34.362  28.088  26.467  1.00  0.00     0.116 C 
BRANCH  20  21
ATOM     21  N   UNL A   1      33.842  29.350  26.967  1.00  0.00    -0.352 N 
ATOM     22  C   UNL A   1      34.464  30.263  27.786  1.00  0.00     0.251 C 
ATOM     23  H   UNL A   1      32.928  29.581  26.683  1.00  0.00     0.163 HD
ATOM     24  O   UNL A   1      33.858  31.225  28.221  1.00  0.00    -0.269 OA
BRANCH  22  25
ATOM     25  C   UNL A   1      35.873  30.020  28.148  1.00  0.00     0.039 A 
ATOM     26  C   UNL A   1      36.165  29.534  29.421  1.00  0.00     0.014 A 
ATOM     27  C   UNL A   1      36.882  30.207  27.198  1.00  0.00     0.014 A 
ATOM     28  C   UNL A   1      37.479  29.188  29.732  1.00  0.00     0.010 A 
ATOM     29  C   UNL A   1      38.173  29.788  27.484  1.00  0.00     0.010 A 
ATOM     30  C   UNL A   1      38.487  29.289  28.758  1.00  0.00    -0.014 A 
BRANCH  30  31
ATOM     31  C   UNL A   1      39.889  28.916  29.065  1.00  0.00     0.031 A 
ATOM     32  C   UNL A   1      40.797  29.927  29.711  1.00  0.00     0.074 A 
ATOM     33  C   UNL A   1      40.354  27.703  28.715  1.00  0.00     0.049 A 
ATOM     34  N   UNL A   1      42.067  29.830  30.000  1.00  0.00    -0.248 NA
ATOM     35  C   UNL A   1      40.203  31.234  30.045  1.00  0.00     0.031 C 
ATOM     36  C   UNL A   1      39.580  26.661  28.035  1.00  0.00     0.029 A 
ATOM     37  N   UNL A   1      41.595  27.141  28.874  1.00  0.00    -0.354 N 
ATOM     38  C   UNL A   1      42.428  31.064  30.529  1.00  0.00     0.074 A 
ATOM     39  C   UNL A   1      41.259  31.913  30.464  1.00  0.00     0.031 C 
ATOM     40  C   UNL A   1      40.358  25.580  27.858  1.00  0.00     0.029 A 
ATOM     41  C   UNL A   1      41.691  25.861  28.381  1.00  0.00     0.049 A 
ATOM     42  H   UNL A   1      42.347  27.611  29.302  1.00  0.00     0.167 HD
ATOM     43  C   UNL A   1      43.619  31.446  31.048  1.00  0.00     0.037 A 
ATOM     44  C   UNL A   1      42.738  25.014  28.354  1.00  0.00     0.037 A 
ATOM     45  C   UNL A   1      44.763  30.580  31.144  1.00  0.00     0.049 A 
ATOM     46  C   UNL A   1      44.044  25.451  28.962  1.00  0.00     0.074 A 
ATOM     47  C   UNL A   1      45.999  30.846  31.705  1.00  0.00     0.029 A 
ATOM     48  N   UNL A   1      44.809  29.277  30.671  1.00  0.00    -0.354 N 
ATOM     49  N   UNL A   1      44.352  26.601  29.513  1.00  0.00    -0.248 NA
ATOM     50  C   UNL A   1      45.140  24.474  28.956  1.00  0.00     0.031 C 
ATOM     51  C   UNL A   1      46.804  29.714  31.539  1.00  0.00     0.029 A 
ATOM     52  C   UNL A   1      46.055  28.727  30.917  1.00  0.00     0.049 A 
ATOM     53  H   UNL A   1      44.065  28.811  30.225  1.00  0.00     0.167 HD
ATOM     54  C   UNL A   1      45.667  26.474  29.948  1.00  0.00     0.074 A 
ATOM     55  C   UNL A   1      46.092  25.133  29.603  1.00  0.00     0.031 C 
ATOM     56  C   UNL A   1      46.450  27.383  30.580  1.00  0.00     0.037 A 
BRANCH  43  57
ATOM     57  C   UNL A   1      43.733  32.854  31.560  1.00  0.00     0.058 A 
ATOM     58  C   UNL A   1      44.041  33.926  30.707  1.00  0.00     0.135 A 
ATOM     59  C   UNL A   1      43.515  33.141  32.917  1.00  0.00     0.135 A 
ATOM     60  F   UNL A   1      44.280  33.706  29.404  1.00  0.00    -0.206 F 
ATOM     61  C   UNL A   1      44.163  35.227  31.185  1.00  0.00     0.059 A 
ATOM     62  C   UNL A   1      43.602  34.439  33.412  1.00  0.00     0.059 A 
ATOM     63  F   UNL A   1      43.219  32.155  33.778  1.00  0.00    -0.206 F 
ATOM     64  C   UNL A   1      43.943  35.473  32.541  1.00  0.00     0.060 A 
BRANCH  64  65
ATOM     65  S   UNL A   1      44.104  37.166  33.146  1.00  0.00     0.124 S 
ATOM     66  O   UNL A   1      44.345  37.896  31.905  1.00  0.00    -0.237 OA
ATOM     67  O   UNL A   1      42.808  37.398  33.775  1.00  0.00    -0.237 OA
ATOM     68  O   UNL A   1      45.238  37.093  34.061  1.00  0.00    -0.744 OA
ENDBRANCH  64  65
ENDBRANCH  43  57
BRANCH  44  69
ATOM     69  C   UNL A   1      42.583  23.658  27.765  1.00  0.00     0.058 A 
ATOM     70  C   UNL A   1      42.477  22.523  28.585  1.00  0.00     0.135 A 
ATOM     71  C   UNL A   1      42.525  23.467  26.377  1.00  0.00     0.135 A 
ATOM     72  F   UNL A   1      42.529  22.653  29.919  1.00  0.00    -0.206 F 
ATOM     73  C   UNL A   1      42.337  21.247  28.050  1.00  0.00     0.059 A 
ATOM     74  C   UNL A   1      42.362  22.202  25.817  1.00  0.00     0.059 A 
ATOM     75  F   UNL A   1      42.603  24.521  25.549  1.00  0.00    -0.206 F 
ATOM     76  C   UNL A   1      42.280  21.096  26.663  1.00  0.00     0.060 A 
BRANCH  76  77
ATOM     77  S   UNL A   1      42.056  19.440  25.980  1.00  0.00     0.124 S 
ATOM     78  O   UNL A   1      42.917  19.489  24.804  1.00  0.00    -0.237 OA
ATOM     79  O   UNL A   1      42.518  18.591  27.076  1.00  0.00    -0.237 OA
ATOM     80  O   UNL A   1      40.622  19.379  25.713  1.00  0.00    -0.744 OA
ENDBRANCH  76  77
ENDBRANCH  44  69
BRANCH  56  81
ATOM     81  C   UNL A   1      47.831  26.946  30.983  1.00  0.00     0.058 A 
ATOM     82  C   UNL A   1      48.069  26.259  32.183  1.00  0.00     0.135 A 
ATOM     83  C   UNL A   1      48.920  27.169  30.124  1.00  0.00     0.135 A 
ATOM     84  F   UNL A   1      47.062  26.026  33.039  1.00  0.00    -0.206 F 
ATOM     85  C   UNL A   1      49.345  25.828  32.529  1.00  0.00     0.059 A 
ATOM     86  C   UNL A   1      50.200  26.722  30.438  1.00  0.00     0.059 A 
ATOM     87  F   UNL A   1      48.743  27.811  28.959  1.00  0.00    -0.206 F 
ATOM     88  C   UNL A   1      50.404  26.062  31.649  1.00  0.00     0.060 A 
BRANCH  88  89
ATOM     89  S   UNL A   1      52.049  25.466  32.094  1.00  0.00     0.124 S 
ATOM     90  O   UNL A   1      52.309  26.210  33.322  1.00  0.00    -0.237 OA
ATOM     91  O   UNL A   1      51.829  24.032  32.256  1.00  0.00    -0.237 OA
ATOM     92  O   UNL A   1      52.868  25.843  30.946  1.00  0.00    -0.744 OA
ENDBRANCH  88  89
ENDBRANCH  56  81
ENDBRANCH  30  31
ENDBRANCH  22  25
ENDBRANCH  20  21
ENDBRANCH  19  20
ENDBRANCH  18  19
ENDBRANCH   1  18
TORSDOF 20
ENDMDL
MODEL 2
REMARK VINA RESULT:      -9.4      5.521     11.646
REMARK SMILES CCCCCCC(=O)N[C@@H](C)C(=O)NCCCCNC(=O)c1ccc(-c2c3nc(c(-c4c(F)cc(S(=O)(=O)[O-])cc4F)c4ccc([nH]4)c(-c4c(F)cc(S(=O)(=O)[O-])cc4F)c4nc(c(-c5c(F)cc(S(=O)(=O)[O-])cc5F)c5ccc2[nH]5)C=C4)C=C3)cc1
REMARK SMILES IDX 15 1 14 2 12 3 13 4 10 6 11 7 9 8 7 9 8 10 6 12 5 13 4 14
REMARK SMILES IDX 3 15 2 16 1 17 16 18 17 19 18 20 19 21 20 22 21 24 22 25
REMARK SMILES IDX 23 26 87 27 24 28 86 29 25 30 26 31 27 32 80 33 28 34 85 35
REMARK SMILES IDX 79 36 81 37 29 38 84 39 78 40 77 41 30 43 64 44 43 45 63 46
REMARK SMILES IDX 44 47 47 48 62 49 82 50 45 51 46 52 61 54 83 55 48 56 31 57
REMARK SMILES IDX 32 58 41 59 33 60 34 61 40 62 42 63 35 64 36 65 37 66 38 67
REMARK SMILES IDX 39 68 65 69 66 70 75 71 67 72 68 73 74 74 76 75 69 76 70 77
REMARK SMILES IDX 71 78 72 79 73 80 49 81 50 82 59 83 51 84 52 85 58 86 60 87
REMARK SMILES IDX 53 88 54 89 55 90 56 91 57 92
REMARK H PARENT 14 5 9 11 19 23 81 42 47 53
REMARK Flexibility Score: inf
ROOT
ATOM      1  C   UNL A   1      42.252  20.513  25.927  1.00  0.00     0.116 C 
ENDROOT
BRANCH   1   2
ATOM      2  N   UNL A   1      43.564  19.941  25.721  1.00  0.00    -0.354 N 
ATOM      3  C   UNL A   1      44.738  20.554  25.420  1.00  0.00     0.242 C 
ATOM      4  O   UNL A   1      45.732  19.846  25.237  1.00  0.00    -0.273 OA
ATOM      5  H   UNL A   1      43.613  18.963  25.811  1.00  0.00     0.163 HD
BRANCH   3   6
ATOM      6  C   UNL A   1      44.852  22.082  25.416  1.00  0.00     0.168 C 
ATOM      7  C   UNL A   1      44.794  22.647  23.996  1.00  0.00     0.041 C 
BRANCH   6   8
ATOM      8  N   UNL A   1      45.971  22.638  26.170  1.00  0.00    -0.345 N 
ATOM      9  C   UNL A   1      46.029  23.797  26.880  1.00  0.00     0.220 C 
ATOM     10  O   UNL A   1      47.114  24.124  27.366  1.00  0.00    -0.275 OA
ATOM     11  H   UNL A   1      46.797  22.100  26.164  1.00  0.00     0.164 HD
BRANCH   9  12
ATOM     12  C   UNL A   1      44.791  24.652  27.088  1.00  0.00     0.100 C 
BRANCH  12  13
ATOM     13  C   UNL A   1      44.224  24.659  28.513  1.00  0.00     0.010 C 
BRANCH  13  14
ATOM     14  C   UNL A   1      44.604  25.828  29.434  1.00  0.00     0.001 C 
BRANCH  14  15
ATOM     15  C   UNL A   1      45.570  25.488  30.582  1.00  0.00    -0.000 C 
BRANCH  15  16
ATOM     16  C   UNL A   1      46.730  26.461  30.754  1.00  0.00    -0.003 C 
ATOM     17  C   UNL A   1      46.298  27.769  31.398  1.00  0.00     0.004 C 
ENDBRANCH  15  16
ENDBRANCH  14  15
ENDBRANCH  13  14
ENDBRANCH  12  13
ENDBRANCH   9  12
ENDBRANCH   6   8
ENDBRANCH   3   6
ENDBRANCH   1   2
BRANCH   1  18
ATOM     18  C   UNL A   1      42.162  21.170  27.298  1.00  0.00     0.023 C 
BRANCH  18  19
ATOM     19  C   UNL A   1      40.788  21.768  27.604  1.00  0.00     0.023 C 
BRANCH  19  20
ATOM     20  C   UNL A   1      40.750  23.291  27.622  1.00  0.00     0.116 C 
BRANCH  20  21
ATOM     21  N   UNL A   1      41.248  23.882  26.390  1.00  0.00    -0.352 N 
ATOM     22  C   UNL A   1      41.400  25.214  26.085  1.00  0.00     0.251 C 
ATOM     23  H   UNL A   1      41.511  23.247  25.685  1.00  0.00     0.163 HD
ATOM     24  O   UNL A   1      41.721  25.564  24.964  1.00  0.00    -0.269 OA
BRANCH  22  25
ATOM     25  C   UNL A   1      41.130  26.202  27.146  1.00  0.00     0.039 A 
ATOM     26  C   UNL A   1      40.142  25.922  28.089  1.00  0.00     0.014 A 
ATOM     27  C   UNL A   1      41.906  27.361  27.237  1.00  0.00     0.014 A 
ATOM     28  C   UNL A   1      39.962  26.791  29.163  1.00  0.00     0.010 A 
ATOM     29  C   UNL A   1      41.777  28.182  28.349  1.00  0.00     0.010 A 
ATOM     30  C   UNL A   1      40.795  27.913  29.314  1.00  0.00    -0.014 A 
BRANCH  30  31
ATOM     31  C   UNL A   1      40.626  28.845  30.455  1.00  0.00     0.031 A 
ATOM     32  C   UNL A   1      41.492  28.684  31.674  1.00  0.00     0.074 A 
ATOM     33  C   UNL A   1      39.665  29.788  30.416  1.00  0.00     0.049 A 
ATOM     34  N   UNL A   1      41.462  29.343  32.801  1.00  0.00    -0.248 NA
ATOM     35  C   UNL A   1      42.506  27.615  31.630  1.00  0.00     0.031 C 
ATOM     36  C   UNL A   1      38.730  30.002  29.309  1.00  0.00     0.029 A 
ATOM     37  N   UNL A   1      39.309  30.738  31.338  1.00  0.00    -0.354 N 
ATOM     38  C   UNL A   1      42.433  28.758  33.606  1.00  0.00     0.074 A 
ATOM     39  C   UNL A   1      42.993  27.653  32.860  1.00  0.00     0.031 C 
ATOM     40  C   UNL A   1      37.924  31.035  29.607  1.00  0.00     0.029 A 
ATOM     41  C   UNL A   1      38.262  31.535  30.936  1.00  0.00     0.049 A 
ATOM     42  H   UNL A   1      39.762  30.842  32.207  1.00  0.00     0.167 HD
ATOM     43  C   UNL A   1      42.842  29.128  34.842  1.00  0.00     0.037 A 
ATOM     44  C   UNL A   1      37.647  32.551  31.571  1.00  0.00     0.037 A 
ATOM     45  C   UNL A   1      42.305  30.255  35.557  1.00  0.00     0.049 A 
ATOM     46  C   UNL A   1      38.137  32.961  32.933  1.00  0.00     0.074 A 
ATOM     47  C   UNL A   1      42.687  30.752  36.790  1.00  0.00     0.029 A 
ATOM     48  N   UNL A   1      41.274  31.062  35.100  1.00  0.00    -0.354 N 
ATOM     49  N   UNL A   1      39.098  32.436  33.657  1.00  0.00    -0.248 NA
ATOM     50  C   UNL A   1      37.469  34.108  33.563  1.00  0.00     0.031 C 
ATOM     51  C   UNL A   1      41.862  31.840  37.094  1.00  0.00     0.029 A 
ATOM     52  C   UNL A   1      40.998  32.049  36.030  1.00  0.00     0.049 A 
ATOM     53  H   UNL A   1      40.807  30.949  34.241  1.00  0.00     0.167 HD
ATOM     54  C   UNL A   1      39.171  33.208  34.811  1.00  0.00     0.074 A 
ATOM     55  C   UNL A   1      38.163  34.241  34.686  1.00  0.00     0.031 C 
ATOM     56  C   UNL A   1      40.000  33.078  35.876  1.00  0.00     0.037 A 
BRANCH  43  57
ATOM     57  C   UNL A   1      43.927  28.312  35.487  1.00  0.00     0.058 A 
ATOM     58  C   UNL A   1      43.632  27.254  36.363  1.00  0.00     0.135 A 
ATOM     59  C   UNL A   1      45.278  28.577  35.215  1.00  0.00     0.135 A 
ATOM     60  F   UNL A   1      42.357  26.970  36.675  1.00  0.00    -0.206 F 
ATOM     61  C   UNL A   1      44.637  26.511  36.972  1.00  0.00     0.059 A 
ATOM     62  C   UNL A   1      46.300  27.827  35.790  1.00  0.00     0.059 A 
ATOM     63  F   UNL A   1      45.618  29.578  34.388  1.00  0.00    -0.206 F 
ATOM     64  C   UNL A   1      45.969  26.806  36.680  1.00  0.00     0.060 A 
BRANCH  64  65
ATOM     65  S   UNL A   1      47.262  25.832  37.478  1.00  0.00     0.124 S 
ATOM     66  O   UNL A   1      46.796  25.808  38.862  1.00  0.00    -0.237 OA
ATOM     67  O   UNL A   1      47.185  24.563  36.762  1.00  0.00    -0.237 OA
ATOM     68  O   UNL A   1      48.472  26.612  37.238  1.00  0.00    -0.744 OA
ENDBRANCH  64  65
ENDBRANCH  43  57
BRANCH  44  69
ATOM     69  C   UNL A   1      36.528  33.273  30.910  1.00  0.00     0.058 A 
ATOM     70  C   UNL A   1      35.215  33.164  31.393  1.00  0.00     0.135 A 
ATOM     71  C   UNL A   1      36.746  34.094  29.794  1.00  0.00     0.135 A 
ATOM     72  F   UNL A   1      34.954  32.388  32.456  1.00  0.00    -0.206 F 
ATOM     73  C   UNL A   1      34.155  33.828  30.783  1.00  0.00     0.059 A 
ATOM     74  C   UNL A   1      35.707  34.788  29.181  1.00  0.00     0.059 A 
ATOM     75  F   UNL A   1      37.987  34.247  29.304  1.00  0.00    -0.206 F 
ATOM     76  C   UNL A   1      34.412  34.639  29.677  1.00  0.00     0.060 A 
BRANCH  76  77
ATOM     77  S   UNL A   1      33.037  35.531  28.919  1.00  0.00     0.124 S 
ATOM     78  O   UNL A   1      32.454  34.502  28.067  1.00  0.00    -0.237 OA
ATOM     79  O   UNL A   1      32.246  35.922  30.083  1.00  0.00    -0.237 OA
ATOM     80  O   UNL A   1      33.695  36.631  28.221  1.00  0.00    -0.744 OA
ENDBRANCH  76  77
ENDBRANCH  44  69
BRANCH  56  81
ATOM     81  C   UNL A   1      39.887  34.102  36.970  1.00  0.00     0.058 A 
ATOM     82  C   UNL A   1      40.553  35.335  36.903  1.00  0.00     0.135 A 
ATOM     83  C   UNL A   1      39.052  33.864  38.075  1.00  0.00     0.135 A 
ATOM     84  F   UNL A   1      41.367  35.607  35.870  1.00  0.00    -0.206 F 
ATOM     85  C   UNL A   1      40.414  36.289  37.904  1.00  0.00     0.059 A 
ATOM     86  C   UNL A   1      38.876  34.816  39.074  1.00  0.00     0.059 A 
ATOM     87  F   UNL A   1      38.383  32.705  38.181  1.00  0.00    -0.206 F 
ATOM     88  C   UNL A   1      39.571  36.022  38.985  1.00  0.00     0.060 A 
BRANCH  88  89
ATOM     89  S   UNL A   1      39.371  37.283  40.261  1.00  0.00     0.124 S 
ATOM     90  O   UNL A   1      40.757  37.647  40.534  1.00  0.00    -0.237 OA
ATOM     91  O   UNL A   1      38.571  38.295  39.577  1.00  0.00    -0.237 OA
ATOM     92  O   UNL A   1      38.685  36.572  41.336  1.00  0.00    -0.744 OA
ENDBRANCH  88  89
ENDBRANCH  56  81
ENDBRANCH  30  31
ENDBRANCH  22  25
ENDBRANCH  20  21
ENDBRANCH  19  20
ENDBRANCH  18  19
ENDBRANCH   1  18
TORSDOF 20
ENDMDL
MODEL 3
REMARK VINA RESULT:      -9.0      2.978      5.804
REMARK SMILES CCCCCCC(=O)N[C@@H](C)C(=O)NCCCCNC(=O)c1ccc(-c2c3nc(c(-c4c(F)cc(S(=O)(=O)[O-])cc4F)c4ccc([nH]4)c(-c4c(F)cc(S(=O)(=O)[O-])cc4F)c4nc(c(-c5c(F)cc(S(=O)(=O)[O-])cc5F)c5ccc2[nH]5)C=C4)C=C3)cc1
REMARK SMILES IDX 15 1 14 2 12 3 13 4 10 6 11 7 9 8 7 9 8 10 6 12 5 13 4 14
REMARK SMILES IDX 3 15 2 16 1 17 16 18 17 19 18 20 19 21 20 22 21 24 22 25
REMARK SMILES IDX 23 26 87 27 24 28 86 29 25 30 26 31 27 32 80 33 28 34 85 35
REMARK SMILES IDX 79 36 81 37 29 38 84 39 78 40 77 41 30 43 64 44 43 45 63 46
REMARK SMILES IDX 44 47 47 48 62 49 82 50 45 51 46 52 61 54 83 55 48 56 31 57
REMARK SMILES IDX 32 58 41 59 33 60 34 61 40 62 42 63 35 64 36 65 37 66 38 67
REMARK SMILES IDX 39 68 65 69 66 70 75 71 67 72 68 73 74 74 76 75 69 76 70 77
REMARK SMILES IDX 71 78 72 79 73 80 49 81 50 82 59 83 51 84 52 85 58 86 60 87
REMARK SMILES IDX 53 88 54 89 55 90 56 91 57 92
REMARK H PARENT 14 5 9 11 19 23 81 42 47 53
REMARK Flexibility Score: inf
ROOT
ATOM      1  C   UNL A   1      33.640  35.883  29.980  1.00  0.00     0.116 C 
ENDROOT
BRANCH   1   2
ATOM      2  N   UNL A   1      32.570  35.399  30.823  1.00  0.00    -0.354 N 
ATOM      3  C   UNL A   1      32.358  35.593  32.150  1.00  0.00     0.242 C 
ATOM      4  O   UNL A   1      31.391  35.030  32.672  1.00  0.00    -0.273 OA
ATOM      5  H   UNL A   1      31.896  34.846  30.367  1.00  0.00     0.163 HD
BRANCH   3   6
ATOM      6  C   UNL A   1      33.226  36.567  32.953  1.00  0.00     0.168 C 
ATOM      7  C   UNL A   1      34.080  37.446  32.039  1.00  0.00     0.041 C 
BRANCH   6   8
ATOM      8  N   UNL A   1      34.020  35.975  34.025  1.00  0.00    -0.345 N 
ATOM      9  C   UNL A   1      34.912  34.950  33.960  1.00  0.00     0.220 C 
ATOM     10  O   UNL A   1      35.404  34.542  35.014  1.00  0.00    -0.275 OA
ATOM     11  H   UNL A   1      33.891  36.372  34.918  1.00  0.00     0.164 HD
BRANCH   9  12
ATOM     12  C   UNL A   1      35.308  34.339  32.626  1.00  0.00     0.100 C 
BRANCH  12  13
ATOM     13  C   UNL A   1      35.321  32.806  32.579  1.00  0.00     0.010 C 
BRANCH  13  14
ATOM     14  C   UNL A   1      36.520  32.116  31.913  1.00  0.00     0.001 C 
BRANCH  14  15
ATOM     15  C   UNL A   1      37.769  31.949  32.794  1.00  0.00    -0.000 C 
BRANCH  15  16
ATOM     16  C   UNL A   1      37.871  30.611  33.517  1.00  0.00    -0.003 C 
ATOM     17  C   UNL A   1      39.069  29.795  33.058  1.00  0.00     0.004 C 
ENDBRANCH  15  16
ENDBRANCH  14  15
ENDBRANCH  13  14
ENDBRANCH  12  13
ENDBRANCH   9  12
ENDBRANCH   6   8
ENDBRANCH   3   6
ENDBRANCH   1   2
BRANCH   1  18
ATOM     18  C   UNL A   1      33.909  34.910  28.840  1.00  0.00     0.023 C 
BRANCH  18  19
ATOM     19  C   UNL A   1      34.049  33.456  29.292  1.00  0.00     0.023 C 
BRANCH  19  20
ATOM     20  C   UNL A   1      34.757  32.548  28.294  1.00  0.00     0.116 C 
BRANCH  20  21
ATOM     21  N   UNL A   1      34.033  31.312  28.045  1.00  0.00    -0.352 N 
ATOM     22  C   UNL A   1      34.532  30.034  27.965  1.00  0.00     0.251 C 
ATOM     23  H   UNL A   1      33.061  31.402  27.917  1.00  0.00     0.163 HD
ATOM     24  O   UNL A   1      33.818  29.105  27.632  1.00  0.00    -0.269 OA
BRANCH  22  25
ATOM     25  C   UNL A   1      35.963  29.829  28.262  1.00  0.00     0.039 A 
ATOM     26  C   UNL A   1      36.328  29.374  29.528  1.00  0.00     0.014 A 
ATOM     27  C   UNL A   1      36.919  30.021  27.260  1.00  0.00     0.014 A 
ATOM     28  C   UNL A   1      37.663  29.064  29.780  1.00  0.00     0.010 A 
ATOM     29  C   UNL A   1      38.232  29.635  27.490  1.00  0.00     0.010 A 
ATOM     30  C   UNL A   1      38.619  29.168  28.756  1.00  0.00    -0.014 A 
BRANCH  30  31
ATOM     31  C   UNL A   1      40.043  28.833  29.000  1.00  0.00     0.031 A 
ATOM     32  C   UNL A   1      40.955  29.874  29.589  1.00  0.00     0.074 A 
ATOM     33  C   UNL A   1      40.520  27.626  28.644  1.00  0.00     0.049 A 
ATOM     34  N   UNL A   1      42.240  29.810  29.818  1.00  0.00    -0.248 NA
ATOM     35  C   UNL A   1      40.347  31.171  29.934  1.00  0.00     0.031 C 
ATOM     36  C   UNL A   1      39.739  26.557  28.015  1.00  0.00     0.029 A 
ATOM     37  N   UNL A   1      41.780  27.096  28.751  1.00  0.00    -0.354 N 
ATOM     38  C   UNL A   1      42.596  31.060  30.313  1.00  0.00     0.074 A 
ATOM     39  C   UNL A   1      41.405  31.880  30.293  1.00  0.00     0.031 C 
ATOM     40  C   UNL A   1      40.534  25.492  27.815  1.00  0.00     0.029 A 
ATOM     41  C   UNL A   1      41.883  25.811  28.270  1.00  0.00     0.049 A 
ATOM     42  H   UNL A   1      42.540  27.589  29.136  1.00  0.00     0.167 HD
ATOM     43  C   UNL A   1      43.801  31.477  30.770  1.00  0.00     0.037 A 
ATOM     44  C   UNL A   1      42.947  24.989  28.204  1.00  0.00     0.037 A 
ATOM     45  C   UNL A   1      44.969  30.639  30.822  1.00  0.00     0.049 A 
ATOM     46  C   UNL A   1      44.270  25.464  28.743  1.00  0.00     0.074 A 
ATOM     47  C   UNL A   1      46.223  30.942  31.319  1.00  0.00     0.029 A 
ATOM     48  N   UNL A   1      45.024  29.331  30.363  1.00  0.00    -0.354 N 
ATOM     49  N   UNL A   1      44.577  26.630  29.264  1.00  0.00    -0.248 NA
ATOM     50  C   UNL A   1      45.388  24.513  28.697  1.00  0.00     0.031 C 
ATOM     51  C   UNL A   1      47.047  29.827  31.130  1.00  0.00     0.029 A 
ATOM     52  C   UNL A   1      46.293  28.814  30.558  1.00  0.00     0.049 A 
ATOM     53  H   UNL A   1      44.270  28.842  29.960  1.00  0.00     0.167 HD
ATOM     54  C   UNL A   1      45.913  26.539  29.637  1.00  0.00     0.074 A 
ATOM     55  C   UNL A   1      46.353  25.203  29.290  1.00  0.00     0.031 C 
ATOM     56  C   UNL A   1      46.704  27.475  30.219  1.00  0.00     0.037 A 
BRANCH  43  57
ATOM     57  C   UNL A   1      43.905  32.894  31.258  1.00  0.00     0.058 A 
ATOM     58  C   UNL A   1      43.519  33.257  32.558  1.00  0.00     0.135 A 
ATOM     59  C   UNL A   1      44.415  33.901  30.423  1.00  0.00     0.135 A 
ATOM     60  F   UNL A   1      43.005  32.339  33.392  1.00  0.00    -0.206 F 
ATOM     61  C   UNL A   1      43.600  34.573  33.002  1.00  0.00     0.059 A 
ATOM     62  C   UNL A   1      44.534  35.218  30.856  1.00  0.00     0.059 A 
ATOM     63  F   UNL A   1      44.798  33.611  29.169  1.00  0.00    -0.206 F 
ATOM     64  C   UNL A   1      44.109  35.547  32.142  1.00  0.00     0.060 A 
BRANCH  64  65
ATOM     65  S   UNL A   1      44.210  37.250  32.734  1.00  0.00     0.124 S 
ATOM     66  O   UNL A   1      43.218  37.244  33.806  1.00  0.00    -0.237 OA
ATOM     67  O   UNL A   1      45.602  37.351  33.160  1.00  0.00    -0.237 OA
ATOM     68  O   UNL A   1      43.858  38.039  31.558  1.00  0.00    -0.744 OA
ENDBRANCH  64  65
ENDBRANCH  43  57
BRANCH  44  69
ATOM     69  C   UNL A   1      42.798  23.621  27.641  1.00  0.00     0.058 A 
ATOM     70  C   UNL A   1      42.392  22.548  28.450  1.00  0.00     0.135 A 
ATOM     71  C   UNL A   1      43.042  23.359  26.284  1.00  0.00     0.135 A 
ATOM     72  F   UNL A   1      42.148  22.747  29.754  1.00  0.00    -0.206 F 
ATOM     73  C   UNL A   1      42.252  21.262  27.940  1.00  0.00     0.059 A 
ATOM     74  C   UNL A   1      42.887  22.085  25.745  1.00  0.00     0.059 A 
ATOM     75  F   UNL A   1      43.414  24.354  25.464  1.00  0.00    -0.206 F 
ATOM     76  C   UNL A   1      42.502  21.040  26.584  1.00  0.00     0.060 A 
BRANCH  76  77
ATOM     77  S   UNL A   1      42.276  19.375  25.923  1.00  0.00     0.124 S 
ATOM     78  O   UNL A   1      42.892  18.560  26.963  1.00  0.00    -0.237 OA
ATOM     79  O   UNL A   1      40.822  19.282  25.815  1.00  0.00    -0.237 OA
ATOM     80  O   UNL A   1      42.989  19.421  24.650  1.00  0.00    -0.744 OA
ENDBRANCH  76  77
ENDBRANCH  44  69
BRANCH  56  81
ATOM     81  C   UNL A   1      48.112  27.076  30.561  1.00  0.00     0.058 A 
ATOM     82  C   UNL A   1      49.169  27.237  29.653  1.00  0.00     0.135 A 
ATOM     83  C   UNL A   1      48.413  26.577  31.840  1.00  0.00     0.135 A 
ATOM     84  F   UNL A   1      48.932  27.705  28.417  1.00  0.00    -0.206 F 
ATOM     85  C   UNL A   1      50.473  26.897  29.992  1.00  0.00     0.059 A 
ATOM     86  C   UNL A   1      49.715  26.256  32.209  1.00  0.00     0.059 A 
ATOM     87  F   UNL A   1      47.439  26.414  32.749  1.00  0.00    -0.206 F 
ATOM     88  C   UNL A   1      50.737  26.409  31.273  1.00  0.00     0.060 A 
BRANCH  88  89
ATOM     89  S   UNL A   1      52.441  26.005  31.713  1.00  0.00     0.124 S 
ATOM     90  O   UNL A   1      52.687  26.929  32.815  1.00  0.00    -0.237 OA
ATOM     91  O   UNL A   1      52.343  24.594  32.077  1.00  0.00    -0.237 OA
ATOM     92  O   UNL A   1      53.182  26.280  30.486  1.00  0.00    -0.744 OA
ENDBRANCH  88  89
ENDBRANCH  56  81
ENDBRANCH  30  31
ENDBRANCH  22  25
ENDBRANCH  20  21
ENDBRANCH  19  20
ENDBRANCH  18  19
ENDBRANCH   1  18
TORSDOF 20
ENDMDL
