MODEL 1
REMARK VINA RESULT:     -13.7      0.000      0.000
REMARK SMILES Cc1ccc(S(=O)(=O)N(c2ccccc2)[C@H](C)C(=O)NCCCCNC(=O)c2ccc(-c3c4nc(c(-c5c(F)cc(S(=O)(=O)[O-])cc5F)c5ccc([nH]5)c(-c5c(F)cc(S(=O)(=O)[O-])cc5F)c5nc(c(-c6c(F)cc(S(=O)(=O)[O-])cc6F)c6ccc3[nH]6)C=C5)C=C4)cc2)cc1
REMARK SMILES IDX 22 1 21 2 20 3 18 4 19 5 16 7 17 8 9 9 6 10 7 11 8 12 5 13
REMARK SMILES IDX 1 14 2 15 3 16 95 17 4 18 94 19 10 20 11 21 15 22 12 23
REMARK SMILES IDX 14 24 13 25 23 26 24 27 25 28 26 29 27 31 28 32 29 33 93 34
REMARK SMILES IDX 30 35 92 36 31 37 32 38 33 39 86 40 34 41 91 42 85 43 87 44
REMARK SMILES IDX 35 45 90 46 84 47 83 48 36 50 70 51 49 52 69 53 50 54 53 55
REMARK SMILES IDX 68 56 88 57 51 58 52 59 67 61 89 62 54 63 37 64 38 65 47 66
REMARK SMILES IDX 39 67 40 68 46 69 48 70 41 71 42 72 43 73 44 74 45 75 71 76
REMARK SMILES IDX 72 77 81 78 73 79 74 80 80 81 82 82 75 83 76 84 77 85 78 86
REMARK SMILES IDX 79 87 55 88 56 89 65 90 57 91 58 92 64 93 66 94 59 95 60 96
REMARK SMILES IDX 61 97 62 98 63 99
REMARK H PARENT 20 6 25 30 87 49 53 60
REMARK Flexibility Score: inf
ROOT
ATOM      1  C   UNL A   1      35.532  22.844  24.863  1.00  0.00     0.023 C 
ENDROOT
BRANCH   1   2
ATOM      2  C   UNL A   1      34.028  23.123  24.817  1.00  0.00     0.116 C 
BRANCH   2   3
ATOM      3  N   UNL A   1      33.380  23.318  26.102  1.00  0.00    -0.354 N 
ATOM      4  C   UNL A   1      32.162  23.860  26.419  1.00  0.00     0.243 C 
ATOM      5  O   UNL A   1      31.737  23.581  27.550  1.00  0.00    -0.273 OA
ATOM      6  H   UNL A   1      33.903  23.009  26.876  1.00  0.00     0.163 HD
BRANCH   4   7
ATOM      7  C   UNL A   1      31.361  24.825  25.524  1.00  0.00     0.185 C 
ATOM      8  C   UNL A   1      30.029  25.225  26.162  1.00  0.00     0.043 C 
BRANCH   7   9
ATOM      9  N   UNL A   1      32.122  25.959  24.872  1.00  0.00    -0.254 N 
BRANCH   9  10
ATOM     10  S   UNL A   1      31.776  26.183  23.209  1.00  0.00     0.265 S 
ATOM     11  O   UNL A   1      31.103  24.974  22.762  1.00  0.00    -0.201 OA
ATOM     12  O   UNL A   1      33.004  26.590  22.558  1.00  0.00    -0.201 OA
BRANCH  10  13
ATOM     13  C   UNL A   1      30.595  27.499  22.948  1.00  0.00     0.088 A 
ATOM     14  C   UNL A   1      27.671  30.661  23.089  1.00  0.00     0.044 C 
ATOM     15  C   UNL A   1      28.672  29.548  22.999  1.00  0.00    -0.051 A 
ATOM     16  C   UNL A   1      28.301  28.232  23.287  1.00  0.00     0.005 A 
ATOM     17  C   UNL A   1      29.987  29.809  22.591  1.00  0.00     0.005 A 
ATOM     18  C   UNL A   1      29.260  27.218  23.282  1.00  0.00     0.022 A 
ATOM     19  C   UNL A   1      30.938  28.782  22.533  1.00  0.00     0.022 A 
ENDBRANCH  10  13
ENDBRANCH   9  10
BRANCH   9  20
ATOM     20  C   UNL A   1      32.425  27.096  25.674  1.00  0.00     0.053 A 
ATOM     21  C   UNL A   1      33.781  27.397  25.835  1.00  0.00     0.027 A 
ATOM     22  C   UNL A   1      31.452  27.844  26.335  1.00  0.00     0.027 A 
ATOM     23  C   UNL A   1      34.168  28.436  26.672  1.00  0.00     0.002 A 
ATOM     24  C   UNL A   1      31.846  28.886  27.177  1.00  0.00     0.002 A 
ATOM     25  C   UNL A   1      33.201  29.170  27.352  1.00  0.00     0.000 A 
ENDBRANCH   9  20
ENDBRANCH   7   9
ENDBRANCH   4   7
ENDBRANCH   2   3
ENDBRANCH   1   2
BRANCH   1  26
ATOM     26  C   UNL A   1      36.363  23.700  25.825  1.00  0.00     0.023 C 
BRANCH  26  27
ATOM     27  C   UNL A   1      37.867  23.465  25.816  1.00  0.00     0.116 C 
BRANCH  27  28
ATOM     28  N   UNL A   1      38.535  23.344  27.104  1.00  0.00    -0.352 N 
ATOM     29  C   UNL A   1      39.788  23.951  27.257  1.00  0.00     0.251 C 
ATOM     30  H   UNL A   1      38.119  22.850  27.846  1.00  0.00     0.163 HD
ATOM     31  O   UNL A   1      40.855  23.394  27.072  1.00  0.00    -0.269 OA
BRANCH  29  32
ATOM     32  C   UNL A   1      39.712  25.419  27.470  1.00  0.00     0.039 A 
ATOM     33  C   UNL A   1      40.291  26.347  26.603  1.00  0.00     0.014 A 
ATOM     34  C   UNL A   1      39.126  25.838  28.664  1.00  0.00     0.014 A 
ATOM     35  C   UNL A   1      40.395  27.688  27.007  1.00  0.00     0.010 A 
ATOM     36  C   UNL A   1      39.318  27.126  29.102  1.00  0.00     0.010 A 
ATOM     37  C   UNL A   1      39.966  28.057  28.286  1.00  0.00    -0.014 A 
BRANCH  37  38
ATOM     38  C   UNL A   1      40.180  29.345  28.941  1.00  0.00     0.031 A 
ATOM     39  C   UNL A   1      39.093  30.354  29.022  1.00  0.00     0.074 A 
ATOM     40  C   UNL A   1      41.268  29.493  29.731  1.00  0.00     0.049 A 
ATOM     41  N   UNL A   1      39.266  31.574  29.409  1.00  0.00    -0.248 NA
ATOM     42  C   UNL A   1      37.708  30.058  28.662  1.00  0.00     0.031 C 
ATOM     43  C   UNL A   1      41.439  30.434  30.832  1.00  0.00     0.029 A 
ATOM     44  N   UNL A   1      42.533  28.932  29.572  1.00  0.00    -0.354 N 
ATOM     45  C   UNL A   1      38.024  32.131  29.607  1.00  0.00     0.074 A 
ATOM     46  C   UNL A   1      37.085  31.162  29.087  1.00  0.00     0.031 C 
ATOM     47  C   UNL A   1      42.752  30.609  31.043  1.00  0.00     0.029 A 
ATOM     48  C   UNL A   1      43.454  29.911  29.982  1.00  0.00     0.049 A 
ATOM     49  H   UNL A   1      42.741  28.030  29.238  1.00  0.00     0.167 HD
ATOM     50  C   UNL A   1      37.896  33.302  30.292  1.00  0.00     0.037 A 
ATOM     51  C   UNL A   1      44.386  30.462  29.147  1.00  0.00     0.037 A 
ATOM     52  C   UNL A   1      39.187  33.837  30.711  1.00  0.00     0.049 A 
ATOM     53  C   UNL A   1      44.221  31.959  28.965  1.00  0.00     0.074 A 
ATOM     54  C   UNL A   1      39.915  33.796  31.889  1.00  0.00     0.029 A 
ATOM     55  N   UNL A   1      40.054  34.304  29.743  1.00  0.00    -0.354 N 
ATOM     56  N   UNL A   1      43.303  32.677  29.551  1.00  0.00    -0.248 NA
ATOM     57  C   UNL A   1      45.023  32.748  28.028  1.00  0.00     0.031 C 
ATOM     58  C   UNL A   1      41.247  34.207  31.603  1.00  0.00     0.029 A 
ATOM     59  C   UNL A   1      41.323  34.499  30.254  1.00  0.00     0.049 A 
ATOM     60  H   UNL A   1      39.802  34.477  28.809  1.00  0.00     0.167 HD
ATOM     61  C   UNL A   1      43.318  33.942  29.034  1.00  0.00     0.074 A 
ATOM     62  C   UNL A   1      44.433  33.952  28.107  1.00  0.00     0.031 C 
ATOM     63  C   UNL A   1      42.389  34.886  29.350  1.00  0.00     0.037 A 
BRANCH  50  64
ATOM     64  C   UNL A   1      36.568  33.843  30.756  1.00  0.00     0.058 A 
ATOM     65  C   UNL A   1      35.622  34.336  29.833  1.00  0.00     0.135 A 
ATOM     66  C   UNL A   1      36.182  33.921  32.109  1.00  0.00     0.135 A 
ATOM     67  F   UNL A   1      35.832  34.268  28.511  1.00  0.00    -0.206 F 
ATOM     68  C   UNL A   1      34.429  34.944  30.225  1.00  0.00     0.059 A 
ATOM     69  C   UNL A   1      35.019  34.574  32.530  1.00  0.00     0.059 A 
ATOM     70  F   UNL A   1      36.920  33.343  33.070  1.00  0.00    -0.206 F 
ATOM     71  C   UNL A   1      34.150  35.090  31.577  1.00  0.00     0.060 A 
BRANCH  71  72
ATOM     72  S   UNL A   1      32.663  35.989  32.062  1.00  0.00     0.124 S 
ATOM     73  O   UNL A   1      32.225  36.570  30.795  1.00  0.00    -0.237 OA
ATOM     74  O   UNL A   1      31.824  34.920  32.593  1.00  0.00    -0.237 OA
ATOM     75  O   UNL A   1      33.154  36.951  33.044  1.00  0.00    -0.744 OA
ENDBRANCH  71  72
ENDBRANCH  50  64
BRANCH  51  76
ATOM     76  C   UNL A   1      44.869  29.523  28.099  1.00  0.00     0.058 A 
ATOM     77  C   UNL A   1      45.812  28.553  28.486  1.00  0.00     0.135 A 
ATOM     78  C   UNL A   1      44.084  29.261  26.966  1.00  0.00     0.135 A 
ATOM     79  F   UNL A   1      46.605  28.773  29.547  1.00  0.00    -0.206 F 
ATOM     80  C   UNL A   1      45.827  27.290  27.908  1.00  0.00     0.059 A 
ATOM     81  C   UNL A   1      44.084  28.001  26.373  1.00  0.00     0.059 A 
ATOM     82  F   UNL A   1      43.164  30.149  26.562  1.00  0.00    -0.206 F 
ATOM     83  C   UNL A   1      44.890  27.000  26.917  1.00  0.00     0.060 A 
BRANCH  83  84
ATOM     84  S   UNL A   1      44.576  25.261  26.527  1.00  0.00     0.124 S 
ATOM     85  O   UNL A   1      44.087  25.336  25.156  1.00  0.00    -0.237 OA
ATOM     86  O   UNL A   1      45.911  24.686  26.695  1.00  0.00    -0.237 OA
ATOM     87  O   UNL A   1      43.598  24.868  27.534  1.00  0.00    -0.744 OA
ENDBRANCH  83  84
ENDBRANCH  51  76
BRANCH  63  88
ATOM     88  C   UNL A   1      42.434  36.275  28.802  1.00  0.00     0.058 A 
ATOM     89  C   UNL A   1      41.861  36.589  27.561  1.00  0.00     0.135 A 
ATOM     90  C   UNL A   1      43.169  37.293  29.441  1.00  0.00     0.135 A 
ATOM     91  F   UNL A   1      41.168  35.664  26.877  1.00  0.00    -0.206 F 
ATOM     92  C   UNL A   1      41.992  37.853  26.990  1.00  0.00     0.059 A 
ATOM     93  C   UNL A   1      43.348  38.548  28.871  1.00  0.00     0.059 A 
ATOM     94  F   UNL A   1      43.715  37.096  30.651  1.00  0.00    -0.206 F 
ATOM     95  C   UNL A   1      42.741  38.825  27.651  1.00  0.00     0.060 A 
BRANCH  95  96
ATOM     96  S   UNL A   1      42.944  40.452  26.902  1.00  0.00     0.124 S 
ATOM     97  O   UNL A   1      41.576  40.812  26.535  1.00  0.00    -0.237 OA
ATOM     98  O   UNL A   1      43.518  41.210  28.009  1.00  0.00    -0.237 OA
ATOM     99  O   UNL A   1      43.839  40.194  25.780  1.00  0.00    -0.744 OA
ENDBRANCH  95  96
ENDBRANCH  63  88
ENDBRANCH  37  38
ENDBRANCH  29  32
ENDBRANCH  27  28
ENDBRANCH  26  27
ENDBRANCH   1  26
TORSDOF 18
ENDMDL
MODEL 2
REMARK VINA RESULT:     -13.5      1.036      2.543
REMARK SMILES Cc1ccc(S(=O)(=O)N(c2ccccc2)[C@H](C)C(=O)NCCCCNC(=O)c2ccc(-c3c4nc(c(-c5c(F)cc(S(=O)(=O)[O-])cc5F)c5ccc([nH]5)c(-c5c(F)cc(S(=O)(=O)[O-])cc5F)c5nc(c(-c6c(F)cc(S(=O)(=O)[O-])cc6F)c6ccc3[nH]6)C=C5)C=C4)cc2)cc1
REMARK SMILES IDX 22 1 21 2 20 3 18 4 19 5 16 7 17 8 9 9 6 10 7 11 8 12 5 13
REMARK SMILES IDX 1 14 2 15 3 16 95 17 4 18 94 19 10 20 11 21 15 22 12 23
REMARK SMILES IDX 14 24 13 25 23 26 24 27 25 28 26 29 27 31 28 32 29 33 93 34
REMARK SMILES IDX 30 35 92 36 31 37 32 38 33 39 86 40 34 41 91 42 85 43 87 44
REMARK SMILES IDX 35 45 90 46 84 47 83 48 36 50 70 51 49 52 69 53 50 54 53 55
REMARK SMILES IDX 68 56 88 57 51 58 52 59 67 61 89 62 54 63 37 64 38 65 47 66
REMARK SMILES IDX 39 67 40 68 46 69 48 70 41 71 42 72 43 73 44 74 45 75 71 76
REMARK SMILES IDX 72 77 81 78 73 79 74 80 80 81 82 82 75 83 76 84 77 85 78 86
REMARK SMILES IDX 79 87 55 88 56 89 65 90 57 91 58 92 64 93 66 94 59 95 60 96
REMARK SMILES IDX 61 97 62 98 63 99
REMARK H PARENT 20 6 25 30 87 49 53 60
REMARK Flexibility Score: inf
ROOT
ATOM      1  C   UNL A   1      35.972  21.623  24.620  1.00  0.00     0.023 C 
ENDROOT
BRANCH   1   2
ATOM      2  C   UNL A   1      35.151  22.792  24.071  1.00  0.00     0.116 C 
BRANCH   2   3
ATOM      3  N   UNL A   1      33.722  22.559  23.944  1.00  0.00    -0.354 N 
ATOM      4  C   UNL A   1      32.717  23.373  23.491  1.00  0.00     0.243 C 
ATOM      5  O   UNL A   1      31.667  22.793  23.178  1.00  0.00    -0.273 OA
ATOM      6  H   UNL A   1      33.425  21.666  24.232  1.00  0.00     0.163 HD
BRANCH   4   7
ATOM      7  C   UNL A   1      32.782  24.912  23.432  1.00  0.00     0.185 C 
ATOM      8  C   UNL A   1      32.866  25.425  21.992  1.00  0.00     0.043 C 
BRANCH   7   9
ATOM      9  N   UNL A   1      31.837  25.681  24.329  1.00  0.00    -0.254 N 
BRANCH   9  10
ATOM     10  S   UNL A   1      32.248  25.642  25.991  1.00  0.00     0.265 S 
ATOM     11  O   UNL A   1      33.502  24.912  26.090  1.00  0.00    -0.201 OA
ATOM     12  O   UNL A   1      31.091  25.160  26.717  1.00  0.00    -0.201 OA
BRANCH  10  13
ATOM     13  C   UNL A   1      32.608  27.275  26.625  1.00  0.00     0.088 A 
ATOM     14  C   UNL A   1      33.656  31.379  27.418  1.00  0.00     0.044 C 
ATOM     15  C   UNL A   1      33.306  29.939  27.184  1.00  0.00    -0.051 A 
ATOM     16  C   UNL A   1      34.295  29.011  26.852  1.00  0.00     0.005 A 
ATOM     17  C   UNL A   1      31.984  29.499  27.329  1.00  0.00     0.005 A 
ATOM     18  C   UNL A   1      33.947  27.692  26.554  1.00  0.00     0.022 A 
ATOM     19  C   UNL A   1      31.640  28.163  27.082  1.00  0.00     0.022 A 
ENDBRANCH  10  13
ENDBRANCH   9  10
BRANCH   9  20
ATOM     20  C   UNL A   1      31.228  26.852  23.795  1.00  0.00     0.053 A 
ATOM     21  C   UNL A   1      29.831  26.860  23.755  1.00  0.00     0.027 A 
ATOM     22  C   UNL A   1      31.956  27.917  23.265  1.00  0.00     0.027 A 
ATOM     23  C   UNL A   1      29.157  27.925  23.169  1.00  0.00     0.002 A 
ATOM     24  C   UNL A   1      31.275  28.984  22.676  1.00  0.00     0.002 A 
ATOM     25  C   UNL A   1      29.881  28.979  22.619  1.00  0.00     0.000 A 
ENDBRANCH   9  20
ENDBRANCH   7   9
ENDBRANCH   4   7
ENDBRANCH   2   3
ENDBRANCH   1   2
BRANCH   1  26
ATOM     26  C   UNL A   1      37.447  21.900  24.924  1.00  0.00     0.023 C 
BRANCH  26  27
ATOM     27  C   UNL A   1      37.753  23.175  25.697  1.00  0.00     0.116 C 
BRANCH  27  28
ATOM     28  N   UNL A   1      38.542  23.050  26.914  1.00  0.00    -0.352 N 
ATOM     29  C   UNL A   1      39.805  23.655  26.947  1.00  0.00     0.251 C 
ATOM     30  H   UNL A   1      38.198  22.555  27.692  1.00  0.00     0.163 HD
ATOM     31  O   UNL A   1      40.849  23.097  26.659  1.00  0.00    -0.269 OA
BRANCH  29  32
ATOM     32  C   UNL A   1      39.753  25.122  27.171  1.00  0.00     0.039 A 
ATOM     33  C   UNL A   1      40.370  26.045  26.325  1.00  0.00     0.014 A 
ATOM     34  C   UNL A   1      39.146  25.544  28.353  1.00  0.00     0.014 A 
ATOM     35  C   UNL A   1      40.491  27.381  26.742  1.00  0.00     0.010 A 
ATOM     36  C   UNL A   1      39.353  26.824  28.807  1.00  0.00     0.010 A 
ATOM     37  C   UNL A   1      40.039  27.749  28.014  1.00  0.00    -0.014 A 
BRANCH  37  38
ATOM     38  C   UNL A   1      40.262  29.027  28.684  1.00  0.00     0.031 A 
ATOM     39  C   UNL A   1      39.202  30.067  28.724  1.00  0.00     0.074 A 
ATOM     40  C   UNL A   1      41.318  29.140  29.520  1.00  0.00     0.049 A 
ATOM     41  N   UNL A   1      39.393  31.280  29.125  1.00  0.00    -0.248 NA
ATOM     42  C   UNL A   1      37.825  29.813  28.304  1.00  0.00     0.031 C 
ATOM     43  C   UNL A   1      41.470  30.072  30.632  1.00  0.00     0.029 A 
ATOM     44  N   UNL A   1      42.573  28.543  29.412  1.00  0.00    -0.354 N 
ATOM     45  C   UNL A   1      38.160  31.872  29.273  1.00  0.00     0.074 A 
ATOM     46  C   UNL A   1      37.217  30.933  28.709  1.00  0.00     0.031 C 
ATOM     47  C   UNL A   1      42.777  30.208  30.900  1.00  0.00     0.029 A 
ATOM     48  C   UNL A   1      43.504  29.493  29.865  1.00  0.00     0.049 A 
ATOM     49  H   UNL A   1      42.768  27.637  29.082  1.00  0.00     0.167 HD
ATOM     50  C   UNL A   1      38.037  33.044  29.958  1.00  0.00     0.037 A 
ATOM     51  C   UNL A   1      44.485  30.021  29.074  1.00  0.00     0.037 A 
ATOM     52  C   UNL A   1      39.324  33.539  30.434  1.00  0.00     0.049 A 
ATOM     53  C   UNL A   1      44.371  31.523  28.893  1.00  0.00     0.074 A 
ATOM     54  C   UNL A   1      40.000  33.472  31.642  1.00  0.00     0.029 A 
ATOM     55  N   UNL A   1      40.245  33.984  29.507  1.00  0.00    -0.354 N 
ATOM     56  N   UNL A   1      43.450  32.264  29.443  1.00  0.00    -0.248 NA
ATOM     57  C   UNL A   1      45.235  32.292  27.995  1.00  0.00     0.031 C 
ATOM     58  C   UNL A   1      41.354  33.845  31.415  1.00  0.00     0.029 A 
ATOM     59  C   UNL A   1      41.496  34.140  30.072  1.00  0.00     0.049 A 
ATOM     60  H   UNL A   1      40.037  34.168  28.563  1.00  0.00     0.167 HD
ATOM     61  C   UNL A   1      43.524  33.531  28.934  1.00  0.00     0.074 A 
ATOM     62  C   UNL A   1      44.677  33.512  28.055  1.00  0.00     0.031 C 
ATOM     63  C   UNL A   1      42.610  34.500  29.216  1.00  0.00     0.037 A 
BRANCH  50  64
ATOM     64  C   UNL A   1      36.707  33.621  30.369  1.00  0.00     0.058 A 
ATOM     65  C   UNL A   1      35.772  34.048  29.403  1.00  0.00     0.135 A 
ATOM     66  C   UNL A   1      36.308  33.798  31.709  1.00  0.00     0.135 A 
ATOM     67  F   UNL A   1      35.994  33.884  28.092  1.00  0.00    -0.206 F 
ATOM     68  C   UNL A   1      34.577  34.687  29.738  1.00  0.00     0.059 A 
ATOM     69  C   UNL A   1      35.144  34.484  32.069  1.00  0.00     0.059 A 
ATOM     70  F   UNL A   1      37.035  33.289  32.716  1.00  0.00    -0.206 F 
ATOM     71  C   UNL A   1      34.286  34.932  31.073  1.00  0.00     0.060 A 
BRANCH  71  72
ATOM     72  S   UNL A   1      32.798  35.868  31.476  1.00  0.00     0.124 S 
ATOM     73  O   UNL A   1      32.089  34.954  32.369  1.00  0.00    -0.237 OA
ATOM     74  O   UNL A   1      33.353  37.062  32.102  1.00  0.00    -0.237 OA
ATOM     75  O   UNL A   1      32.165  36.074  30.177  1.00  0.00    -0.744 OA
ENDBRANCH  71  72
ENDBRANCH  50  64
BRANCH  51  76
ATOM     76  C   UNL A   1      44.985  29.073  28.042  1.00  0.00     0.058 A 
ATOM     77  C   UNL A   1      45.946  28.126  28.446  1.00  0.00     0.135 A 
ATOM     78  C   UNL A   1      44.205  28.776  26.914  1.00  0.00     0.135 A 
ATOM     79  F   UNL A   1      46.735  28.379  29.502  1.00  0.00    -0.206 F 
ATOM     80  C   UNL A   1      45.983  26.854  27.890  1.00  0.00     0.059 A 
ATOM     81  C   UNL A   1      44.227  27.507  26.343  1.00  0.00     0.059 A 
ATOM     82  F   UNL A   1      43.268  29.640  26.495  1.00  0.00    -0.206 F 
ATOM     83  C   UNL A   1      45.052  26.530  26.905  1.00  0.00     0.060 A 
BRANCH  83  84
ATOM     84  S   UNL A   1      44.769  24.778  26.545  1.00  0.00     0.124 S 
ATOM     85  O   UNL A   1      44.653  24.777  25.092  1.00  0.00    -0.237 OA
ATOM     86  O   UNL A   1      45.987  24.177  27.086  1.00  0.00    -0.237 OA
ATOM     87  O   UNL A   1      43.547  24.483  27.283  1.00  0.00    -0.744 OA
ENDBRANCH  83  84
ENDBRANCH  51  76
BRANCH  63  88
ATOM     88  C   UNL A   1      42.719  35.889  28.677  1.00  0.00     0.058 A 
ATOM     89  C   UNL A   1      43.126  36.958  29.489  1.00  0.00     0.135 A 
ATOM     90  C   UNL A   1      42.288  36.207  27.373  1.00  0.00     0.135 A 
ATOM     91  F   UNL A   1      43.525  36.739  30.753  1.00  0.00    -0.206 F 
ATOM     92  C   UNL A   1      43.126  38.272  29.029  1.00  0.00     0.059 A 
ATOM     93  C   UNL A   1      42.241  37.515  26.907  1.00  0.00     0.059 A 
ATOM     94  F   UNL A   1      41.923  35.244  26.513  1.00  0.00    -0.206 F 
ATOM     95  C   UNL A   1      42.678  38.541  27.736  1.00  0.00     0.060 A 
BRANCH  95  96
ATOM     96  S   UNL A   1      42.642  40.244  27.145  1.00  0.00     0.124 S 
ATOM     97  O   UNL A   1      43.056  41.004  28.322  1.00  0.00    -0.237 OA
ATOM     98  O   UNL A   1      43.613  40.191  26.057  1.00  0.00    -0.237 OA
ATOM     99  O   UNL A   1      41.252  40.430  26.745  1.00  0.00    -0.744 OA
ENDBRANCH  95  96
ENDBRANCH  63  88
ENDBRANCH  37  38
ENDBRANCH  29  32
ENDBRANCH  27  28
ENDBRANCH  26  27
ENDBRANCH   1  26
TORSDOF 18
ENDMDL
MODEL 3
REMARK VINA RESULT:     -12.7      1.454      2.122
REMARK SMILES Cc1ccc(S(=O)(=O)N(c2ccccc2)[C@H](C)C(=O)NCCCCNC(=O)c2ccc(-c3c4nc(c(-c5c(F)cc(S(=O)(=O)[O-])cc5F)c5ccc([nH]5)c(-c5c(F)cc(S(=O)(=O)[O-])cc5F)c5nc(c(-c6c(F)cc(S(=O)(=O)[O-])cc6F)c6ccc3[nH]6)C=C5)C=C4)cc2)cc1
REMARK SMILES IDX 22 1 21 2 20 3 18 4 19 5 16 7 17 8 9 9 6 10 7 11 8 12 5 13
REMARK SMILES IDX 1 14 2 15 3 16 95 17 4 18 94 19 10 20 11 21 15 22 12 23
REMARK SMILES IDX 14 24 13 25 23 26 24 27 25 28 26 29 27 31 28 32 29 33 93 34
REMARK SMILES IDX 30 35 92 36 31 37 32 38 33 39 86 40 34 41 91 42 85 43 87 44
REMARK SMILES IDX 35 45 90 46 84 47 83 48 36 50 70 51 49 52 69 53 50 54 53 55
REMARK SMILES IDX 68 56 88 57 51 58 52 59 67 61 89 62 54 63 37 64 38 65 47 66
REMARK SMILES IDX 39 67 40 68 46 69 48 70 41 71 42 72 43 73 44 74 45 75 71 76
REMARK SMILES IDX 72 77 81 78 73 79 74 80 80 81 82 82 75 83 76 84 77 85 78 86
REMARK SMILES IDX 79 87 55 88 56 89 65 90 57 91 58 92 64 93 66 94 59 95 60 96
REMARK SMILES IDX 61 97 62 98 63 99
REMARK H PARENT 20 6 25 30 87 49 53 60
REMARK Flexibility Score: inf
ROOT
ATOM      1  C   UNL A   1      35.575  20.758  25.102  1.00  0.00     0.023 C 
ENDROOT
BRANCH   1   2
ATOM      2  C   UNL A   1      34.337  21.658  25.092  1.00  0.00     0.116 C 
BRANCH   2   3
ATOM      3  N   UNL A   1      34.006  22.293  26.356  1.00  0.00    -0.354 N 
ATOM      4  C   UNL A   1      32.870  22.943  26.762  1.00  0.00     0.243 C 
ATOM      5  O   UNL A   1      32.746  23.075  27.989  1.00  0.00    -0.273 OA
ATOM      6  H   UNL A   1      34.717  22.251  27.035  1.00  0.00     0.163 HD
BRANCH   4   7
ATOM      7  C   UNL A   1      31.822  23.570  25.821  1.00  0.00     0.185 C 
ATOM      8  C   UNL A   1      30.458  23.716  26.500  1.00  0.00     0.043 C 
BRANCH   7   9
ATOM      9  N   UNL A   1      32.256  24.763  24.997  1.00  0.00    -0.254 N 
BRANCH   9  10
ATOM     10  S   UNL A   1      31.472  24.899  23.480  1.00  0.00     0.265 S 
ATOM     11  O   UNL A   1      30.573  23.761  23.376  1.00  0.00    -0.201 OA
ATOM     12  O   UNL A   1      32.498  25.083  22.473  1.00  0.00    -0.201 OA
BRANCH  10  13
ATOM     13  C   UNL A   1      30.414  26.338  23.406  1.00  0.00     0.088 A 
ATOM     14  C   UNL A   1      27.889  29.699  22.459  1.00  0.00     0.044 C 
ATOM     15  C   UNL A   1      28.784  28.552  22.825  1.00  0.00    -0.051 A 
ATOM     16  C   UNL A   1      30.146  28.586  22.520  1.00  0.00     0.005 A 
ATOM     17  C   UNL A   1      28.270  27.443  23.511  1.00  0.00     0.005 A 
ATOM     18  C   UNL A   1      30.952  27.479  22.789  1.00  0.00     0.022 A 
ATOM     19  C   UNL A   1      29.089  26.352  23.830  1.00  0.00     0.022 A 
ENDBRANCH  10  13
ENDBRANCH   9  10
BRANCH   9  20
ATOM     20  C   UNL A   1      32.620  25.949  25.696  1.00  0.00     0.053 A 
ATOM     21  C   UNL A   1      31.672  26.458  26.588  1.00  0.00     0.027 A 
ATOM     22  C   UNL A   1      33.816  26.629  25.471  1.00  0.00     0.027 A 
ATOM     23  C   UNL A   1      31.910  27.659  27.245  1.00  0.00     0.002 A 
ATOM     24  C   UNL A   1      34.050  27.836  26.132  1.00  0.00     0.002 A 
ATOM     25  C   UNL A   1      33.093  28.353  27.006  1.00  0.00     0.000 A 
ENDBRANCH   9  20
ENDBRANCH   7   9
ENDBRANCH   4   7
ENDBRANCH   2   3
ENDBRANCH   1   2
BRANCH   1  26
ATOM     26  C   UNL A   1      36.855  21.341  24.496  1.00  0.00     0.023 C 
BRANCH  26  27
ATOM     27  C   UNL A   1      37.481  22.517  25.233  1.00  0.00     0.116 C 
BRANCH  27  28
ATOM     28  N   UNL A   1      38.266  22.222  26.424  1.00  0.00    -0.352 N 
ATOM     29  C   UNL A   1      39.592  22.671  26.468  1.00  0.00     0.251 C 
ATOM     30  H   UNL A   1      37.876  21.722  27.177  1.00  0.00     0.163 HD
ATOM     31  O   UNL A   1      40.558  22.013  26.125  1.00  0.00    -0.269 OA
BRANCH  29  32
ATOM     32  C   UNL A   1      39.717  24.117  26.783  1.00  0.00     0.039 A 
ATOM     33  C   UNL A   1      40.601  24.969  26.119  1.00  0.00     0.014 A 
ATOM     34  C   UNL A   1      38.982  24.575  27.875  1.00  0.00     0.014 A 
ATOM     35  C   UNL A   1      40.842  26.249  26.643  1.00  0.00     0.010 A 
ATOM     36  C   UNL A   1      39.291  25.786  28.445  1.00  0.00     0.010 A 
ATOM     37  C   UNL A   1      40.233  26.626  27.844  1.00  0.00    -0.014 A 
BRANCH  37  38
ATOM     38  C   UNL A   1      40.521  27.824  28.630  1.00  0.00     0.031 A 
ATOM     39  C   UNL A   1      39.526  28.920  28.749  1.00  0.00     0.074 A 
ATOM     40  C   UNL A   1      41.564  27.794  29.489  1.00  0.00     0.049 A 
ATOM     41  N   UNL A   1      39.784  30.078  29.260  1.00  0.00    -0.248 NA
ATOM     42  C   UNL A   1      38.146  28.793  28.286  1.00  0.00     0.031 C 
ATOM     43  C   UNL A   1      41.750  28.611  30.684  1.00  0.00     0.029 A 
ATOM     44  N   UNL A   1      42.782  27.131  29.347  1.00  0.00    -0.354 N 
ATOM     45  C   UNL A   1      38.587  30.731  29.442  1.00  0.00     0.074 A 
ATOM     46  C   UNL A   1      37.599  29.908  28.781  1.00  0.00     0.031 C 
ATOM     47  C   UNL A   1      43.057  28.639  30.982  1.00  0.00     0.029 A 
ATOM     48  C   UNL A   1      43.760  27.976  29.899  1.00  0.00     0.049 A 
ATOM     49  H   UNL A   1      42.928  26.247  28.940  1.00  0.00     0.167 HD
ATOM     50  C   UNL A   1      38.523  31.843  30.229  1.00  0.00     0.037 A 
ATOM     51  C   UNL A   1      44.788  28.508  29.173  1.00  0.00     0.037 A 
ATOM     52  C   UNL A   1      39.827  32.211  30.767  1.00  0.00     0.049 A 
ATOM     53  C   UNL A   1      44.771  30.024  29.127  1.00  0.00     0.074 A 
ATOM     54  C   UNL A   1      40.472  31.994  31.974  1.00  0.00     0.029 A 
ATOM     55  N   UNL A   1      40.793  32.678  29.898  1.00  0.00    -0.354 N 
ATOM     56  N   UNL A   1      43.886  30.771  29.728  1.00  0.00    -0.248 NA
ATOM     57  C   UNL A   1      45.699  30.814  28.315  1.00  0.00     0.031 C 
ATOM     58  C   UNL A   1      41.851  32.299  31.802  1.00  0.00     0.029 A 
ATOM     59  C   UNL A   1      42.039  32.704  30.494  1.00  0.00     0.049 A 
ATOM     60  H   UNL A   1      40.617  32.958  28.972  1.00  0.00     0.167 HD
ATOM     61  C   UNL A   1      44.049  32.071  29.336  1.00  0.00     0.074 A 
ATOM     62  C   UNL A   1      45.217  32.058  28.477  1.00  0.00     0.031 C 
ATOM     63  C   UNL A   1      43.191  33.067  29.691  1.00  0.00     0.037 A 
BRANCH  50  64
ATOM     64  C   UNL A   1      37.222  32.465  30.669  1.00  0.00     0.058 A 
ATOM     65  C   UNL A   1      36.776  33.683  30.116  1.00  0.00     0.135 A 
ATOM     66  C   UNL A   1      36.381  31.910  31.655  1.00  0.00     0.135 A 
ATOM     67  F   UNL A   1      37.445  34.291  29.127  1.00  0.00    -0.206 F 
ATOM     68  C   UNL A   1      35.636  34.347  30.572  1.00  0.00     0.059 A 
ATOM     69  C   UNL A   1      35.267  32.581  32.166  1.00  0.00     0.059 A 
ATOM     70  F   UNL A   1      36.610  30.680  32.142  1.00  0.00    -0.206 F 
ATOM     71  C   UNL A   1      34.905  33.806  31.621  1.00  0.00     0.060 A 
BRANCH  71  72
ATOM     72  S   UNL A   1      33.508  34.742  32.276  1.00  0.00     0.124 S 
ATOM     73  O   UNL A   1      34.164  35.913  32.854  1.00  0.00    -0.237 OA
ATOM     74  O   UNL A   1      32.720  34.986  31.074  1.00  0.00    -0.237 OA
ATOM     75  O   UNL A   1      32.914  33.827  33.245  1.00  0.00    -0.744 OA
ENDBRANCH  71  72
ENDBRANCH  50  64
BRANCH  51  76
ATOM     76  C   UNL A   1      45.250  27.626  28.068  1.00  0.00     0.058 A 
ATOM     77  C   UNL A   1      46.107  26.562  28.406  1.00  0.00     0.135 A 
ATOM     78  C   UNL A   1      44.498  27.515  26.888  1.00  0.00     0.135 A 
ATOM     79  F   UNL A   1      46.867  26.636  29.510  1.00  0.00    -0.206 F 
ATOM     80  C   UNL A   1      46.059  25.353  27.724  1.00  0.00     0.059 A 
ATOM     81  C   UNL A   1      44.437  26.311  26.190  1.00  0.00     0.059 A 
ATOM     82  F   UNL A   1      43.659  28.497  26.527  1.00  0.00    -0.206 F 
ATOM     83  C   UNL A   1      45.148  25.214  26.678  1.00  0.00     0.060 A 
BRANCH  83  84
ATOM     84  S   UNL A   1      44.732  23.539  26.130  1.00  0.00     0.124 S 
ATOM     85  O   UNL A   1      44.428  23.743  24.719  1.00  0.00    -0.237 OA
ATOM     86  O   UNL A   1      45.979  22.829  26.415  1.00  0.00    -0.237 OA
ATOM     87  O   UNL A   1      43.604  23.184  26.982  1.00  0.00    -0.744 OA
ENDBRANCH  83  84
ENDBRANCH  51  76
BRANCH  63  88
ATOM     88  C   UNL A   1      43.396  34.489  29.282  1.00  0.00     0.058 A 
ATOM     89  C   UNL A   1      43.690  35.485  30.224  1.00  0.00     0.135 A 
ATOM     90  C   UNL A   1      43.171  34.911  27.956  1.00  0.00     0.135 A 
ATOM     91  F   UNL A   1      43.892  35.165  31.513  1.00  0.00    -0.206 F 
ATOM     92  C   UNL A   1      43.776  36.829  29.870  1.00  0.00     0.059 A 
ATOM     93  C   UNL A   1      43.210  36.251  27.589  1.00  0.00     0.059 A 
ATOM     94  F   UNL A   1      42.927  34.023  26.980  1.00  0.00    -0.206 F 
ATOM     95  C   UNL A   1      43.530  37.203  28.550  1.00  0.00     0.060 A 
BRANCH  95  96
ATOM     96  S   UNL A   1      43.605  38.945  28.091  1.00  0.00     0.124 S 
ATOM     97  O   UNL A   1      45.017  39.269  28.279  1.00  0.00    -0.237 OA
ATOM     98  O   UNL A   1      43.149  38.898  26.706  1.00  0.00    -0.237 OA
ATOM     99  O   UNL A   1      42.692  39.579  29.036  1.00  0.00    -0.744 OA
ENDBRANCH  95  96
ENDBRANCH  63  88
ENDBRANCH  37  38
ENDBRANCH  29  32
ENDBRANCH  27  28
ENDBRANCH  26  27
ENDBRANCH   1  26
TORSDOF 18
ENDMDL
