MODEL 1
REMARK VINA RESULT:     -11.1      0.000      0.000
REMARK SMILES CCOc1c(CNC(=O)[C@H]2CCCC[C@@H]2C(=O)NCCCCNC(=O)c2ccc(-c3c4nc(c(-c5c(F)cc(S(=O)(=O)[O-])cc5F)c5ccc([nH]5)c(-c5c(F)cc(S(=O)(=O)[O-])cc5F)c5nc(c(-c6c(F)cc(S(=O)(=O)[O-])cc6F)c6ccc3[nH]6)C=C5)C=C4)cc2)cccc1OC
REMARK SMILES IDX 19 1 18 2 16 3 17 4 15 6 10 7 11 8 12 9 14 10 13 11 8 12
REMARK SMILES IDX 7 13 9 15 6 16 5 17 4 18 95 19 92 20 94 21 93 22 3 23 2 24
REMARK SMILES IDX 1 25 96 26 97 27 20 28 21 29 22 30 23 31 24 32 25 34 26 35
REMARK SMILES IDX 27 36 91 37 28 38 90 39 29 40 30 41 31 42 84 43 32 44 89 45
REMARK SMILES IDX 83 46 85 47 33 48 88 49 82 50 81 51 34 53 68 54 47 55 67 56
REMARK SMILES IDX 48 57 51 58 66 59 86 60 49 61 50 62 65 64 87 65 52 66 35 67
REMARK SMILES IDX 36 68 45 69 37 70 38 71 44 72 46 73 39 74 40 75 41 76 42 77
REMARK SMILES IDX 43 78 69 79 70 80 79 81 71 82 72 83 78 84 80 85 73 86 74 87
REMARK SMILES IDX 75 88 76 89 77 90 53 91 54 92 63 93 55 94 56 95 62 96 64 97
REMARK SMILES IDX 57 98 58 99 59 100 60 101 61 102
REMARK H PARENT 18 5 7 14 23 33 85 52 51 63
REMARK Flexibility Score: inf
ROOT
ATOM      1  C   UNL A   1      34.437  25.104  24.286  1.00  0.00     0.116 C 
ENDROOT
BRANCH   1   2
ATOM      2  N   UNL A   1      34.030  26.159  23.374  1.00  0.00    -0.356 N 
ATOM      3  C   UNL A   1      32.888  26.903  23.362  1.00  0.00     0.223 C 
ATOM      4  O   UNL A   1      32.660  27.597  22.373  1.00  0.00    -0.275 OA
ATOM      5  H   UNL A   1      34.675  26.366  22.659  1.00  0.00     0.163 HD
BRANCH   3   6
ATOM      6  C   UNL A   1      31.980  26.894  24.591  1.00  0.00     0.091 C 
ATOM      7  C   UNL A   1      31.114  25.619  24.671  1.00  0.00     0.091 C 
ATOM      8  C   UNL A   1      29.930  25.651  23.676  1.00  0.00     0.014 C 
ATOM      9  C   UNL A   1      29.149  26.966  23.655  1.00  0.00     0.001 C 
ATOM     10  C   UNL A   1      31.137  28.178  24.619  1.00  0.00     0.014 C 
ATOM     11  C   UNL A   1      30.053  28.186  23.547  1.00  0.00     0.001 C 
BRANCH   7  12
ATOM     12  C   UNL A   1      30.608  25.385  26.102  1.00  0.00     0.224 C 
ATOM     13  N   UNL A   1      30.398  24.132  26.590  1.00  0.00    -0.352 N 
ATOM     14  H   UNL A   1      30.060  24.116  27.515  1.00  0.00     0.163 HD
ATOM     15  O   UNL A   1      30.394  26.317  26.881  1.00  0.00    -0.275 OA
BRANCH  13  16
ATOM     16  C   UNL A   1      30.578  22.814  26.003  1.00  0.00     0.155 C 
BRANCH  16  17
ATOM     17  C   UNL A   1      31.941  22.232  26.338  1.00  0.00     0.017 A 
ATOM     18  C   UNL A   1      32.652  21.340  25.492  1.00  0.00     0.166 A 
ATOM     19  C   UNL A   1      34.028  21.120  25.720  1.00  0.00     0.161 A 
ATOM     20  C   UNL A   1      32.596  22.737  27.482  1.00  0.00     0.010 A 
ATOM     21  C   UNL A   1      34.647  21.690  26.841  1.00  0.00     0.050 A 
ATOM     22  C   UNL A   1      33.932  22.466  27.737  1.00  0.00     0.004 A 
BRANCH  18  23
ATOM     23  O   UNL A   1      32.056  20.774  24.392  1.00  0.00    -0.490 OA
BRANCH  23  24
ATOM     24  C   UNL A   1      32.233  21.526  23.179  1.00  0.00     0.226 C 
ATOM     25  C   UNL A   1      31.873  20.679  21.966  1.00  0.00     0.049 C 
ENDBRANCH  23  24
ENDBRANCH  18  23
BRANCH  19  26
ATOM     26  O   UNL A   1      34.943  20.463  24.940  1.00  0.00    -0.493 OA
ATOM     27  C   UNL A   1      34.804  19.073  24.729  1.00  0.00     0.278 C 
ENDBRANCH  19  26
ENDBRANCH  16  17
ENDBRANCH  13  16
ENDBRANCH   7  12
ENDBRANCH   3   6
ENDBRANCH   1   2
BRANCH   1  28
ATOM     28  C   UNL A   1      34.774  23.823  23.524  1.00  0.00     0.023 C 
BRANCH  28  29
ATOM     29  C   UNL A   1      36.255  23.427  23.574  1.00  0.00     0.023 C 
BRANCH  29  30
ATOM     30  C   UNL A   1      36.955  23.685  24.905  1.00  0.00     0.116 C 
BRANCH  30  31
ATOM     31  N   UNL A   1      37.933  22.663  25.237  1.00  0.00    -0.352 N 
ATOM     32  C   UNL A   1      39.073  22.778  26.000  1.00  0.00     0.251 C 
ATOM     33  H   UNL A   1      37.758  21.768  24.867  1.00  0.00     0.163 HD
ATOM     34  O   UNL A   1      39.861  21.844  26.072  1.00  0.00    -0.269 OA
BRANCH  32  35
ATOM     35  C   UNL A   1      39.353  24.050  26.704  1.00  0.00     0.039 A 
ATOM     36  C   UNL A   1      38.860  24.228  27.999  1.00  0.00     0.014 A 
ATOM     37  C   UNL A   1      40.116  25.051  26.097  1.00  0.00     0.014 A 
ATOM     38  C   UNL A   1      39.192  25.384  28.713  1.00  0.00     0.010 A 
ATOM     39  C   UNL A   1      40.499  26.169  26.832  1.00  0.00     0.010 A 
ATOM     40  C   UNL A   1      40.042  26.347  28.148  1.00  0.00    -0.014 A 
BRANCH  40  41
ATOM     41  C   UNL A   1      40.466  27.554  28.906  1.00  0.00     0.031 A 
ATOM     42  C   UNL A   1      41.795  27.566  29.613  1.00  0.00     0.074 A 
ATOM     43  C   UNL A   1      39.630  28.605  29.020  1.00  0.00     0.049 A 
ATOM     44  N   UNL A   1      42.293  28.465  30.422  1.00  0.00    -0.248 NA
ATOM     45  C   UNL A   1      42.667  26.398  29.402  1.00  0.00     0.031 C 
ATOM     46  C   UNL A   1      38.303  28.704  28.407  1.00  0.00     0.029 A 
ATOM     47  N   UNL A   1      39.766  29.788  29.705  1.00  0.00    -0.354 N 
ATOM     48  C   UNL A   1      43.527  27.969  30.826  1.00  0.00     0.074 A 
ATOM     49  C   UNL A   1      43.678  26.665  30.215  1.00  0.00     0.031 C 
ATOM     50  C   UNL A   1      37.757  29.889  28.730  1.00  0.00     0.029 A 
ATOM     51  C   UNL A   1      38.671  30.615  29.605  1.00  0.00     0.049 A 
ATOM     52  H   UNL A   1      40.572  30.022  30.219  1.00  0.00     0.167 HD
ATOM     53  C   UNL A   1      44.461  28.554  31.613  1.00  0.00     0.037 A 
ATOM     54  C   UNL A   1      38.427  31.816  30.166  1.00  0.00     0.037 A 
ATOM     55  C   UNL A   1      44.317  29.861  32.199  1.00  0.00     0.049 A 
ATOM     56  C   UNL A   1      39.472  32.437  31.055  1.00  0.00     0.074 A 
ATOM     57  C   UNL A   1      45.218  30.555  32.988  1.00  0.00     0.029 A 
ATOM     58  N   UNL A   1      43.202  30.675  32.055  1.00  0.00    -0.354 N 
ATOM     59  N   UNL A   1      40.648  31.967  31.398  1.00  0.00    -0.248 NA
ATOM     60  C   UNL A   1      39.159  33.753  31.630  1.00  0.00     0.031 C 
ATOM     61  C   UNL A   1      44.635  31.775  33.349  1.00  0.00     0.029 A 
ATOM     62  C   UNL A   1      43.390  31.860  32.747  1.00  0.00     0.049 A 
ATOM     63  H   UNL A   1      42.398  30.444  31.538  1.00  0.00     0.167 HD
ATOM     64  C   UNL A   1      41.229  32.947  32.197  1.00  0.00     0.074 A 
ATOM     65  C   UNL A   1      40.277  34.035  32.284  1.00  0.00     0.031 C 
ATOM     66  C   UNL A   1      42.443  32.945  32.801  1.00  0.00     0.037 A 
BRANCH  53  67
ATOM     67  C   UNL A   1      45.729  27.788  31.875  1.00  0.00     0.058 A 
ATOM     68  C   UNL A   1      46.852  27.926  31.044  1.00  0.00     0.135 A 
ATOM     69  C   UNL A   1      45.835  26.934  32.984  1.00  0.00     0.135 A 
ATOM     70  F   UNL A   1      46.801  28.717  29.961  1.00  0.00    -0.206 F 
ATOM     71  C   UNL A   1      48.026  27.219  31.286  1.00  0.00     0.059 A 
ATOM     72  C   UNL A   1      47.010  26.239  33.261  1.00  0.00     0.059 A 
ATOM     73  F   UNL A   1      44.791  26.766  33.811  1.00  0.00    -0.206 F 
ATOM     74  C   UNL A   1      48.094  26.377  32.396  1.00  0.00     0.060 A 
BRANCH  74  75
ATOM     75  S   UNL A   1      49.626  25.469  32.696  1.00  0.00     0.124 S 
ATOM     76  O   UNL A   1      50.444  26.488  33.345  1.00  0.00    -0.237 OA
ATOM     77  O   UNL A   1      49.179  24.375  33.552  1.00  0.00    -0.237 OA
ATOM     78  O   UNL A   1      50.056  25.078  31.358  1.00  0.00    -0.744 OA
ENDBRANCH  74  75
ENDBRANCH  53  67
BRANCH  54  79
ATOM     79  C   UNL A   1      37.149  32.525  29.890  1.00  0.00     0.058 A 
ATOM     80  C   UNL A   1      37.076  33.517  28.901  1.00  0.00     0.135 A 
ATOM     81  C   UNL A   1      35.980  32.239  30.613  1.00  0.00     0.135 A 
ATOM     82  F   UNL A   1      38.168  33.832  28.186  1.00  0.00    -0.206 F 
ATOM     83  C   UNL A   1      35.900  34.217  28.652  1.00  0.00     0.059 A 
ATOM     84  C   UNL A   1      34.785  32.907  30.366  1.00  0.00     0.059 A 
ATOM     85  F   UNL A   1      35.992  31.287  31.560  1.00  0.00    -0.206 F 
ATOM     86  C   UNL A   1      34.759  33.905  29.393  1.00  0.00     0.060 A 
BRANCH  86  87
ATOM     87  S   UNL A   1      33.229  34.800  29.044  1.00  0.00     0.124 S 
ATOM     88  O   UNL A   1      32.571  33.899  28.106  1.00  0.00    -0.237 OA
ATOM     89  O   UNL A   1      32.623  34.899  30.368  1.00  0.00    -0.237 OA
ATOM     90  O   UNL A   1      33.701  36.063  28.484  1.00  0.00    -0.744 OA
ENDBRANCH  86  87
ENDBRANCH  54  79
BRANCH  66  91
ATOM     91  C   UNL A   1      42.843  34.178  33.563  1.00  0.00     0.058 A 
ATOM     92  C   UNL A   1      42.597  34.311  34.938  1.00  0.00     0.135 A 
ATOM     93  C   UNL A   1      43.543  35.210  32.918  1.00  0.00     0.135 A 
ATOM     94  F   UNL A   1      41.925  33.357  35.601  1.00  0.00    -0.206 F 
ATOM     95  C   UNL A   1      43.019  35.434  35.645  1.00  0.00     0.059 A 
ATOM     96  C   UNL A   1      43.996  36.329  33.609  1.00  0.00     0.059 A 
ATOM     97  F   UNL A   1      43.812  35.126  31.605  1.00  0.00    -0.206 F 
ATOM     98  C   UNL A   1      43.721  36.436  34.971  1.00  0.00     0.060 A 
BRANCH  98  99
ATOM     99  S   UNL A   1      44.306  37.863  35.909  1.00  0.00     0.124 S 
ATOM    100  O   UNL A   1      43.618  37.681  37.182  1.00  0.00    -0.237 OA
ATOM    101  O   UNL A   1      45.751  37.651  35.934  1.00  0.00    -0.237 OA
ATOM    102  O   UNL A   1      43.861  39.001  35.111  1.00  0.00    -0.744 OA
ENDBRANCH  98  99
ENDBRANCH  66  91
ENDBRANCH  40  41
ENDBRANCH  32  35
ENDBRANCH  30  31
ENDBRANCH  29  30
ENDBRANCH  28  29
ENDBRANCH   1  28
TORSDOF 20
ENDMDL
MODEL 2
REMARK VINA RESULT:     -10.7      2.964      5.231
REMARK SMILES CCOc1c(CNC(=O)[C@H]2CCCC[C@@H]2C(=O)NCCCCNC(=O)c2ccc(-c3c4nc(c(-c5c(F)cc(S(=O)(=O)[O-])cc5F)c5ccc([nH]5)c(-c5c(F)cc(S(=O)(=O)[O-])cc5F)c5nc(c(-c6c(F)cc(S(=O)(=O)[O-])cc6F)c6ccc3[nH]6)C=C5)C=C4)cc2)cccc1OC
REMARK SMILES IDX 19 1 18 2 16 3 17 4 15 6 10 7 11 8 12 9 14 10 13 11 8 12
REMARK SMILES IDX 7 13 9 15 6 16 5 17 4 18 95 19 92 20 94 21 93 22 3 23 2 24
REMARK SMILES IDX 1 25 96 26 97 27 20 28 21 29 22 30 23 31 24 32 25 34 26 35
REMARK SMILES IDX 27 36 91 37 28 38 90 39 29 40 30 41 31 42 84 43 32 44 89 45
REMARK SMILES IDX 83 46 85 47 33 48 88 49 82 50 81 51 34 53 68 54 47 55 67 56
REMARK SMILES IDX 48 57 51 58 66 59 86 60 49 61 50 62 65 64 87 65 52 66 35 67
REMARK SMILES IDX 36 68 45 69 37 70 38 71 44 72 46 73 39 74 40 75 41 76 42 77
REMARK SMILES IDX 43 78 69 79 70 80 79 81 71 82 72 83 78 84 80 85 73 86 74 87
REMARK SMILES IDX 75 88 76 89 77 90 53 91 54 92 63 93 55 94 56 95 62 96 64 97
REMARK SMILES IDX 57 98 58 99 59 100 60 101 61 102
REMARK H PARENT 18 5 7 14 23 33 85 52 51 63
REMARK Flexibility Score: inf
ROOT
ATOM      1  C   UNL A   1      37.500  22.477  25.508  1.00  0.00     0.116 C 
ENDROOT
BRANCH   1   2
ATOM      2  N   UNL A   1      36.414  22.045  26.370  1.00  0.00    -0.356 N 
ATOM      3  C   UNL A   1      35.070  22.237  26.236  1.00  0.00     0.223 C 
ATOM      4  O   UNL A   1      34.349  21.966  27.195  1.00  0.00    -0.275 OA
ATOM      5  H   UNL A   1      36.688  21.538  27.169  1.00  0.00     0.163 HD
BRANCH   3   6
ATOM      6  C   UNL A   1      34.517  22.717  24.895  1.00  0.00     0.091 C 
ATOM      7  C   UNL A   1      33.721  24.032  25.026  1.00  0.00     0.091 C 
ATOM      8  C   UNL A   1      32.318  23.810  25.637  1.00  0.00     0.014 C 
ATOM      9  C   UNL A   1      31.539  22.637  25.039  1.00  0.00     0.001 C 
ATOM     10  C   UNL A   1      33.692  21.594  24.248  1.00  0.00     0.014 C 
ATOM     11  C   UNL A   1      32.364  21.361  24.961  1.00  0.00     0.001 C 
BRANCH   7  12
ATOM     12  C   UNL A   1      33.612  24.746  23.671  1.00  0.00     0.224 C 
ATOM     13  N   UNL A   1      33.237  26.052  23.579  1.00  0.00    -0.352 N 
ATOM     14  H   UNL A   1      33.191  26.390  22.655  1.00  0.00     0.163 HD
ATOM     15  O   UNL A   1      33.881  24.181  22.609  1.00  0.00    -0.275 OA
BRANCH  13  16
ATOM     16  C   UNL A   1      32.891  27.041  24.588  1.00  0.00     0.155 C 
BRANCH  16  17
ATOM     17  C   UNL A   1      31.522  27.650  24.331  1.00  0.00     0.017 A 
ATOM     18  C   UNL A   1      31.224  29.028  24.494  1.00  0.00     0.166 A 
ATOM     19  C   UNL A   1      30.046  29.554  23.921  1.00  0.00     0.161 A 
ATOM     20  C   UNL A   1      30.544  26.817  23.745  1.00  0.00     0.010 A 
ATOM     21  C   UNL A   1      29.130  28.693  23.300  1.00  0.00     0.050 A 
ATOM     22  C   UNL A   1      29.358  27.328  23.241  1.00  0.00     0.004 A 
BRANCH  18  23
ATOM     23  O   UNL A   1      32.112  29.882  25.102  1.00  0.00    -0.490 OA
BRANCH  23  24
ATOM     24  C   UNL A   1      32.000  29.920  26.535  1.00  0.00     0.226 C 
ATOM     25  C   UNL A   1      33.194  30.638  27.147  1.00  0.00     0.049 C 
ENDBRANCH  23  24
ENDBRANCH  18  23
BRANCH  19  26
ATOM     26  O   UNL A   1      29.651  30.859  23.790  1.00  0.00    -0.493 OA
ATOM     27  C   UNL A   1      28.965  31.262  22.623  1.00  0.00     0.278 C 
ENDBRANCH  19  26
ENDBRANCH  16  17
ENDBRANCH  13  16
ENDBRANCH   7  12
ENDBRANCH   3   6
ENDBRANCH   1   2
BRANCH   1  28
ATOM     28  C   UNL A   1      38.543  23.268  26.298  1.00  0.00     0.023 C 
BRANCH  28  29
ATOM     29  C   UNL A   1      39.688  22.419  26.861  1.00  0.00     0.023 C 
BRANCH  29  30
ATOM     30  C   UNL A   1      40.967  23.183  27.190  1.00  0.00     0.116 C 
BRANCH  30  31
ATOM     31  N   UNL A   1      41.469  23.956  26.065  1.00  0.00    -0.352 N 
ATOM     32  C   UNL A   1      41.726  25.307  25.996  1.00  0.00     0.251 C 
ATOM     33  H   UNL A   1      41.648  23.446  25.243  1.00  0.00     0.163 HD
ATOM     34  O   UNL A   1      42.023  25.821  24.925  1.00  0.00    -0.269 OA
BRANCH  32  35
ATOM     35  C   UNL A   1      41.609  26.134  27.217  1.00  0.00     0.039 A 
ATOM     36  C   UNL A   1      42.601  27.080  27.491  1.00  0.00     0.014 A 
ATOM     37  C   UNL A   1      40.515  25.993  28.075  1.00  0.00     0.014 A 
ATOM     38  C   UNL A   1      42.459  27.933  28.590  1.00  0.00     0.010 A 
ATOM     39  C   UNL A   1      40.345  26.885  29.130  1.00  0.00     0.010 A 
ATOM     40  C   UNL A   1      41.314  27.866  29.398  1.00  0.00    -0.014 A 
BRANCH  40  41
ATOM     41  C   UNL A   1      41.104  28.802  30.533  1.00  0.00     0.031 A 
ATOM     42  C   UNL A   1      41.946  28.676  31.774  1.00  0.00     0.074 A 
ATOM     43  C   UNL A   1      40.113  29.714  30.479  1.00  0.00     0.049 A 
ATOM     44  N   UNL A   1      41.840  29.309  32.913  1.00  0.00    -0.248 NA
ATOM     45  C   UNL A   1      43.035  27.686  31.735  1.00  0.00     0.031 C 
ATOM     46  C   UNL A   1      39.207  29.917  29.345  1.00  0.00     0.029 A 
ATOM     47  N   UNL A   1      39.688  30.634  31.407  1.00  0.00    -0.354 N 
ATOM     48  C   UNL A   1      42.837  28.788  33.730  1.00  0.00     0.074 A 
ATOM     49  C   UNL A   1      43.502  27.749  32.973  1.00  0.00     0.031 C 
ATOM     50  C   UNL A   1      38.349  30.908  29.639  1.00  0.00     0.029 A 
ATOM     51  C   UNL A   1      38.611  31.382  30.993  1.00  0.00     0.049 A 
ATOM     52  H   UNL A   1      40.116  30.745  32.287  1.00  0.00     0.167 HD
ATOM     53  C   UNL A   1      43.184  29.157  34.986  1.00  0.00     0.037 A 
ATOM     54  C   UNL A   1      37.907  32.334  31.638  1.00  0.00     0.037 A 
ATOM     55  C   UNL A   1      42.535  30.207  35.726  1.00  0.00     0.049 A 
ATOM     56  C   UNL A   1      38.298  32.712  33.043  1.00  0.00     0.074 A 
ATOM     57  C   UNL A   1      42.830  30.676  36.995  1.00  0.00     0.029 A 
ATOM     58  N   UNL A   1      41.463  30.957  35.263  1.00  0.00    -0.354 N 
ATOM     59  N   UNL A   1      39.266  32.231  33.787  1.00  0.00    -0.248 NA
ATOM     60  C   UNL A   1      37.505  33.764  33.694  1.00  0.00     0.031 C 
ATOM     61  C   UNL A   1      41.916  31.687  37.312  1.00  0.00     0.029 A 
ATOM     62  C   UNL A   1      41.081  31.879  36.223  1.00  0.00     0.049 A 
ATOM     63  H   UNL A   1      41.037  30.849  34.382  1.00  0.00     0.167 HD
ATOM     64  C   UNL A   1      39.221  32.949  34.978  1.00  0.00     0.074 A 
ATOM     65  C   UNL A   1      38.133  33.897  34.854  1.00  0.00     0.031 C 
ATOM     66  C   UNL A   1      40.012  32.834  36.073  1.00  0.00     0.037 A 
BRANCH  53  67
ATOM     67  C   UNL A   1      44.327  28.426  35.635  1.00  0.00     0.058 A 
ATOM     68  C   UNL A   1      45.649  28.885  35.520  1.00  0.00     0.135 A 
ATOM     69  C   UNL A   1      44.099  27.275  36.405  1.00  0.00     0.135 A 
ATOM     70  F   UNL A   1      45.927  29.971  34.782  1.00  0.00    -0.206 F 
ATOM     71  C   UNL A   1      46.708  28.211  36.120  1.00  0.00     0.059 A 
ATOM     72  C   UNL A   1      45.140  26.601  37.039  1.00  0.00     0.059 A 
ATOM     73  F   UNL A   1      42.854  26.793  36.548  1.00  0.00    -0.206 F 
ATOM     74  C   UNL A   1      46.443  27.069  36.876  1.00  0.00     0.060 A 
BRANCH  74  75
ATOM     75  S   UNL A   1      47.829  26.208  37.650  1.00  0.00     0.124 S 
ATOM     76  O   UNL A   1      47.415  24.814  37.516  1.00  0.00    -0.237 OA
ATOM     77  O   UNL A   1      48.955  26.617  36.817  1.00  0.00    -0.237 OA
ATOM     78  O   UNL A   1      47.837  26.732  39.011  1.00  0.00    -0.744 OA
ENDBRANCH  74  75
ENDBRANCH  53  67
BRANCH  54  79
ATOM     79  C   UNL A   1      36.772  33.015  30.960  1.00  0.00     0.058 A 
ATOM     80  C   UNL A   1      35.448  32.622  31.206  1.00  0.00     0.135 A 
ATOM     81  C   UNL A   1      36.983  34.060  30.047  1.00  0.00     0.135 A 
ATOM     82  F   UNL A   1      35.194  31.623  32.067  1.00  0.00    -0.206 F 
ATOM     83  C   UNL A   1      34.375  33.221  30.555  1.00  0.00     0.059 A 
ATOM     84  C   UNL A   1      35.925  34.692  29.402  1.00  0.00     0.059 A 
ATOM     85  F   UNL A   1      38.229  34.485  29.788  1.00  0.00    -0.206 F 
ATOM     86  C   UNL A   1      34.625  34.256  29.652  1.00  0.00     0.060 A 
BRANCH  86  87
ATOM     87  S   UNL A   1      33.223  35.046  28.832  1.00  0.00     0.124 S 
ATOM     88  O   UNL A   1      32.387  35.412  29.969  1.00  0.00    -0.237 OA
ATOM     89  O   UNL A   1      33.863  36.153  28.127  1.00  0.00    -0.237 OA
ATOM     90  O   UNL A   1      32.697  33.988  27.975  1.00  0.00    -0.744 OA
ENDBRANCH  86  87
ENDBRANCH  54  79
BRANCH  66  91
ATOM     91  C   UNL A   1      39.774  33.793  37.207  1.00  0.00     0.058 A 
ATOM     92  C   UNL A   1      38.931  33.474  38.282  1.00  0.00     0.135 A 
ATOM     93  C   UNL A   1      40.455  35.020  37.248  1.00  0.00     0.135 A 
ATOM     94  F   UNL A   1      38.251  32.316  38.289  1.00  0.00    -0.206 F 
ATOM     95  C   UNL A   1      38.759  34.347  39.353  1.00  0.00     0.059 A 
ATOM     96  C   UNL A   1      40.318  35.896  38.319  1.00  0.00     0.059 A 
ATOM     97  F   UNL A   1      41.281  35.368  36.248  1.00  0.00    -0.206 F 
ATOM     98  C   UNL A   1      39.460  35.555  39.363  1.00  0.00     0.060 A 
BRANCH  98  99
ATOM     99  S   UNL A   1      39.268  36.655  40.781  1.00  0.00     0.124 S 
ATOM    100  O   UNL A   1      38.495  35.824  41.697  1.00  0.00    -0.237 OA
ATOM    101  O   UNL A   1      40.652  36.908  41.172  1.00  0.00    -0.237 OA
ATOM    102  O   UNL A   1      38.560  37.805  40.226  1.00  0.00    -0.744 OA
ENDBRANCH  98  99
ENDBRANCH  66  91
ENDBRANCH  40  41
ENDBRANCH  32  35
ENDBRANCH  30  31
ENDBRANCH  29  30
ENDBRANCH  28  29
ENDBRANCH   1  28
TORSDOF 20
ENDMDL
MODEL 3
REMARK VINA RESULT:     -10.5      4.221      6.255
REMARK SMILES CCOc1c(CNC(=O)[C@H]2CCCC[C@@H]2C(=O)NCCCCNC(=O)c2ccc(-c3c4nc(c(-c5c(F)cc(S(=O)(=O)[O-])cc5F)c5ccc([nH]5)c(-c5c(F)cc(S(=O)(=O)[O-])cc5F)c5nc(c(-c6c(F)cc(S(=O)(=O)[O-])cc6F)c6ccc3[nH]6)C=C5)C=C4)cc2)cccc1OC
REMARK SMILES IDX 19 1 18 2 16 3 17 4 15 6 10 7 11 8 12 9 14 10 13 11 8 12
REMARK SMILES IDX 7 13 9 15 6 16 5 17 4 18 95 19 92 20 94 21 93 22 3 23 2 24
REMARK SMILES IDX 1 25 96 26 97 27 20 28 21 29 22 30 23 31 24 32 25 34 26 35
REMARK SMILES IDX 27 36 91 37 28 38 90 39 29 40 30 41 31 42 84 43 32 44 89 45
REMARK SMILES IDX 83 46 85 47 33 48 88 49 82 50 81 51 34 53 68 54 47 55 67 56
REMARK SMILES IDX 48 57 51 58 66 59 86 60 49 61 50 62 65 64 87 65 52 66 35 67
REMARK SMILES IDX 36 68 45 69 37 70 38 71 44 72 46 73 39 74 40 75 41 76 42 77
REMARK SMILES IDX 43 78 69 79 70 80 79 81 71 82 72 83 78 84 80 85 73 86 74 87
REMARK SMILES IDX 75 88 76 89 77 90 53 91 54 92 63 93 55 94 56 95 62 96 64 97
REMARK SMILES IDX 57 98 58 99 59 100 60 101 61 102
REMARK H PARENT 18 5 7 14 23 33 85 52 51 63
REMARK Flexibility Score: inf
ROOT
ATOM      1  C   UNL A   1      37.593  22.894  25.547  1.00  0.00     0.116 C 
ENDROOT
BRANCH   1   2
ATOM      2  N   UNL A   1      36.475  22.752  26.463  1.00  0.00    -0.356 N 
ATOM      3  C   UNL A   1      35.154  23.030  26.270  1.00  0.00     0.223 C 
ATOM      4  O   UNL A   1      34.414  23.032  27.252  1.00  0.00    -0.275 OA
ATOM      5  H   UNL A   1      36.705  22.403  27.355  1.00  0.00     0.163 HD
BRANCH   3   6
ATOM      6  C   UNL A   1      34.642  23.262  24.849  1.00  0.00     0.091 C 
ATOM      7  C   UNL A   1      33.238  23.901  24.830  1.00  0.00     0.091 C 
ATOM      8  C   UNL A   1      32.125  22.882  25.168  1.00  0.00     0.014 C 
ATOM      9  C   UNL A   1      32.239  21.544  24.436  1.00  0.00     0.001 C 
ATOM     10  C   UNL A   1      34.699  21.945  24.060  1.00  0.00     0.014 C 
ATOM     11  C   UNL A   1      33.638  20.949  24.514  1.00  0.00     0.001 C 
BRANCH   7  12
ATOM     12  C   UNL A   1      32.958  24.574  23.478  1.00  0.00     0.224 C 
ATOM     13  N   UNL A   1      31.894  25.404  23.299  1.00  0.00    -0.352 N 
ATOM     14  H   UNL A   1      31.815  25.761  22.384  1.00  0.00     0.163 HD
ATOM     15  O   UNL A   1      33.695  24.415  22.502  1.00  0.00    -0.275 OA
BRANCH  13  16
ATOM     16  C   UNL A   1      30.851  25.862  24.204  1.00  0.00     0.155 C 
BRANCH  16  17
ATOM     17  C   UNL A   1      31.351  26.964  25.123  1.00  0.00     0.017 A 
ATOM     18  C   UNL A   1      31.607  28.295  24.700  1.00  0.00     0.166 A 
ATOM     19  C   UNL A   1      31.742  29.315  25.667  1.00  0.00     0.161 A 
ATOM     20  C   UNL A   1      31.409  26.677  26.504  1.00  0.00     0.010 A 
ATOM     21  C   UNL A   1      31.737  28.985  27.030  1.00  0.00     0.050 A 
ATOM     22  C   UNL A   1      31.606  27.672  27.449  1.00  0.00     0.004 A 
BRANCH  18  23
ATOM     23  O   UNL A   1      31.615  28.629  23.368  1.00  0.00    -0.490 OA
BRANCH  23  24
ATOM     24  C   UNL A   1      32.864  29.175  22.909  1.00  0.00     0.226 C 
ATOM     25  C   UNL A   1      33.788  28.068  22.423  1.00  0.00     0.049 C 
ENDBRANCH  23  24
ENDBRANCH  18  23
BRANCH  19  26
ATOM     26  O   UNL A   1      31.804  30.672  25.495  1.00  0.00    -0.493 OA
ATOM     27  C   UNL A   1      31.491  31.523  26.579  1.00  0.00     0.278 C 
ENDBRANCH  19  26
ENDBRANCH  16  17
ENDBRANCH  13  16
ENDBRANCH   7  12
ENDBRANCH   3   6
ENDBRANCH   1   2
BRANCH   1  28
ATOM     28  C   UNL A   1      38.911  23.021  26.310  1.00  0.00     0.023 C 
BRANCH  28  29
ATOM     29  C   UNL A   1      39.495  21.687  26.790  1.00  0.00     0.023 C 
BRANCH  29  30
ATOM     30  C   UNL A   1      39.569  20.589  25.734  1.00  0.00     0.116 C 
BRANCH  30  31
ATOM     31  N   UNL A   1      40.497  19.527  26.085  1.00  0.00    -0.352 N 
ATOM     32  C   UNL A   1      41.823  19.626  26.443  1.00  0.00     0.251 C 
ATOM     33  H   UNL A   1      40.129  18.614  26.064  1.00  0.00     0.163 HD
ATOM     34  O   UNL A   1      42.500  18.615  26.580  1.00  0.00    -0.269 OA
BRANCH  32  35
ATOM     35  C   UNL A   1      42.429  20.964  26.626  1.00  0.00     0.039 A 
ATOM     36  C   UNL A   1      42.734  21.729  25.497  1.00  0.00     0.014 A 
ATOM     37  C   UNL A   1      42.673  21.469  27.906  1.00  0.00     0.014 A 
ATOM     38  C   UNL A   1      43.221  23.030  25.654  1.00  0.00     0.010 A 
ATOM     39  C   UNL A   1      43.095  22.786  28.059  1.00  0.00     0.010 A 
ATOM     40  C   UNL A   1      43.372  23.582  26.935  1.00  0.00    -0.014 A 
BRANCH  40  41
ATOM     41  C   UNL A   1      43.824  24.984  27.132  1.00  0.00     0.031 A 
ATOM     42  C   UNL A   1      45.276  25.336  26.949  1.00  0.00     0.074 A 
ATOM     43  C   UNL A   1      42.948  25.922  27.545  1.00  0.00     0.049 A 
ATOM     44  N   UNL A   1      45.889  26.466  27.190  1.00  0.00    -0.248 NA
ATOM     45  C   UNL A   1      46.158  24.266  26.453  1.00  0.00     0.031 C 
ATOM     46  C   UNL A   1      41.520  25.701  27.788  1.00  0.00     0.029 A 
ATOM     47  N   UNL A   1      43.132  27.249  27.850  1.00  0.00    -0.354 N 
ATOM     48  C   UNL A   1      47.228  26.241  26.889  1.00  0.00     0.074 A 
ATOM     49  C   UNL A   1      47.345  24.852  26.499  1.00  0.00     0.031 C 
ATOM     50  C   UNL A   1      40.957  26.855  28.186  1.00  0.00     0.029 A 
ATOM     51  C   UNL A   1      41.987  27.885  28.270  1.00  0.00     0.049 A 
ATOM     52  H   UNL A   1      44.003  27.701  27.774  1.00  0.00     0.167 HD
ATOM     53  C   UNL A   1      48.262  27.116  26.910  1.00  0.00     0.037 A 
ATOM     54  C   UNL A   1      41.793  29.152  28.687  1.00  0.00     0.037 A 
ATOM     55  C   UNL A   1      48.135  28.502  27.276  1.00  0.00     0.049 A 
ATOM     56  C   UNL A   1      42.961  30.101  28.723  1.00  0.00     0.074 A 
ATOM     57  C   UNL A   1      49.117  29.478  27.303  1.00  0.00     0.029 A 
ATOM     58  N   UNL A   1      46.955  29.113  27.673  1.00  0.00    -0.354 N 
ATOM     59  N   UNL A   1      44.214  29.879  28.402  1.00  0.00    -0.248 NA
ATOM     60  C   UNL A   1      42.691  31.473  29.174  1.00  0.00     0.031 C 
ATOM     61  C   UNL A   1      48.537  30.671  27.747  1.00  0.00     0.029 A 
ATOM     62  C   UNL A   1      47.185  30.450  27.954  1.00  0.00     0.049 A 
ATOM     63  H   UNL A   1      46.083  28.663  27.745  1.00  0.00     0.167 HD
ATOM     64  C   UNL A   1      44.871  31.093  28.576  1.00  0.00     0.074 A 
ATOM     65  C   UNL A   1      43.878  32.045  29.028  1.00  0.00     0.031 C 
ATOM     66  C   UNL A   1      46.179  31.391  28.377  1.00  0.00     0.037 A 
BRANCH  53  67
ATOM     67  C   UNL A   1      49.618  26.600  26.516  1.00  0.00     0.058 A 
ATOM     68  C   UNL A   1      50.456  25.961  27.443  1.00  0.00     0.135 A 
ATOM     69  C   UNL A   1      50.073  26.716  25.192  1.00  0.00     0.135 A 
ATOM     70  F   UNL A   1      50.078  25.838  28.725  1.00  0.00    -0.206 F 
ATOM     71  C   UNL A   1      51.711  25.482  27.080  1.00  0.00     0.059 A 
ATOM     72  C   UNL A   1      51.313  26.218  24.800  1.00  0.00     0.059 A 
ATOM     73  F   UNL A   1      49.312  27.318  24.265  1.00  0.00    -0.206 F 
ATOM     74  C   UNL A   1      52.131  25.617  25.756  1.00  0.00     0.060 A 
BRANCH  74  75
ATOM     75  S   UNL A   1      53.761  24.987  25.302  1.00  0.00     0.124 S 
ATOM     76  O   UNL A   1      54.576  25.463  26.416  1.00  0.00    -0.237 OA
ATOM     77  O   UNL A   1      53.537  23.546  25.251  1.00  0.00    -0.237 OA
ATOM     78  O   UNL A   1      54.025  25.623  24.015  1.00  0.00    -0.744 OA
ENDBRANCH  74  75
ENDBRANCH  53  67
BRANCH  54  79
ATOM     79  C   UNL A   1      40.434  29.609  29.085  1.00  0.00     0.058 A 
ATOM     80  C   UNL A   1      39.440  29.831  28.122  1.00  0.00     0.135 A 
ATOM     81  C   UNL A   1      40.105  29.844  30.429  1.00  0.00     0.135 A 
ATOM     82  F   UNL A   1      39.707  29.627  26.822  1.00  0.00    -0.206 F 
ATOM     83  C   UNL A   1      38.174  30.293  28.470  1.00  0.00     0.059 A 
ATOM     84  C   UNL A   1      38.839  30.281  30.806  1.00  0.00     0.059 A 
ATOM     85  F   UNL A   1      41.015  29.631  31.392  1.00  0.00    -0.206 F 
ATOM     86  C   UNL A   1      37.884  30.516  29.817  1.00  0.00     0.060 A 
BRANCH  86  87
ATOM     87  S   UNL A   1      36.230  31.090  30.263  1.00  0.00     0.124 S 
ATOM     88  O   UNL A   1      36.064  30.500  31.586  1.00  0.00    -0.237 OA
ATOM     89  O   UNL A   1      36.387  32.540  30.225  1.00  0.00    -0.237 OA
ATOM     90  O   UNL A   1      35.387  30.530  29.210  1.00  0.00    -0.744 OA
ENDBRANCH  86  87
ENDBRANCH  54  79
BRANCH  66  91
ATOM     91  C   UNL A   1      46.607  32.817  28.587  1.00  0.00     0.058 A 
ATOM     92  C   UNL A   1      46.551  33.767  27.556  1.00  0.00     0.135 A 
ATOM     93  C   UNL A   1      47.016  33.251  29.859  1.00  0.00     0.135 A 
ATOM     94  F   UNL A   1      46.174  33.403  26.320  1.00  0.00    -0.206 F 
ATOM     95  C   UNL A   1      46.899  35.097  27.775  1.00  0.00     0.059 A 
ATOM     96  C   UNL A   1      47.345  34.579  30.107  1.00  0.00     0.059 A 
ATOM     97  F   UNL A   1      47.078  32.383  30.881  1.00  0.00    -0.206 F 
ATOM     98  C   UNL A   1      47.292  35.494  29.056  1.00  0.00     0.060 A 
BRANCH  98  99
ATOM     99  S   UNL A   1      47.693  37.231  29.339  1.00  0.00     0.124 S 
ATOM    100  O   UNL A   1      48.713  37.467  28.323  1.00  0.00    -0.237 OA
ATOM    101  O   UNL A   1      46.410  37.890  29.112  1.00  0.00    -0.237 OA
ATOM    102  O   UNL A   1      48.164  37.251  30.720  1.00  0.00    -0.744 OA
ENDBRANCH  98  99
ENDBRANCH  66  91
ENDBRANCH  40  41
ENDBRANCH  32  35
ENDBRANCH  30  31
ENDBRANCH  29  30
ENDBRANCH  28  29
ENDBRANCH   1  28
TORSDOF 20
ENDMDL
