MODEL 1
REMARK VINA RESULT:     -12.2      0.000      0.000
REMARK SMILES Cc1ccc(S(=O)(=O)n2cc(C(=O)C(=O)N[C@@H](Cc3c[nH]c4ccccc34)C(=O)NCC(=O)NCCCCNC(=O)c3ccc(-c4c5nc(c(-c6c(F)cc(S(=O)(=O)[O-])cc6F)c6ccc([nH]6)c(-c6c(F)cc(S(=O)(=O)[O-])cc6F)c6nc(c(-c7c(F)cc(S(=O)(=O)[O-])cc7F)c7ccc4[nH]7)C=C6)C=C5)cc3)c3ccccc32)cc1
REMARK SMILES IDX 32 1 33 2 34 3 31 5 30 6 28 7 29 8 17 10 16 11 14 12 15 13
REMARK SMILES IDX 12 15 13 16 11 17 9 18 10 19 113 20 108 21 112 22 109 23
REMARK SMILES IDX 111 24 110 25 6 26 7 27 8 28 5 29 1 30 2 31 3 32 115 33 4 34
REMARK SMILES IDX 114 35 18 36 19 37 20 38 27 39 21 40 22 41 26 42 23 44 25 45
REMARK SMILES IDX 24 46 35 47 36 48 37 49 38 50 39 51 40 52 41 54 42 55 43 56
REMARK SMILES IDX 107 57 44 58 106 59 45 60 46 61 47 62 100 63 48 64 105 65
REMARK SMILES IDX 99 66 101 67 49 68 104 69 98 70 97 71 50 73 84 74 63 75
REMARK SMILES IDX 83 76 64 77 67 78 82 79 102 80 65 81 66 82 81 84 103 85
REMARK SMILES IDX 68 86 51 87 52 88 61 89 53 90 54 91 60 92 62 93 55 94 56 95
REMARK SMILES IDX 57 96 58 97 59 98 85 99 86 100 95 101 87 102 88 103 94 104
REMARK SMILES IDX 96 105 89 106 90 107 91 108 92 109 93 110 69 111 70 112
REMARK SMILES IDX 79 113 71 114 72 115 78 116 80 117 73 118 74 119 75 120
REMARK SMILES IDX 76 121 77 122
REMARK H PARENT 34 4 30 9 16 14 21 43 39 53 101 72 67 83
REMARK Flexibility Score: inf
ROOT
ATOM      1  C   UNL A   1      38.525  23.778  26.584  1.00  0.00     0.239 C 
ATOM      2  O   UNL A   1      38.636  24.963  26.899  1.00  0.00    -0.273 OA
ATOM      3  N   UNL A   1      39.550  22.913  26.837  1.00  0.00    -0.355 N 
ATOM      4  H   UNL A   1      40.342  23.287  27.286  1.00  0.00     0.163 HD
ENDROOT
BRANCH   1   5
ATOM      5  C   UNL A   1      37.220  23.202  26.039  1.00  0.00     0.216 C 
BRANCH   5   6
ATOM      6  N   UNL A   1      37.217  22.714  24.671  1.00  0.00    -0.345 N 
ATOM      7  C   UNL A   1      36.400  23.037  23.627  1.00  0.00     0.243 C 
ATOM      8  O   UNL A   1      36.906  22.897  22.504  1.00  0.00    -0.273 OA
ATOM      9  H   UNL A   1      37.912  22.048  24.466  1.00  0.00     0.164 HD
BRANCH   7  10
ATOM     10  C   UNL A   1      34.965  23.655  23.757  1.00  0.00     0.176 C 
BRANCH  10  11
ATOM     11  N   UNL A   1      34.072  23.590  22.570  1.00  0.00    -0.337 N 
ATOM     12  C   UNL A   1      33.317  24.584  21.915  1.00  0.00     0.293 C 
ATOM     13  O   UNL A   1      32.561  24.243  21.011  1.00  0.00    -0.265 OA
ATOM     14  H   UNL A   1      33.996  22.694  22.169  1.00  0.00     0.164 HD
BRANCH  12  15
ATOM     15  C   UNL A   1      33.477  26.086  22.263  1.00  0.00     0.252 C 
ATOM     16  O   UNL A   1      33.855  26.777  21.312  1.00  0.00    -0.283 OA
BRANCH  15  17
ATOM     17  C   UNL A   1      33.235  26.733  23.600  1.00  0.00     0.054 A 
ATOM     18  N   UNL A   1      33.241  28.032  25.500  1.00  0.00    -0.240 N 
ATOM     19  C   UNL A   1      33.691  27.930  24.176  1.00  0.00     0.117 A 
ATOM     20  C   UNL A   1      32.109  27.202  25.532  1.00  0.00     0.065 A 
ATOM     21  C   UNL A   1      32.286  26.222  24.556  1.00  0.00     0.012 A 
ATOM     22  C   UNL A   1      30.955  27.214  26.342  1.00  0.00     0.028 A 
ATOM     23  C   UNL A   1      31.449  25.085  24.608  1.00  0.00     0.011 A 
ATOM     24  C   UNL A   1      30.140  26.093  26.371  1.00  0.00     0.002 A 
ATOM     25  C   UNL A   1      30.418  25.014  25.551  1.00  0.00     0.001 A 
BRANCH  18  26
ATOM     26  S   UNL A   1      33.291  29.295  26.741  1.00  0.00     0.268 S 
ATOM     27  O   UNL A   1      32.952  28.490  27.913  1.00  0.00    -0.201 OA
ATOM     28  O   UNL A   1      32.335  30.275  26.252  1.00  0.00    -0.201 OA
BRANCH  26  29
ATOM     29  C   UNL A   1      34.617  30.238  27.501  1.00  0.00     0.088 A 
ATOM     30  C   UNL A   1      37.525  33.215  28.871  1.00  0.00     0.044 C 
ATOM     31  C   UNL A   1      36.531  32.186  28.414  1.00  0.00    -0.051 A 
ATOM     32  C   UNL A   1      35.202  32.540  28.224  1.00  0.00     0.005 A 
ATOM     33  C   UNL A   1      36.886  30.856  28.183  1.00  0.00     0.005 A 
ATOM     34  C   UNL A   1      34.279  31.589  27.769  1.00  0.00     0.022 A 
ATOM     35  C   UNL A   1      35.935  29.908  27.723  1.00  0.00     0.022 A 
ENDBRANCH  26  29
ENDBRANCH  18  26
ENDBRANCH  15  17
ENDBRANCH  12  15
ENDBRANCH  10  11
BRANCH  10  36
ATOM     36  C   UNL A   1      34.251  23.304  25.103  1.00  0.00     0.072 C 
BRANCH  36  37
ATOM     37  C   UNL A   1      33.784  21.890  25.354  1.00  0.00    -0.020 A 
ATOM     38  C   UNL A   1      34.014  21.164  26.512  1.00  0.00     0.087 A 
ATOM     39  C   UNL A   1      33.050  21.016  24.475  1.00  0.00     0.003 A 
ATOM     40  N   UNL A   1      33.560  19.884  26.326  1.00  0.00    -0.361 N 
ATOM     41  C   UNL A   1      33.058  19.744  25.056  1.00  0.00     0.046 A 
ATOM     42  C   UNL A   1      32.485  21.150  23.190  1.00  0.00     0.010 A 
ATOM     43  H   UNL A   1      33.591  19.169  27.004  1.00  0.00     0.166 HD
ATOM     44  C   UNL A   1      32.638  18.592  24.378  1.00  0.00     0.026 A 
ATOM     45  C   UNL A   1      32.077  20.007  22.491  1.00  0.00     0.001 A 
ATOM     46  C   UNL A   1      32.176  18.745  23.069  1.00  0.00     0.002 A 
ENDBRANCH  36  37
ENDBRANCH  10  36
ENDBRANCH   7  10
ENDBRANCH   5   6
ENDBRANCH   1   5
BRANCH   3  47
ATOM     47  C   UNL A   1      39.593  21.503  26.515  1.00  0.00     0.116 C 
BRANCH  47  48
ATOM     48  C   UNL A   1      41.016  21.030  26.209  1.00  0.00     0.023 C 
BRANCH  48  49
ATOM     49  C   UNL A   1      42.077  22.124  26.348  1.00  0.00     0.023 C 
BRANCH  49  50
ATOM     50  C   UNL A   1      42.915  22.280  25.089  1.00  0.00     0.116 C 
BRANCH  50  51
ATOM     51  N   UNL A   1      43.994  21.340  24.926  1.00  0.00    -0.352 N 
ATOM     52  C   UNL A   1      45.349  21.658  24.845  1.00  0.00     0.251 C 
ATOM     53  H   UNL A   1      43.753  20.388  24.866  1.00  0.00     0.163 HD
ATOM     54  O   UNL A   1      46.129  20.968  24.232  1.00  0.00    -0.269 OA
BRANCH  52  55
ATOM     55  C   UNL A   1      45.829  22.791  25.691  1.00  0.00     0.039 A 
ATOM     56  C   UNL A   1      45.678  22.672  27.076  1.00  0.00     0.014 A 
ATOM     57  C   UNL A   1      46.231  24.005  25.142  1.00  0.00     0.014 A 
ATOM     58  C   UNL A   1      45.759  23.810  27.880  1.00  0.00     0.010 A 
ATOM     59  C   UNL A   1      46.189  25.147  25.915  1.00  0.00     0.010 A 
ATOM     60  C   UNL A   1      45.901  25.056  27.278  1.00  0.00    -0.014 A 
BRANCH  60  61
ATOM     61  C   UNL A   1      45.867  26.333  27.978  1.00  0.00     0.031 A 
ATOM     62  C   UNL A   1      44.575  27.019  28.146  1.00  0.00     0.074 A 
ATOM     63  C   UNL A   1      46.971  26.780  28.612  1.00  0.00     0.049 A 
ATOM     64  N   UNL A   1      44.424  28.226  28.572  1.00  0.00    -0.248 NA
ATOM     65  C   UNL A   1      43.322  26.373  27.781  1.00  0.00     0.031 C 
ATOM     66  C   UNL A   1      47.065  27.832  29.624  1.00  0.00     0.029 A 
ATOM     67  N   UNL A   1      48.281  26.634  28.150  1.00  0.00    -0.354 N 
ATOM     68  C   UNL A   1      43.086  28.395  28.851  1.00  0.00     0.074 A 
ATOM     69  C   UNL A   1      42.440  27.272  28.220  1.00  0.00     0.031 C 
ATOM     70  C   UNL A   1      48.235  28.473  29.466  1.00  0.00     0.029 A 
ATOM     71  C   UNL A   1      48.806  27.943  28.242  1.00  0.00     0.049 A 
ATOM     72  H   UNL A   1      48.730  25.817  27.833  1.00  0.00     0.167 HD
ATOM     73  C   UNL A   1      42.725  29.370  29.737  1.00  0.00     0.037 A 
ATOM     74  C   UNL A   1      49.062  28.679  27.120  1.00  0.00     0.037 A 
ATOM     75  C   UNL A   1      43.841  30.286  29.974  1.00  0.00     0.049 A 
ATOM     76  C   UNL A   1      48.569  30.075  27.152  1.00  0.00     0.074 A 
ATOM     77  C   UNL A   1      44.773  30.406  30.993  1.00  0.00     0.029 A 
ATOM     78  N   UNL A   1      44.300  31.075  28.924  1.00  0.00    -0.354 N 
ATOM     79  N   UNL A   1      47.455  30.409  27.733  1.00  0.00    -0.248 NA
ATOM     80  C   UNL A   1      49.307  31.210  26.610  1.00  0.00     0.031 C 
ATOM     81  C   UNL A   1      45.839  31.211  30.519  1.00  0.00     0.029 A 
ATOM     82  C   UNL A   1      45.540  31.599  29.223  1.00  0.00     0.049 A 
ATOM     83  H   UNL A   1      43.810  31.237  28.087  1.00  0.00     0.167 HD
ATOM     84  C   UNL A   1      47.327  31.770  27.682  1.00  0.00     0.074 A 
ATOM     85  C   UNL A   1      48.506  32.228  26.969  1.00  0.00     0.031 C 
ATOM     86  C   UNL A   1      46.263  32.400  28.249  1.00  0.00     0.037 A 
BRANCH  73  87
ATOM     87  C   UNL A   1      41.490  29.306  30.628  1.00  0.00     0.058 A 
ATOM     88  C   UNL A   1      40.225  29.688  30.120  1.00  0.00     0.135 A 
ATOM     89  C   UNL A   1      41.480  28.993  32.002  1.00  0.00     0.135 A 
ATOM     90  F   UNL A   1      40.036  29.935  28.816  1.00  0.00    -0.206 F 
ATOM     91  C   UNL A   1      39.090  29.851  30.921  1.00  0.00     0.059 A 
ATOM     92  C   UNL A   1      40.369  29.177  32.831  1.00  0.00     0.059 A 
ATOM     93  F   UNL A   1      42.529  28.447  32.617  1.00  0.00    -0.206 F 
ATOM     94  C   UNL A   1      39.180  29.623  32.286  1.00  0.00     0.060 A 
BRANCH  94  95
ATOM     95  S   UNL A   1      37.732  29.882  33.323  1.00  0.00     0.124 S 
ATOM     96  O   UNL A   1      37.037  28.605  33.198  1.00  0.00    -0.237 OA
ATOM     97  O   UNL A   1      38.333  30.157  34.623  1.00  0.00    -0.237 OA
ATOM     98  O   UNL A   1      37.061  31.017  32.693  1.00  0.00    -0.744 OA
ENDBRANCH  94  95
ENDBRANCH  73  87
BRANCH  74  99
ATOM     99  C   UNL A   1      49.296  27.839  25.930  1.00  0.00     0.058 A 
ATOM    100  C   UNL A   1      48.239  27.889  25.025  1.00  0.00     0.135 A 
ATOM    101  C   UNL A   1      50.517  27.365  25.457  1.00  0.00     0.135 A 
ATOM    102  F   UNL A   1      47.022  28.067  25.552  1.00  0.00    -0.206 F 
ATOM    103  C   UNL A   1      48.399  27.693  23.660  1.00  0.00     0.059 A 
ATOM    104  C   UNL A   1      50.685  27.036  24.101  1.00  0.00     0.059 A 
ATOM    105  F   UNL A   1      51.577  27.287  26.272  1.00  0.00    -0.206 F 
ATOM    106  C   UNL A   1      49.639  27.275  23.204  1.00  0.00     0.060 A 
BRANCH 106 107
ATOM    107  S   UNL A   1      49.801  27.033  21.424  1.00  0.00     0.124 S 
ATOM    108  O   UNL A   1      51.162  26.510  21.334  1.00  0.00    -0.237 OA
ATOM    109  O   UNL A   1      48.741  26.063  21.157  1.00  0.00    -0.237 OA
ATOM    110  O   UNL A   1      49.596  28.371  20.888  1.00  0.00    -0.744 OA
ENDBRANCH 106 107
ENDBRANCH  74  99
BRANCH  86 111
ATOM    111  C   UNL A   1      45.854  33.826  28.001  1.00  0.00     0.058 A 
ATOM    112  C   UNL A   1      45.101  34.237  26.888  1.00  0.00     0.135 A 
ATOM    113  C   UNL A   1      46.063  34.810  28.997  1.00  0.00     0.135 A 
ATOM    114  F   UNL A   1      44.740  33.374  25.928  1.00  0.00    -0.206 F 
ATOM    115  C   UNL A   1      44.631  35.541  26.742  1.00  0.00     0.059 A 
ATOM    116  C   UNL A   1      45.556  36.103  28.898  1.00  0.00     0.059 A 
ATOM    117  F   UNL A   1      46.748  34.540  30.117  1.00  0.00    -0.206 F 
ATOM    118  C   UNL A   1      44.855  36.465  27.756  1.00  0.00     0.060 A 
BRANCH 118 119
ATOM    119  S   UNL A   1      44.154  38.118  27.624  1.00  0.00     0.124 S 
ATOM    120  O   UNL A   1      45.115  38.770  26.740  1.00  0.00    -0.237 OA
ATOM    121  O   UNL A   1      42.836  37.866  27.046  1.00  0.00    -0.237 OA
ATOM    122  O   UNL A   1      44.144  38.586  29.006  1.00  0.00    -0.744 OA
ENDBRANCH 118 119
ENDBRANCH  86 111
ENDBRANCH  60  61
ENDBRANCH  52  55
ENDBRANCH  50  51
ENDBRANCH  49  50
ENDBRANCH  48  49
ENDBRANCH  47  48
ENDBRANCH   3  47
TORSDOF 23
ENDMDL
MODEL 2
REMARK VINA RESULT:     -12.2      2.525      3.780
REMARK SMILES Cc1ccc(S(=O)(=O)n2cc(C(=O)C(=O)N[C@@H](Cc3c[nH]c4ccccc34)C(=O)NCC(=O)NCCCCNC(=O)c3ccc(-c4c5nc(c(-c6c(F)cc(S(=O)(=O)[O-])cc6F)c6ccc([nH]6)c(-c6c(F)cc(S(=O)(=O)[O-])cc6F)c6nc(c(-c7c(F)cc(S(=O)(=O)[O-])cc7F)c7ccc4[nH]7)C=C6)C=C5)cc3)c3ccccc32)cc1
REMARK SMILES IDX 32 1 33 2 34 3 31 5 30 6 28 7 29 8 17 10 16 11 14 12 15 13
REMARK SMILES IDX 12 15 13 16 11 17 9 18 10 19 113 20 108 21 112 22 109 23
REMARK SMILES IDX 111 24 110 25 6 26 7 27 8 28 5 29 1 30 2 31 3 32 115 33 4 34
REMARK SMILES IDX 114 35 18 36 19 37 20 38 27 39 21 40 22 41 26 42 23 44 25 45
REMARK SMILES IDX 24 46 35 47 36 48 37 49 38 50 39 51 40 52 41 54 42 55 43 56
REMARK SMILES IDX 107 57 44 58 106 59 45 60 46 61 47 62 100 63 48 64 105 65
REMARK SMILES IDX 99 66 101 67 49 68 104 69 98 70 97 71 50 73 84 74 63 75
REMARK SMILES IDX 83 76 64 77 67 78 82 79 102 80 65 81 66 82 81 84 103 85
REMARK SMILES IDX 68 86 51 87 52 88 61 89 53 90 54 91 60 92 62 93 55 94 56 95
REMARK SMILES IDX 57 96 58 97 59 98 85 99 86 100 95 101 87 102 88 103 94 104
REMARK SMILES IDX 96 105 89 106 90 107 91 108 92 109 93 110 69 111 70 112
REMARK SMILES IDX 79 113 71 114 72 115 78 116 80 117 73 118 74 119 75 120
REMARK SMILES IDX 76 121 77 122
REMARK H PARENT 34 4 30 9 16 14 21 43 39 53 101 72 67 83
REMARK Flexibility Score: inf
ROOT
ATOM      1  C   UNL A   1      39.188  23.979  26.327  1.00  0.00     0.239 C 
ATOM      2  O   UNL A   1      39.217  25.185  26.575  1.00  0.00    -0.273 OA
ATOM      3  N   UNL A   1      40.337  23.246  26.402  1.00  0.00    -0.355 N 
ATOM      4  H   UNL A   1      41.151  23.729  26.675  1.00  0.00     0.163 HD
ENDROOT
BRANCH   1   5
ATOM      5  C   UNL A   1      37.881  23.235  26.069  1.00  0.00     0.216 C 
BRANCH   5   6
ATOM      6  N   UNL A   1      37.616  22.785  24.714  1.00  0.00    -0.345 N 
ATOM      7  C   UNL A   1      36.671  23.198  23.821  1.00  0.00     0.243 C 
ATOM      8  O   UNL A   1      36.975  23.047  22.629  1.00  0.00    -0.273 OA
ATOM      9  H   UNL A   1      38.212  22.071  24.389  1.00  0.00     0.164 HD
BRANCH   7  10
ATOM     10  C   UNL A   1      35.331  23.923  24.191  1.00  0.00     0.176 C 
BRANCH  10  11
ATOM     11  N   UNL A   1      34.117  23.581  23.403  1.00  0.00    -0.337 N 
ATOM     12  C   UNL A   1      33.159  24.395  22.767  1.00  0.00     0.293 C 
ATOM     13  O   UNL A   1      32.173  23.858  22.271  1.00  0.00    -0.265 OA
ATOM     14  H   UNL A   1      33.956  22.614  23.308  1.00  0.00     0.164 HD
BRANCH  12  15
ATOM     15  C   UNL A   1      33.360  25.925  22.622  1.00  0.00     0.252 C 
ATOM     16  O   UNL A   1      33.933  26.252  21.579  1.00  0.00    -0.283 OA
BRANCH  15  17
ATOM     17  C   UNL A   1      32.946  26.986  23.606  1.00  0.00     0.054 A 
ATOM     18  N   UNL A   1      32.772  28.523  25.311  1.00  0.00    -0.240 N 
ATOM     19  C   UNL A   1      33.650  27.701  24.590  1.00  0.00     0.117 A 
ATOM     20  C   UNL A   1      31.691  28.708  24.434  1.00  0.00     0.065 A 
ATOM     21  C   UNL A   1      31.638  27.590  23.603  1.00  0.00     0.012 A 
ATOM     22  C   UNL A   1      30.748  29.748  24.309  1.00  0.00     0.028 A 
ATOM     23  C   UNL A   1      30.455  27.382  22.858  1.00  0.00     0.011 A 
ATOM     24  C   UNL A   1      29.599  29.529  23.565  1.00  0.00     0.002 A 
ATOM     25  C   UNL A   1      29.429  28.333  22.890  1.00  0.00     0.001 A 
BRANCH  18  26
ATOM     26  S   UNL A   1      32.971  29.777  26.546  1.00  0.00     0.268 S 
ATOM     27  O   UNL A   1      32.395  29.075  27.692  1.00  0.00    -0.201 OA
ATOM     28  O   UNL A   1      32.261  30.913  25.980  1.00  0.00    -0.201 OA
BRANCH  26  29
ATOM     29  C   UNL A   1      34.392  30.463  27.403  1.00  0.00     0.088 A 
ATOM     30  C   UNL A   1      37.655  32.881  29.047  1.00  0.00     0.044 C 
ATOM     31  C   UNL A   1      36.538  32.042  28.496  1.00  0.00    -0.051 A 
ATOM     32  C   UNL A   1      35.284  32.603  28.291  1.00  0.00     0.005 A 
ATOM     33  C   UNL A   1      36.700  30.690  28.188  1.00  0.00     0.005 A 
ATOM     34  C   UNL A   1      34.248  31.830  27.749  1.00  0.00     0.022 A 
ATOM     35  C   UNL A   1      35.637  29.925  27.641  1.00  0.00     0.022 A 
ENDBRANCH  26  29
ENDBRANCH  18  26
ENDBRANCH  15  17
ENDBRANCH  12  15
ENDBRANCH  10  11
BRANCH  10  36
ATOM     36  C   UNL A   1      35.076  24.021  25.730  1.00  0.00     0.072 C 
BRANCH  36  37
ATOM     37  C   UNL A   1      33.865  23.350  26.332  1.00  0.00    -0.020 A 
ATOM     38  C   UNL A   1      33.830  22.056  26.830  1.00  0.00     0.087 A 
ATOM     39  C   UNL A   1      32.534  23.874  26.493  1.00  0.00     0.003 A 
ATOM     40  N   UNL A   1      32.537  21.750  27.168  1.00  0.00    -0.361 N 
ATOM     41  C   UNL A   1      31.713  22.809  26.879  1.00  0.00     0.046 A 
ATOM     42  C   UNL A   1      31.921  25.118  26.234  1.00  0.00     0.010 A 
ATOM     43  H   UNL A   1      32.243  20.895  27.560  1.00  0.00     0.166 HD
ATOM     44  C   UNL A   1      30.315  22.894  26.908  1.00  0.00     0.026 A 
ATOM     45  C   UNL A   1      30.523  25.216  26.240  1.00  0.00     0.001 A 
ATOM     46  C   UNL A   1      29.734  24.112  26.549  1.00  0.00     0.002 A 
ENDBRANCH  36  37
ENDBRANCH  10  36
ENDBRANCH   7  10
ENDBRANCH   5   6
ENDBRANCH   1   5
BRANCH   3  47
ATOM     47  C   UNL A   1      40.484  21.834  26.125  1.00  0.00     0.116 C 
BRANCH  47  48
ATOM     48  C   UNL A   1      41.936  21.372  26.267  1.00  0.00     0.023 C 
BRANCH  48  49
ATOM     49  C   UNL A   1      42.967  22.444  25.909  1.00  0.00     0.023 C 
BRANCH  49  50
ATOM     50  C   UNL A   1      43.712  22.962  27.130  1.00  0.00     0.116 C 
BRANCH  50  51
ATOM     51  N   UNL A   1      43.076  22.736  28.402  1.00  0.00    -0.352 N 
ATOM     52  C   UNL A   1      43.412  23.356  29.604  1.00  0.00     0.251 C 
ATOM     53  H   UNL A   1      42.339  22.084  28.425  1.00  0.00     0.163 HD
ATOM     54  O   UNL A   1      43.237  22.815  30.670  1.00  0.00    -0.269 OA
BRANCH  52  55
ATOM     55  C   UNL A   1      43.834  24.786  29.531  1.00  0.00     0.039 A 
ATOM     56  C   UNL A   1      44.933  25.176  30.304  1.00  0.00     0.014 A 
ATOM     57  C   UNL A   1      43.067  25.752  28.885  1.00  0.00     0.014 A 
ATOM     58  C   UNL A   1      45.148  26.530  30.566  1.00  0.00     0.010 A 
ATOM     59  C   UNL A   1      43.204  27.077  29.242  1.00  0.00     0.010 A 
ATOM     60  C   UNL A   1      44.214  27.462  30.125  1.00  0.00    -0.014 A 
BRANCH  60  61
ATOM     61  C   UNL A   1      44.240  28.884  30.438  1.00  0.00     0.031 A 
ATOM     62  C   UNL A   1      42.992  29.548  30.849  1.00  0.00     0.074 A 
ATOM     63  C   UNL A   1      45.421  29.531  30.520  1.00  0.00     0.049 A 
ATOM     64  N   UNL A   1      42.830  30.820  30.970  1.00  0.00    -0.248 NA
ATOM     65  C   UNL A   1      41.780  28.782  31.111  1.00  0.00     0.031 C 
ATOM     66  C   UNL A   1      45.695  30.833  31.129  1.00  0.00     0.029 A 
ATOM     67  N   UNL A   1      46.525  29.302  29.696  1.00  0.00    -0.354 N 
ATOM     68  C   UNL A   1      41.638  31.018  31.633  1.00  0.00     0.074 A 
ATOM     69  C   UNL A   1      40.975  29.740  31.573  1.00  0.00     0.031 C 
ATOM     70  C   UNL A   1      46.664  31.439  30.423  1.00  0.00     0.029 A 
ATOM     71  C   UNL A   1      46.882  30.599  29.261  1.00  0.00     0.049 A 
ATOM     72  H   UNL A   1      46.952  28.444  29.470  1.00  0.00     0.167 HD
ATOM     73  C   UNL A   1      41.454  32.194  32.303  1.00  0.00     0.037 A 
ATOM     74  C   UNL A   1      46.674  30.989  27.969  1.00  0.00     0.037 A 
ATOM     75  C   UNL A   1      42.461  33.176  31.899  1.00  0.00     0.049 A 
ATOM     76  C   UNL A   1      46.043  32.318  27.801  1.00  0.00     0.074 A 
ATOM     77  C   UNL A   1      43.644  33.614  32.474  1.00  0.00     0.029 A 
ATOM     78  N   UNL A   1      42.461  33.644  30.590  1.00  0.00    -0.354 N 
ATOM     79  N   UNL A   1      45.137  32.768  28.616  1.00  0.00    -0.248 NA
ATOM     80  C   UNL A   1      46.421  33.272  26.766  1.00  0.00     0.031 C 
ATOM     81  C   UNL A   1      44.395  34.284  31.475  1.00  0.00     0.029 A 
ATOM     82  C   UNL A   1      43.655  34.272  30.304  1.00  0.00     0.049 A 
ATOM     83  H   UNL A   1      41.715  33.542  29.957  1.00  0.00     0.167 HD
ATOM     84  C   UNL A   1      44.827  34.051  28.260  1.00  0.00     0.074 A 
ATOM     85  C   UNL A   1      45.652  34.323  27.097  1.00  0.00     0.031 C 
ATOM     86  C   UNL A   1      43.925  34.783  28.969  1.00  0.00     0.037 A 
BRANCH  73  87
ATOM     87  C   UNL A   1      40.583  32.349  33.543  1.00  0.00     0.058 A 
ATOM     88  C   UNL A   1      41.130  32.126  34.830  1.00  0.00     0.135 A 
ATOM     89  C   UNL A   1      39.196  32.602  33.550  1.00  0.00     0.135 A 
ATOM     90  F   UNL A   1      42.446  31.957  35.015  1.00  0.00    -0.206 F 
ATOM     91  C   UNL A   1      40.356  32.050  35.993  1.00  0.00     0.059 A 
ATOM     92  C   UNL A   1      38.396  32.500  34.692  1.00  0.00     0.059 A 
ATOM     93  F   UNL A   1      38.539  33.006  32.463  1.00  0.00    -0.206 F 
ATOM     94  C   UNL A   1      38.981  32.208  35.909  1.00  0.00     0.060 A 
BRANCH  94  95
ATOM     95  S   UNL A   1      37.983  32.059  37.399  1.00  0.00     0.124 S 
ATOM     96  O   UNL A   1      38.939  32.418  38.442  1.00  0.00    -0.237 OA
ATOM     97  O   UNL A   1      36.918  33.024  37.150  1.00  0.00    -0.237 OA
ATOM     98  O   UNL A   1      37.569  30.657  37.394  1.00  0.00    -0.744 OA
ENDBRANCH  94  95
ENDBRANCH  73  87
BRANCH  74  99
ATOM     99  C   UNL A   1      46.625  29.849  27.032  1.00  0.00     0.058 A 
ATOM    100  C   UNL A   1      47.884  29.311  26.780  1.00  0.00     0.135 A 
ATOM    101  C   UNL A   1      45.520  29.061  26.718  1.00  0.00     0.135 A 
ATOM    102  F   UNL A   1      48.909  30.171  26.812  1.00  0.00    -0.206 F 
ATOM    103  C   UNL A   1      48.085  27.981  26.436  1.00  0.00     0.059 A 
ATOM    104  C   UNL A   1      45.684  27.747  26.247  1.00  0.00     0.059 A 
ATOM    105  F   UNL A   1      44.278  29.516  26.932  1.00  0.00    -0.206 F 
ATOM    106  C   UNL A   1      46.969  27.199  26.182  1.00  0.00     0.060 A 
BRANCH 106 107
ATOM    107  S   UNL A   1      47.278  25.477  25.739  1.00  0.00     0.124 S 
ATOM    108  O   UNL A   1      47.146  24.826  27.040  1.00  0.00    -0.237 OA
ATOM    109  O   UNL A   1      46.194  25.213  24.796  1.00  0.00    -0.237 OA
ATOM    110  O   UNL A   1      48.621  25.516  25.179  1.00  0.00    -0.744 OA
ENDBRANCH 106 107
ENDBRANCH  74  99
BRANCH  86 111
ATOM    111  C   UNL A   1      43.280  36.062  28.512  1.00  0.00     0.058 A 
ATOM    112  C   UNL A   1      43.406  37.284  29.195  1.00  0.00     0.135 A 
ATOM    113  C   UNL A   1      42.651  36.130  27.246  1.00  0.00     0.135 A 
ATOM    114  F   UNL A   1      44.077  37.375  30.352  1.00  0.00    -0.206 F 
ATOM    115  C   UNL A   1      42.900  38.480  28.689  1.00  0.00     0.059 A 
ATOM    116  C   UNL A   1      42.189  37.322  26.697  1.00  0.00     0.059 A 
ATOM    117  F   UNL A   1      42.489  35.038  26.485  1.00  0.00    -0.206 F 
ATOM    118  C   UNL A   1      42.301  38.492  27.434  1.00  0.00     0.060 A 
BRANCH 118 119
ATOM    119  S   UNL A   1      41.748  40.052  26.728  1.00  0.00     0.124 S 
ATOM    120  O   UNL A   1      42.941  40.482  26.006  1.00  0.00    -0.237 OA
ATOM    121  O   UNL A   1      40.619  39.648  25.893  1.00  0.00    -0.237 OA
ATOM    122  O   UNL A   1      41.397  40.843  27.902  1.00  0.00    -0.744 OA
ENDBRANCH 118 119
ENDBRANCH  86 111
ENDBRANCH  60  61
ENDBRANCH  52  55
ENDBRANCH  50  51
ENDBRANCH  49  50
ENDBRANCH  48  49
ENDBRANCH  47  48
ENDBRANCH   3  47
TORSDOF 23
ENDMDL
MODEL 3
REMARK VINA RESULT:     -12.0      3.656      5.046
REMARK SMILES Cc1ccc(S(=O)(=O)n2cc(C(=O)C(=O)N[C@@H](Cc3c[nH]c4ccccc34)C(=O)NCC(=O)NCCCCNC(=O)c3ccc(-c4c5nc(c(-c6c(F)cc(S(=O)(=O)[O-])cc6F)c6ccc([nH]6)c(-c6c(F)cc(S(=O)(=O)[O-])cc6F)c6nc(c(-c7c(F)cc(S(=O)(=O)[O-])cc7F)c7ccc4[nH]7)C=C6)C=C5)cc3)c3ccccc32)cc1
REMARK SMILES IDX 32 1 33 2 34 3 31 5 30 6 28 7 29 8 17 10 16 11 14 12 15 13
REMARK SMILES IDX 12 15 13 16 11 17 9 18 10 19 113 20 108 21 112 22 109 23
REMARK SMILES IDX 111 24 110 25 6 26 7 27 8 28 5 29 1 30 2 31 3 32 115 33 4 34
REMARK SMILES IDX 114 35 18 36 19 37 20 38 27 39 21 40 22 41 26 42 23 44 25 45
REMARK SMILES IDX 24 46 35 47 36 48 37 49 38 50 39 51 40 52 41 54 42 55 43 56
REMARK SMILES IDX 107 57 44 58 106 59 45 60 46 61 47 62 100 63 48 64 105 65
REMARK SMILES IDX 99 66 101 67 49 68 104 69 98 70 97 71 50 73 84 74 63 75
REMARK SMILES IDX 83 76 64 77 67 78 82 79 102 80 65 81 66 82 81 84 103 85
REMARK SMILES IDX 68 86 51 87 52 88 61 89 53 90 54 91 60 92 62 93 55 94 56 95
REMARK SMILES IDX 57 96 58 97 59 98 85 99 86 100 95 101 87 102 88 103 94 104
REMARK SMILES IDX 96 105 89 106 90 107 91 108 92 109 93 110 69 111 70 112
REMARK SMILES IDX 79 113 71 114 72 115 78 116 80 117 73 118 74 119 75 120
REMARK SMILES IDX 76 121 77 122
REMARK H PARENT 34 4 30 9 16 14 21 43 39 53 101 72 67 83
REMARK Flexibility Score: inf
ROOT
ATOM      1  C   UNL A   1      38.504  23.563  26.292  1.00  0.00     0.239 C 
ATOM      2  O   UNL A   1      38.154  24.686  26.655  1.00  0.00    -0.273 OA
ATOM      3  N   UNL A   1      39.686  23.045  26.741  1.00  0.00    -0.355 N 
ATOM      4  H   UNL A   1      40.205  23.607  27.361  1.00  0.00     0.163 HD
ENDROOT
BRANCH   1   5
ATOM      5  C   UNL A   1      37.597  22.659  25.462  1.00  0.00     0.216 C 
BRANCH   5   6
ATOM      6  N   UNL A   1      37.095  23.179  24.203  1.00  0.00    -0.345 N 
ATOM      7  C   UNL A   1      35.824  23.200  23.707  1.00  0.00     0.243 C 
ATOM      8  O   UNL A   1      35.590  24.117  22.907  1.00  0.00    -0.273 OA
ATOM      9  H   UNL A   1      37.778  23.579  23.616  1.00  0.00     0.164 HD
BRANCH   7  10
ATOM     10  C   UNL A   1      34.661  22.247  24.153  1.00  0.00     0.176 C 
BRANCH  10  11
ATOM     11  N   UNL A   1      33.414  22.249  23.343  1.00  0.00    -0.337 N 
ATOM     12  C   UNL A   1      32.118  22.723  23.629  1.00  0.00     0.293 C 
ATOM     13  O   UNL A   1      31.223  22.498  22.820  1.00  0.00    -0.265 OA
ATOM     14  H   UNL A   1      33.513  21.850  22.449  1.00  0.00     0.164 HD
BRANCH  12  15
ATOM     15  C   UNL A   1      31.823  23.572  24.891  1.00  0.00     0.252 C 
ATOM     16  O   UNL A   1      31.396  22.913  25.843  1.00  0.00    -0.283 OA
BRANCH  15  17
ATOM     17  C   UNL A   1      31.994  25.060  25.036  1.00  0.00     0.054 A 
ATOM     18  N   UNL A   1      32.088  27.253  25.731  1.00  0.00    -0.240 N 
ATOM     19  C   UNL A   1      31.959  25.920  26.147  1.00  0.00     0.117 A 
ATOM     20  C   UNL A   1      32.729  27.154  24.485  1.00  0.00     0.065 A 
ATOM     21  C   UNL A   1      32.391  25.913  23.945  1.00  0.00     0.012 A 
ATOM     22  C   UNL A   1      33.559  28.048  23.779  1.00  0.00     0.028 A 
ATOM     23  C   UNL A   1      32.640  25.707  22.570  1.00  0.00     0.011 A 
ATOM     24  C   UNL A   1      33.800  27.823  22.433  1.00  0.00     0.002 A 
ATOM     25  C   UNL A   1      33.297  26.689  21.820  1.00  0.00     0.001 A 
BRANCH  18  26
ATOM     26  S   UNL A   1      32.282  28.805  26.563  1.00  0.00     0.268 S 
ATOM     27  O   UNL A   1      31.646  28.472  27.836  1.00  0.00    -0.201 OA
ATOM     28  O   UNL A   1      31.625  29.744  25.666  1.00  0.00    -0.201 OA
BRANCH  26  29
ATOM     29  C   UNL A   1      33.692  29.681  27.246  1.00  0.00     0.088 A 
ATOM     30  C   UNL A   1      36.805  32.515  28.461  1.00  0.00     0.044 C 
ATOM     31  C   UNL A   1      35.742  31.534  28.057  1.00  0.00    -0.051 A 
ATOM     32  C   UNL A   1      34.419  31.945  27.959  1.00  0.00     0.005 A 
ATOM     33  C   UNL A   1      36.025  30.195  27.784  1.00  0.00     0.005 A 
ATOM     34  C   UNL A   1      33.429  31.040  27.553  1.00  0.00     0.022 A 
ATOM     35  C   UNL A   1      35.007  29.294  27.376  1.00  0.00     0.022 A 
ENDBRANCH  26  29
ENDBRANCH  18  26
ENDBRANCH  15  17
ENDBRANCH  12  15
ENDBRANCH  10  11
BRANCH  10  36
ATOM     36  C   UNL A   1      35.145  20.818  24.562  1.00  0.00     0.072 C 
BRANCH  36  37
ATOM     37  C   UNL A   1      34.159  19.832  25.139  1.00  0.00    -0.020 A 
ATOM     38  C   UNL A   1      33.388  20.039  26.273  1.00  0.00     0.087 A 
ATOM     39  C   UNL A   1      33.831  18.510  24.671  1.00  0.00     0.003 A 
ATOM     40  N   UNL A   1      32.715  18.880  26.564  1.00  0.00    -0.361 N 
ATOM     41  C   UNL A   1      33.046  17.904  25.658  1.00  0.00     0.046 A 
ATOM     42  C   UNL A   1      34.222  17.725  23.566  1.00  0.00     0.010 A 
ATOM     43  H   UNL A   1      32.086  18.765  27.314  1.00  0.00     0.166 HD
ATOM     44  C   UNL A   1      32.732  16.539  25.651  1.00  0.00     0.026 A 
ATOM     45  C   UNL A   1      33.932  16.354  23.553  1.00  0.00     0.001 A 
ATOM     46  C   UNL A   1      33.219  15.768  24.594  1.00  0.00     0.002 A 
ENDBRANCH  36  37
ENDBRANCH  10  36
ENDBRANCH   7  10
ENDBRANCH   5   6
ENDBRANCH   1   5
BRANCH   3  47
ATOM     47  C   UNL A   1      40.253  21.759  26.401  1.00  0.00     0.116 C 
BRANCH  47  48
ATOM     48  C   UNL A   1      41.731  21.667  26.787  1.00  0.00     0.023 C 
BRANCH  48  49
ATOM     49  C   UNL A   1      42.693  22.044  25.658  1.00  0.00     0.023 C 
BRANCH  49  50
ATOM     50  C   UNL A   1      43.386  23.374  25.908  1.00  0.00     0.116 C 
BRANCH  50  51
ATOM     51  N   UNL A   1      42.870  24.503  25.179  1.00  0.00    -0.352 N 
ATOM     52  C   UNL A   1      42.036  25.495  25.693  1.00  0.00     0.251 C 
ATOM     53  H   UNL A   1      43.129  24.582  24.233  1.00  0.00     0.163 HD
ATOM     54  O   UNL A   1      41.253  26.094  24.995  1.00  0.00    -0.269 OA
BRANCH  52  55
ATOM     55  C   UNL A   1      42.273  25.909  27.108  1.00  0.00     0.039 A 
ATOM     56  C   UNL A   1      41.260  25.646  28.037  1.00  0.00     0.014 A 
ATOM     57  C   UNL A   1      43.359  26.699  27.476  1.00  0.00     0.014 A 
ATOM     58  C   UNL A   1      41.255  26.317  29.261  1.00  0.00     0.010 A 
ATOM     59  C   UNL A   1      43.290  27.453  28.629  1.00  0.00     0.010 A 
ATOM     60  C   UNL A   1      42.210  27.300  29.500  1.00  0.00    -0.014 A 
BRANCH  60  61
ATOM     61  C   UNL A   1      42.243  28.167  30.669  1.00  0.00     0.031 A 
ATOM     62  C   UNL A   1      41.571  29.476  30.608  1.00  0.00     0.074 A 
ATOM     63  C   UNL A   1      42.727  27.697  31.838  1.00  0.00     0.049 A 
ATOM     64  N   UNL A   1      41.680  30.410  31.488  1.00  0.00    -0.248 NA
ATOM     65  C   UNL A   1      40.737  29.844  29.471  1.00  0.00     0.031 C 
ATOM     66  C   UNL A   1      42.553  28.261  33.177  1.00  0.00     0.029 A 
ATOM     67  N   UNL A   1      43.818  26.836  31.971  1.00  0.00    -0.354 N 
ATOM     68  C   UNL A   1      40.698  31.339  31.219  1.00  0.00     0.074 A 
ATOM     69  C   UNL A   1      40.239  31.007  29.894  1.00  0.00     0.031 C 
ATOM     70  C   UNL A   1      43.671  28.030  33.886  1.00  0.00     0.029 A 
ATOM     71  C   UNL A   1      44.622  27.475  32.942  1.00  0.00     0.049 A 
ATOM     72  H   UNL A   1      43.988  25.988  31.500  1.00  0.00     0.167 HD
ATOM     73  C   UNL A   1      40.279  32.153  32.232  1.00  0.00     0.037 A 
ATOM     74  C   UNL A   1      45.809  28.058  32.600  1.00  0.00     0.037 A 
ATOM     75  C   UNL A   1      41.216  32.098  33.355  1.00  0.00     0.049 A 
ATOM     76  C   UNL A   1      46.026  29.418  33.142  1.00  0.00     0.074 A 
ATOM     77  C   UNL A   1      41.208  31.425  34.567  1.00  0.00     0.029 A 
ATOM     78  N   UNL A   1      42.509  32.580  33.180  1.00  0.00    -0.354 N 
ATOM     79  N   UNL A   1      45.062  30.278  33.278  1.00  0.00    -0.248 NA
ATOM     80  C   UNL A   1      47.309  29.898  33.641  1.00  0.00     0.031 C 
ATOM     81  C   UNL A   1      42.528  31.437  35.084  1.00  0.00     0.029 A 
ATOM     82  C   UNL A   1      43.329  32.138  34.197  1.00  0.00     0.049 A 
ATOM     83  H   UNL A   1      42.798  33.154  32.436  1.00  0.00     0.167 HD
ATOM     84  C   UNL A   1      45.555  31.394  33.894  1.00  0.00     0.074 A 
ATOM     85  C   UNL A   1      46.964  31.114  34.100  1.00  0.00     0.031 C 
ATOM     86  C   UNL A   1      44.749  32.449  34.195  1.00  0.00     0.037 A 
BRANCH  73  87
ATOM     87  C   UNL A   1      38.876  32.738  32.341  1.00  0.00     0.058 A 
ATOM     88  C   UNL A   1      37.830  31.975  32.914  1.00  0.00     0.135 A 
ATOM     89  C   UNL A   1      38.455  33.976  31.815  1.00  0.00     0.135 A 
ATOM     90  F   UNL A   1      38.067  30.813  33.537  1.00  0.00    -0.206 F 
ATOM     91  C   UNL A   1      36.485  32.356  32.867  1.00  0.00     0.059 A 
ATOM     92  C   UNL A   1      37.116  34.365  31.727  1.00  0.00     0.059 A 
ATOM     93  F   UNL A   1      39.317  34.903  31.397  1.00  0.00    -0.206 F 
ATOM     94  C   UNL A   1      36.132  33.542  32.242  1.00  0.00     0.060 A 
BRANCH  94  95
ATOM     95  S   UNL A   1      34.396  34.004  32.137  1.00  0.00     0.124 S 
ATOM     96  O   UNL A   1      34.335  35.157  33.031  1.00  0.00    -0.237 OA
ATOM     97  O   UNL A   1      34.242  34.291  30.715  1.00  0.00    -0.237 OA
ATOM     98  O   UNL A   1      33.697  32.812  32.613  1.00  0.00    -0.744 OA
ENDBRANCH  94  95
ENDBRANCH  73  87
BRANCH  74  99
ATOM     99  C   UNL A   1      46.396  27.477  31.376  1.00  0.00     0.058 A 
ATOM    100  C   UNL A   1      46.413  28.376  30.314  1.00  0.00     0.135 A 
ATOM    101  C   UNL A   1      47.233  26.367  31.286  1.00  0.00     0.135 A 
ATOM    102  F   UNL A   1      45.413  29.264  30.279  1.00  0.00    -0.206 F 
ATOM    103  C   UNL A   1      47.354  28.327  29.295  1.00  0.00     0.059 A 
ATOM    104  C   UNL A   1      48.115  26.218  30.202  1.00  0.00     0.059 A 
ATOM    105  F   UNL A   1      47.267  25.459  32.271  1.00  0.00    -0.206 F 
ATOM    106  C   UNL A   1      48.215  27.242  29.255  1.00  0.00     0.060 A 
BRANCH 106 107
ATOM    107  S   UNL A   1      49.422  27.220  27.914  1.00  0.00     0.124 S 
ATOM    108  O   UNL A   1      50.648  26.912  28.645  1.00  0.00    -0.237 OA
ATOM    109  O   UNL A   1      48.910  26.143  27.070  1.00  0.00    -0.237 OA
ATOM    110  O   UNL A   1      49.328  28.565  27.364  1.00  0.00    -0.744 OA
ENDBRANCH 106 107
ENDBRANCH  74  99
BRANCH  86 111
ATOM    111  C   UNL A   1      45.214  33.826  34.580  1.00  0.00     0.058 A 
ATOM    112  C   UNL A   1      45.256  34.292  35.906  1.00  0.00     0.135 A 
ATOM    113  C   UNL A   1      45.813  34.671  33.615  1.00  0.00     0.135 A 
ATOM    114  F   UNL A   1      44.822  33.539  36.927  1.00  0.00    -0.206 F 
ATOM    115  C   UNL A   1      45.804  35.527  36.249  1.00  0.00     0.059 A 
ATOM    116  C   UNL A   1      46.415  35.883  33.944  1.00  0.00     0.059 A 
ATOM    117  F   UNL A   1      45.858  34.333  32.319  1.00  0.00    -0.206 F 
ATOM    118  C   UNL A   1      46.389  36.312  35.262  1.00  0.00     0.060 A 
BRANCH 118 119
ATOM    119  S   UNL A   1      47.197  37.855  35.717  1.00  0.00     0.124 S 
ATOM    120  O   UNL A   1      46.060  38.765  35.797  1.00  0.00    -0.237 OA
ATOM    121  O   UNL A   1      47.831  37.526  36.992  1.00  0.00    -0.237 OA
ATOM    122  O   UNL A   1      48.120  38.086  34.610  1.00  0.00    -0.744 OA
ENDBRANCH 118 119
ENDBRANCH  86 111
ENDBRANCH  60  61
ENDBRANCH  52  55
ENDBRANCH  50  51
ENDBRANCH  49  50
ENDBRANCH  48  49
ENDBRANCH  47  48
ENDBRANCH   3  47
TORSDOF 23
ENDMDL
