MODEL 1
REMARK VINA RESULT:     -10.4      0.000      0.000
REMARK SMILES C[C@@H](CCC(=O)NCCCCNC(=O)c1ccc(-c2c3nc(c(-c4c(F)cc(S(=O)(=O)[O-])cc4F)c4ccc([nH]4)c(-c4c(F)cc(S(=O)(=O)[O-])cc4F)c4nc(c(-c5c(F)cc(S(=O)(=O)[O-])cc5F)c5ccc2[nH]5)C=C4)C=C3)cc1)CC[NH+]1CCCCC1
REMARK SMILES IDX 8 1 7 2 5 3 6 4 4 6 3 7 2 8 1 9 81 10 82 11 83 12 84 13
REMARK SMILES IDX 88 14 85 16 87 17 86 18 9 19 10 20 11 21 12 22 13 23 14 25
REMARK SMILES IDX 15 26 16 27 80 28 17 29 79 30 18 31 19 32 20 33 73 34 21 35
REMARK SMILES IDX 78 36 72 37 74 38 22 39 77 40 71 41 70 42 23 44 57 45 36 46
REMARK SMILES IDX 56 47 37 48 40 49 55 50 75 51 38 52 39 53 54 55 76 56 41 57
REMARK SMILES IDX 24 58 25 59 34 60 26 61 27 62 33 63 35 64 28 65 29 66 30 67
REMARK SMILES IDX 31 68 32 69 58 70 59 71 68 72 60 73 61 74 67 75 69 76 62 77
REMARK SMILES IDX 63 78 64 79 65 80 66 81 42 82 43 83 52 84 44 85 45 86 51 87
REMARK SMILES IDX 53 88 46 89 47 90 48 91 49 92 50 93
REMARK H PARENT 7 5 83 15 12 24 74 43 40 54
REMARK Flexibility Score: inf
ROOT
ATOM      1  C   UNL A   1      31.575  26.635  24.671  1.00  0.00     0.116 C 
ENDROOT
BRANCH   1   2
ATOM      2  N   UNL A   1      32.389  26.709  23.471  1.00  0.00    -0.356 N 
ATOM      3  C   UNL A   1      33.303  25.843  22.953  1.00  0.00     0.220 C 
ATOM      4  O   UNL A   1      33.920  26.181  21.943  1.00  0.00    -0.275 OA
ATOM      5  H   UNL A   1      32.259  27.528  22.940  1.00  0.00     0.163 HD
BRANCH   3   6
ATOM      6  C   UNL A   1      33.517  24.482  23.579  1.00  0.00     0.100 C 
BRANCH   6   7
ATOM      7  C   UNL A   1      33.021  23.299  22.727  1.00  0.00     0.013 C 
BRANCH   7   8
ATOM      8  C   UNL A   1      31.920  22.374  23.324  1.00  0.00    -0.008 C 
ATOM      9  C   UNL A   1      31.460  22.875  24.697  1.00  0.00     0.008 C 
BRANCH   8  10
ATOM     10  C   UNL A   1      32.305  20.878  23.181  1.00  0.00     0.065 C 
BRANCH  10  11
ATOM     11  C   UNL A   1      32.648  20.040  24.424  1.00  0.00     0.262 C 
BRANCH  11  12
ATOM     12  N   UNL A   1      32.634  18.570  24.430  1.00  0.00    -0.335 N 
ATOM     13  C   UNL A   1      33.819  18.113  23.664  1.00  0.00     0.262 C 
ATOM     14  C   UNL A   1      32.580  17.948  25.751  1.00  0.00     0.262 C 
ATOM     15  H   UNL A   1      31.762  18.268  23.996  1.00  0.00     0.348 HD
ATOM     16  C   UNL A   1      33.912  16.596  23.545  1.00  0.00     0.062 C 
ATOM     17  C   UNL A   1      32.607  16.421  25.661  1.00  0.00     0.062 C 
ATOM     18  C   UNL A   1      33.843  15.936  24.914  1.00  0.00     0.012 C 
ENDBRANCH  11  12
ENDBRANCH  10  11
ENDBRANCH   8  10
ENDBRANCH   7   8
ENDBRANCH   6   7
ENDBRANCH   3   6
ENDBRANCH   1   2
BRANCH   1  19
ATOM     19  C   UNL A   1      32.410  26.737  25.944  1.00  0.00     0.023 C 
BRANCH  19  20
ATOM     20  C   UNL A   1      32.306  28.095  26.636  1.00  0.00     0.023 C 
BRANCH  20  21
ATOM     21  C   UNL A   1      33.634  28.606  27.156  1.00  0.00     0.116 C 
BRANCH  21  22
ATOM     22  N   UNL A   1      33.617  29.946  27.722  1.00  0.00    -0.352 N 
ATOM     23  C   UNL A   1      34.665  30.647  28.286  1.00  0.00     0.251 C 
ATOM     24  H   UNL A   1      32.750  30.412  27.700  1.00  0.00     0.163 HD
ATOM     25  O   UNL A   1      34.468  31.776  28.733  1.00  0.00    -0.269 OA
BRANCH  23  26
ATOM     26  C   UNL A   1      36.005  30.013  28.416  1.00  0.00     0.039 A 
ATOM     27  C   UNL A   1      36.910  30.104  27.355  1.00  0.00     0.014 A 
ATOM     28  C   UNL A   1      36.404  29.396  29.601  1.00  0.00     0.014 A 
ATOM     29  C   UNL A   1      38.233  29.676  27.528  1.00  0.00     0.010 A 
ATOM     30  C   UNL A   1      37.744  29.109  29.819  1.00  0.00     0.010 A 
ATOM     31  C   UNL A   1      38.678  29.231  28.784  1.00  0.00    -0.014 A 
BRANCH  31  32
ATOM     32  C   UNL A   1      40.094  28.867  29.054  1.00  0.00     0.031 A 
ATOM     33  C   UNL A   1      41.031  29.898  29.636  1.00  0.00     0.074 A 
ATOM     34  C   UNL A   1      40.568  27.662  28.675  1.00  0.00     0.049 A 
ATOM     35  N   UNL A   1      42.328  29.848  29.791  1.00  0.00    -0.248 NA
ATOM     36  C   UNL A   1      40.433  31.181  30.048  1.00  0.00     0.031 C 
ATOM     37  C   UNL A   1      39.785  26.604  28.028  1.00  0.00     0.029 A 
ATOM     38  N   UNL A   1      41.828  27.125  28.765  1.00  0.00    -0.354 N 
ATOM     39  C   UNL A   1      42.702  31.099  30.269  1.00  0.00     0.074 A 
ATOM     40  C   UNL A   1      41.506  31.909  30.317  1.00  0.00     0.031 C 
ATOM     41  C   UNL A   1      40.573  25.538  27.814  1.00  0.00     0.029 A 
ATOM     42  C   UNL A   1      41.925  25.847  28.267  1.00  0.00     0.049 A 
ATOM     43  H   UNL A   1      42.593  27.611  29.151  1.00  0.00     0.167 HD
ATOM     44  C   UNL A   1      43.924  31.527  30.668  1.00  0.00     0.037 A 
ATOM     45  C   UNL A   1      42.985  25.019  28.181  1.00  0.00     0.037 A 
ATOM     46  C   UNL A   1      45.092  30.688  30.693  1.00  0.00     0.049 A 
ATOM     47  C   UNL A   1      44.318  25.491  28.695  1.00  0.00     0.074 A 
ATOM     48  C   UNL A   1      46.358  30.989  31.162  1.00  0.00     0.029 A 
ATOM     49  N   UNL A   1      45.129  29.375  30.247  1.00  0.00    -0.354 N 
ATOM     50  N   UNL A   1      44.640  26.660  29.199  1.00  0.00    -0.248 NA
ATOM     51  C   UNL A   1      45.432  24.534  28.635  1.00  0.00     0.031 C 
ATOM     52  C   UNL A   1      47.170  29.864  30.974  1.00  0.00     0.029 A 
ATOM     53  C   UNL A   1      46.398  28.853  30.425  1.00  0.00     0.049 A 
ATOM     54  H   UNL A   1      44.366  28.887  29.860  1.00  0.00     0.167 HD
ATOM     55  C   UNL A   1      45.985  26.567  29.542  1.00  0.00     0.074 A 
ATOM     56  C   UNL A   1      46.412  25.227  29.198  1.00  0.00     0.031 C 
ATOM     57  C   UNL A   1      46.794  27.508  30.090  1.00  0.00     0.037 A 
BRANCH  44  58
ATOM     58  C   UNL A   1      44.048  32.951  31.137  1.00  0.00     0.058 A 
ATOM     59  C   UNL A   1      43.984  33.288  32.499  1.00  0.00     0.135 A 
ATOM     60  C   UNL A   1      44.254  33.992  30.216  1.00  0.00     0.135 A 
ATOM     61  F   UNL A   1      43.772  32.336  33.422  1.00  0.00    -0.206 F 
ATOM     62  C   UNL A   1      44.080  34.607  32.930  1.00  0.00     0.059 A 
ATOM     63  C   UNL A   1      44.386  35.316  30.628  1.00  0.00     0.059 A 
ATOM     64  F   UNL A   1      44.324  33.729  28.903  1.00  0.00    -0.206 F 
ATOM     65  C   UNL A   1      44.280  35.615  31.986  1.00  0.00     0.060 A 
BRANCH  65  66
ATOM     66  S   UNL A   1      44.404  37.321  32.562  1.00  0.00     0.124 S 
ATOM     67  O   UNL A   1      44.379  38.056  31.301  1.00  0.00    -0.237 OA
ATOM     68  O   UNL A   1      43.216  37.457  33.397  1.00  0.00    -0.237 OA
ATOM     69  O   UNL A   1      45.677  37.347  33.277  1.00  0.00    -0.744 OA
ENDBRANCH  65  66
ENDBRANCH  44  58
BRANCH  45  70
ATOM     70  C   UNL A   1      42.820  23.648  27.627  1.00  0.00     0.058 A 
ATOM     71  C   UNL A   1      42.498  22.570  28.466  1.00  0.00     0.135 A 
ATOM     72  C   UNL A   1      42.967  23.386  26.256  1.00  0.00     0.135 A 
ATOM     73  F   UNL A   1      42.351  22.769  29.785  1.00  0.00    -0.206 F 
ATOM     74  C   UNL A   1      42.346  21.279  27.972  1.00  0.00     0.059 A 
ATOM     75  C   UNL A   1      42.797  22.106  25.734  1.00  0.00     0.059 A 
ATOM     76  F   UNL A   1      43.258  24.384  25.408  1.00  0.00    -0.206 F 
ATOM     77  C   UNL A   1      42.498  21.057  26.603  1.00  0.00     0.060 A 
BRANCH  77  78
ATOM     78  S   UNL A   1      42.256  19.384  25.966  1.00  0.00     0.124 S 
ATOM     79  O   UNL A   1      43.108  19.394  24.782  1.00  0.00    -0.237 OA
ATOM     80  O   UNL A   1      42.720  18.560  27.078  1.00  0.00    -0.237 OA
ATOM     81  O   UNL A   1      40.819  19.327  25.711  1.00  0.00    -0.744 OA
ENDBRANCH  77  78
ENDBRANCH  45  70
BRANCH  57  82
ATOM     82  C   UNL A   1      48.210  27.110  30.388  1.00  0.00     0.058 A 
ATOM     83  C   UNL A   1      49.256  27.389  29.496  1.00  0.00     0.135 A 
ATOM     84  C   UNL A   1      48.532  26.497  31.610  1.00  0.00     0.135 A 
ATOM     85  F   UNL A   1      48.999  27.969  28.312  1.00  0.00    -0.206 F 
ATOM     86  C   UNL A   1      50.572  27.056  29.797  1.00  0.00     0.059 A 
ATOM     87  C   UNL A   1      49.844  26.179  31.943  1.00  0.00     0.059 A 
ATOM     88  F   UNL A   1      47.567  26.221  32.502  1.00  0.00    -0.206 F 
ATOM     89  C   UNL A   1      50.856  26.453  31.024  1.00  0.00     0.060 A 
BRANCH  89  90
ATOM     90  S   UNL A   1      52.574  26.062  31.421  1.00  0.00     0.124 S 
ATOM     91  O   UNL A   1      52.896  27.110  32.384  1.00  0.00    -0.237 OA
ATOM     92  O   UNL A   1      52.470  24.711  31.965  1.00  0.00    -0.237 OA
ATOM     93  O   UNL A   1      53.250  26.161  30.132  1.00  0.00    -0.744 OA
ENDBRANCH  89  90
ENDBRANCH  57  82
ENDBRANCH  31  32
ENDBRANCH  23  26
ENDBRANCH  21  22
ENDBRANCH  20  21
ENDBRANCH  19  20
ENDBRANCH   1  19
TORSDOF 19
ENDMDL
MODEL 2
REMARK VINA RESULT:     -10.4      3.059      3.883
REMARK SMILES C[C@@H](CCC(=O)NCCCCNC(=O)c1ccc(-c2c3nc(c(-c4c(F)cc(S(=O)(=O)[O-])cc4F)c4ccc([nH]4)c(-c4c(F)cc(S(=O)(=O)[O-])cc4F)c4nc(c(-c5c(F)cc(S(=O)(=O)[O-])cc5F)c5ccc2[nH]5)C=C4)C=C3)cc1)CC[NH+]1CCCCC1
REMARK SMILES IDX 8 1 7 2 5 3 6 4 4 6 3 7 2 8 1 9 81 10 82 11 83 12 84 13
REMARK SMILES IDX 88 14 85 16 87 17 86 18 9 19 10 20 11 21 12 22 13 23 14 25
REMARK SMILES IDX 15 26 16 27 80 28 17 29 79 30 18 31 19 32 20 33 73 34 21 35
REMARK SMILES IDX 78 36 72 37 74 38 22 39 77 40 71 41 70 42 23 44 57 45 36 46
REMARK SMILES IDX 56 47 37 48 40 49 55 50 75 51 38 52 39 53 54 55 76 56 41 57
REMARK SMILES IDX 24 58 25 59 34 60 26 61 27 62 33 63 35 64 28 65 29 66 30 67
REMARK SMILES IDX 31 68 32 69 58 70 59 71 68 72 60 73 61 74 67 75 69 76 62 77
REMARK SMILES IDX 63 78 64 79 65 80 66 81 42 82 43 83 52 84 44 85 45 86 51 87
REMARK SMILES IDX 53 88 46 89 47 90 48 91 49 92 50 93
REMARK H PARENT 7 5 83 15 12 24 74 43 40 54
REMARK Flexibility Score: inf
ROOT
ATOM      1  C   UNL A   1      31.012  26.952  26.094  1.00  0.00     0.116 C 
ENDROOT
BRANCH   1   2
ATOM      2  N   UNL A   1      30.894  25.679  26.780  1.00  0.00    -0.356 N 
ATOM      3  C   UNL A   1      31.602  24.523  26.651  1.00  0.00     0.220 C 
ATOM      4  O   UNL A   1      31.248  23.546  27.312  1.00  0.00    -0.275 OA
ATOM      5  H   UNL A   1      30.179  25.644  27.456  1.00  0.00     0.163 HD
BRANCH   3   6
ATOM      6  C   UNL A   1      32.818  24.459  25.752  1.00  0.00     0.100 C 
BRANCH   6   7
ATOM      7  C   UNL A   1      32.971  23.138  24.975  1.00  0.00     0.013 C 
BRANCH   7   8
ATOM      8  C   UNL A   1      34.235  22.953  24.083  1.00  0.00    -0.008 C 
ATOM      9  C   UNL A   1      33.921  23.243  22.612  1.00  0.00     0.008 C 
BRANCH   8  10
ATOM     10  C   UNL A   1      34.977  21.636  24.429  1.00  0.00     0.065 C 
BRANCH  10  11
ATOM     11  C   UNL A   1      34.365  20.634  25.423  1.00  0.00     0.262 C 
BRANCH  11  12
ATOM     12  N   UNL A   1      33.966  19.271  25.046  1.00  0.00    -0.335 N 
ATOM     13  C   UNL A   1      32.932  19.388  23.988  1.00  0.00     0.262 C 
ATOM     14  C   UNL A   1      35.056  18.391  24.631  1.00  0.00     0.262 C 
ATOM     15  H   UNL A   1      33.603  18.813  25.881  1.00  0.00     0.348 HD
ATOM     16  C   UNL A   1      32.386  18.041  23.527  1.00  0.00     0.062 C 
ATOM     17  C   UNL A   1      34.545  17.007  24.222  1.00  0.00     0.062 C 
ATOM     18  C   UNL A   1      33.514  17.111  23.105  1.00  0.00     0.012 C 
ENDBRANCH  11  12
ENDBRANCH  10  11
ENDBRANCH   8  10
ENDBRANCH   7   8
ENDBRANCH   6   7
ENDBRANCH   3   6
ENDBRANCH   1   2
BRANCH   1  19
ATOM     19  C   UNL A   1      31.730  28.000  26.939  1.00  0.00     0.023 C 
BRANCH  19  20
ATOM     20  C   UNL A   1      33.253  27.926  26.841  1.00  0.00     0.023 C 
BRANCH  20  21
ATOM     21  C   UNL A   1      33.858  29.060  26.038  1.00  0.00     0.116 C 
BRANCH  21  22
ATOM     22  N   UNL A   1      33.694  30.390  26.601  1.00  0.00    -0.352 N 
ATOM     23  C   UNL A   1      34.520  31.046  27.494  1.00  0.00     0.251 C 
ATOM     24  H   UNL A   1      32.895  30.885  26.311  1.00  0.00     0.163 HD
ATOM     25  O   UNL A   1      34.220  32.173  27.882  1.00  0.00    -0.269 OA
BRANCH  23  26
ATOM     26  C   UNL A   1      35.726  30.364  28.036  1.00  0.00     0.039 A 
ATOM     27  C   UNL A   1      36.945  30.492  27.364  1.00  0.00     0.014 A 
ATOM     28  C   UNL A   1      35.684  29.662  29.240  1.00  0.00     0.014 A 
ATOM     29  C   UNL A   1      38.122  30.014  27.954  1.00  0.00     0.010 A 
ATOM     30  C   UNL A   1      36.862  29.320  29.889  1.00  0.00     0.010 A 
ATOM     31  C   UNL A   1      38.098  29.479  29.253  1.00  0.00    -0.014 A 
BRANCH  31  32
ATOM     32  C   UNL A   1      39.330  29.054  29.971  1.00  0.00     0.031 A 
ATOM     33  C   UNL A   1      39.748  29.781  31.227  1.00  0.00     0.074 A 
ATOM     34  C   UNL A   1      40.129  28.105  29.443  1.00  0.00     0.049 A 
ATOM     35  N   UNL A   1      40.860  29.690  31.908  1.00  0.00    -0.248 NA
ATOM     36  C   UNL A   1      38.809  30.788  31.755  1.00  0.00     0.031 C 
ATOM     37  C   UNL A   1      39.881  27.381  28.193  1.00  0.00     0.029 A 
ATOM     38  N   UNL A   1      41.324  27.592  29.884  1.00  0.00    -0.354 N 
ATOM     39  C   UNL A   1      40.773  30.653  32.907  1.00  0.00     0.074 A 
ATOM     40  C   UNL A   1      39.531  31.363  32.705  1.00  0.00     0.031 C 
ATOM     41  C   UNL A   1      40.870  26.497  27.988  1.00  0.00     0.029 A 
ATOM     42  C   UNL A   1      41.846  26.617  29.065  1.00  0.00     0.049 A 
ATOM     43  H   UNL A   1      41.767  27.894  30.710  1.00  0.00     0.167 HD
ATOM     44  C   UNL A   1      41.632  30.902  33.925  1.00  0.00     0.037 A 
ATOM     45  C   UNL A   1      42.986  25.905  29.170  1.00  0.00     0.037 A 
ATOM     46  C   UNL A   1      42.825  30.137  34.165  1.00  0.00     0.049 A 
ATOM     47  C   UNL A   1      43.890  26.150  30.347  1.00  0.00     0.074 A 
ATOM     48  C   UNL A   1      43.720  30.243  35.216  1.00  0.00     0.029 A 
ATOM     49  N   UNL A   1      43.280  29.109  33.351  1.00  0.00    -0.354 N 
ATOM     50  N   UNL A   1      43.762  27.027  31.317  1.00  0.00    -0.248 NA
ATOM     51  C   UNL A   1      45.091  25.310  30.452  1.00  0.00     0.031 C 
ATOM     52  C   UNL A   1      44.731  29.295  35.022  1.00  0.00     0.029 A 
ATOM     53  C   UNL A   1      44.445  28.575  33.873  1.00  0.00     0.049 A 
ATOM     54  H   UNL A   1      42.840  28.806  32.524  1.00  0.00     0.167 HD
ATOM     55  C   UNL A   1      44.849  26.823  32.159  1.00  0.00     0.074 A 
ATOM     56  C   UNL A   1      45.618  25.734  31.591  1.00  0.00     0.031 C 
ATOM     57  C   UNL A   1      45.183  27.479  33.298  1.00  0.00     0.037 A 
BRANCH  44  58
ATOM     58  C   UNL A   1      41.293  32.025  34.868  1.00  0.00     0.058 A 
ATOM     59  C   UNL A   1      41.794  33.323  34.679  1.00  0.00     0.135 A 
ATOM     60  C   UNL A   1      40.440  31.807  35.962  1.00  0.00     0.135 A 
ATOM     61  F   UNL A   1      42.628  33.585  33.659  1.00  0.00    -0.206 F 
ATOM     62  C   UNL A   1      41.495  34.357  35.562  1.00  0.00     0.059 A 
ATOM     63  C   UNL A   1      40.101  32.834  36.840  1.00  0.00     0.059 A 
ATOM     64  F   UNL A   1      39.932  30.588  36.191  1.00  0.00    -0.206 F 
ATOM     65  C   UNL A   1      40.649  34.101  36.641  1.00  0.00     0.060 A 
BRANCH  65  66
ATOM     66  S   UNL A   1      40.269  35.452  37.776  1.00  0.00     0.124 S 
ATOM     67  O   UNL A   1      41.467  35.476  38.610  1.00  0.00    -0.237 OA
ATOM     68  O   UNL A   1      40.107  36.585  36.870  1.00  0.00    -0.237 OA
ATOM     69  O   UNL A   1      39.050  35.005  38.442  1.00  0.00    -0.744 OA
ENDBRANCH  65  66
ENDBRANCH  44  58
BRANCH  45  70
ATOM     70  C   UNL A   1      43.312  24.864  28.158  1.00  0.00     0.058 A 
ATOM     71  C   UNL A   1      44.020  25.195  26.993  1.00  0.00     0.135 A 
ATOM     72  C   UNL A   1      42.939  23.523  28.336  1.00  0.00     0.135 A 
ATOM     73  F   UNL A   1      44.396  26.465  26.776  1.00  0.00    -0.206 F 
ATOM     74  C   UNL A   1      44.330  24.240  26.030  1.00  0.00     0.059 A 
ATOM     75  C   UNL A   1      43.258  22.544  27.398  1.00  0.00     0.059 A 
ATOM     76  F   UNL A   1      42.276  23.150  29.441  1.00  0.00    -0.206 F 
ATOM     77  C   UNL A   1      43.944  22.916  26.242  1.00  0.00     0.060 A 
BRANCH  77  78
ATOM     78  S   UNL A   1      44.389  21.677  25.004  1.00  0.00     0.124 S 
ATOM     79  O   UNL A   1      45.767  21.376  25.373  1.00  0.00    -0.237 OA
ATOM     80  O   UNL A   1      43.414  20.622  25.259  1.00  0.00    -0.237 OA
ATOM     81  O   UNL A   1      44.214  22.389  23.741  1.00  0.00    -0.744 OA
ENDBRANCH  77  78
ENDBRANCH  45  70
BRANCH  57  82
ATOM     82  C   UNL A   1      46.409  27.013  34.028  1.00  0.00     0.058 A 
ATOM     83  C   UNL A   1      46.351  25.989  34.986  1.00  0.00     0.135 A 
ATOM     84  C   UNL A   1      47.667  27.554  33.717  1.00  0.00     0.135 A 
ATOM     85  F   UNL A   1      45.171  25.443  35.321  1.00  0.00    -0.206 F 
ATOM     86  C   UNL A   1      47.497  25.532  35.627  1.00  0.00     0.059 A 
ATOM     87  C   UNL A   1      48.829  27.095  34.327  1.00  0.00     0.059 A 
ATOM     88  F   UNL A   1      47.776  28.526  32.798  1.00  0.00    -0.206 F 
ATOM     89  C   UNL A   1      48.732  26.090  35.289  1.00  0.00     0.060 A 
BRANCH  89  90
ATOM     90  S   UNL A   1      50.217  25.460  36.098  1.00  0.00     0.124 S 
ATOM     91  O   UNL A   1      50.043  25.959  37.458  1.00  0.00    -0.237 OA
ATOM     92  O   UNL A   1      50.077  24.016  35.929  1.00  0.00    -0.237 OA
ATOM     93  O   UNL A   1      51.303  26.070  35.337  1.00  0.00    -0.744 OA
ENDBRANCH  89  90
ENDBRANCH  57  82
ENDBRANCH  31  32
ENDBRANCH  23  26
ENDBRANCH  21  22
ENDBRANCH  20  21
ENDBRANCH  19  20
ENDBRANCH   1  19
TORSDOF 19
ENDMDL
MODEL 3
REMARK VINA RESULT:     -10.3      3.121      4.195
REMARK SMILES C[C@@H](CCC(=O)NCCCCNC(=O)c1ccc(-c2c3nc(c(-c4c(F)cc(S(=O)(=O)[O-])cc4F)c4ccc([nH]4)c(-c4c(F)cc(S(=O)(=O)[O-])cc4F)c4nc(c(-c5c(F)cc(S(=O)(=O)[O-])cc5F)c5ccc2[nH]5)C=C4)C=C3)cc1)CC[NH+]1CCCCC1
REMARK SMILES IDX 8 1 7 2 5 3 6 4 4 6 3 7 2 8 1 9 81 10 82 11 83 12 84 13
REMARK SMILES IDX 88 14 85 16 87 17 86 18 9 19 10 20 11 21 12 22 13 23 14 25
REMARK SMILES IDX 15 26 16 27 80 28 17 29 79 30 18 31 19 32 20 33 73 34 21 35
REMARK SMILES IDX 78 36 72 37 74 38 22 39 77 40 71 41 70 42 23 44 57 45 36 46
REMARK SMILES IDX 56 47 37 48 40 49 55 50 75 51 38 52 39 53 54 55 76 56 41 57
REMARK SMILES IDX 24 58 25 59 34 60 26 61 27 62 33 63 35 64 28 65 29 66 30 67
REMARK SMILES IDX 31 68 32 69 58 70 59 71 68 72 60 73 61 74 67 75 69 76 62 77
REMARK SMILES IDX 63 78 64 79 65 80 66 81 42 82 43 83 52 84 44 85 45 86 51 87
REMARK SMILES IDX 53 88 46 89 47 90 48 91 49 92 50 93
REMARK H PARENT 7 5 83 15 12 24 74 43 40 54
REMARK Flexibility Score: inf
ROOT
ATOM      1  C   UNL A   1      31.939  26.116  24.706  1.00  0.00     0.116 C 
ENDROOT
BRANCH   1   2
ATOM      2  N   UNL A   1      32.410  26.021  23.336  1.00  0.00    -0.356 N 
ATOM      3  C   UNL A   1      33.476  25.367  22.799  1.00  0.00     0.220 C 
ATOM      4  O   UNL A   1      33.701  25.508  21.597  1.00  0.00    -0.275 OA
ATOM      5  H   UNL A   1      31.863  26.514  22.682  1.00  0.00     0.163 HD
BRANCH   3   6
ATOM      6  C   UNL A   1      34.332  24.455  23.652  1.00  0.00     0.100 C 
BRANCH   6   7
ATOM      7  C   UNL A   1      33.937  22.967  23.595  1.00  0.00     0.013 C 
BRANCH   7   8
ATOM      8  C   UNL A   1      33.847  22.179  24.934  1.00  0.00    -0.008 C 
ATOM      9  C   UNL A   1      33.644  23.127  26.121  1.00  0.00     0.008 C 
BRANCH   8  10
ATOM     10  C   UNL A   1      34.966  21.110  25.034  1.00  0.00     0.065 C 
BRANCH  10  11
ATOM     11  C   UNL A   1      36.431  21.489  24.762  1.00  0.00     0.262 C 
BRANCH  11  12
ATOM     12  N   UNL A   1      37.295  22.126  25.767  1.00  0.00    -0.335 N 
ATOM     13  C   UNL A   1      38.641  21.514  25.646  1.00  0.00     0.262 C 
ATOM     14  C   UNL A   1      37.364  23.583  25.701  1.00  0.00     0.262 C 
ATOM     15  H   UNL A   1      36.882  21.954  26.682  1.00  0.00     0.348 HD
ATOM     16  C   UNL A   1      39.641  22.048  26.665  1.00  0.00     0.062 C 
ATOM     17  C   UNL A   1      38.312  24.156  26.757  1.00  0.00     0.062 C 
ATOM     18  C   UNL A   1      39.711  23.567  26.616  1.00  0.00     0.012 C 
ENDBRANCH  11  12
ENDBRANCH  10  11
ENDBRANCH   8  10
ENDBRANCH   7   8
ENDBRANCH   6   7
ENDBRANCH   3   6
ENDBRANCH   1   2
BRANCH   1  19
ATOM     19  C   UNL A   1      32.984  26.725  25.636  1.00  0.00     0.023 C 
BRANCH  19  20
ATOM     20  C   UNL A   1      32.659  28.155  26.067  1.00  0.00     0.023 C 
BRANCH  20  21
ATOM     21  C   UNL A   1      33.860  29.079  26.033  1.00  0.00     0.116 C 
BRANCH  21  22
ATOM     22  N   UNL A   1      33.665  30.390  26.631  1.00  0.00    -0.352 N 
ATOM     23  C   UNL A   1      34.472  31.038  27.547  1.00  0.00     0.251 C 
ATOM     24  H   UNL A   1      32.857  30.876  26.349  1.00  0.00     0.163 HD
ATOM     25  O   UNL A   1      34.145  32.148  27.963  1.00  0.00    -0.269 OA
BRANCH  23  26
ATOM     26  C   UNL A   1      35.688  30.367  28.078  1.00  0.00     0.039 A 
ATOM     27  C   UNL A   1      36.903  30.519  27.404  1.00  0.00     0.014 A 
ATOM     28  C   UNL A   1      35.659  29.652  29.275  1.00  0.00     0.014 A 
ATOM     29  C   UNL A   1      38.088  30.051  27.986  1.00  0.00     0.010 A 
ATOM     30  C   UNL A   1      36.843  29.319  29.917  1.00  0.00     0.010 A 
ATOM     31  C   UNL A   1      38.076  29.501  29.279  1.00  0.00    -0.014 A 
BRANCH  31  32
ATOM     32  C   UNL A   1      39.315  29.087  29.989  1.00  0.00     0.031 A 
ATOM     33  C   UNL A   1      39.737  29.818  31.240  1.00  0.00     0.074 A 
ATOM     34  C   UNL A   1      40.117  28.141  29.457  1.00  0.00     0.049 A 
ATOM     35  N   UNL A   1      40.855  29.735  31.914  1.00  0.00    -0.248 NA
ATOM     36  C   UNL A   1      38.796  30.820  31.773  1.00  0.00     0.031 C 
ATOM     37  C   UNL A   1      39.864  27.413  28.210  1.00  0.00     0.029 A 
ATOM     38  N   UNL A   1      41.318  27.637  29.890  1.00  0.00    -0.354 N 
ATOM     39  C   UNL A   1      40.769  30.700  32.912  1.00  0.00     0.074 A 
ATOM     40  C   UNL A   1      39.521  31.402  32.717  1.00  0.00     0.031 C 
ATOM     41  C   UNL A   1      40.858  26.535  28.000  1.00  0.00     0.029 A 
ATOM     42  C   UNL A   1      41.841  26.664  29.070  1.00  0.00     0.049 A 
ATOM     43  H   UNL A   1      41.764  27.943  30.713  1.00  0.00     0.167 HD
ATOM     44  C   UNL A   1      41.633  30.957  33.923  1.00  0.00     0.037 A 
ATOM     45  C   UNL A   1      42.985  25.959  29.168  1.00  0.00     0.037 A 
ATOM     46  C   UNL A   1      42.833  30.200  34.156  1.00  0.00     0.049 A 
ATOM     47  C   UNL A   1      43.897  26.213  30.338  1.00  0.00     0.074 A 
ATOM     48  C   UNL A   1      43.734  30.313  35.200  1.00  0.00     0.029 A 
ATOM     49  N   UNL A   1      43.289  29.173  33.341  1.00  0.00    -0.354 N 
ATOM     50  N   UNL A   1      43.769  27.090  31.307  1.00  0.00    -0.248 NA
ATOM     51  C   UNL A   1      45.104  25.380  30.436  1.00  0.00     0.031 C 
ATOM     52  C   UNL A   1      44.750  29.372  35.001  1.00  0.00     0.029 A 
ATOM     53  C   UNL A   1      44.461  28.648  33.855  1.00  0.00     0.049 A 
ATOM     54  H   UNL A   1      42.845  28.865  32.517  1.00  0.00     0.167 HD
ATOM     55  C   UNL A   1      44.864  26.895  32.141  1.00  0.00     0.074 A 
ATOM     56  C   UNL A   1      45.636  25.810  31.571  1.00  0.00     0.031 C 
ATOM     57  C   UNL A   1      45.201  27.555  33.277  1.00  0.00     0.037 A 
BRANCH  44  58
ATOM     58  C   UNL A   1      41.294  32.079  34.866  1.00  0.00     0.058 A 
ATOM     59  C   UNL A   1      40.459  31.881  35.978  1.00  0.00     0.135 A 
ATOM     60  C   UNL A   1      41.824  33.365  34.668  1.00  0.00     0.135 A 
ATOM     61  F   UNL A   1      39.910  30.678  36.206  1.00  0.00    -0.206 F 
ATOM     62  C   UNL A   1      40.131  32.924  36.839  1.00  0.00     0.059 A 
ATOM     63  C   UNL A   1      41.536  34.416  35.535  1.00  0.00     0.059 A 
ATOM     64  F   UNL A   1      42.627  33.612  33.623  1.00  0.00    -0.206 F 
ATOM     65  C   UNL A   1      40.673  34.189  36.607  1.00  0.00     0.060 A 
BRANCH  65  66
ATOM     66  S   UNL A   1      40.239  35.530  37.734  1.00  0.00     0.124 S 
ATOM     67  O   UNL A   1      39.934  36.608  36.799  1.00  0.00    -0.237 OA
ATOM     68  O   UNL A   1      39.097  34.977  38.454  1.00  0.00    -0.237 OA
ATOM     69  O   UNL A   1      41.450  35.713  38.529  1.00  0.00    -0.744 OA
ENDBRANCH  65  66
ENDBRANCH  44  58
BRANCH  45  70
ATOM     70  C   UNL A   1      43.312  24.918  28.156  1.00  0.00     0.058 A 
ATOM     71  C   UNL A   1      44.002  25.253  26.981  1.00  0.00     0.135 A 
ATOM     72  C   UNL A   1      42.955  23.574  28.342  1.00  0.00     0.135 A 
ATOM     73  F   UNL A   1      44.362  26.526  26.755  1.00  0.00    -0.206 F 
ATOM     74  C   UNL A   1      44.311  24.299  26.017  1.00  0.00     0.059 A 
ATOM     75  C   UNL A   1      43.274  22.596  27.403  1.00  0.00     0.059 A 
ATOM     76  F   UNL A   1      42.309  23.198  29.456  1.00  0.00    -0.206 F 
ATOM     77  C   UNL A   1      43.942  22.971  26.238  1.00  0.00     0.060 A 
BRANCH  77  78
ATOM     78  S   UNL A   1      44.386  21.733  25.000  1.00  0.00     0.124 S 
ATOM     79  O   UNL A   1      45.785  21.481  25.325  1.00  0.00    -0.237 OA
ATOM     80  O   UNL A   1      43.456  20.649  25.299  1.00  0.00    -0.237 OA
ATOM     81  O   UNL A   1      44.145  22.423  23.735  1.00  0.00    -0.744 OA
ENDBRANCH  77  78
ENDBRANCH  45  70
BRANCH  57  82
ATOM     82  C   UNL A   1      46.436  27.098  33.999  1.00  0.00     0.058 A 
ATOM     83  C   UNL A   1      46.380  26.127  35.010  1.00  0.00     0.135 A 
ATOM     84  C   UNL A   1      47.697  27.593  33.630  1.00  0.00     0.135 A 
ATOM     85  F   UNL A   1      45.198  25.626  35.402  1.00  0.00    -0.206 F 
ATOM     86  C   UNL A   1      47.532  25.676  35.645  1.00  0.00     0.059 A 
ATOM     87  C   UNL A   1      48.864  27.139  34.233  1.00  0.00     0.059 A 
ATOM     88  F   UNL A   1      47.803  28.514  32.658  1.00  0.00    -0.206 F 
ATOM     89  C   UNL A   1      48.770  26.187  35.248  1.00  0.00     0.060 A 
BRANCH  89  90
ATOM     90  S   UNL A   1      50.262  25.564  36.051  1.00  0.00     0.124 S 
ATOM     91  O   UNL A   1      51.273  25.822  35.031  1.00  0.00    -0.237 OA
ATOM     92  O   UNL A   1      50.343  26.396  37.248  1.00  0.00    -0.237 OA
ATOM     93  O   UNL A   1      49.955  24.158  36.292  1.00  0.00    -0.744 OA
ENDBRANCH  89  90
ENDBRANCH  57  82
ENDBRANCH  31  32
ENDBRANCH  23  26
ENDBRANCH  21  22
ENDBRANCH  20  21
ENDBRANCH  19  20
ENDBRANCH   1  19
TORSDOF 19
ENDMDL
