MODEL 1
REMARK VINA RESULT:     -12.3      0.000      0.000
REMARK SMILES COc1cc(Nc2cn[nH]c(=O)n2)c(C(=O)NCCCCNC(=O)c2ccc(-c3c4nc(c(-c5c(F)cc(S(=O)(=O)[O-])cc5F)c5ccc([nH]5)c(-c5c(F)cc(S(=O)(=O)[O-])cc5F)c5nc(c(-c6c(F)cc(S(=O)(=O)[O-])cc6F)c6ccc3[nH]6)C=C5)C=C4)cc2)cc1OC
REMARK SMILES IDX 20 1 19 2 18 3 17 4 15 5 16 6 14 8 3 9 4 10 92 11 5 12 91 13
REMARK SMILES IDX 2 14 1 15 93 16 94 17 6 18 7 20 8 21 13 22 9 23 11 24 10 25
REMARK SMILES IDX 12 26 21 28 22 29 23 30 24 32 25 33 26 34 90 35 27 36 89 37
REMARK SMILES IDX 28 38 29 39 30 40 83 41 31 42 88 43 82 44 84 45 32 46 87 47
REMARK SMILES IDX 81 48 80 49 33 51 67 52 46 53 66 54 47 55 50 56 65 57 85 58
REMARK SMILES IDX 48 59 49 60 64 62 86 63 51 64 34 65 35 66 44 67 36 68 37 69
REMARK SMILES IDX 43 70 45 71 38 72 39 73 40 74 41 75 42 76 68 77 69 78 78 79
REMARK SMILES IDX 70 80 71 81 77 82 79 83 72 84 73 85 74 86 75 87 76 88 52 89
REMARK SMILES IDX 53 90 62 91 54 92 55 93 61 94 63 95 56 96 57 97 58 98 59 99
REMARK SMILES IDX 60 100
REMARK H PARENT 17 7 6 19 10 27 22 31 84 50 50 61
REMARK Flexibility Score: inf
ROOT
ATOM      1  C   UNL A   1      40.130  21.939  26.510  1.00  0.00     0.023 C 
ENDROOT
BRANCH   1   2
ATOM      2  C   UNL A   1      38.726  21.589  26.011  1.00  0.00     0.023 C 
BRANCH   2   3
ATOM      3  C   UNL A   1      37.803  22.794  25.806  1.00  0.00     0.116 C 
BRANCH   3   4
ATOM      4  N   UNL A   1      37.535  22.990  24.393  1.00  0.00    -0.352 N 
ATOM      5  C   UNL A   1      36.399  22.849  23.638  1.00  0.00     0.253 C 
ATOM      6  O   UNL A   1      36.493  23.079  22.427  1.00  0.00    -0.269 OA
ATOM      7  H   UNL A   1      38.321  23.282  23.876  1.00  0.00     0.163 HD
BRANCH   5   8
ATOM      8  C   UNL A   1      35.052  22.482  24.189  1.00  0.00     0.067 A 
ATOM      9  C   UNL A   1      32.508  21.819  25.209  1.00  0.00     0.162 A 
ATOM     10  C   UNL A   1      32.754  23.103  24.706  1.00  0.00     0.077 A 
ATOM     11  C   UNL A   1      33.509  20.852  25.158  1.00  0.00     0.161 A 
ATOM     12  C   UNL A   1      34.007  23.449  24.164  1.00  0.00     0.057 A 
ATOM     13  C   UNL A   1      34.757  21.188  24.629  1.00  0.00     0.066 A 
BRANCH   9  14
ATOM     14  O   UNL A   1      31.245  21.473  25.607  1.00  0.00    -0.493 OA
ATOM     15  C   UNL A   1      30.548  22.562  26.211  1.00  0.00     0.278 C 
ENDBRANCH   9  14
BRANCH  11  16
ATOM     16  O   UNL A   1      33.402  19.538  25.526  1.00  0.00    -0.493 OA
ATOM     17  C   UNL A   1      33.566  18.588  24.479  1.00  0.00     0.278 C 
ENDBRANCH  11  16
BRANCH  12  18
ATOM     18  N   UNL A   1      34.226  24.715  23.562  1.00  0.00    -0.338 N 
ATOM     19  H   UNL A   1      35.098  25.137  23.732  1.00  0.00     0.168 HD
BRANCH  18  20
ATOM     20  C   UNL A   1      33.351  25.415  22.767  1.00  0.00     0.156 A 
ATOM     21  C   UNL A   1      32.623  26.558  23.439  1.00  0.00     0.180 A 
ATOM     22  N   UNL A   1      33.131  25.155  21.517  1.00  0.00    -0.173 NA
ATOM     23  N   UNL A   1      31.777  27.300  22.805  1.00  0.00    -0.176 NA
ATOM     24  C   UNL A   1      32.200  25.904  20.845  1.00  0.00     0.363 A 
ATOM     25  N   UNL A   1      31.584  26.947  21.505  1.00  0.00    -0.227 N 
ATOM     26  O   UNL A   1      31.898  25.678  19.675  1.00  0.00    -0.244 OA
ATOM     27  H   UNL A   1      30.945  27.488  20.986  1.00  0.00     0.195 HD
ENDBRANCH  18  20
ENDBRANCH  12  18
ENDBRANCH   5   8
ENDBRANCH   3   4
ENDBRANCH   2   3
ENDBRANCH   1   2
BRANCH   1  28
ATOM     28  C   UNL A   1      40.322  23.396  26.920  1.00  0.00     0.116 C 
BRANCH  28  29
ATOM     29  N   UNL A   1      41.028  24.182  25.921  1.00  0.00    -0.352 N 
ATOM     30  C   UNL A   1      41.450  25.485  25.986  1.00  0.00     0.251 C 
ATOM     31  H   UNL A   1      41.233  23.711  25.081  1.00  0.00     0.163 HD
ATOM     32  O   UNL A   1      41.946  26.009  24.991  1.00  0.00    -0.269 OA
BRANCH  30  33
ATOM     33  C   UNL A   1      41.269  26.269  27.228  1.00  0.00     0.039 A 
ATOM     34  C   UNL A   1      42.160  27.313  27.486  1.00  0.00     0.014 A 
ATOM     35  C   UNL A   1      40.244  25.984  28.133  1.00  0.00     0.014 A 
ATOM     36  C   UNL A   1      41.991  28.103  28.624  1.00  0.00     0.010 A 
ATOM     37  C   UNL A   1      40.036  26.814  29.234  1.00  0.00     0.010 A 
ATOM     38  C   UNL A   1      40.909  27.879  29.492  1.00  0.00    -0.014 A 
BRANCH  38  39
ATOM     39  C   UNL A   1      40.689  28.768  30.661  1.00  0.00     0.031 A 
ATOM     40  C   UNL A   1      41.516  28.615  31.908  1.00  0.00     0.074 A 
ATOM     41  C   UNL A   1      39.710  29.693  30.605  1.00  0.00     0.049 A 
ATOM     42  N   UNL A   1      41.485  29.324  33.008  1.00  0.00    -0.248 NA
ATOM     43  C   UNL A   1      42.487  27.508  31.939  1.00  0.00     0.031 C 
ATOM     44  C   UNL A   1      38.786  29.881  29.482  1.00  0.00     0.029 A 
ATOM     45  N   UNL A   1      39.328  30.649  31.510  1.00  0.00    -0.354 N 
ATOM     46  C   UNL A   1      42.413  28.743  33.863  1.00  0.00     0.074 A 
ATOM     47  C   UNL A   1      42.963  27.596  33.173  1.00  0.00     0.031 C 
ATOM     48  C   UNL A   1      37.964  30.908  29.756  1.00  0.00     0.029 A 
ATOM     49  C   UNL A   1      38.289  31.439  31.075  1.00  0.00     0.049 A 
ATOM     50  H   UNL A   1      39.756  30.759  32.391  1.00  0.00     0.167 HD
ATOM     51  C   UNL A   1      42.789  29.144  35.100  1.00  0.00     0.037 A 
ATOM     52  C   UNL A   1      37.677  32.481  31.668  1.00  0.00     0.037 A 
ATOM     53  C   UNL A   1      42.274  30.314  35.761  1.00  0.00     0.049 A 
ATOM     54  C   UNL A   1      38.162  32.944  33.015  1.00  0.00     0.074 A 
ATOM     55  C   UNL A   1      42.666  30.863  36.971  1.00  0.00     0.029 A 
ATOM     56  N   UNL A   1      41.257  31.118  35.271  1.00  0.00    -0.354 N 
ATOM     57  N   UNL A   1      39.119  32.447  33.762  1.00  0.00    -0.248 NA
ATOM     58  C   UNL A   1      37.497  34.121  33.591  1.00  0.00     0.031 C 
ATOM     59  C   UNL A   1      41.860  31.976  37.229  1.00  0.00     0.029 A 
ATOM     60  C   UNL A   1      40.992  32.144  36.162  1.00  0.00     0.049 A 
ATOM     61  H   UNL A   1      40.790  30.977  34.415  1.00  0.00     0.167 HD
ATOM     62  C   UNL A   1      39.187  33.265  34.885  1.00  0.00     0.074 A 
ATOM     63  C   UNL A   1      38.189  34.300  34.707  1.00  0.00     0.031 C 
ATOM     64  C   UNL A   1      39.998  33.167  35.968  1.00  0.00     0.037 A 
BRANCH  51  65
ATOM     65  C   UNL A   1      43.822  28.324  35.824  1.00  0.00     0.058 A 
ATOM     66  C   UNL A   1      45.196  28.569  35.672  1.00  0.00     0.135 A 
ATOM     67  C   UNL A   1      43.430  27.331  36.737  1.00  0.00     0.135 A 
ATOM     68  F   UNL A   1      45.625  29.494  34.800  1.00  0.00    -0.206 F 
ATOM     69  C   UNL A   1      46.146  27.849  36.389  1.00  0.00     0.059 A 
ATOM     70  C   UNL A   1      44.363  26.615  37.483  1.00  0.00     0.059 A 
ATOM     71  F   UNL A   1      42.130  27.055  36.918  1.00  0.00    -0.206 F 
ATOM     72  C   UNL A   1      45.720  26.878  37.296  1.00  0.00     0.060 A 
BRANCH  72  73
ATOM     73  S   UNL A   1      46.965  25.981  38.248  1.00  0.00     0.124 S 
ATOM     74  O   UNL A   1      47.452  27.025  39.144  1.00  0.00    -0.237 OA
ATOM     75  O   UNL A   1      46.178  24.925  38.876  1.00  0.00    -0.237 OA
ATOM     76  O   UNL A   1      47.912  25.533  37.232  1.00  0.00    -0.744 OA
ENDBRANCH  72  73
ENDBRANCH  51  65
BRANCH  52  77
ATOM     77  C   UNL A   1      36.558  33.183  30.986  1.00  0.00     0.058 A 
ATOM     78  C   UNL A   1      36.799  34.050  29.909  1.00  0.00     0.135 A 
ATOM     79  C   UNL A   1      35.231  33.019  31.410  1.00  0.00     0.135 A 
ATOM     80  F   UNL A   1      38.053  34.239  29.468  1.00  0.00    -0.206 F 
ATOM     81  C   UNL A   1      35.769  34.759  29.300  1.00  0.00     0.059 A 
ATOM     82  C   UNL A   1      34.181  33.699  30.801  1.00  0.00     0.059 A 
ATOM     83  F   UNL A   1      34.946  32.184  32.421  1.00  0.00    -0.206 F 
ATOM     84  C   UNL A   1      34.463  34.581  29.758  1.00  0.00     0.060 A 
BRANCH  84  85
ATOM     85  S   UNL A   1      33.127  35.493  28.955  1.00  0.00     0.124 S 
ATOM     86  O   UNL A   1      32.365  35.967  30.105  1.00  0.00    -0.237 OA
ATOM     87  O   UNL A   1      33.853  36.513  28.206  1.00  0.00    -0.237 OA
ATOM     88  O   UNL A   1      32.473  34.474  28.138  1.00  0.00    -0.744 OA
ENDBRANCH  84  85
ENDBRANCH  52  77
BRANCH  64  89
ATOM     89  C   UNL A   1      39.852  34.225  37.025  1.00  0.00     0.058 A 
ATOM     90  C   UNL A   1      39.136  33.988  38.208  1.00  0.00     0.135 A 
ATOM     91  C   UNL A   1      40.440  35.488  36.853  1.00  0.00     0.135 A 
ATOM     92  F   UNL A   1      38.552  32.797  38.418  1.00  0.00    -0.206 F 
ATOM     93  C   UNL A   1      38.970  34.982  39.167  1.00  0.00     0.059 A 
ATOM     94  C   UNL A   1      40.309  36.488  37.811  1.00  0.00     0.059 A 
ATOM     95  F   UNL A   1      41.147  35.761  35.745  1.00  0.00    -0.206 F 
ATOM     96  C   UNL A   1      39.553  36.232  38.955  1.00  0.00     0.060 A 
BRANCH  96  97
ATOM     97  S   UNL A   1      39.325  37.521  40.199  1.00  0.00     0.124 S 
ATOM     98  O   UNL A   1      40.700  37.948  40.431  1.00  0.00    -0.237 OA
ATOM     99  O   UNL A   1      38.471  38.481  39.508  1.00  0.00    -0.237 OA
ATOM    100  O   UNL A   1      38.690  36.811  41.306  1.00  0.00    -0.744 OA
ENDBRANCH  96  97
ENDBRANCH  64  89
ENDBRANCH  38  39
ENDBRANCH  30  33
ENDBRANCH  28  29
ENDBRANCH   1  28
TORSDOF 18
ENDMDL
MODEL 2
REMARK VINA RESULT:     -12.1      1.631      3.014
REMARK SMILES COc1cc(Nc2cn[nH]c(=O)n2)c(C(=O)NCCCCNC(=O)c2ccc(-c3c4nc(c(-c5c(F)cc(S(=O)(=O)[O-])cc5F)c5ccc([nH]5)c(-c5c(F)cc(S(=O)(=O)[O-])cc5F)c5nc(c(-c6c(F)cc(S(=O)(=O)[O-])cc6F)c6ccc3[nH]6)C=C5)C=C4)cc2)cc1OC
REMARK SMILES IDX 20 1 19 2 18 3 17 4 15 5 16 6 14 8 3 9 4 10 92 11 5 12 91 13
REMARK SMILES IDX 2 14 1 15 93 16 94 17 6 18 7 20 8 21 13 22 9 23 11 24 10 25
REMARK SMILES IDX 12 26 21 28 22 29 23 30 24 32 25 33 26 34 90 35 27 36 89 37
REMARK SMILES IDX 28 38 29 39 30 40 83 41 31 42 88 43 82 44 84 45 32 46 87 47
REMARK SMILES IDX 81 48 80 49 33 51 67 52 46 53 66 54 47 55 50 56 65 57 85 58
REMARK SMILES IDX 48 59 49 60 64 62 86 63 51 64 34 65 35 66 44 67 36 68 37 69
REMARK SMILES IDX 43 70 45 71 38 72 39 73 40 74 41 75 42 76 68 77 69 78 78 79
REMARK SMILES IDX 70 80 71 81 77 82 79 83 72 84 73 85 74 86 75 87 76 88 52 89
REMARK SMILES IDX 53 90 62 91 54 92 55 93 61 94 63 95 56 96 57 97 58 98 59 99
REMARK SMILES IDX 60 100
REMARK H PARENT 17 7 6 19 10 27 22 31 84 50 50 61
REMARK Flexibility Score: inf
ROOT
ATOM      1  C   UNL A   1      39.105  22.869  26.454  1.00  0.00     0.023 C 
ENDROOT
BRANCH   1   2
ATOM      2  C   UNL A   1      38.095  23.943  26.042  1.00  0.00     0.023 C 
BRANCH   2   3
ATOM      3  C   UNL A   1      36.638  23.472  26.014  1.00  0.00     0.116 C 
BRANCH   3   4
ATOM      4  N   UNL A   1      36.104  23.559  24.667  1.00  0.00    -0.352 N 
ATOM      5  C   UNL A   1      34.823  23.568  24.178  1.00  0.00     0.253 C 
ATOM      6  O   UNL A   1      34.687  23.637  22.952  1.00  0.00    -0.269 OA
ATOM      7  H   UNL A   1      36.796  23.625  23.969  1.00  0.00     0.163 HD
BRANCH   5   8
ATOM      8  C   UNL A   1      33.588  23.548  25.031  1.00  0.00     0.067 A 
ATOM      9  C   UNL A   1      31.274  23.481  26.641  1.00  0.00     0.162 A 
ATOM     10  C   UNL A   1      31.893  22.288  26.245  1.00  0.00     0.077 A 
ATOM     11  C   UNL A   1      31.834  24.704  26.281  1.00  0.00     0.161 A 
ATOM     12  C   UNL A   1      33.066  22.297  25.466  1.00  0.00     0.057 A 
ATOM     13  C   UNL A   1      32.993  24.722  25.502  1.00  0.00     0.066 A 
BRANCH   9  14
ATOM     14  O   UNL A   1      30.214  23.444  27.506  1.00  0.00    -0.493 OA
ATOM     15  C   UNL A   1      29.212  22.513  27.098  1.00  0.00     0.278 C 
ENDBRANCH   9  14
BRANCH  11  16
ATOM     16  O   UNL A   1      31.403  25.947  26.658  1.00  0.00    -0.493 OA
ATOM     17  C   UNL A   1      31.594  26.984  25.701  1.00  0.00     0.278 C 
ENDBRANCH  11  16
BRANCH  12  18
ATOM     18  N   UNL A   1      33.751  21.094  25.150  1.00  0.00    -0.338 N 
ATOM     19  H   UNL A   1      34.728  21.101  25.265  1.00  0.00     0.168 HD
BRANCH  18  20
ATOM     20  C   UNL A   1      33.195  19.921  24.701  1.00  0.00     0.156 A 
ATOM     21  C   UNL A   1      32.837  18.912  25.769  1.00  0.00     0.180 A 
ATOM     22  N   UNL A   1      32.970  19.648  23.454  1.00  0.00    -0.173 NA
ATOM     23  N   UNL A   1      32.305  17.770  25.485  1.00  0.00    -0.176 NA
ATOM     24  C   UNL A   1      32.450  18.422  23.134  1.00  0.00     0.363 A 
ATOM     25  N   UNL A   1      32.122  17.552  24.154  1.00  0.00    -0.227 N 
ATOM     26  O   UNL A   1      32.263  18.072  21.971  1.00  0.00    -0.244 OA
ATOM     27  H   UNL A   1      31.720  16.692  23.894  1.00  0.00     0.195 HD
ENDBRANCH  18  20
ENDBRANCH  12  18
ENDBRANCH   5   8
ENDBRANCH   3   4
ENDBRANCH   2   3
ENDBRANCH   1   2
BRANCH   1  28
ATOM     28  C   UNL A   1      40.443  23.404  26.958  1.00  0.00     0.116 C 
BRANCH  28  29
ATOM     29  N   UNL A   1      41.158  24.182  25.960  1.00  0.00    -0.352 N 
ATOM     30  C   UNL A   1      41.589  25.483  26.022  1.00  0.00     0.251 C 
ATOM     31  H   UNL A   1      41.365  23.707  25.123  1.00  0.00     0.163 HD
ATOM     32  O   UNL A   1      42.092  26.000  25.028  1.00  0.00    -0.269 OA
BRANCH  30  33
ATOM     33  C   UNL A   1      41.406  26.272  27.260  1.00  0.00     0.039 A 
ATOM     34  C   UNL A   1      42.314  27.299  27.529  1.00  0.00     0.014 A 
ATOM     35  C   UNL A   1      40.364  26.009  28.152  1.00  0.00     0.014 A 
ATOM     36  C   UNL A   1      42.145  28.095  28.663  1.00  0.00     0.010 A 
ATOM     37  C   UNL A   1      40.157  26.844  29.249  1.00  0.00     0.010 A 
ATOM     38  C   UNL A   1      41.048  27.893  29.517  1.00  0.00    -0.014 A 
BRANCH  38  39
ATOM     39  C   UNL A   1      40.829  28.788  30.681  1.00  0.00     0.031 A 
ATOM     40  C   UNL A   1      41.661  28.644  31.927  1.00  0.00     0.074 A 
ATOM     41  C   UNL A   1      39.848  29.711  30.623  1.00  0.00     0.049 A 
ATOM     42  N   UNL A   1      41.632  29.360  33.022  1.00  0.00    -0.248 NA
ATOM     43  C   UNL A   1      42.635  27.540  31.960  1.00  0.00     0.031 C 
ATOM     44  C   UNL A   1      38.919  29.890  29.503  1.00  0.00     0.029 A 
ATOM     45  N   UNL A   1      39.466  30.671  31.524  1.00  0.00    -0.354 N 
ATOM     46  C   UNL A   1      42.565  28.787  33.877  1.00  0.00     0.074 A 
ATOM     47  C   UNL A   1      43.115  27.637  33.192  1.00  0.00     0.031 C 
ATOM     48  C   UNL A   1      38.096  30.916  29.773  1.00  0.00     0.029 A 
ATOM     49  C   UNL A   1      38.424  31.456  31.088  1.00  0.00     0.049 A 
ATOM     50  H   UNL A   1      39.897  30.788  32.402  1.00  0.00     0.167 HD
ATOM     51  C   UNL A   1      42.944  29.195  35.111  1.00  0.00     0.037 A 
ATOM     52  C   UNL A   1      37.811  32.500  31.678  1.00  0.00     0.037 A 
ATOM     53  C   UNL A   1      42.428  30.369  35.767  1.00  0.00     0.049 A 
ATOM     54  C   UNL A   1      38.300  32.972  33.020  1.00  0.00     0.074 A 
ATOM     55  C   UNL A   1      42.823  30.925  36.972  1.00  0.00     0.029 A 
ATOM     56  N   UNL A   1      41.407  31.166  35.276  1.00  0.00    -0.354 N 
ATOM     57  N   UNL A   1      39.260  32.482  33.767  1.00  0.00    -0.248 NA
ATOM     58  C   UNL A   1      37.634  34.150  33.591  1.00  0.00     0.031 C 
ATOM     59  C   UNL A   1      42.014  32.038  37.227  1.00  0.00     0.029 A 
ATOM     60  C   UNL A   1      41.143  32.198  36.161  1.00  0.00     0.049 A 
ATOM     61  H   UNL A   1      40.937  31.020  34.422  1.00  0.00     0.167 HD
ATOM     62  C   UNL A   1      39.330  33.306  34.884  1.00  0.00     0.074 A 
ATOM     63  C   UNL A   1      38.329  34.338  34.704  1.00  0.00     0.031 C 
ATOM     64  C   UNL A   1      40.145  33.217  35.964  1.00  0.00     0.037 A 
BRANCH  51  65
ATOM     65  C   UNL A   1      43.982  28.383  35.836  1.00  0.00     0.058 A 
ATOM     66  C   UNL A   1      43.626  27.345  36.711  1.00  0.00     0.135 A 
ATOM     67  C   UNL A   1      45.349  28.598  35.596  1.00  0.00     0.135 A 
ATOM     68  F   UNL A   1      42.334  27.108  36.989  1.00  0.00    -0.206 F 
ATOM     69  C   UNL A   1      44.588  26.556  37.333  1.00  0.00     0.059 A 
ATOM     70  C   UNL A   1      46.328  27.806  36.189  1.00  0.00     0.059 A 
ATOM     71  F   UNL A   1      45.744  29.580  34.771  1.00  0.00    -0.206 F 
ATOM     72  C   UNL A   1      45.937  26.791  37.061  1.00  0.00     0.060 A 
BRANCH  72  73
ATOM     73  S   UNL A   1      47.172  25.732  37.846  1.00  0.00     0.124 S 
ATOM     74  O   UNL A   1      46.987  24.482  37.117  1.00  0.00    -0.237 OA
ATOM     75  O   UNL A   1      48.415  26.447  37.574  1.00  0.00    -0.237 OA
ATOM     76  O   UNL A   1      46.759  25.709  39.246  1.00  0.00    -0.744 OA
ENDBRANCH  72  73
ENDBRANCH  51  65
BRANCH  52  77
ATOM     77  C   UNL A   1      36.688  33.195  30.995  1.00  0.00     0.058 A 
ATOM     78  C   UNL A   1      35.362  33.008  31.413  1.00  0.00     0.135 A 
ATOM     79  C   UNL A   1      36.916  34.043  29.901  1.00  0.00     0.135 A 
ATOM     80  F   UNL A   1      35.094  32.206  32.456  1.00  0.00    -0.206 F 
ATOM     81  C   UNL A   1      34.297  33.605  30.747  1.00  0.00     0.059 A 
ATOM     82  C   UNL A   1      35.869  34.671  29.234  1.00  0.00     0.059 A 
ATOM     83  F   UNL A   1      38.168  34.273  29.477  1.00  0.00    -0.206 F 
ATOM     84  C   UNL A   1      34.561  34.430  29.653  1.00  0.00     0.060 A 
BRANCH  84  85
ATOM     85  S   UNL A   1      33.176  35.215  28.800  1.00  0.00     0.124 S 
ATOM     86  O   UNL A   1      32.350  35.646  29.922  1.00  0.00    -0.237 OA
ATOM     87  O   UNL A   1      33.836  36.278  28.047  1.00  0.00    -0.237 OA
ATOM     88  O   UNL A   1      32.628  34.131  27.989  1.00  0.00    -0.744 OA
ENDBRANCH  84  85
ENDBRANCH  52  77
BRANCH  64  89
ATOM     89  C   UNL A   1      40.000  34.281  37.016  1.00  0.00     0.058 A 
ATOM     90  C   UNL A   1      39.103  34.139  38.086  1.00  0.00     0.135 A 
ATOM     91  C   UNL A   1      40.772  35.451  36.954  1.00  0.00     0.135 A 
ATOM     92  F   UNL A   1      38.340  33.040  38.188  1.00  0.00    -0.206 F 
ATOM     93  C   UNL A   1      38.943  35.143  39.035  1.00  0.00     0.059 A 
ATOM     94  C   UNL A   1      40.648  36.457  37.909  1.00  0.00     0.059 A 
ATOM     95  F   UNL A   1      41.655  35.629  35.959  1.00  0.00    -0.206 F 
ATOM     96  C   UNL A   1      39.715  36.302  38.933  1.00  0.00     0.060 A 
BRANCH  96  97
ATOM     97  S   UNL A   1      39.495  37.605  40.163  1.00  0.00     0.124 S 
ATOM     98  O   UNL A   1      39.128  36.831  41.344  1.00  0.00    -0.237 OA
ATOM     99  O   UNL A   1      40.812  38.232  40.200  1.00  0.00    -0.237 OA
ATOM    100  O   UNL A   1      38.431  38.429  39.595  1.00  0.00    -0.744 OA
ENDBRANCH  96  97
ENDBRANCH  64  89
ENDBRANCH  38  39
ENDBRANCH  30  33
ENDBRANCH  28  29
ENDBRANCH   1  28
TORSDOF 18
ENDMDL
MODEL 3
REMARK VINA RESULT:     -12.1      3.563      9.515
REMARK SMILES COc1cc(Nc2cn[nH]c(=O)n2)c(C(=O)NCCCCNC(=O)c2ccc(-c3c4nc(c(-c5c(F)cc(S(=O)(=O)[O-])cc5F)c5ccc([nH]5)c(-c5c(F)cc(S(=O)(=O)[O-])cc5F)c5nc(c(-c6c(F)cc(S(=O)(=O)[O-])cc6F)c6ccc3[nH]6)C=C5)C=C4)cc2)cc1OC
REMARK SMILES IDX 20 1 19 2 18 3 17 4 15 5 16 6 14 8 3 9 4 10 92 11 5 12 91 13
REMARK SMILES IDX 2 14 1 15 93 16 94 17 6 18 7 20 8 21 13 22 9 23 11 24 10 25
REMARK SMILES IDX 12 26 21 28 22 29 23 30 24 32 25 33 26 34 90 35 27 36 89 37
REMARK SMILES IDX 28 38 29 39 30 40 83 41 31 42 88 43 82 44 84 45 32 46 87 47
REMARK SMILES IDX 81 48 80 49 33 51 67 52 46 53 66 54 47 55 50 56 65 57 85 58
REMARK SMILES IDX 48 59 49 60 64 62 86 63 51 64 34 65 35 66 44 67 36 68 37 69
REMARK SMILES IDX 43 70 45 71 38 72 39 73 40 74 41 75 42 76 68 77 69 78 78 79
REMARK SMILES IDX 70 80 71 81 77 82 79 83 72 84 73 85 74 86 75 87 76 88 52 89
REMARK SMILES IDX 53 90 62 91 54 92 55 93 61 94 63 95 56 96 57 97 58 98 59 99
REMARK SMILES IDX 60 100
REMARK H PARENT 17 7 6 19 10 27 22 31 84 50 50 61
REMARK Flexibility Score: inf
ROOT
ATOM      1  C   UNL A   1      32.861  27.646  25.258  1.00  0.00     0.023 C 
ENDROOT
BRANCH   1   2
ATOM      2  C   UNL A   1      32.086  26.623  26.091  1.00  0.00     0.023 C 
BRANCH   2   3
ATOM      3  C   UNL A   1      32.165  25.185  25.570  1.00  0.00     0.116 C 
BRANCH   3   4
ATOM      4  N   UNL A   1      32.010  24.242  26.664  1.00  0.00    -0.352 N 
ATOM      5  C   UNL A   1      32.737  23.146  27.051  1.00  0.00     0.253 C 
ATOM      6  O   UNL A   1      32.335  22.521  28.039  1.00  0.00    -0.269 OA
ATOM      7  H   UNL A   1      31.232  24.426  27.239  1.00  0.00     0.163 HD
BRANCH   5   8
ATOM      8  C   UNL A   1      34.005  22.690  26.389  1.00  0.00     0.067 A 
ATOM      9  C   UNL A   1      36.370  21.812  25.130  1.00  0.00     0.162 A 
ATOM     10  C   UNL A   1      35.237  20.988  25.157  1.00  0.00     0.077 A 
ATOM     11  C   UNL A   1      36.310  23.089  25.681  1.00  0.00     0.161 A 
ATOM     12  C   UNL A   1      34.036  21.416  25.754  1.00  0.00     0.057 A 
ATOM     13  C   UNL A   1      35.125  23.519  26.281  1.00  0.00     0.066 A 
BRANCH   9  14
ATOM     14  O   UNL A   1      37.479  21.422  24.429  1.00  0.00    -0.493 OA
ATOM     15  C   UNL A   1      38.010  20.183  24.897  1.00  0.00     0.278 C 
ENDBRANCH   9  14
BRANCH  11  16
ATOM     16  O   UNL A   1      37.295  24.040  25.658  1.00  0.00    -0.493 OA
ATOM     17  C   UNL A   1      38.317  23.895  26.637  1.00  0.00     0.278 C 
ENDBRANCH  11  16
BRANCH  12  18
ATOM     18  N   UNL A   1      32.859  20.625  25.694  1.00  0.00    -0.338 N 
ATOM     19  H   UNL A   1      32.076  20.964  26.185  1.00  0.00     0.168 HD
BRANCH  18  20
ATOM     20  C   UNL A   1      32.695  19.437  25.024  1.00  0.00     0.156 A 
ATOM     21  C   UNL A   1      32.721  18.190  25.881  1.00  0.00     0.180 A 
ATOM     22  N   UNL A   1      32.522  19.336  23.744  1.00  0.00    -0.173 NA
ATOM     23  N   UNL A   1      32.573  17.010  25.379  1.00  0.00    -0.176 NA
ATOM     24  C   UNL A   1      32.413  18.087  23.193  1.00  0.00     0.363 A 
ATOM     25  N   UNL A   1      32.421  16.989  24.027  1.00  0.00    -0.227 N 
ATOM     26  O   UNL A   1      32.305  17.913  21.980  1.00  0.00    -0.244 OA
ATOM     27  H   UNL A   1      32.307  16.107  23.605  1.00  0.00     0.195 HD
ENDBRANCH  18  20
ENDBRANCH  12  18
ENDBRANCH   5   8
ENDBRANCH   3   4
ENDBRANCH   2   3
ENDBRANCH   1   2
BRANCH   1  28
ATOM     28  C   UNL A   1      33.998  28.347  25.996  1.00  0.00     0.116 C 
BRANCH  28  29
ATOM     29  N   UNL A   1      33.676  29.713  26.375  1.00  0.00    -0.352 N 
ATOM     30  C   UNL A   1      34.326  30.544  27.252  1.00  0.00     0.251 C 
ATOM     31  H   UNL A   1      32.881  30.096  25.939  1.00  0.00     0.163 HD
ATOM     32  O   UNL A   1      33.838  31.639  27.518  1.00  0.00    -0.269 OA
BRANCH  30  33
ATOM     33  C   UNL A   1      35.578  30.107  27.907  1.00  0.00     0.039 A 
ATOM     34  C   UNL A   1      36.781  30.293  27.222  1.00  0.00     0.014 A 
ATOM     35  C   UNL A   1      35.578  29.517  29.173  1.00  0.00     0.014 A 
ATOM     36  C   UNL A   1      37.986  29.936  27.829  1.00  0.00     0.010 A 
ATOM     37  C   UNL A   1      36.785  29.223  29.805  1.00  0.00     0.010 A 
ATOM     38  C   UNL A   1      38.000  29.426  29.138  1.00  0.00    -0.014 A 
BRANCH  38  39
ATOM     39  C   UNL A   1      39.289  29.117  29.808  1.00  0.00     0.031 A 
ATOM     40  C   UNL A   1      39.727  29.892  31.022  1.00  0.00     0.074 A 
ATOM     41  C   UNL A   1      40.082  28.157  29.294  1.00  0.00     0.049 A 
ATOM     42  N   UNL A   1      40.800  29.736  31.754  1.00  0.00    -0.248 NA
ATOM     43  C   UNL A   1      38.864  31.003  31.457  1.00  0.00     0.031 C 
ATOM     44  C   UNL A   1      39.806  27.394  28.072  1.00  0.00     0.029 A 
ATOM     45  N   UNL A   1      41.282  27.655  29.731  1.00  0.00    -0.354 N 
ATOM     46  C   UNL A   1      40.751  30.732  32.721  1.00  0.00     0.074 A 
ATOM     47  C   UNL A   1      39.564  31.517  32.459  1.00  0.00     0.031 C 
ATOM     48  C   UNL A   1      40.792  26.504  27.876  1.00  0.00     0.029 A 
ATOM     49  C   UNL A   1      41.778  26.643  28.942  1.00  0.00     0.049 A 
ATOM     50  H   UNL A   1      41.745  27.990  30.533  1.00  0.00     0.167 HD
ATOM     51  C   UNL A   1      41.605  30.958  33.747  1.00  0.00     0.037 A 
ATOM     52  C   UNL A   1      42.895  25.903  29.073  1.00  0.00     0.037 A 
ATOM     53  C   UNL A   1      42.759  30.143  34.031  1.00  0.00     0.049 A 
ATOM     54  C   UNL A   1      43.789  26.133  30.261  1.00  0.00     0.074 A 
ATOM     55  C   UNL A   1      43.627  30.226  35.107  1.00  0.00     0.029 A 
ATOM     56  N   UNL A   1      43.204  29.097  33.239  1.00  0.00    -0.354 N 
ATOM     57  N   UNL A   1      43.667  27.011  31.228  1.00  0.00    -0.248 NA
ATOM     58  C   UNL A   1      44.964  25.259  30.385  1.00  0.00     0.031 C 
ATOM     59  C   UNL A   1      44.619  29.254  34.944  1.00  0.00     0.029 A 
ATOM     60  C   UNL A   1      44.346  28.540  33.789  1.00  0.00     0.049 A 
ATOM     61  H   UNL A   1      42.772  28.796  32.406  1.00  0.00     0.167 HD
ATOM     62  C   UNL A   1      44.735  26.779  32.088  1.00  0.00     0.074 A 
ATOM     63  C   UNL A   1      45.479  25.664  31.537  1.00  0.00     0.031 C 
ATOM     64  C   UNL A   1      45.072  27.430  33.228  1.00  0.00     0.037 A 
BRANCH  51  65
ATOM     65  C   UNL A   1      41.324  32.122  34.657  1.00  0.00     0.058 A 
ATOM     66  C   UNL A   1      41.841  33.401  34.398  1.00  0.00     0.135 A 
ATOM     67  C   UNL A   1      40.468  31.971  35.761  1.00  0.00     0.135 A 
ATOM     68  F   UNL A   1      42.677  33.596  33.367  1.00  0.00    -0.206 F 
ATOM     69  C   UNL A   1      41.529  34.488  35.209  1.00  0.00     0.059 A 
ATOM     70  C   UNL A   1      40.125  33.050  36.571  1.00  0.00     0.059 A 
ATOM     71  F   UNL A   1      39.950  30.769  36.055  1.00  0.00    -0.206 F 
ATOM     72  C   UNL A   1      40.666  34.304  36.290  1.00  0.00     0.060 A 
BRANCH  72  73
ATOM     73  S   UNL A   1      40.240  35.733  37.307  1.00  0.00     0.124 S 
ATOM     74  O   UNL A   1      41.511  36.006  37.970  1.00  0.00    -0.237 OA
ATOM     75  O   UNL A   1      39.822  36.713  36.310  1.00  0.00    -0.237 OA
ATOM     76  O   UNL A   1      39.177  35.230  38.172  1.00  0.00    -0.744 OA
ENDBRANCH  72  73
ENDBRANCH  51  65
BRANCH  52  77
ATOM     77  C   UNL A   1      43.221  24.852  28.074  1.00  0.00     0.058 A 
ATOM     78  C   UNL A   1      42.820  23.522  28.267  1.00  0.00     0.135 A 
ATOM     79  C   UNL A   1      43.958  25.152  26.918  1.00  0.00     0.135 A 
ATOM     80  F   UNL A   1      42.113  23.186  29.358  1.00  0.00    -0.206 F 
ATOM     81  C   UNL A   1      43.168  22.517  27.370  1.00  0.00     0.059 A 
ATOM     82  C   UNL A   1      44.298  24.169  25.994  1.00  0.00     0.059 A 
ATOM     83  F   UNL A   1      44.346  26.413  26.675  1.00  0.00    -0.206 F 
ATOM     84  C   UNL A   1      43.915  22.851  26.239  1.00  0.00     0.060 A 
BRANCH  84  85
ATOM     85  S   UNL A   1      44.354  21.546  25.070  1.00  0.00     0.124 S 
ATOM     86  O   UNL A   1      44.219  22.240  23.795  1.00  0.00    -0.237 OA
ATOM     87  O   UNL A   1      45.715  21.211  25.475  1.00  0.00    -0.237 OA
ATOM     88  O   UNL A   1      43.358  20.512  25.337  1.00  0.00    -0.744 OA
ENDBRANCH  84  85
ENDBRANCH  52  77
BRANCH  64  89
ATOM     89  C   UNL A   1      46.285  26.931  33.964  1.00  0.00     0.058 A 
ATOM     90  C   UNL A   1      46.188  25.937  34.950  1.00  0.00     0.135 A 
ATOM     91  C   UNL A   1      47.556  27.450  33.674  1.00  0.00     0.135 A 
ATOM     92  F   UNL A   1      44.994  25.411  35.266  1.00  0.00    -0.206 F 
ATOM     93  C   UNL A   1      47.306  25.506  35.657  1.00  0.00     0.059 A 
ATOM     94  C   UNL A   1      48.692  27.014  34.350  1.00  0.00     0.059 A 
ATOM     95  F   UNL A   1      47.704  28.392  32.730  1.00  0.00    -0.206 F 
ATOM     96  C   UNL A   1      48.553  26.058  35.354  1.00  0.00     0.060 A 
BRANCH  96  97
ATOM     97  S   UNL A   1      49.998  25.500  36.282  1.00  0.00     0.124 S 
ATOM     98  O   UNL A   1      49.430  25.293  37.609  1.00  0.00    -0.237 OA
ATOM     99  O   UNL A   1      50.389  24.292  35.564  1.00  0.00    -0.237 OA
ATOM    100  O   UNL A   1      50.928  26.620  36.163  1.00  0.00    -0.744 OA
ENDBRANCH  96  97
ENDBRANCH  64  89
ENDBRANCH  38  39
ENDBRANCH  30  33
ENDBRANCH  28  29
ENDBRANCH   1  28
TORSDOF 18
ENDMDL
