MODEL 1
REMARK VINA RESULT:     -12.2      0.000      0.000
REMARK SMILES Cc1ccc2c(c1C)O[C@@H](C(=O)NCCCCNC(=O)c1ccc(-c3c4nc(c(-c5c(F)cc(S(=O)(=O)[O-])cc5F)c5ccc([nH]5)c(-c5c(F)cc(S(=O)(=O)[O-])cc5F)c5nc(c(-c6c(F)cc(S(=O)(=O)[O-])cc6F)c6ccc3[nH]6)C=C5)C=C4)cc1)CC2=O
REMARK SMILES IDX 17 1 16 2 15 3 14 4 13 5 11 6 12 7 10 9 1 10 2 11 3 12 7 13
REMARK SMILES IDX 4 14 6 15 8 16 5 17 9 18 88 19 87 20 89 21 18 22 19 23 20 25
REMARK SMILES IDX 21 26 22 27 86 28 23 29 85 30 24 31 25 32 26 33 79 34 27 35
REMARK SMILES IDX 84 36 78 37 80 38 28 39 83 40 77 41 76 42 29 44 63 45 42 46
REMARK SMILES IDX 62 47 43 48 46 49 61 50 81 51 44 52 45 53 60 55 82 56 47 57
REMARK SMILES IDX 30 58 31 59 40 60 32 61 33 62 39 63 41 64 34 65 35 66 36 67
REMARK SMILES IDX 37 68 38 69 64 70 65 71 74 72 66 73 67 74 73 75 75 76 68 77
REMARK SMILES IDX 69 78 70 79 71 80 72 81 48 82 49 83 58 84 50 85 51 86 57 87
REMARK SMILES IDX 59 88 52 89 53 90 54 91 55 92 56 93
REMARK H PARENT 13 8 18 24 80 43 46 54
REMARK Flexibility Score: inf
ROOT
ATOM      1  C   UNL A   1      33.615  28.708  27.222  1.00  0.00     0.116 C 
ENDROOT
BRANCH   1   2
ATOM      2  C   UNL A   1      32.280  27.970  27.230  1.00  0.00     0.023 C 
BRANCH   2   3
ATOM      3  C   UNL A   1      31.872  27.362  25.888  1.00  0.00     0.023 C 
BRANCH   3   4
ATOM      4  C   UNL A   1      30.747  26.332  25.987  1.00  0.00     0.116 C 
BRANCH   4   5
ATOM      5  N   UNL A   1      31.129  25.175  26.770  1.00  0.00    -0.353 N 
ATOM      6  C   UNL A   1      32.032  24.184  26.563  1.00  0.00     0.261 C 
ATOM      7  O   UNL A   1      32.163  23.362  27.479  1.00  0.00    -0.271 OA
ATOM      8  H   UNL A   1      30.635  25.090  27.617  1.00  0.00     0.163 HD
BRANCH   6   9
ATOM      9  C   UNL A   1      32.831  23.992  25.249  1.00  0.00     0.269 C 
ATOM     10  C   UNL A   1      34.445  18.132  24.437  1.00  0.00     0.045 C 
ATOM     11  C   UNL A   1      34.655  19.609  24.637  1.00  0.00    -0.044 A 
ATOM     12  C   UNL A   1      35.905  20.053  25.095  1.00  0.00     0.005 A 
ATOM     13  C   UNL A   1      33.636  20.553  24.376  1.00  0.00    -0.005 A 
ATOM     14  C   UNL A   1      36.138  21.406  25.326  1.00  0.00     0.016 A 
ATOM     15  C   UNL A   1      33.857  21.909  24.693  1.00  0.00     0.134 A 
ATOM     16  C   UNL A   1      32.285  20.134  23.852  1.00  0.00     0.049 C 
ATOM     17  C   UNL A   1      35.106  22.328  25.138  1.00  0.00     0.060 A 
ATOM     18  O   UNL A   1      32.776  22.734  24.602  1.00  0.00    -0.479 OA
ATOM     19  C   UNL A   1      35.325  23.742  25.475  1.00  0.00     0.170 C 
ATOM     20  C   UNL A   1      34.182  24.686  25.286  1.00  0.00     0.136 C 
ATOM     21  O   UNL A   1      36.425  24.131  25.855  1.00  0.00    -0.294 OA
ENDBRANCH   6   9
ENDBRANCH   4   5
ENDBRANCH   3   4
ENDBRANCH   2   3
ENDBRANCH   1   2
BRANCH   1  22
ATOM     22  N   UNL A   1      33.549  30.063  27.753  1.00  0.00    -0.352 N 
ATOM     23  C   UNL A   1      34.567  30.769  28.354  1.00  0.00     0.251 C 
ATOM     24  H   UNL A   1      32.681  30.523  27.674  1.00  0.00     0.163 HD
ATOM     25  O   UNL A   1      34.384  31.893  28.805  1.00  0.00    -0.269 OA
BRANCH  23  26
ATOM     26  C   UNL A   1      35.882  30.109  28.477  1.00  0.00     0.039 A 
ATOM     27  C   UNL A   1      36.757  30.137  27.389  1.00  0.00     0.014 A 
ATOM     28  C   UNL A   1      36.285  29.589  29.711  1.00  0.00     0.014 A 
ATOM     29  C   UNL A   1      38.075  29.711  27.562  1.00  0.00     0.010 A 
ATOM     30  C   UNL A   1      37.612  29.210  29.891  1.00  0.00     0.010 A 
ATOM     31  C   UNL A   1      38.521  29.282  28.823  1.00  0.00    -0.014 A 
BRANCH  31  32
ATOM     32  C   UNL A   1      39.938  28.915  29.051  1.00  0.00     0.031 A 
ATOM     33  C   UNL A   1      40.887  29.924  29.627  1.00  0.00     0.074 A 
ATOM     34  C   UNL A   1      40.384  27.699  28.679  1.00  0.00     0.049 A 
ATOM     35  N   UNL A   1      42.172  29.818  29.844  1.00  0.00    -0.248 NA
ATOM     36  C   UNL A   1      40.319  31.233  29.983  1.00  0.00     0.031 C 
ATOM     37  C   UNL A   1      39.568  26.648  28.068  1.00  0.00     0.029 A 
ATOM     38  N   UNL A   1      41.637  27.146  28.754  1.00  0.00    -0.354 N 
ATOM     39  C   UNL A   1      42.570  31.046  30.353  1.00  0.00     0.074 A 
ATOM     40  C   UNL A   1      41.398  31.897  30.369  1.00  0.00     0.031 C 
ATOM     41  C   UNL A   1      40.338  25.570  27.843  1.00  0.00     0.029 A 
ATOM     42  C   UNL A   1      41.703  25.861  28.272  1.00  0.00     0.049 A 
ATOM     43  H   UNL A   1      42.417  27.625  29.118  1.00  0.00     0.167 HD
ATOM     44  C   UNL A   1      43.794  31.425  30.789  1.00  0.00     0.037 A 
ATOM     45  C   UNL A   1      42.746  25.012  28.189  1.00  0.00     0.037 A 
ATOM     46  C   UNL A   1      44.952  30.574  30.793  1.00  0.00     0.049 A 
ATOM     47  C   UNL A   1      44.096  25.450  28.683  1.00  0.00     0.074 A 
ATOM     48  C   UNL A   1      46.224  30.850  31.261  1.00  0.00     0.029 A 
ATOM     49  N   UNL A   1      44.975  29.274  30.309  1.00  0.00    -0.354 N 
ATOM     50  N   UNL A   1      44.446  26.602  29.203  1.00  0.00    -0.248 NA
ATOM     51  C   UNL A   1      45.192  24.476  28.580  1.00  0.00     0.031 C 
ATOM     52  C   UNL A   1      47.024  29.722  31.039  1.00  0.00     0.029 A 
ATOM     53  C   UNL A   1      46.243  28.737  30.456  1.00  0.00     0.049 A 
ATOM     54  H   UNL A   1      44.205  28.803  29.918  1.00  0.00     0.167 HD
ATOM     55  C   UNL A   1      45.797  26.487  29.505  1.00  0.00     0.074 A 
ATOM     56  C   UNL A   1      46.202  25.152  29.113  1.00  0.00     0.031 C 
ATOM     57  C   UNL A   1      46.627  27.406  30.057  1.00  0.00     0.037 A 
BRANCH  44  58
ATOM     58  C   UNL A   1      43.923  32.830  31.300  1.00  0.00     0.058 A 
ATOM     59  C   UNL A   1      43.571  33.159  32.619  1.00  0.00     0.135 A 
ATOM     60  C   UNL A   1      44.368  33.862  30.460  1.00  0.00     0.135 A 
ATOM     61  F   UNL A   1      43.122  32.209  33.455  1.00  0.00    -0.206 F 
ATOM     62  C   UNL A   1      43.615  34.471  33.076  1.00  0.00     0.059 A 
ATOM     63  C   UNL A   1      44.439  35.180  30.902  1.00  0.00     0.059 A 
ATOM     64  F   UNL A   1      44.711  33.599  29.190  1.00  0.00    -0.206 F 
ATOM     65  C   UNL A   1      44.037  35.476  32.205  1.00  0.00     0.060 A 
BRANCH  65  66
ATOM     66  S   UNL A   1      44.042  37.184  32.792  1.00  0.00     0.124 S 
ATOM     67  O   UNL A   1      43.786  37.914  31.553  1.00  0.00    -0.237 OA
ATOM     68  O   UNL A   1      42.955  37.188  33.764  1.00  0.00    -0.237 OA
ATOM     69  O   UNL A   1      45.380  37.344  33.351  1.00  0.00    -0.744 OA
ENDBRANCH  65  66
ENDBRANCH  44  58
BRANCH  45  70
ATOM     70  C   UNL A   1      42.535  23.644  27.653  1.00  0.00     0.058 A 
ATOM     71  C   UNL A   1      42.576  23.405  26.272  1.00  0.00     0.135 A 
ATOM     72  C   UNL A   1      42.343  22.546  28.505  1.00  0.00     0.135 A 
ATOM     73  F   UNL A   1      42.752  24.428  25.422  1.00  0.00    -0.206 F 
ATOM     74  C   UNL A   1      42.441  22.124  25.751  1.00  0.00     0.059 A 
ATOM     75  C   UNL A   1      42.217  21.253  28.009  1.00  0.00     0.059 A 
ATOM     76  F   UNL A   1      42.309  22.725  29.835  1.00  0.00    -0.206 F 
ATOM     77  C   UNL A   1      42.268  21.051  26.629  1.00  0.00     0.060 A 
BRANCH  77  78
ATOM     78  S   UNL A   1      42.179  19.382  25.946  1.00  0.00     0.124 S 
ATOM     79  O   UNL A   1      40.753  19.252  25.669  1.00  0.00    -0.237 OA
ATOM     80  O   UNL A   1      43.050  19.481  24.780  1.00  0.00    -0.237 OA
ATOM     81  O   UNL A   1      42.690  18.549  27.031  1.00  0.00    -0.744 OA
ENDBRANCH  77  78
ENDBRANCH  45  70
BRANCH  57  82
ATOM     82  C   UNL A   1      48.055  27.002  30.282  1.00  0.00     0.058 A 
ATOM     83  C   UNL A   1      49.056  27.321  29.353  1.00  0.00     0.135 A 
ATOM     84  C   UNL A   1      48.436  26.360  31.469  1.00  0.00     0.135 A 
ATOM     85  F   UNL A   1      48.737  27.929  28.199  1.00  0.00    -0.206 F 
ATOM     86  C   UNL A   1      50.391  27.017  29.594  1.00  0.00     0.059 A 
ATOM     87  C   UNL A   1      49.768  26.059  31.738  1.00  0.00     0.059 A 
ATOM     88  F   UNL A   1      47.513  26.039  32.391  1.00  0.00    -0.206 F 
ATOM     89  C   UNL A   1      50.738  26.389  30.792  1.00  0.00     0.060 A 
BRANCH  89  90
ATOM     90  S   UNL A   1      52.480  26.053  31.123  1.00  0.00     0.124 S 
ATOM     91  O   UNL A   1      52.841  27.185  31.970  1.00  0.00    -0.237 OA
ATOM     92  O   UNL A   1      52.431  24.755  31.787  1.00  0.00    -0.237 OA
ATOM     93  O   UNL A   1      53.083  26.047  29.793  1.00  0.00    -0.744 OA
ENDBRANCH  89  90
ENDBRANCH  57  82
ENDBRANCH  31  32
ENDBRANCH  23  26
ENDBRANCH   1  22
TORSDOF 14
ENDMDL
MODEL 2
REMARK VINA RESULT:     -11.9      4.836     10.640
REMARK SMILES Cc1ccc2c(c1C)O[C@@H](C(=O)NCCCCNC(=O)c1ccc(-c3c4nc(c(-c5c(F)cc(S(=O)(=O)[O-])cc5F)c5ccc([nH]5)c(-c5c(F)cc(S(=O)(=O)[O-])cc5F)c5nc(c(-c6c(F)cc(S(=O)(=O)[O-])cc6F)c6ccc3[nH]6)C=C5)C=C4)cc1)CC2=O
REMARK SMILES IDX 17 1 16 2 15 3 14 4 13 5 11 6 12 7 10 9 1 10 2 11 3 12 7 13
REMARK SMILES IDX 4 14 6 15 8 16 5 17 9 18 88 19 87 20 89 21 18 22 19 23 20 25
REMARK SMILES IDX 21 26 22 27 86 28 23 29 85 30 24 31 25 32 26 33 79 34 27 35
REMARK SMILES IDX 84 36 78 37 80 38 28 39 83 40 77 41 76 42 29 44 63 45 42 46
REMARK SMILES IDX 62 47 43 48 46 49 61 50 81 51 44 52 45 53 60 55 82 56 47 57
REMARK SMILES IDX 30 58 31 59 40 60 32 61 33 62 39 63 41 64 34 65 35 66 36 67
REMARK SMILES IDX 37 68 38 69 64 70 65 71 74 72 66 73 67 74 73 75 75 76 68 77
REMARK SMILES IDX 69 78 70 79 71 80 72 81 48 82 49 83 58 84 50 85 51 86 57 87
REMARK SMILES IDX 59 88 52 89 53 90 54 91 55 92 56 93
REMARK H PARENT 13 8 18 24 80 43 46 54
REMARK Flexibility Score: inf
ROOT
ATOM      1  C   UNL A   1      38.404  24.078  26.463  1.00  0.00     0.116 C 
ENDROOT
BRANCH   1   2
ATOM      2  C   UNL A   1      37.467  23.236  25.603  1.00  0.00     0.023 C 
BRANCH   2   3
ATOM      3  C   UNL A   1      36.044  23.779  25.477  1.00  0.00     0.023 C 
BRANCH   3   4
ATOM      4  C   UNL A   1      35.000  22.983  26.262  1.00  0.00     0.116 C 
BRANCH   4   5
ATOM      5  N   UNL A   1      34.702  21.708  25.643  1.00  0.00    -0.353 N 
ATOM      6  C   UNL A   1      33.698  21.295  24.829  1.00  0.00     0.261 C 
ATOM      7  O   UNL A   1      33.773  20.131  24.414  1.00  0.00    -0.271 OA
ATOM      8  H   UNL A   1      35.356  21.003  25.855  1.00  0.00     0.163 HD
BRANCH   6   9
ATOM      9  C   UNL A   1      32.462  22.153  24.464  1.00  0.00     0.269 C 
ATOM     10  C   UNL A   1      33.899  28.100  24.049  1.00  0.00     0.045 C 
ATOM     11  C   UNL A   1      33.199  26.881  24.587  1.00  0.00    -0.044 A 
ATOM     12  C   UNL A   1      32.618  26.950  25.863  1.00  0.00     0.005 A 
ATOM     13  C   UNL A   1      33.111  25.680  23.848  1.00  0.00    -0.005 A 
ATOM     14  C   UNL A   1      31.988  25.840  26.418  1.00  0.00     0.016 A 
ATOM     15  C   UNL A   1      32.544  24.540  24.454  1.00  0.00     0.134 A 
ATOM     16  C   UNL A   1      33.689  25.561  22.459  1.00  0.00     0.049 C 
ATOM     17  C   UNL A   1      31.967  24.633  25.716  1.00  0.00     0.060 A 
ATOM     18  O   UNL A   1      32.664  23.369  23.766  1.00  0.00    -0.479 OA
ATOM     19  C   UNL A   1      31.388  23.437  26.343  1.00  0.00     0.170 C 
ATOM     20  C   UNL A   1      31.416  22.161  25.566  1.00  0.00     0.136 C 
ATOM     21  O   UNL A   1      30.862  23.504  27.451  1.00  0.00    -0.294 OA
ENDBRANCH   6   9
ENDBRANCH   4   5
ENDBRANCH   3   4
ENDBRANCH   2   3
ENDBRANCH   1   2
BRANCH   1  22
ATOM     22  N   UNL A   1      39.817  23.873  26.178  1.00  0.00    -0.352 N 
ATOM     23  C   UNL A   1      40.874  24.623  26.644  1.00  0.00     0.251 C 
ATOM     24  H   UNL A   1      40.041  23.118  25.587  1.00  0.00     0.163 HD
ATOM     25  O   UNL A   1      42.026  24.384  26.302  1.00  0.00    -0.269 OA
BRANCH  23  26
ATOM     26  C   UNL A   1      40.570  25.756  27.541  1.00  0.00     0.039 A 
ATOM     27  C   UNL A   1      39.600  25.593  28.532  1.00  0.00     0.014 A 
ATOM     28  C   UNL A   1      41.345  26.918  27.478  1.00  0.00     0.014 A 
ATOM     29  C   UNL A   1      39.458  26.572  29.517  1.00  0.00     0.010 A 
ATOM     30  C   UNL A   1      41.233  27.869  28.488  1.00  0.00     0.010 A 
ATOM     31  C   UNL A   1      40.299  27.697  29.523  1.00  0.00    -0.014 A 
BRANCH  31  32
ATOM     32  C   UNL A   1      40.228  28.701  30.611  1.00  0.00     0.031 A 
ATOM     33  C   UNL A   1      41.132  28.576  31.802  1.00  0.00     0.074 A 
ATOM     34  C   UNL A   1      39.309  29.684  30.557  1.00  0.00     0.049 A 
ATOM     35  N   UNL A   1      41.181  29.313  32.880  1.00  0.00    -0.248 NA
ATOM     36  C   UNL A   1      42.090  27.459  31.787  1.00  0.00     0.031 C 
ATOM     37  C   UNL A   1      38.346  29.885  29.472  1.00  0.00     0.029 A 
ATOM     38  N   UNL A   1      39.030  30.695  31.441  1.00  0.00    -0.354 N 
ATOM     39  C   UNL A   1      42.166  28.747  33.677  1.00  0.00     0.074 A 
ATOM     40  C   UNL A   1      42.656  27.577  32.978  1.00  0.00     0.031 C 
ATOM     41  C   UNL A   1      37.596  30.966  29.746  1.00  0.00     0.029 A 
ATOM     42  C   UNL A   1      38.009  31.519  31.033  1.00  0.00     0.049 A 
ATOM     43  H   UNL A   1      39.515  30.818  32.289  1.00  0.00     0.167 HD
ATOM     44  C   UNL A   1      42.637  29.173  34.873  1.00  0.00     0.037 A 
ATOM     45  C   UNL A   1      37.470  32.601  31.627  1.00  0.00     0.037 A 
ATOM     46  C   UNL A   1      42.165  30.345  35.557  1.00  0.00     0.049 A 
ATOM     47  C   UNL A   1      38.009  33.062  32.952  1.00  0.00     0.074 A 
ATOM     48  C   UNL A   1      42.612  30.887  36.749  1.00  0.00     0.029 A 
ATOM     49  N   UNL A   1      41.138  31.161  35.105  1.00  0.00    -0.354 N 
ATOM     50  N   UNL A   1      38.973  32.540  33.672  1.00  0.00    -0.248 NA
ATOM     51  C   UNL A   1      37.391  34.257  33.544  1.00  0.00     0.031 C 
ATOM     52  C   UNL A   1      41.840  32.022  37.028  1.00  0.00     0.029 A 
ATOM     53  C   UNL A   1      40.929  32.198  35.999  1.00  0.00     0.049 A 
ATOM     54  H   UNL A   1      40.633  31.024  34.272  1.00  0.00     0.167 HD
ATOM     55  C   UNL A   1      39.088  33.350  34.795  1.00  0.00     0.074 A 
ATOM     56  C   UNL A   1      38.099  34.400  34.658  1.00  0.00     0.031 C 
ATOM     57  C   UNL A   1      39.938  33.233  35.845  1.00  0.00     0.037 A 
BRANCH  44  58
ATOM     58  C   UNL A   1      43.724  28.352  35.502  1.00  0.00     0.058 A 
ATOM     59  C   UNL A   1      45.074  28.564  35.179  1.00  0.00     0.135 A 
ATOM     60  C   UNL A   1      43.416  27.325  36.406  1.00  0.00     0.135 A 
ATOM     61  F   UNL A   1      45.416  29.523  34.303  1.00  0.00    -0.206 F 
ATOM     62  C   UNL A   1      46.080  27.757  35.698  1.00  0.00     0.059 A 
ATOM     63  C   UNL A   1      44.409  26.518  36.955  1.00  0.00     0.059 A 
ATOM     64  F   UNL A   1      42.141  27.080  36.744  1.00  0.00    -0.206 F 
ATOM     65  C   UNL A   1      45.735  26.728  36.574  1.00  0.00     0.060 A 
BRANCH  65  66
ATOM     66  S   UNL A   1      47.042  25.653  37.204  1.00  0.00     0.124 S 
ATOM     67  O   UNL A   1      47.290  26.240  38.518  1.00  0.00    -0.237 OA
ATOM     68  O   UNL A   1      46.402  24.343  37.207  1.00  0.00    -0.237 OA
ATOM     69  O   UNL A   1      48.115  25.821  36.229  1.00  0.00    -0.744 OA
ENDBRANCH  65  66
ENDBRANCH  44  58
BRANCH  45  70
ATOM     70  C   UNL A   1      36.383  33.347  30.943  1.00  0.00     0.058 A 
ATOM     71  C   UNL A   1      35.062  33.259  31.401  1.00  0.00     0.135 A 
ATOM     72  C   UNL A   1      36.649  34.197  29.860  1.00  0.00     0.135 A 
ATOM     73  F   UNL A   1      34.762  32.452  32.431  1.00  0.00    -0.206 F 
ATOM     74  C   UNL A   1      34.038  33.994  30.814  1.00  0.00     0.059 A 
ATOM     75  C   UNL A   1      35.645  34.952  29.264  1.00  0.00     0.059 A 
ATOM     76  F   UNL A   1      37.902  34.323  29.395  1.00  0.00    -0.206 F 
ATOM     77  C   UNL A   1      34.341  34.844  29.749  1.00  0.00     0.060 A 
BRANCH  77  78
ATOM     78  S   UNL A   1      33.019  35.858  29.050  1.00  0.00     0.124 S 
ATOM     79  O   UNL A   1      32.325  34.894  28.204  1.00  0.00    -0.237 OA
ATOM     80  O   UNL A   1      32.303  36.293  30.244  1.00  0.00    -0.237 OA
ATOM     81  O   UNL A   1      33.744  36.911  28.344  1.00  0.00    -0.744 OA
ENDBRANCH  77  78
ENDBRANCH  45  70
BRANCH  57  82
ATOM     82  C   UNL A   1      39.847  34.269  36.927  1.00  0.00     0.058 A 
ATOM     83  C   UNL A   1      40.495  35.507  36.805  1.00  0.00     0.135 A 
ATOM     84  C   UNL A   1      39.044  34.052  38.057  1.00  0.00     0.135 A 
ATOM     85  F   UNL A   1      41.279  35.757  35.744  1.00  0.00    -0.206 F 
ATOM     86  C   UNL A   1      40.349  36.498  37.770  1.00  0.00     0.059 A 
ATOM     87  C   UNL A   1      38.872  35.034  39.027  1.00  0.00     0.059 A 
ATOM     88  F   UNL A   1      38.400  32.884  38.214  1.00  0.00    -0.206 F 
ATOM     89  C   UNL A   1      39.532  36.254  38.875  1.00  0.00     0.060 A 
BRANCH  89  90
ATOM     90  S   UNL A   1      39.300  37.569  40.091  1.00  0.00     0.124 S 
ATOM     91  O   UNL A   1      40.623  38.183  40.115  1.00  0.00    -0.237 OA
ATOM     92  O   UNL A   1      38.241  38.372  39.489  1.00  0.00    -0.237 OA
ATOM     93  O   UNL A   1      38.920  36.847  41.301  1.00  0.00    -0.744 OA
ENDBRANCH  89  90
ENDBRANCH  57  82
ENDBRANCH  31  32
ENDBRANCH  23  26
ENDBRANCH   1  22
TORSDOF 14
ENDMDL
MODEL 3
REMARK VINA RESULT:     -11.9      0.900      1.641
REMARK SMILES Cc1ccc2c(c1C)O[C@@H](C(=O)NCCCCNC(=O)c1ccc(-c3c4nc(c(-c5c(F)cc(S(=O)(=O)[O-])cc5F)c5ccc([nH]5)c(-c5c(F)cc(S(=O)(=O)[O-])cc5F)c5nc(c(-c6c(F)cc(S(=O)(=O)[O-])cc6F)c6ccc3[nH]6)C=C5)C=C4)cc1)CC2=O
REMARK SMILES IDX 17 1 16 2 15 3 14 4 13 5 11 6 12 7 10 9 1 10 2 11 3 12 7 13
REMARK SMILES IDX 4 14 6 15 8 16 5 17 9 18 88 19 87 20 89 21 18 22 19 23 20 25
REMARK SMILES IDX 21 26 22 27 86 28 23 29 85 30 24 31 25 32 26 33 79 34 27 35
REMARK SMILES IDX 84 36 78 37 80 38 28 39 83 40 77 41 76 42 29 44 63 45 42 46
REMARK SMILES IDX 62 47 43 48 46 49 61 50 81 51 44 52 45 53 60 55 82 56 47 57
REMARK SMILES IDX 30 58 31 59 40 60 32 61 33 62 39 63 41 64 34 65 35 66 36 67
REMARK SMILES IDX 37 68 38 69 64 70 65 71 74 72 66 73 67 74 73 75 75 76 68 77
REMARK SMILES IDX 69 78 70 79 71 80 72 81 48 82 49 83 58 84 50 85 51 86 57 87
REMARK SMILES IDX 59 88 52 89 53 90 54 91 55 92 56 93
REMARK H PARENT 13 8 18 24 80 43 46 54
REMARK Flexibility Score: inf
ROOT
ATOM      1  C   UNL A   1      33.588  28.682  27.143  1.00  0.00     0.116 C 
ENDROOT
BRANCH   1   2
ATOM      2  C   UNL A   1      32.251  27.952  27.083  1.00  0.00     0.023 C 
BRANCH   2   3
ATOM      3  C   UNL A   1      32.126  26.926  25.957  1.00  0.00     0.023 C 
BRANCH   3   4
ATOM      4  C   UNL A   1      32.501  25.501  26.366  1.00  0.00     0.116 C 
BRANCH   4   5
ATOM      5  N   UNL A   1      31.381  24.783  26.940  1.00  0.00    -0.353 N 
ATOM      6  C   UNL A   1      30.727  23.654  26.568  1.00  0.00     0.261 C 
ATOM      7  O   UNL A   1      29.834  23.262  27.330  1.00  0.00    -0.271 OA
ATOM      8  H   UNL A   1      31.026  25.195  27.760  1.00  0.00     0.163 HD
BRANCH   6   9
ATOM      9  C   UNL A   1      30.981  22.896  25.241  1.00  0.00     0.269 C 
ATOM     10  C   UNL A   1      36.916  21.522  24.540  1.00  0.00     0.045 C 
ATOM     11  C   UNL A   1      35.596  22.164  24.205  1.00  0.00    -0.044 A 
ATOM     12  C   UNL A   1      35.588  23.267  23.338  1.00  0.00     0.005 A 
ATOM     13  C   UNL A   1      34.376  21.689  24.735  1.00  0.00    -0.005 A 
ATOM     14  C   UNL A   1      34.397  23.915  23.023  1.00  0.00     0.016 A 
ATOM     15  C   UNL A   1      33.188  22.404  24.475  1.00  0.00     0.134 A 
ATOM     16  C   UNL A   1      34.323  20.487  25.646  1.00  0.00     0.049 C 
ATOM     17  C   UNL A   1      33.202  23.489  23.606  1.00  0.00     0.060 A 
ATOM     18  O   UNL A   1      32.082  22.009  25.169  1.00  0.00    -0.479 OA
ATOM     19  C   UNL A   1      31.962  24.234  23.349  1.00  0.00     0.170 C 
ATOM     20  C   UNL A   1      30.713  23.758  24.020  1.00  0.00     0.136 C 
ATOM     21  O   UNL A   1      31.953  25.186  22.574  1.00  0.00    -0.294 OA
ENDBRANCH   6   9
ENDBRANCH   4   5
ENDBRANCH   3   4
ENDBRANCH   2   3
ENDBRANCH   1   2
BRANCH   1  22
ATOM     22  N   UNL A   1      33.504  30.034  27.681  1.00  0.00    -0.352 N 
ATOM     23  C   UNL A   1      34.511  30.747  28.292  1.00  0.00     0.251 C 
ATOM     24  H   UNL A   1      32.632  30.485  27.599  1.00  0.00     0.163 HD
ATOM     25  O   UNL A   1      34.313  31.867  28.747  1.00  0.00    -0.269 OA
BRANCH  23  26
ATOM     26  C   UNL A   1      35.832  30.100  28.419  1.00  0.00     0.039 A 
ATOM     27  C   UNL A   1      36.723  30.165  27.346  1.00  0.00     0.014 A 
ATOM     28  C   UNL A   1      36.223  29.557  29.647  1.00  0.00     0.014 A 
ATOM     29  C   UNL A   1      38.044  29.751  27.529  1.00  0.00     0.010 A 
ATOM     30  C   UNL A   1      37.552  29.190  29.838  1.00  0.00     0.010 A 
ATOM     31  C   UNL A   1      38.475  29.298  28.786  1.00  0.00    -0.014 A 
BRANCH  31  32
ATOM     32  C   UNL A   1      39.894  28.943  29.027  1.00  0.00     0.031 A 
ATOM     33  C   UNL A   1      40.830  29.961  29.608  1.00  0.00     0.074 A 
ATOM     34  C   UNL A   1      40.353  27.730  28.663  1.00  0.00     0.049 A 
ATOM     35  N   UNL A   1      42.114  29.866  29.836  1.00  0.00    -0.248 NA
ATOM     36  C   UNL A   1      40.249  31.267  29.955  1.00  0.00     0.031 C 
ATOM     37  C   UNL A   1      39.550  26.670  28.049  1.00  0.00     0.029 A 
ATOM     38  N   UNL A   1      41.610  27.186  28.750  1.00  0.00    -0.354 N 
ATOM     39  C   UNL A   1      42.498  31.099  30.345  1.00  0.00     0.074 A 
ATOM     40  C   UNL A   1      41.319  31.941  30.348  1.00  0.00     0.031 C 
ATOM     41  C   UNL A   1      40.330  25.597  27.834  1.00  0.00     0.029 A 
ATOM     42  C   UNL A   1      41.690  25.901  28.273  1.00  0.00     0.049 A 
ATOM     43  H   UNL A   1      42.382  27.673  29.119  1.00  0.00     0.167 HD
ATOM     44  C   UNL A   1      43.715  31.490  30.789  1.00  0.00     0.037 A 
ATOM     45  C   UNL A   1      42.739  25.060  28.202  1.00  0.00     0.037 A 
ATOM     46  C   UNL A   1      44.879  30.647  30.806  1.00  0.00     0.049 A 
ATOM     47  C   UNL A   1      44.082  25.510  28.706  1.00  0.00     0.074 A 
ATOM     48  C   UNL A   1      46.146  30.935  31.283  1.00  0.00     0.029 A 
ATOM     49  N   UNL A   1      44.917  29.346  30.326  1.00  0.00    -0.354 N 
ATOM     50  N   UNL A   1      44.418  26.666  29.226  1.00  0.00    -0.248 NA
ATOM     51  C   UNL A   1      45.186  24.544  28.616  1.00  0.00     0.031 C 
ATOM     52  C   UNL A   1      46.956  29.813  31.072  1.00  0.00     0.029 A 
ATOM     53  C   UNL A   1      46.188  28.820  30.486  1.00  0.00     0.049 A 
ATOM     54  H   UNL A   1      44.154  28.868  29.931  1.00  0.00     0.167 HD
ATOM     55  C   UNL A   1      45.768  26.563  29.539  1.00  0.00     0.074 A 
ATOM     56  C   UNL A   1      46.187  25.230  29.155  1.00  0.00     0.031 C 
ATOM     57  C   UNL A   1      46.586  27.490  30.095  1.00  0.00     0.037 A 
BRANCH  44  58
ATOM     58  C   UNL A   1      43.829  32.897  31.297  1.00  0.00     0.058 A 
ATOM     59  C   UNL A   1      44.204  33.949  30.446  1.00  0.00     0.135 A 
ATOM     60  C   UNL A   1      43.595  33.194  32.648  1.00  0.00     0.135 A 
ATOM     61  F   UNL A   1      44.457  33.710  29.149  1.00  0.00    -0.206 F 
ATOM     62  C   UNL A   1      44.387  35.240  30.926  1.00  0.00     0.059 A 
ATOM     63  C   UNL A   1      43.752  34.484  33.147  1.00  0.00     0.059 A 
ATOM     64  F   UNL A   1      43.239  32.223  33.503  1.00  0.00    -0.206 F 
ATOM     65  C   UNL A   1      44.172  35.495  32.281  1.00  0.00     0.060 A 
BRANCH  65  66
ATOM     66  S   UNL A   1      44.460  37.164  32.905  1.00  0.00     0.124 S 
ATOM     67  O   UNL A   1      44.130  37.971  31.733  1.00  0.00    -0.237 OA
ATOM     68  O   UNL A   1      43.522  37.253  34.018  1.00  0.00    -0.237 OA
ATOM     69  O   UNL A   1      45.871  37.145  33.277  1.00  0.00    -0.744 OA
ENDBRANCH  65  66
ENDBRANCH  44  58
BRANCH  45  70
ATOM     70  C   UNL A   1      42.544  23.688  27.669  1.00  0.00     0.058 A 
ATOM     71  C   UNL A   1      42.577  23.449  26.288  1.00  0.00     0.135 A 
ATOM     72  C   UNL A   1      42.375  22.589  28.523  1.00  0.00     0.135 A 
ATOM     73  F   UNL A   1      42.732  24.473  25.435  1.00  0.00    -0.206 F 
ATOM     74  C   UNL A   1      42.457  22.165  25.769  1.00  0.00     0.059 A 
ATOM     75  C   UNL A   1      42.264  21.293  28.029  1.00  0.00     0.059 A 
ATOM     76  F   UNL A   1      42.349  22.768  29.853  1.00  0.00    -0.206 F 
ATOM     77  C   UNL A   1      42.306  21.091  26.649  1.00  0.00     0.060 A 
BRANCH  77  78
ATOM     78  S   UNL A   1      42.236  19.420  25.968  1.00  0.00     0.124 S 
ATOM     79  O   UNL A   1      43.110  19.538  24.807  1.00  0.00    -0.237 OA
ATOM     80  O   UNL A   1      42.747  18.616  27.074  1.00  0.00    -0.237 OA
ATOM     81  O   UNL A   1      40.817  19.238  25.675  1.00  0.00    -0.744 OA
ENDBRANCH  77  78
ENDBRANCH  45  70
BRANCH  57  82
ATOM     82  C   UNL A   1      48.015  27.098  30.333  1.00  0.00     0.058 A 
ATOM     83  C   UNL A   1      49.007  27.349  29.374  1.00  0.00     0.135 A 
ATOM     84  C   UNL A   1      48.407  26.540  31.559  1.00  0.00     0.135 A 
ATOM     85  F   UNL A   1      48.677  27.875  28.183  1.00  0.00    -0.206 F 
ATOM     86  C   UNL A   1      50.344  27.057  29.622  1.00  0.00     0.059 A 
ATOM     87  C   UNL A   1      49.740  26.254  31.834  1.00  0.00     0.059 A 
ATOM     88  F   UNL A   1      47.492  26.288  32.509  1.00  0.00    -0.206 F 
ATOM     89  C   UNL A   1      50.701  26.514  30.857  1.00  0.00     0.060 A 
BRANCH  89  90
ATOM     90  S   UNL A   1      52.446  26.197  31.194  1.00  0.00     0.124 S 
ATOM     91  O   UNL A   1      52.785  27.316  32.066  1.00  0.00    -0.237 OA
ATOM     92  O   UNL A   1      52.412  24.885  31.832  1.00  0.00    -0.237 OA
ATOM     93  O   UNL A   1      53.057  26.226  29.868  1.00  0.00    -0.744 OA
ENDBRANCH  89  90
ENDBRANCH  57  82
ENDBRANCH  31  32
ENDBRANCH  23  26
ENDBRANCH   1  22
TORSDOF 14
ENDMDL
