MODEL 1
REMARK VINA RESULT:     -12.1      0.000      0.000
REMARK SMILES C[C@@H](C(=O)NCCCCNC(=O)c1ccc(-c2c3nc(c(-c4c(F)cc(S(=O)(=O)[O-])cc4F)c4ccc([nH]4)c(-c4c(F)cc(S(=O)(=O)[O-])cc4F)c4nc(c(-c5c(F)cc(S(=O)(=O)[O-])cc5F)c5ccc2[nH]5)C=C4)C=C3)cc1)c1ccc(C[C@H]2CCCC2=O)cc1[N+](=O)[O-]
REMARK SMILES IDX 7 1 6 2 5 3 3 4 4 5 2 7 1 8 79 9 80 10 91 11 81 12 90 13
REMARK SMILES IDX 82 14 92 15 93 16 94 17 83 18 84 19 85 20 88 21 86 22 87 23
REMARK SMILES IDX 89 24 8 25 9 26 10 27 11 28 12 30 13 31 14 32 78 33 15 34
REMARK SMILES IDX 77 35 16 36 17 37 18 38 71 39 19 40 76 41 70 42 72 43 20 44
REMARK SMILES IDX 75 45 69 46 68 47 21 49 55 50 34 51 54 52 35 53 38 54 53 55
REMARK SMILES IDX 73 56 36 57 37 58 52 60 74 61 39 62 22 63 23 64 32 65 24 66
REMARK SMILES IDX 25 67 31 68 33 69 26 70 27 71 28 72 29 73 30 74 56 75 57 76
REMARK SMILES IDX 66 77 58 78 59 79 65 80 67 81 60 82 61 83 62 84 63 85 64 86
REMARK SMILES IDX 40 87 41 88 50 89 42 90 43 91 49 92 51 93 44 94 45 95 46 96
REMARK SMILES IDX 47 97 48 98
REMARK H PARENT 5 6 10 29 72 48 38 59
REMARK Flexibility Score: inf
ROOT
ATOM      1  C   UNL A   1      33.314  30.323  26.919  1.00  0.00     0.023 C 
ENDROOT
BRANCH   1   2
ATOM      2  C   UNL A   1      32.262  29.219  26.828  1.00  0.00     0.116 C 
BRANCH   2   3
ATOM      3  N   UNL A   1      31.573  29.235  25.556  1.00  0.00    -0.356 N 
ATOM      4  C   UNL A   1      31.982  28.864  24.313  1.00  0.00     0.227 C 
ATOM      5  O   UNL A   1      31.118  28.859  23.432  1.00  0.00    -0.274 OA
ATOM      6  H   UNL A   1      30.649  29.571  25.597  1.00  0.00     0.163 HD
BRANCH   4   7
ATOM      7  C   UNL A   1      33.404  28.340  24.053  1.00  0.00     0.112 C 
ATOM      8  C   UNL A   1      34.137  28.817  22.794  1.00  0.00     0.023 C 
BRANCH   7   9
ATOM      9  C   UNL A   1      33.519  26.812  24.137  1.00  0.00     0.042 A 
ATOM     10  C   UNL A   1      34.029  26.288  25.344  1.00  0.00     0.012 A 
ATOM     11  C   UNL A   1      33.206  25.883  23.117  1.00  0.00     0.273 A 
ATOM     12  C   UNL A   1      34.256  24.920  25.517  1.00  0.00     0.004 A 
ATOM     13  C   UNL A   1      33.459  24.506  23.288  1.00  0.00     0.089 A 
ATOM     14  C   UNL A   1      34.012  24.020  24.477  1.00  0.00    -0.040 A 
BRANCH  11  15
ATOM     15  N   UNL A   1      32.628  26.260  21.819  1.00  0.00     0.063 N 
ATOM     16  O   UNL A   1      31.407  26.477  21.785  1.00  0.00    -0.258 OA
ATOM     17  O   UNL A   1      33.368  26.239  20.827  1.00  0.00    -0.258 OA
ENDBRANCH  11  15
BRANCH  14  18
ATOM     18  C   UNL A   1      34.358  22.558  24.619  1.00  0.00     0.047 C 
BRANCH  18  19
ATOM     19  C   UNL A   1      35.735  22.139  24.087  1.00  0.00     0.060 C 
ATOM     20  C   UNL A   1      36.810  23.231  24.030  1.00  0.00     0.012 C 
ATOM     21  C   UNL A   1      36.398  21.090  24.951  1.00  0.00     0.136 C 
ATOM     22  C   UNL A   1      37.655  23.064  25.288  1.00  0.00     0.009 C 
ATOM     23  C   UNL A   1      37.695  21.566  25.551  1.00  0.00     0.076 C 
ATOM     24  O   UNL A   1      35.942  19.967  25.132  1.00  0.00    -0.299 OA
ENDBRANCH  18  19
ENDBRANCH  14  18
ENDBRANCH   7   9
ENDBRANCH   4   7
ENDBRANCH   2   3
ENDBRANCH   1   2
BRANCH   1  25
ATOM     25  C   UNL A   1      34.733  29.838  27.233  1.00  0.00     0.023 C 
BRANCH  25  26
ATOM     26  C   UNL A   1      35.585  30.783  28.074  1.00  0.00     0.116 C 
BRANCH  26  27
ATOM     27  N   UNL A   1      35.460  30.548  29.504  1.00  0.00    -0.352 N 
ATOM     28  C   UNL A   1      36.428  30.201  30.416  1.00  0.00     0.251 C 
ATOM     29  H   UNL A   1      34.553  30.654  29.871  1.00  0.00     0.163 HD
ATOM     30  O   UNL A   1      36.117  29.942  31.572  1.00  0.00    -0.269 OA
BRANCH  28  31
ATOM     31  C   UNL A   1      37.838  30.095  29.981  1.00  0.00     0.039 A 
ATOM     32  C   UNL A   1      38.844  30.163  30.947  1.00  0.00     0.014 A 
ATOM     33  C   UNL A   1      38.162  29.888  28.637  1.00  0.00     0.014 A 
ATOM     34  C   UNL A   1      40.171  29.926  30.580  1.00  0.00     0.010 A 
ATOM     35  C   UNL A   1      39.477  29.597  28.282  1.00  0.00     0.010 A 
ATOM     36  C   UNL A   1      40.490  29.589  29.254  1.00  0.00    -0.014 A 
BRANCH  36  37
ATOM     37  C   UNL A   1      41.860  29.154  28.881  1.00  0.00     0.031 A 
ATOM     38  C   UNL A   1      42.979  30.152  28.783  1.00  0.00     0.074 A 
ATOM     39  C   UNL A   1      42.068  27.866  28.540  1.00  0.00     0.049 A 
ATOM     40  N   UNL A   1      44.209  29.970  28.377  1.00  0.00    -0.248 NA
ATOM     41  C   UNL A   1      42.672  31.539  29.168  1.00  0.00     0.031 C 
ATOM     42  C   UNL A   1      41.045  26.815  28.540  1.00  0.00     0.029 A 
ATOM     43  N   UNL A   1      43.199  27.222  28.102  1.00  0.00    -0.354 N 
ATOM     44  C   UNL A   1      44.819  31.216  28.442  1.00  0.00     0.074 A 
ATOM     45  C   UNL A   1      43.816  32.155  28.896  1.00  0.00     0.031 C 
ATOM     46  C   UNL A   1      41.597  25.662  28.127  1.00  0.00     0.029 A 
ATOM     47  C   UNL A   1      42.998  25.896  27.796  1.00  0.00     0.049 A 
ATOM     48  H   UNL A   1      44.073  27.668  28.016  1.00  0.00     0.167 HD
ATOM     49  C   UNL A   1      46.103  31.542  28.162  1.00  0.00     0.037 A 
ATOM     50  C   UNL A   1      43.840  24.977  27.285  1.00  0.00     0.037 A 
ATOM     51  C   UNL A   1      47.106  30.597  27.741  1.00  0.00     0.049 A 
ATOM     52  C   UNL A   1      45.259  25.369  26.981  1.00  0.00     0.074 A 
ATOM     53  C   UNL A   1      48.456  30.817  27.529  1.00  0.00     0.029 A 
ATOM     54  N   UNL A   1      46.870  29.260  27.463  1.00  0.00    -0.354 N 
ATOM     55  N   UNL A   1      45.842  26.534  27.137  1.00  0.00    -0.248 NA
ATOM     56  C   UNL A   1      46.136  24.326  26.432  1.00  0.00     0.031 C 
ATOM     57  C   UNL A   1      49.028  29.622  27.078  1.00  0.00     0.029 A 
ATOM     58  C   UNL A   1      48.043  28.650  27.048  1.00  0.00     0.049 A 
ATOM     59  H   UNL A   1      45.998  28.811  27.546  1.00  0.00     0.167 HD
ATOM     60  C   UNL A   1      47.154  26.360  26.716  1.00  0.00     0.074 A 
ATOM     61  C   UNL A   1      47.288  24.974  26.320  1.00  0.00     0.031 C 
ATOM     62  C   UNL A   1      48.159  27.269  26.655  1.00  0.00     0.037 A 
BRANCH  49  63
ATOM     63  C   UNL A   1      46.517  32.979  28.309  1.00  0.00     0.058 A 
ATOM     64  C   UNL A   1      46.403  33.887  27.246  1.00  0.00     0.135 A 
ATOM     65  C   UNL A   1      46.947  33.473  29.552  1.00  0.00     0.135 A 
ATOM     66  F   UNL A   1      46.012  33.464  26.034  1.00  0.00    -0.206 F 
ATOM     67  C   UNL A   1      46.707  35.235  27.407  1.00  0.00     0.059 A 
ATOM     68  C   UNL A   1      47.235  34.821  29.741  1.00  0.00     0.059 A 
ATOM     69  F   UNL A   1      47.075  32.644  30.600  1.00  0.00    -0.206 F 
ATOM     70  C   UNL A   1      47.116  35.693  28.661  1.00  0.00     0.060 A 
BRANCH  70  71
ATOM     71  S   UNL A   1      47.461  37.454  28.863  1.00  0.00     0.124 S 
ATOM     72  O   UNL A   1      46.395  38.053  28.064  1.00  0.00    -0.237 OA
ATOM     73  O   UNL A   1      47.346  37.632  30.306  1.00  0.00    -0.237 OA
ATOM     74  O   UNL A   1      48.807  37.602  28.321  1.00  0.00    -0.744 OA
ENDBRANCH  70  71
ENDBRANCH  49  63
BRANCH  50  75
ATOM     75  C   UNL A   1      43.363  23.594  27.011  1.00  0.00     0.058 A 
ATOM     76  C   UNL A   1      43.261  22.648  28.041  1.00  0.00     0.135 A 
ATOM     77  C   UNL A   1      43.020  23.189  25.712  1.00  0.00     0.135 A 
ATOM     78  F   UNL A   1      43.585  22.988  29.298  1.00  0.00    -0.206 F 
ATOM     79  C   UNL A   1      42.862  21.339  27.790  1.00  0.00     0.059 A 
ATOM     80  C   UNL A   1      42.594  21.893  25.440  1.00  0.00     0.059 A 
ATOM     81  F   UNL A   1      43.084  24.063  24.695  1.00  0.00    -0.206 F 
ATOM     82  C   UNL A   1      42.534  20.970  26.484  1.00  0.00     0.060 A 
BRANCH  82  83
ATOM     83  S   UNL A   1      41.997  19.275  26.168  1.00  0.00     0.124 S 
ATOM     84  O   UNL A   1      42.812  18.920  25.013  1.00  0.00    -0.237 OA
ATOM     85  O   UNL A   1      42.337  18.605  27.420  1.00  0.00    -0.237 OA
ATOM     86  O   UNL A   1      40.567  19.421  25.915  1.00  0.00    -0.744 OA
ENDBRANCH  82  83
ENDBRANCH  50  75
BRANCH  62  87
ATOM     87  C   UNL A   1      49.492  26.791  26.154  1.00  0.00     0.058 A 
ATOM     88  C   UNL A   1      49.894  27.012  24.828  1.00  0.00     0.135 A 
ATOM     89  C   UNL A   1      50.397  26.155  27.019  1.00  0.00     0.135 A 
ATOM     90  F   UNL A   1      49.061  27.607  23.959  1.00  0.00    -0.206 F 
ATOM     91  C   UNL A   1      51.141  26.603  24.370  1.00  0.00     0.059 A 
ATOM     92  C   UNL A   1      51.659  25.760  26.590  1.00  0.00     0.059 A 
ATOM     93  F   UNL A   1      50.064  25.930  28.299  1.00  0.00    -0.206 F 
ATOM     94  C   UNL A   1      52.019  25.979  25.260  1.00  0.00     0.060 A 
BRANCH  94  95
ATOM     95  S   UNL A   1      53.652  25.490  24.665  1.00  0.00     0.124 S 
ATOM     96  O   UNL A   1      54.526  26.135  25.640  1.00  0.00    -0.237 OA
ATOM     97  O   UNL A   1      53.589  24.033  24.735  1.00  0.00    -0.237 OA
ATOM     98  O   UNL A   1      53.701  26.044  23.315  1.00  0.00    -0.744 OA
ENDBRANCH  94  95
ENDBRANCH  62  87
ENDBRANCH  36  37
ENDBRANCH  28  31
ENDBRANCH  26  27
ENDBRANCH  25  26
ENDBRANCH   1  25
TORSDOF 18
ENDMDL
MODEL 2
REMARK VINA RESULT:     -12.1      2.967      3.937
REMARK SMILES C[C@@H](C(=O)NCCCCNC(=O)c1ccc(-c2c3nc(c(-c4c(F)cc(S(=O)(=O)[O-])cc4F)c4ccc([nH]4)c(-c4c(F)cc(S(=O)(=O)[O-])cc4F)c4nc(c(-c5c(F)cc(S(=O)(=O)[O-])cc5F)c5ccc2[nH]5)C=C4)C=C3)cc1)c1ccc(C[C@H]2CCCC2=O)cc1[N+](=O)[O-]
REMARK SMILES IDX 7 1 6 2 5 3 3 4 4 5 2 7 1 8 79 9 80 10 91 11 81 12 90 13
REMARK SMILES IDX 82 14 92 15 93 16 94 17 83 18 84 19 85 20 88 21 86 22 87 23
REMARK SMILES IDX 89 24 8 25 9 26 10 27 11 28 12 30 13 31 14 32 78 33 15 34
REMARK SMILES IDX 77 35 16 36 17 37 18 38 71 39 19 40 76 41 70 42 72 43 20 44
REMARK SMILES IDX 75 45 69 46 68 47 21 49 55 50 34 51 54 52 35 53 38 54 53 55
REMARK SMILES IDX 73 56 36 57 37 58 52 60 74 61 39 62 22 63 23 64 32 65 24 66
REMARK SMILES IDX 25 67 31 68 33 69 26 70 27 71 28 72 29 73 30 74 56 75 57 76
REMARK SMILES IDX 66 77 58 78 59 79 65 80 67 81 60 82 61 83 62 84 63 85 64 86
REMARK SMILES IDX 40 87 41 88 50 89 42 90 43 91 49 92 51 93 44 94 45 95 46 96
REMARK SMILES IDX 47 97 48 98
REMARK H PARENT 5 6 10 29 72 48 38 59
REMARK Flexibility Score: inf
ROOT
ATOM      1  C   UNL A   1      31.590  28.192  25.481  1.00  0.00     0.023 C 
ENDROOT
BRANCH   1   2
ATOM      2  C   UNL A   1      30.491  27.233  25.025  1.00  0.00     0.116 C 
BRANCH   2   3
ATOM      3  N   UNL A   1      30.853  26.538  23.809  1.00  0.00    -0.356 N 
ATOM      4  C   UNL A   1      31.823  25.619  23.560  1.00  0.00     0.227 C 
ATOM      5  O   UNL A   1      31.803  25.090  22.445  1.00  0.00    -0.274 OA
ATOM      6  H   UNL A   1      30.301  26.769  23.028  1.00  0.00     0.163 HD
BRANCH   4   7
ATOM      7  C   UNL A   1      32.800  25.157  24.655  1.00  0.00     0.112 C 
ATOM      8  C   UNL A   1      34.251  25.646  24.591  1.00  0.00     0.023 C 
BRANCH   7   9
ATOM      9  C   UNL A   1      32.804  23.636  24.869  1.00  0.00     0.042 A 
ATOM     10  C   UNL A   1      33.754  22.903  24.125  1.00  0.00     0.012 A 
ATOM     11  C   UNL A   1      31.930  22.897  25.700  1.00  0.00     0.273 A 
ATOM     12  C   UNL A   1      33.807  21.506  24.172  1.00  0.00     0.004 A 
ATOM     13  C   UNL A   1      31.973  21.488  25.725  1.00  0.00     0.089 A 
ATOM     14  C   UNL A   1      32.892  20.783  24.940  1.00  0.00    -0.040 A 
BRANCH  11  15
ATOM     15  N   UNL A   1      30.916  23.512  26.569  1.00  0.00     0.063 N 
ATOM     16  O   UNL A   1      31.264  24.498  27.236  1.00  0.00    -0.258 OA
ATOM     17  O   UNL A   1      29.816  22.952  26.660  1.00  0.00    -0.258 OA
ENDBRANCH  11  15
BRANCH  14  18
ATOM     18  C   UNL A   1      32.873  19.274  24.908  1.00  0.00     0.047 C 
BRANCH  18  19
ATOM     19  C   UNL A   1      33.928  18.608  24.015  1.00  0.00     0.060 C 
ATOM     20  C   UNL A   1      35.087  17.904  24.731  1.00  0.00     0.012 C 
ATOM     21  C   UNL A   1      33.354  17.492  23.172  1.00  0.00     0.136 C 
ATOM     22  C   UNL A   1      34.725  16.424  24.775  1.00  0.00     0.009 C 
ATOM     23  C   UNL A   1      33.972  16.153  23.480  1.00  0.00     0.076 C 
ATOM     24  O   UNL A   1      32.493  17.657  22.316  1.00  0.00    -0.299 OA
ENDBRANCH  18  19
ENDBRANCH  14  18
ENDBRANCH   7   9
ENDBRANCH   4   7
ENDBRANCH   2   3
ENDBRANCH   1   2
BRANCH   1  25
ATOM     25  C   UNL A   1      32.004  28.049  26.948  1.00  0.00     0.023 C 
BRANCH  25  26
ATOM     26  C   UNL A   1      33.397  28.565  27.297  1.00  0.00     0.116 C 
BRANCH  26  27
ATOM     27  N   UNL A   1      33.407  29.967  27.685  1.00  0.00    -0.352 N 
ATOM     28  C   UNL A   1      34.428  30.710  28.231  1.00  0.00     0.251 C 
ATOM     29  H   UNL A   1      32.565  30.453  27.535  1.00  0.00     0.163 HD
ATOM     30  O   UNL A   1      34.222  31.862  28.592  1.00  0.00    -0.269 OA
BRANCH  28  31
ATOM     31  C   UNL A   1      35.759  30.094  28.421  1.00  0.00     0.039 A 
ATOM     32  C   UNL A   1      36.649  30.076  27.345  1.00  0.00     0.014 A 
ATOM     33  C   UNL A   1      36.142  29.580  29.664  1.00  0.00     0.014 A 
ATOM     34  C   UNL A   1      37.958  29.629  27.539  1.00  0.00     0.010 A 
ATOM     35  C   UNL A   1      37.463  29.187  29.869  1.00  0.00     0.010 A 
ATOM     36  C   UNL A   1      38.389  29.230  28.815  1.00  0.00    -0.014 A 
BRANCH  36  37
ATOM     37  C   UNL A   1      39.818  28.929  29.084  1.00  0.00     0.031 A 
ATOM     38  C   UNL A   1      40.741  29.999  29.595  1.00  0.00     0.074 A 
ATOM     39  C   UNL A   1      40.300  27.708  28.774  1.00  0.00     0.049 A 
ATOM     40  N   UNL A   1      42.034  29.945  29.790  1.00  0.00    -0.248 NA
ATOM     41  C   UNL A   1      40.141  31.306  29.906  1.00  0.00     0.031 C 
ATOM     42  C   UNL A   1      39.513  26.605  28.216  1.00  0.00     0.029 A 
ATOM     43  N   UNL A   1      41.570  27.195  28.858  1.00  0.00    -0.354 N 
ATOM     44  C   UNL A   1      42.405  31.209  30.231  1.00  0.00     0.074 A 
ATOM     45  C   UNL A   1      41.207  32.020  30.245  1.00  0.00     0.031 C 
ATOM     46  C   UNL A   1      40.316  25.548  28.012  1.00  0.00     0.029 A 
ATOM     47  C   UNL A   1      41.679  25.906  28.387  1.00  0.00     0.049 A 
ATOM     48  H   UNL A   1      42.333  27.700  29.222  1.00  0.00     0.167 HD
ATOM     49  C   UNL A   1      43.631  31.645  30.604  1.00  0.00     0.037 A 
ATOM     50  C   UNL A   1      42.758  25.111  28.250  1.00  0.00     0.037 A 
ATOM     51  C   UNL A   1      44.814  30.823  30.620  1.00  0.00     0.049 A 
ATOM     52  C   UNL A   1      44.108  25.625  28.670  1.00  0.00     0.074 A 
ATOM     53  C   UNL A   1      46.080  31.150  31.074  1.00  0.00     0.029 A 
ATOM     54  N   UNL A   1      44.880  29.519  30.155  1.00  0.00    -0.354 N 
ATOM     55  N   UNL A   1      44.422  26.795  29.171  1.00  0.00    -0.248 NA
ATOM     56  C   UNL A   1      45.248  24.714  28.505  1.00  0.00     0.031 C 
ATOM     57  C   UNL A   1      46.923  30.058  30.843  1.00  0.00     0.029 A 
ATOM     58  C   UNL A   1      46.174  29.038  30.282  1.00  0.00     0.049 A 
ATOM     59  H   UNL A   1      44.121  29.009  29.790  1.00  0.00     0.167 HD
ATOM     60  C   UNL A   1      45.794  26.756  29.392  1.00  0.00     0.074 A 
ATOM     61  C   UNL A   1      46.246  25.440  28.992  1.00  0.00     0.031 C 
ATOM     62  C   UNL A   1      46.608  27.725  29.877  1.00  0.00     0.037 A 
BRANCH  49  63
ATOM     63  C   UNL A   1      43.770  33.075  31.042  1.00  0.00     0.058 A 
ATOM     64  C   UNL A   1      43.674  33.441  32.393  1.00  0.00     0.135 A 
ATOM     65  C   UNL A   1      44.092  34.078  30.112  1.00  0.00     0.135 A 
ATOM     66  F   UNL A   1      43.355  32.525  33.320  1.00  0.00    -0.206 F 
ATOM     67  C   UNL A   1      43.887  34.752  32.807  1.00  0.00     0.059 A 
ATOM     68  C   UNL A   1      44.329  35.391  30.506  1.00  0.00     0.059 A 
ATOM     69  F   UNL A   1      44.191  33.780  28.806  1.00  0.00    -0.206 F 
ATOM     70  C   UNL A   1      44.220  35.718  31.857  1.00  0.00     0.060 A 
BRANCH  70  71
ATOM     71  S   UNL A   1      44.538  37.404  32.419  1.00  0.00     0.124 S 
ATOM     72  O   UNL A   1      44.226  38.175  31.219  1.00  0.00    -0.237 OA
ATOM     73  O   UNL A   1      43.598  37.548  33.525  1.00  0.00    -0.237 OA
ATOM     74  O   UNL A   1      45.947  37.377  32.797  1.00  0.00    -0.744 OA
ENDBRANCH  70  71
ENDBRANCH  49  63
BRANCH  50  75
ATOM     75  C   UNL A   1      42.615  23.746  27.676  1.00  0.00     0.058 A 
ATOM     76  C   UNL A   1      42.369  22.638  28.499  1.00  0.00     0.135 A 
ATOM     77  C   UNL A   1      42.740  23.523  26.295  1.00  0.00     0.135 A 
ATOM     78  F   UNL A   1      42.249  22.802  29.825  1.00  0.00    -0.206 F 
ATOM     79  C   UNL A   1      42.280  21.351  27.979  1.00  0.00     0.059 A 
ATOM     80  C   UNL A   1      42.629  22.248  25.750  1.00  0.00     0.059 A 
ATOM     81  F   UNL A   1      42.957  24.554  25.464  1.00  0.00    -0.206 F 
ATOM     82  C   UNL A   1      42.416  21.166  26.602  1.00  0.00     0.060 A 
BRANCH  82  83
ATOM     83  S   UNL A   1      42.278  19.494  25.932  1.00  0.00     0.124 S 
ATOM     84  O   UNL A   1      40.845  19.399  25.679  1.00  0.00    -0.237 OA
ATOM     85  O   UNL A   1      43.132  19.565  24.750  1.00  0.00    -0.237 OA
ATOM     86  O   UNL A   1      42.788  18.658  27.014  1.00  0.00    -0.744 OA
ENDBRANCH  82  83
ENDBRANCH  50  75
BRANCH  62  87
ATOM     87  C   UNL A   1      48.068  27.397  30.012  1.00  0.00     0.058 A 
ATOM     88  C   UNL A   1      48.955  27.565  28.937  1.00  0.00     0.135 A 
ATOM     89  C   UNL A   1      48.594  26.960  31.238  1.00  0.00     0.135 A 
ATOM     90  F   UNL A   1      48.500  27.970  27.742  1.00  0.00    -0.206 F 
ATOM     91  C   UNL A   1      50.313  27.295  29.069  1.00  0.00     0.059 A 
ATOM     92  C   UNL A   1      49.952  26.708  31.400  1.00  0.00     0.059 A 
ATOM     93  F   UNL A   1      47.788  26.792  32.298  1.00  0.00    -0.206 F 
ATOM     94  C   UNL A   1      50.802  26.869  30.306  1.00  0.00     0.060 A 
BRANCH  94  95
ATOM     95  S   UNL A   1      52.574  26.562  30.476  1.00  0.00     0.124 S 
ATOM     96  O   UNL A   1      52.963  26.310  29.092  1.00  0.00    -0.237 OA
ATOM     97  O   UNL A   1      53.057  27.812  31.053  1.00  0.00    -0.237 OA
ATOM     98  O   UNL A   1      52.633  25.405  31.365  1.00  0.00    -0.744 OA
ENDBRANCH  94  95
ENDBRANCH  62  87
ENDBRANCH  36  37
ENDBRANCH  28  31
ENDBRANCH  26  27
ENDBRANCH  25  26
ENDBRANCH   1  25
TORSDOF 18
ENDMDL
MODEL 3
REMARK VINA RESULT:     -12.0      4.915      6.224
REMARK SMILES C[C@@H](C(=O)NCCCCNC(=O)c1ccc(-c2c3nc(c(-c4c(F)cc(S(=O)(=O)[O-])cc4F)c4ccc([nH]4)c(-c4c(F)cc(S(=O)(=O)[O-])cc4F)c4nc(c(-c5c(F)cc(S(=O)(=O)[O-])cc5F)c5ccc2[nH]5)C=C4)C=C3)cc1)c1ccc(C[C@H]2CCCC2=O)cc1[N+](=O)[O-]
REMARK SMILES IDX 7 1 6 2 5 3 3 4 4 5 2 7 1 8 79 9 80 10 91 11 81 12 90 13
REMARK SMILES IDX 82 14 92 15 93 16 94 17 83 18 84 19 85 20 88 21 86 22 87 23
REMARK SMILES IDX 89 24 8 25 9 26 10 27 11 28 12 30 13 31 14 32 78 33 15 34
REMARK SMILES IDX 77 35 16 36 17 37 18 38 71 39 19 40 76 41 70 42 72 43 20 44
REMARK SMILES IDX 75 45 69 46 68 47 21 49 55 50 34 51 54 52 35 53 38 54 53 55
REMARK SMILES IDX 73 56 36 57 37 58 52 60 74 61 39 62 22 63 23 64 32 65 24 66
REMARK SMILES IDX 25 67 31 68 33 69 26 70 27 71 28 72 29 73 30 74 56 75 57 76
REMARK SMILES IDX 66 77 58 78 59 79 65 80 67 81 60 82 61 83 62 84 63 85 64 86
REMARK SMILES IDX 40 87 41 88 50 89 42 90 43 91 49 92 51 93 44 94 45 95 46 96
REMARK SMILES IDX 47 97 48 98
REMARK H PARENT 5 6 10 29 72 48 38 59
REMARK Flexibility Score: inf
ROOT
ATOM      1  C   UNL A   1      31.659  28.122  26.577  1.00  0.00     0.023 C 
ENDROOT
BRANCH   1   2
ATOM      2  C   UNL A   1      30.820  26.852  26.712  1.00  0.00     0.116 C 
BRANCH   2   3
ATOM      3  N   UNL A   1      30.345  26.382  25.429  1.00  0.00    -0.356 N 
ATOM      4  C   UNL A   1      30.926  25.575  24.502  1.00  0.00     0.227 C 
ATOM      5  O   UNL A   1      30.214  25.230  23.554  1.00  0.00    -0.274 OA
ATOM      6  H   UNL A   1      29.446  26.701  25.186  1.00  0.00     0.163 HD
BRANCH   4   7
ATOM      7  C   UNL A   1      32.341  25.006  24.698  1.00  0.00     0.112 C 
ATOM      8  C   UNL A   1      33.491  25.617  23.890  1.00  0.00     0.023 C 
BRANCH   7   9
ATOM      9  C   UNL A   1      32.409  23.478  24.569  1.00  0.00     0.042 A 
ATOM     10  C   UNL A   1      32.777  22.972  23.303  1.00  0.00     0.012 A 
ATOM     11  C   UNL A   1      32.101  22.530  25.573  1.00  0.00     0.273 A 
ATOM     12  C   UNL A   1      32.799  21.601  23.036  1.00  0.00     0.004 A 
ATOM     13  C   UNL A   1      32.102  21.149  25.290  1.00  0.00     0.089 A 
ATOM     14  C   UNL A   1      32.424  20.677  24.013  1.00  0.00    -0.040 A 
BRANCH  11  15
ATOM     15  N   UNL A   1      31.741  22.890  26.952  1.00  0.00     0.063 N 
ATOM     16  O   UNL A   1      32.569  22.630  27.839  1.00  0.00    -0.258 OA
ATOM     17  O   UNL A   1      30.604  23.332  27.157  1.00  0.00    -0.258 OA
ENDBRANCH  11  15
BRANCH  14  18
ATOM     18  C   UNL A   1      32.339  19.203  23.697  1.00  0.00     0.047 C 
BRANCH  18  19
ATOM     19  C   UNL A   1      33.387  18.310  24.374  1.00  0.00     0.060 C 
ATOM     20  C   UNL A   1      33.084  17.863  25.808  1.00  0.00     0.012 C 
ATOM     21  C   UNL A   1      33.568  16.987  23.664  1.00  0.00     0.136 C 
ATOM     22  C   UNL A   1      32.494  16.461  25.704  1.00  0.00     0.009 C 
ATOM     23  C   UNL A   1      33.212  15.808  24.531  1.00  0.00     0.076 C 
ATOM     24  O   UNL A   1      33.976  16.879  22.514  1.00  0.00    -0.299 OA
ENDBRANCH  18  19
ENDBRANCH  14  18
ENDBRANCH   7   9
ENDBRANCH   4   7
ENDBRANCH   2   3
ENDBRANCH   1   2
BRANCH   1  25
ATOM     25  C   UNL A   1      33.162  27.931  26.805  1.00  0.00     0.023 C 
BRANCH  25  26
ATOM     26  C   UNL A   1      34.074  28.906  26.068  1.00  0.00     0.116 C 
BRANCH  26  27
ATOM     27  N   UNL A   1      33.950  30.276  26.542  1.00  0.00    -0.352 N 
ATOM     28  C   UNL A   1      34.735  30.959  27.442  1.00  0.00     0.251 C 
ATOM     29  H   UNL A   1      33.197  30.787  26.165  1.00  0.00     0.163 HD
ATOM     30  O   UNL A   1      34.416  32.085  27.802  1.00  0.00    -0.269 OA
BRANCH  28  31
ATOM     31  C   UNL A   1      35.937  30.307  28.004  1.00  0.00     0.039 A 
ATOM     32  C   UNL A   1      37.146  30.419  27.314  1.00  0.00     0.014 A 
ATOM     33  C   UNL A   1      35.882  29.629  29.226  1.00  0.00     0.014 A 
ATOM     34  C   UNL A   1      38.320  29.935  27.893  1.00  0.00     0.010 A 
ATOM     35  C   UNL A   1      37.062  29.196  29.827  1.00  0.00     0.010 A 
ATOM     36  C   UNL A   1      38.294  29.366  29.177  1.00  0.00    -0.014 A 
BRANCH  36  37
ATOM     37  C   UNL A   1      39.551  29.015  29.887  1.00  0.00     0.031 A 
ATOM     38  C   UNL A   1      40.042  29.854  31.032  1.00  0.00     0.074 A 
ATOM     39  C   UNL A   1      40.295  27.987  29.431  1.00  0.00     0.049 A 
ATOM     40  N   UNL A   1      41.162  29.758  31.701  1.00  0.00    -0.248 NA
ATOM     41  C   UNL A   1      39.175  30.961  31.469  1.00  0.00     0.031 C 
ATOM     42  C   UNL A   1      39.951  27.133  28.290  1.00  0.00     0.029 A 
ATOM     43  N   UNL A   1      41.507  27.497  29.852  1.00  0.00    -0.354 N 
ATOM     44  C   UNL A   1      41.144  30.795  32.625  1.00  0.00     0.074 A 
ATOM     45  C   UNL A   1      39.916  31.530  32.411  1.00  0.00     0.031 C 
ATOM     46  C   UNL A   1      40.925  26.227  28.105  1.00  0.00     0.029 A 
ATOM     47  C   UNL A   1      41.979  26.456  29.087  1.00  0.00     0.049 A 
ATOM     48  H   UNL A   1      41.992  27.857  30.629  1.00  0.00     0.167 HD
ATOM     49  C   UNL A   1      42.062  31.094  33.574  1.00  0.00     0.037 A 
ATOM     50  C   UNL A   1      43.141  25.776  29.152  1.00  0.00     0.037 A 
ATOM     51  C   UNL A   1      43.267  30.339  33.804  1.00  0.00     0.049 A 
ATOM     52  C   UNL A   1      44.143  26.135  30.215  1.00  0.00     0.074 A 
ATOM     53  C   UNL A   1      44.208  30.508  34.804  1.00  0.00     0.029 A 
ATOM     54  N   UNL A   1      43.700  29.279  33.023  1.00  0.00    -0.354 N 
ATOM     55  N   UNL A   1      44.065  27.062  31.139  1.00  0.00    -0.248 NA
ATOM     56  C   UNL A   1      45.389  25.357  30.245  1.00  0.00     0.031 C 
ATOM     57  C   UNL A   1      45.234  29.579  34.602  1.00  0.00     0.029 A 
ATOM     58  C   UNL A   1      44.912  28.806  33.499  1.00  0.00     0.049 A 
ATOM     59  H   UNL A   1      43.219  28.916  32.244  1.00  0.00     0.167 HD
ATOM     60  C   UNL A   1      45.246  26.971  31.866  1.00  0.00     0.074 A 
ATOM     61  C   UNL A   1      46.011  25.885  31.291  1.00  0.00     0.031 C 
ATOM     62  C   UNL A   1      45.663  27.724  32.914  1.00  0.00     0.037 A 
BRANCH  49  63
ATOM     63  C   UNL A   1      41.807  32.284  34.454  1.00  0.00     0.058 A 
ATOM     64  C   UNL A   1      42.280  33.561  34.117  1.00  0.00     0.135 A 
ATOM     65  C   UNL A   1      41.005  32.163  35.602  1.00  0.00     0.135 A 
ATOM     66  F   UNL A   1      43.063  33.729  33.039  1.00  0.00    -0.206 F 
ATOM     67  C   UNL A   1      41.972  34.677  34.888  1.00  0.00     0.059 A 
ATOM     68  C   UNL A   1      40.667  33.269  36.376  1.00  0.00     0.059 A 
ATOM     69  F   UNL A   1      40.531  30.963  35.970  1.00  0.00    -0.206 F 
ATOM     70  C   UNL A   1      41.160  34.521  36.013  1.00  0.00     0.060 A 
BRANCH  70  71
ATOM     71  S   UNL A   1      40.732  35.988  36.975  1.00  0.00     0.124 S 
ATOM     72  O   UNL A   1      42.019  36.674  37.047  1.00  0.00    -0.237 OA
ATOM     73  O   UNL A   1      39.721  36.627  36.140  1.00  0.00    -0.237 OA
ATOM     74  O   UNL A   1      40.244  35.438  38.235  1.00  0.00    -0.744 OA
ENDBRANCH  70  71
ENDBRANCH  49  63
BRANCH  50  75
ATOM     75  C   UNL A   1      43.433  24.695  28.173  1.00  0.00     0.058 A 
ATOM     76  C   UNL A   1      44.094  24.971  26.968  1.00  0.00     0.135 A 
ATOM     77  C   UNL A   1      43.039  23.370  28.415  1.00  0.00     0.135 A 
ATOM     78  F   UNL A   1      44.484  26.224  26.689  1.00  0.00    -0.206 F 
ATOM     79  C   UNL A   1      44.332  23.977  26.023  1.00  0.00     0.059 A 
ATOM     80  C   UNL A   1      43.287  22.355  27.498  1.00  0.00     0.059 A 
ATOM     81  F   UNL A   1      42.418  23.053  29.562  1.00  0.00    -0.206 F 
ATOM     82  C   UNL A   1      43.920  22.672  26.297  1.00  0.00     0.060 A 
BRANCH  82  83
ATOM     83  S   UNL A   1      44.249  21.383  25.075  1.00  0.00     0.124 S 
ATOM     84  O   UNL A   1      44.126  22.125  23.827  1.00  0.00    -0.237 OA
ATOM     85  O   UNL A   1      45.599  20.956  25.434  1.00  0.00    -0.237 OA
ATOM     86  O   UNL A   1      43.201  20.401  25.336  1.00  0.00    -0.744 OA
ENDBRANCH  82  83
ENDBRANCH  50  75
BRANCH  62  87
ATOM     87  C   UNL A   1      47.001  27.394  33.512  1.00  0.00     0.058 A 
ATOM     88  C   UNL A   1      48.171  28.037  33.079  1.00  0.00     0.135 A 
ATOM     89  C   UNL A   1      47.108  26.467  34.560  1.00  0.00     0.135 A 
ATOM     90  F   UNL A   1      48.123  28.924  32.073  1.00  0.00    -0.206 F 
ATOM     91  C   UNL A   1      49.406  27.759  33.655  1.00  0.00     0.059 A 
ATOM     92  C   UNL A   1      48.328  26.192  35.168  1.00  0.00     0.059 A 
ATOM     93  F   UNL A   1      46.016  25.832  35.015  1.00  0.00    -0.206 F 
ATOM     94  C   UNL A   1      49.474  26.836  34.701  1.00  0.00     0.060 A 
BRANCH  94  95
ATOM     95  S   UNL A   1      51.077  26.514  35.468  1.00  0.00     0.124 S 
ATOM     96  O   UNL A   1      51.651  27.855  35.522  1.00  0.00    -0.237 OA
ATOM     97  O   UNL A   1      50.700  25.934  36.753  1.00  0.00    -0.237 OA
ATOM     98  O   UNL A   1      51.720  25.592  34.536  1.00  0.00    -0.744 OA
ENDBRANCH  94  95
ENDBRANCH  62  87
ENDBRANCH  36  37
ENDBRANCH  28  31
ENDBRANCH  26  27
ENDBRANCH  25  26
ENDBRANCH   1  25
TORSDOF 18
ENDMDL
