MODEL 1
REMARK VINA RESULT:     -10.6      0.000      0.000
REMARK SMILES CNC(=O)CC[NH+]1CCC(CC(=O)NCCCCNC(=O)c2ccc(-c3c4nc(c(-c5c(F)cc(S(=O)(=O)[O-])cc5F)c5ccc([nH]5)c(-c5c(F)cc(S(=O)(=O)[O-])cc5F)c5nc(c(-c6c(F)cc(S(=O)(=O)[O-])cc6F)c6ccc3[nH]6)C=C5)C=C4)cc2)CC1
REMARK SMILES IDX 16 1 15 2 14 3 12 4 13 5 11 7 10 8 7 9 8 10 89 11 9 13 88 14
REMARK SMILES IDX 6 15 5 16 3 17 1 18 2 19 4 21 17 22 18 23 19 24 20 25 21 27
REMARK SMILES IDX 22 28 23 29 87 30 24 31 86 32 25 33 26 34 27 35 80 36 28 37
REMARK SMILES IDX 85 38 79 39 81 40 29 41 84 42 78 43 77 44 30 46 64 47 43 48
REMARK SMILES IDX 63 49 44 50 47 51 62 52 82 53 45 54 46 55 61 57 83 58 48 59
REMARK SMILES IDX 31 60 32 61 41 62 33 63 34 64 40 65 42 66 35 67 36 68 37 69
REMARK SMILES IDX 38 70 39 71 65 72 66 73 75 74 67 75 68 76 74 77 76 78 69 79
REMARK SMILES IDX 70 80 71 81 72 82 73 83 49 84 50 85 59 86 51 87 52 88 58 89
REMARK SMILES IDX 60 90 53 91 54 92 55 93 56 94 57 95
REMARK H PARENT 14 6 7 12 2 20 19 26 81 45 47 56
REMARK Flexibility Score: inf
ROOT
ATOM      1  C   UNL A   1      31.929  29.251  25.292  1.00  0.00     0.023 C 
ENDROOT
BRANCH   1   2
ATOM      2  C   UNL A   1      31.465  28.921  23.869  1.00  0.00     0.116 C 
BRANCH   2   3
ATOM      3  N   UNL A   1      32.600  28.805  22.971  1.00  0.00    -0.356 N 
ATOM      4  C   UNL A   1      33.090  27.723  22.301  1.00  0.00     0.220 C 
ATOM      5  O   UNL A   1      34.145  27.856  21.678  1.00  0.00    -0.275 OA
ATOM      6  H   UNL A   1      33.096  29.642  22.821  1.00  0.00     0.163 HD
BRANCH   4   7
ATOM      7  C   UNL A   1      32.365  26.380  22.319  1.00  0.00     0.104 C 
BRANCH   7   8
ATOM      8  C   UNL A   1      33.290  25.212  22.690  1.00  0.00     0.009 C 
ATOM      9  N   UNL A   1      34.394  22.946  24.204  1.00  0.00    -0.334 N 
ATOM     10  C   UNL A   1      34.913  24.306  24.331  1.00  0.00     0.262 C 
ATOM     11  C   UNL A   1      33.630  22.716  22.968  1.00  0.00     0.262 C 
ATOM     12  H   UNL A   1      33.707  22.828  24.950  1.00  0.00     0.348 HD
ATOM     13  C   UNL A   1      33.836  25.352  24.114  1.00  0.00     0.066 C 
ATOM     14  C   UNL A   1      32.611  23.832  22.649  1.00  0.00     0.066 C 
BRANCH   9  15
ATOM     15  C   UNL A   1      35.461  21.943  24.423  1.00  0.00     0.272 C 
BRANCH  15  16
ATOM     16  C   UNL A   1      35.038  20.567  24.978  1.00  0.00     0.161 C 
BRANCH  16  17
ATOM     17  C   UNL A   1      33.950  20.682  26.033  1.00  0.00     0.225 C 
ATOM     18  C   UNL A   1      32.837  18.483  25.407  1.00  0.00     0.142 C 
ATOM     19  N   UNL A   1      33.006  19.705  26.158  1.00  0.00    -0.359 N 
ATOM     20  H   UNL A   1      32.340  19.855  26.867  1.00  0.00     0.163 HD
ATOM     21  O   UNL A   1      33.888  21.655  26.787  1.00  0.00    -0.275 OA
ENDBRANCH  16  17
ENDBRANCH  15  16
ENDBRANCH   9  15
ENDBRANCH   7   8
ENDBRANCH   4   7
ENDBRANCH   2   3
ENDBRANCH   1   2
BRANCH   1  22
ATOM     22  C   UNL A   1      33.033  28.342  25.829  1.00  0.00     0.023 C 
BRANCH  22  23
ATOM     23  C   UNL A   1      33.363  28.565  27.301  1.00  0.00     0.116 C 
BRANCH  23  24
ATOM     24  N   UNL A   1      33.374  29.968  27.697  1.00  0.00    -0.352 N 
ATOM     25  C   UNL A   1      34.408  30.721  28.215  1.00  0.00     0.251 C 
ATOM     26  H   UNL A   1      32.522  30.448  27.577  1.00  0.00     0.163 HD
ATOM     27  O   UNL A   1      34.212  31.877  28.560  1.00  0.00    -0.269 OA
BRANCH  25  28
ATOM     28  C   UNL A   1      35.740  30.100  28.400  1.00  0.00     0.039 A 
ATOM     29  C   UNL A   1      36.638  30.091  27.330  1.00  0.00     0.014 A 
ATOM     30  C   UNL A   1      36.123  29.589  29.641  1.00  0.00     0.014 A 
ATOM     31  C   UNL A   1      37.953  29.665  27.536  1.00  0.00     0.010 A 
ATOM     32  C   UNL A   1      37.454  29.263  29.869  1.00  0.00     0.010 A 
ATOM     33  C   UNL A   1      38.387  29.303  28.822  1.00  0.00    -0.014 A 
BRANCH  33  34
ATOM     34  C   UNL A   1      39.807  28.968  29.106  1.00  0.00     0.031 A 
ATOM     35  C   UNL A   1      40.720  30.008  29.698  1.00  0.00     0.074 A 
ATOM     36  C   UNL A   1      40.299  27.765  28.741  1.00  0.00     0.049 A 
ATOM     37  N   UNL A   1      42.011  29.957  29.900  1.00  0.00    -0.248 NA
ATOM     38  C   UNL A   1      40.106  31.294  30.071  1.00  0.00     0.031 C 
ATOM     39  C   UNL A   1      39.535  26.695  28.095  1.00  0.00     0.029 A 
ATOM     40  N   UNL A   1      41.565  27.246  28.848  1.00  0.00    -0.354 N 
ATOM     41  C   UNL A   1      42.366  31.208  30.395  1.00  0.00     0.074 A 
ATOM     42  C   UNL A   1      41.167  32.014  30.403  1.00  0.00     0.031 C 
ATOM     43  C   UNL A   1      40.339  25.639  27.891  1.00  0.00     0.029 A 
ATOM     44  C   UNL A   1      41.683  25.967  28.354  1.00  0.00     0.049 A 
ATOM     45  H   UNL A   1      42.319  27.742  29.241  1.00  0.00     0.167 HD
ATOM     46  C   UNL A   1      43.574  31.636  30.831  1.00  0.00     0.037 A 
ATOM     47  C   UNL A   1      42.754  25.153  28.277  1.00  0.00     0.037 A 
ATOM     48  C   UNL A   1      44.752  30.810  30.869  1.00  0.00     0.049 A 
ATOM     49  C   UNL A   1      44.079  25.637  28.803  1.00  0.00     0.074 A 
ATOM     50  C   UNL A   1      46.007  31.123  31.363  1.00  0.00     0.029 A 
ATOM     51  N   UNL A   1      44.818  29.505  30.405  1.00  0.00    -0.354 N 
ATOM     52  N   UNL A   1      44.381  26.802  29.324  1.00  0.00    -0.248 NA
ATOM     53  C   UNL A   1      45.205  24.696  28.734  1.00  0.00     0.031 C 
ATOM     54  C   UNL A   1      46.840  30.016  31.168  1.00  0.00     0.029 A 
ATOM     55  C   UNL A   1      46.094  29.001  30.589  1.00  0.00     0.049 A 
ATOM     56  H   UNL A   1      44.068  29.010  30.003  1.00  0.00     0.167 HD
ATOM     57  C   UNL A   1      45.726  26.726  29.668  1.00  0.00     0.074 A 
ATOM     58  C   UNL A   1      46.174  25.397  29.308  1.00  0.00     0.031 C 
ATOM     59  C   UNL A   1      46.519  27.671  30.232  1.00  0.00     0.037 A 
BRANCH  46  60
ATOM     60  C   UNL A   1      43.673  33.055  31.318  1.00  0.00     0.058 A 
ATOM     61  C   UNL A   1      43.885  34.124  30.431  1.00  0.00     0.135 A 
ATOM     62  C   UNL A   1      43.539  33.355  32.683  1.00  0.00     0.135 A 
ATOM     63  F   UNL A   1      44.037  33.892  29.118  1.00  0.00    -0.206 F 
ATOM     64  C   UNL A   1      43.999  35.434  30.884  1.00  0.00     0.059 A 
ATOM     65  C   UNL A   1      43.621  34.662  33.156  1.00  0.00     0.059 A 
ATOM     66  F   UNL A   1      43.336  32.372  33.575  1.00  0.00    -0.206 F 
ATOM     67  C   UNL A   1      43.869  35.693  32.249  1.00  0.00     0.060 A 
BRANCH  67  68
ATOM     68  S   UNL A   1      44.026  37.397  32.822  1.00  0.00     0.124 S 
ATOM     69  O   UNL A   1      42.918  37.488  33.768  1.00  0.00    -0.237 OA
ATOM     70  O   UNL A   1      45.363  37.408  33.409  1.00  0.00    -0.237 OA
ATOM     71  O   UNL A   1      43.875  38.180  31.600  1.00  0.00    -0.744 OA
ENDBRANCH  67  68
ENDBRANCH  46  60
BRANCH  47  72
ATOM     72  C   UNL A   1      42.612  23.784  27.712  1.00  0.00     0.058 A 
ATOM     73  C   UNL A   1      42.440  22.675  28.554  1.00  0.00     0.135 A 
ATOM     74  C   UNL A   1      42.630  23.557  26.328  1.00  0.00     0.135 A 
ATOM     75  F   UNL A   1      42.420  22.841  29.885  1.00  0.00    -0.206 F 
ATOM     76  C   UNL A   1      42.307  21.387  28.045  1.00  0.00     0.059 A 
ATOM     77  C   UNL A   1      42.477  22.281  25.794  1.00  0.00     0.059 A 
ATOM     78  F   UNL A   1      42.775  24.586  25.479  1.00  0.00    -0.206 F 
ATOM     79  C   UNL A   1      42.325  21.200  26.662  1.00  0.00     0.060 A 
BRANCH  79  80
ATOM     80  S   UNL A   1      42.101  19.530  26.010  1.00  0.00     0.124 S 
ATOM     81  O   UNL A   1      40.658  19.487  25.804  1.00  0.00    -0.237 OA
ATOM     82  O   UNL A   1      42.919  19.560  24.802  1.00  0.00    -0.237 OA
ATOM     83  O   UNL A   1      42.613  18.682  27.082  1.00  0.00    -0.744 OA
ENDBRANCH  79  80
ENDBRANCH  47  72
BRANCH  59  84
ATOM     84  C   UNL A   1      47.943  27.294  30.521  1.00  0.00     0.058 A 
ATOM     85  C   UNL A   1      48.313  26.692  31.735  1.00  0.00     0.135 A 
ATOM     86  C   UNL A   1      48.941  27.483  29.551  1.00  0.00     0.135 A 
ATOM     87  F   UNL A   1      47.398  26.496  32.698  1.00  0.00    -0.206 F 
ATOM     88  C   UNL A   1      49.626  26.310  31.983  1.00  0.00     0.059 A 
ATOM     89  C   UNL A   1      50.255  27.084  29.768  1.00  0.00     0.059 A 
ATOM     90  F   UNL A   1      48.635  28.043  28.370  1.00  0.00    -0.206 F 
ATOM     91  C   UNL A   1      50.590  26.507  30.993  1.00  0.00     0.060 A 
BRANCH  91  92
ATOM     92  S   UNL A   1      52.284  25.969  31.313  1.00  0.00     0.124 S 
ATOM     93  O   UNL A   1      52.723  26.955  32.294  1.00  0.00    -0.237 OA
ATOM     94  O   UNL A   1      52.091  24.614  31.817  1.00  0.00    -0.237 OA
ATOM     95  O   UNL A   1      52.920  26.059  30.002  1.00  0.00    -0.744 OA
ENDBRANCH  91  92
ENDBRANCH  59  84
ENDBRANCH  33  34
ENDBRANCH  25  28
ENDBRANCH  23  24
ENDBRANCH  22  23
ENDBRANCH   1  22
TORSDOF 18
ENDMDL
MODEL 2
REMARK VINA RESULT:     -10.6      1.363      2.239
REMARK SMILES CNC(=O)CC[NH+]1CCC(CC(=O)NCCCCNC(=O)c2ccc(-c3c4nc(c(-c5c(F)cc(S(=O)(=O)[O-])cc5F)c5ccc([nH]5)c(-c5c(F)cc(S(=O)(=O)[O-])cc5F)c5nc(c(-c6c(F)cc(S(=O)(=O)[O-])cc6F)c6ccc3[nH]6)C=C5)C=C4)cc2)CC1
REMARK SMILES IDX 16 1 15 2 14 3 12 4 13 5 11 7 10 8 7 9 8 10 89 11 9 13 88 14
REMARK SMILES IDX 6 15 5 16 3 17 1 18 2 19 4 21 17 22 18 23 19 24 20 25 21 27
REMARK SMILES IDX 22 28 23 29 87 30 24 31 86 32 25 33 26 34 27 35 80 36 28 37
REMARK SMILES IDX 85 38 79 39 81 40 29 41 84 42 78 43 77 44 30 46 64 47 43 48
REMARK SMILES IDX 63 49 44 50 47 51 62 52 82 53 45 54 46 55 61 57 83 58 48 59
REMARK SMILES IDX 31 60 32 61 41 62 33 63 34 64 40 65 42 66 35 67 36 68 37 69
REMARK SMILES IDX 38 70 39 71 65 72 66 73 75 74 67 75 68 76 74 77 76 78 69 79
REMARK SMILES IDX 70 80 71 81 72 82 73 83 49 84 50 85 59 86 51 87 52 88 58 89
REMARK SMILES IDX 60 90 53 91 54 92 55 93 56 94 57 95
REMARK H PARENT 14 6 7 12 2 20 19 26 81 45 47 56
REMARK Flexibility Score: inf
ROOT
ATOM      1  C   UNL A   1      33.137  29.223  24.792  1.00  0.00     0.023 C 
ENDROOT
BRANCH   1   2
ATOM      2  C   UNL A   1      31.613  29.334  24.919  1.00  0.00     0.116 C 
BRANCH   2   3
ATOM      3  N   UNL A   1      30.998  29.502  23.615  1.00  0.00    -0.356 N 
ATOM      4  C   UNL A   1      30.272  28.626  22.861  1.00  0.00     0.220 C 
ATOM      5  O   UNL A   1      29.947  28.972  21.724  1.00  0.00    -0.275 OA
ATOM      6  H   UNL A   1      31.124  30.389  23.209  1.00  0.00     0.163 HD
BRANCH   4   7
ATOM      7  C   UNL A   1      29.874  27.254  23.398  1.00  0.00     0.104 C 
BRANCH   7   8
ATOM      8  C   UNL A   1      31.051  26.270  23.441  1.00  0.00     0.009 C 
ATOM      9  N   UNL A   1      32.769  23.997  22.715  1.00  0.00    -0.334 N 
ATOM     10  C   UNL A   1      31.763  23.917  23.772  1.00  0.00     0.262 C 
ATOM     11  C   UNL A   1      33.170  25.372  22.380  1.00  0.00     0.262 C 
ATOM     12  H   UNL A   1      32.324  23.650  21.865  1.00  0.00     0.348 HD
ATOM     13  C   UNL A   1      30.573  24.816  23.496  1.00  0.00     0.066 C 
ATOM     14  C   UNL A   1      31.982  26.345  22.218  1.00  0.00     0.066 C 
BRANCH   9  15
ATOM     15  C   UNL A   1      33.920  23.110  23.003  1.00  0.00     0.272 C 
BRANCH  15  16
ATOM     16  C   UNL A   1      34.949  23.598  24.042  1.00  0.00     0.161 C 
BRANCH  16  17
ATOM     17  C   UNL A   1      36.376  23.264  23.639  1.00  0.00     0.225 C 
ATOM     18  C   UNL A   1      37.342  23.710  25.950  1.00  0.00     0.142 C 
ATOM     19  N   UNL A   1      37.385  23.338  24.554  1.00  0.00    -0.359 N 
ATOM     20  H   UNL A   1      38.278  23.102  24.212  1.00  0.00     0.163 HD
ATOM     21  O   UNL A   1      36.655  22.930  22.486  1.00  0.00    -0.275 OA
ENDBRANCH  16  17
ENDBRANCH  15  16
ENDBRANCH   9  15
ENDBRANCH   7   8
ENDBRANCH   4   7
ENDBRANCH   2   3
ENDBRANCH   1   2
BRANCH   1  22
ATOM     22  C   UNL A   1      33.794  28.296  25.811  1.00  0.00     0.023 C 
BRANCH  22  23
ATOM     23  C   UNL A   1      33.378  28.561  27.255  1.00  0.00     0.116 C 
BRANCH  23  24
ATOM     24  N   UNL A   1      33.380  29.973  27.619  1.00  0.00    -0.352 N 
ATOM     25  C   UNL A   1      34.403  30.738  28.142  1.00  0.00     0.251 C 
ATOM     26  H   UNL A   1      32.531  30.449  27.470  1.00  0.00     0.163 HD
ATOM     27  O   UNL A   1      34.199  31.901  28.456  1.00  0.00    -0.269 OA
BRANCH  25  28
ATOM     28  C   UNL A   1      35.731  30.122  28.368  1.00  0.00     0.039 A 
ATOM     29  C   UNL A   1      36.660  30.113  27.326  1.00  0.00     0.014 A 
ATOM     30  C   UNL A   1      36.078  29.617  29.622  1.00  0.00     0.014 A 
ATOM     31  C   UNL A   1      37.970  29.692  27.572  1.00  0.00     0.010 A 
ATOM     32  C   UNL A   1      37.403  29.296  29.891  1.00  0.00     0.010 A 
ATOM     33  C   UNL A   1      38.367  29.336  28.872  1.00  0.00    -0.014 A 
BRANCH  33  34
ATOM     34  C   UNL A   1      39.780  29.007  29.199  1.00  0.00     0.031 A 
ATOM     35  C   UNL A   1      40.662  30.044  29.840  1.00  0.00     0.074 A 
ATOM     36  C   UNL A   1      40.294  27.815  28.831  1.00  0.00     0.049 A 
ATOM     37  N   UNL A   1      41.946  29.999  30.086  1.00  0.00    -0.248 NA
ATOM     38  C   UNL A   1      40.026  31.318  30.213  1.00  0.00     0.031 C 
ATOM     39  C   UNL A   1      39.561  26.750  28.140  1.00  0.00     0.029 A 
ATOM     40  N   UNL A   1      41.559  27.303  28.973  1.00  0.00    -0.354 N 
ATOM     41  C   UNL A   1      42.273  31.243  30.614  1.00  0.00     0.074 A 
ATOM     42  C   UNL A   1      41.068  32.041  30.594  1.00  0.00     0.031 C 
ATOM     43  C   UNL A   1      40.380  25.704  27.947  1.00  0.00     0.029 A 
ATOM     44  C   UNL A   1      41.705  26.034  28.461  1.00  0.00     0.049 A 
ATOM     45  H   UNL A   1      42.295  27.798  29.400  1.00  0.00     0.167 HD
ATOM     46  C   UNL A   1      43.463  31.673  31.099  1.00  0.00     0.037 A 
ATOM     47  C   UNL A   1      42.784  25.230  28.408  1.00  0.00     0.037 A 
ATOM     48  C   UNL A   1      44.645  30.856  31.164  1.00  0.00     0.049 A 
ATOM     49  C   UNL A   1      44.086  25.714  28.987  1.00  0.00     0.074 A 
ATOM     50  C   UNL A   1      45.879  31.170  31.706  1.00  0.00     0.029 A 
ATOM     51  N   UNL A   1      44.738  29.560  30.680  1.00  0.00    -0.354 N 
ATOM     52  N   UNL A   1      44.361  26.872  29.539  1.00  0.00    -0.248 NA
ATOM     53  C   UNL A   1      45.222  24.784  28.942  1.00  0.00     0.031 C 
ATOM     54  C   UNL A   1      46.728  30.073  31.521  1.00  0.00     0.029 A 
ATOM     55  C   UNL A   1      46.011  29.063  30.899  1.00  0.00     0.049 A 
ATOM     56  H   UNL A   1      44.006  29.066  30.244  1.00  0.00     0.167 HD
ATOM     57  C   UNL A   1      45.693  26.801  29.928  1.00  0.00     0.074 A 
ATOM     58  C   UNL A   1      46.165  25.481  29.561  1.00  0.00     0.031 C 
ATOM     59  C   UNL A   1      46.458  27.742  30.534  1.00  0.00     0.037 A 
BRANCH  46  60
ATOM     60  C   UNL A   1      43.533  33.084  31.613  1.00  0.00     0.058 A 
ATOM     61  C   UNL A   1      44.013  34.136  30.815  1.00  0.00     0.135 A 
ATOM     62  C   UNL A   1      43.101  33.396  32.913  1.00  0.00     0.135 A 
ATOM     63  F   UNL A   1      44.455  33.891  29.571  1.00  0.00    -0.206 F 
ATOM     64  C   UNL A   1      44.100  35.436  31.298  1.00  0.00     0.059 A 
ATOM     65  C   UNL A   1      43.151  34.696  33.407  1.00  0.00     0.059 A 
ATOM     66  F   UNL A   1      42.633  32.430  33.719  1.00  0.00    -0.206 F 
ATOM     67  C   UNL A   1      43.669  35.707  32.598  1.00  0.00     0.060 A 
BRANCH  67  68
ATOM     68  S   UNL A   1      43.794  37.399  33.212  1.00  0.00     0.124 S 
ATOM     69  O   UNL A   1      43.597  38.167  31.987  1.00  0.00    -0.237 OA
ATOM     70  O   UNL A   1      42.703  37.461  34.181  1.00  0.00    -0.237 OA
ATOM     71  O   UNL A   1      45.136  37.455  33.780  1.00  0.00    -0.744 OA
ENDBRANCH  67  68
ENDBRANCH  46  60
BRANCH  47  72
ATOM     72  C   UNL A   1      42.674  23.870  27.815  1.00  0.00     0.058 A 
ATOM     73  C   UNL A   1      42.748  23.685  26.425  1.00  0.00     0.135 A 
ATOM     74  C   UNL A   1      42.508  22.731  28.617  1.00  0.00     0.135 A 
ATOM     75  F   UNL A   1      42.902  24.744  25.616  1.00  0.00    -0.206 F 
ATOM     76  C   UNL A   1      42.646  22.422  25.851  1.00  0.00     0.059 A 
ATOM     77  C   UNL A   1      42.426  21.455  28.068  1.00  0.00     0.059 A 
ATOM     78  F   UNL A   1      42.449  22.852  29.952  1.00  0.00    -0.206 F 
ATOM     79  C   UNL A   1      42.487  21.312  26.681  1.00  0.00     0.060 A 
BRANCH  79  80
ATOM     80  S   UNL A   1      42.406  19.672  25.929  1.00  0.00     0.124 S 
ATOM     81  O   UNL A   1      43.486  19.743  24.952  1.00  0.00    -0.237 OA
ATOM     82  O   UNL A   1      42.637  18.797  27.074  1.00  0.00    -0.237 OA
ATOM     83  O   UNL A   1      41.056  19.623  25.377  1.00  0.00    -0.744 OA
ENDBRANCH  79  80
ENDBRANCH  47  72
BRANCH  59  84
ATOM     84  C   UNL A   1      47.875  27.371  30.867  1.00  0.00     0.058 A 
ATOM     85  C   UNL A   1      48.937  27.669  29.999  1.00  0.00     0.135 A 
ATOM     86  C   UNL A   1      48.182  26.762  32.095  1.00  0.00     0.135 A 
ATOM     87  F   UNL A   1      48.696  28.244  28.809  1.00  0.00    -0.206 F 
ATOM     88  C   UNL A   1      50.252  27.358  30.328  1.00  0.00     0.059 A 
ATOM     89  C   UNL A   1      49.491  26.467  32.456  1.00  0.00     0.059 A 
ATOM     90  F   UNL A   1      47.202  26.468  32.965  1.00  0.00    -0.206 F 
ATOM     91  C   UNL A   1      50.519  26.760  31.561  1.00  0.00     0.060 A 
BRANCH  91  92
ATOM     92  S   UNL A   1      52.235  26.397  31.993  1.00  0.00     0.124 S 
ATOM     93  O   UNL A   1      52.533  25.285  31.098  1.00  0.00    -0.237 OA
ATOM     94  O   UNL A   1      52.907  27.656  31.688  1.00  0.00    -0.237 OA
ATOM     95  O   UNL A   1      52.162  26.062  33.412  1.00  0.00    -0.744 OA
ENDBRANCH  91  92
ENDBRANCH  59  84
ENDBRANCH  33  34
ENDBRANCH  25  28
ENDBRANCH  23  24
ENDBRANCH  22  23
ENDBRANCH   1  22
TORSDOF 18
ENDMDL
MODEL 3
REMARK VINA RESULT:     -10.6      2.849      9.570
REMARK SMILES CNC(=O)CC[NH+]1CCC(CC(=O)NCCCCNC(=O)c2ccc(-c3c4nc(c(-c5c(F)cc(S(=O)(=O)[O-])cc5F)c5ccc([nH]5)c(-c5c(F)cc(S(=O)(=O)[O-])cc5F)c5nc(c(-c6c(F)cc(S(=O)(=O)[O-])cc6F)c6ccc3[nH]6)C=C5)C=C4)cc2)CC1
REMARK SMILES IDX 16 1 15 2 14 3 12 4 13 5 11 7 10 8 7 9 8 10 89 11 9 13 88 14
REMARK SMILES IDX 6 15 5 16 3 17 1 18 2 19 4 21 17 22 18 23 19 24 20 25 21 27
REMARK SMILES IDX 22 28 23 29 87 30 24 31 86 32 25 33 26 34 27 35 80 36 28 37
REMARK SMILES IDX 85 38 79 39 81 40 29 41 84 42 78 43 77 44 30 46 64 47 43 48
REMARK SMILES IDX 63 49 44 50 47 51 62 52 82 53 45 54 46 55 61 57 83 58 48 59
REMARK SMILES IDX 31 60 32 61 41 62 33 63 34 64 40 65 42 66 35 67 36 68 37 69
REMARK SMILES IDX 38 70 39 71 65 72 66 73 75 74 67 75 68 76 74 77 76 78 69 79
REMARK SMILES IDX 70 80 71 81 72 82 73 83 49 84 50 85 59 86 51 87 52 88 58 89
REMARK SMILES IDX 60 90 53 91 54 92 55 93 56 94 57 95
REMARK H PARENT 14 6 7 12 2 20 19 26 81 45 47 56
REMARK Flexibility Score: inf
ROOT
ATOM      1  C   UNL A   1      35.748  21.782  26.120  1.00  0.00     0.023 C 
ENDROOT
BRANCH   1   2
ATOM      2  C   UNL A   1      35.420  20.697  25.087  1.00  0.00     0.116 C 
BRANCH   2   3
ATOM      3  N   UNL A   1      34.150  20.062  25.393  1.00  0.00    -0.356 N 
ATOM      4  C   UNL A   1      32.956  20.112  24.735  1.00  0.00     0.220 C 
ATOM      5  O   UNL A   1      31.983  19.568  25.260  1.00  0.00    -0.275 OA
ATOM      6  H   UNL A   1      34.151  19.507  26.205  1.00  0.00     0.163 HD
BRANCH   4   7
ATOM      7  C   UNL A   1      32.818  20.821  23.391  1.00  0.00     0.104 C 
BRANCH   7   8
ATOM      8  C   UNL A   1      32.670  22.342  23.535  1.00  0.00     0.009 C 
ATOM      9  N   UNL A   1      32.157  25.142  22.800  1.00  0.00    -0.334 N 
ATOM     10  C   UNL A   1      33.502  24.572  22.838  1.00  0.00     0.262 C 
ATOM     11  C   UNL A   1      31.168  24.383  23.580  1.00  0.00     0.262 C 
ATOM     12  H   UNL A   1      31.835  25.058  21.835  1.00  0.00     0.348 HD
ATOM     13  C   UNL A   1      33.506  23.094  22.496  1.00  0.00     0.066 C 
ATOM     14  C   UNL A   1      31.232  22.858  23.350  1.00  0.00     0.066 C 
BRANCH   9  15
ATOM     15  C   UNL A   1      32.178  26.585  23.134  1.00  0.00     0.272 C 
BRANCH  15  16
ATOM     16  C   UNL A   1      33.387  27.110  23.936  1.00  0.00     0.161 C 
BRANCH  16  17
ATOM     17  C   UNL A   1      33.763  28.530  23.545  1.00  0.00     0.225 C 
ATOM     18  C   UNL A   1      32.401  29.610  25.402  1.00  0.00     0.142 C 
ATOM     19  N   UNL A   1      33.280  29.590  24.256  1.00  0.00    -0.359 N 
ATOM     20  H   UNL A   1      33.574  30.474  23.939  1.00  0.00     0.163 HD
ATOM     21  O   UNL A   1      34.498  28.757  22.583  1.00  0.00    -0.275 OA
ENDBRANCH  16  17
ENDBRANCH  15  16
ENDBRANCH   9  15
ENDBRANCH   7   8
ENDBRANCH   4   7
ENDBRANCH   2   3
ENDBRANCH   1   2
BRANCH   1  22
ATOM     22  C   UNL A   1      35.738  23.207  25.571  1.00  0.00     0.023 C 
BRANCH  22  23
ATOM     23  C   UNL A   1      37.069  23.654  24.975  1.00  0.00     0.116 C 
BRANCH  23  24
ATOM     24  N   UNL A   1      38.181  22.760  25.278  1.00  0.00    -0.352 N 
ATOM     25  C   UNL A   1      39.294  22.986  26.061  1.00  0.00     0.251 C 
ATOM     26  H   UNL A   1      38.129  21.868  24.866  1.00  0.00     0.163 HD
ATOM     27  O   UNL A   1      40.168  22.136  26.144  1.00  0.00    -0.269 OA
BRANCH  25  28
ATOM     28  C   UNL A   1      39.446  24.286  26.754  1.00  0.00     0.039 A 
ATOM     29  C   UNL A   1      38.901  24.442  28.031  1.00  0.00     0.014 A 
ATOM     30  C   UNL A   1      40.178  25.324  26.173  1.00  0.00     0.014 A 
ATOM     31  C   UNL A   1      39.180  25.598  28.765  1.00  0.00     0.010 A 
ATOM     32  C   UNL A   1      40.538  26.424  26.941  1.00  0.00     0.010 A 
ATOM     33  C   UNL A   1      40.050  26.572  28.248  1.00  0.00    -0.014 A 
BRANCH  33  34
ATOM     34  C   UNL A   1      40.472  27.752  29.048  1.00  0.00     0.031 A 
ATOM     35  C   UNL A   1      41.789  27.732  29.777  1.00  0.00     0.074 A 
ATOM     36  C   UNL A   1      39.631  28.796  29.201  1.00  0.00     0.049 A 
ATOM     37  N   UNL A   1      42.279  28.600  30.624  1.00  0.00    -0.248 NA
ATOM     38  C   UNL A   1      42.651  26.558  29.558  1.00  0.00     0.031 C 
ATOM     39  C   UNL A   1      38.297  28.907  28.603  1.00  0.00     0.029 A 
ATOM     40  N   UNL A   1      39.767  29.959  29.917  1.00  0.00    -0.354 N 
ATOM     41  C   UNL A   1      43.487  28.063  31.058  1.00  0.00     0.074 A 
ATOM     42  C   UNL A   1      43.625  26.769  30.429  1.00  0.00     0.031 C 
ATOM     43  C   UNL A   1      37.753  30.083  28.954  1.00  0.00     0.029 A 
ATOM     44  C   UNL A   1      38.677  30.794  29.831  1.00  0.00     0.049 A 
ATOM     45  H   UNL A   1      40.570  30.175  30.444  1.00  0.00     0.167 HD
ATOM     46  C   UNL A   1      44.411  28.612  31.882  1.00  0.00     0.037 A 
ATOM     47  C   UNL A   1      38.446  31.994  30.398  1.00  0.00     0.037 A 
ATOM     48  C   UNL A   1      44.291  29.923  32.462  1.00  0.00     0.049 A 
ATOM     49  C   UNL A   1      39.504  32.601  31.280  1.00  0.00     0.074 A 
ATOM     50  C   UNL A   1      45.206  30.603  33.248  1.00  0.00     0.029 A 
ATOM     51  N   UNL A   1      43.194  30.757  32.311  1.00  0.00    -0.354 N 
ATOM     52  N   UNL A   1      40.668  32.106  31.629  1.00  0.00    -0.248 NA
ATOM     53  C   UNL A   1      39.222  33.930  31.840  1.00  0.00     0.031 C 
ATOM     54  C   UNL A   1      44.646  31.837  33.599  1.00  0.00     0.029 A 
ATOM     55  C   UNL A   1      43.401  31.941  32.998  1.00  0.00     0.049 A 
ATOM     56  H   UNL A   1      42.386  30.540  31.791  1.00  0.00     0.167 HD
ATOM     57  C   UNL A   1      41.266  33.073  32.430  1.00  0.00     0.074 A 
ATOM     58  C   UNL A   1      40.342  34.185  32.502  1.00  0.00     0.031 C 
ATOM     59  C   UNL A   1      42.471  33.041  33.050  1.00  0.00     0.037 A 
BRANCH  46  60
ATOM     60  C   UNL A   1      45.639  27.799  32.186  1.00  0.00     0.058 A 
ATOM     61  C   UNL A   1      45.682  26.908  33.271  1.00  0.00     0.135 A 
ATOM     62  C   UNL A   1      46.782  27.898  31.375  1.00  0.00     0.135 A 
ATOM     63  F   UNL A   1      44.624  26.787  34.088  1.00  0.00    -0.206 F 
ATOM     64  C   UNL A   1      46.826  26.174  33.565  1.00  0.00     0.059 A 
ATOM     65  C   UNL A   1      47.928  27.150  31.633  1.00  0.00     0.059 A 
ATOM     66  F   UNL A   1      46.796  28.734  30.325  1.00  0.00    -0.206 F 
ATOM     67  C   UNL A   1      47.946  26.304  32.742  1.00  0.00     0.060 A 
BRANCH  67  68
ATOM     68  S   UNL A   1      49.424  25.349  33.141  1.00  0.00     0.124 S 
ATOM     69  O   UNL A   1      50.245  26.353  33.811  1.00  0.00    -0.237 OA
ATOM     70  O   UNL A   1      48.892  24.292  33.997  1.00  0.00    -0.237 OA
ATOM     71  O   UNL A   1      49.907  24.911  31.836  1.00  0.00    -0.744 OA
ENDBRANCH  67  68
ENDBRANCH  46  60
BRANCH  47  72
ATOM     72  C   UNL A   1      37.176  32.718  30.123  1.00  0.00     0.058 A 
ATOM     73  C   UNL A   1      37.100  33.667  29.092  1.00  0.00     0.135 A 
ATOM     74  C   UNL A   1      36.014  32.469  30.868  1.00  0.00     0.135 A 
ATOM     75  F   UNL A   1      38.186  33.943  28.354  1.00  0.00    -0.206 F 
ATOM     76  C   UNL A   1      35.922  34.356  28.819  1.00  0.00     0.059 A 
ATOM     77  C   UNL A   1      34.818  33.128  30.600  1.00  0.00     0.059 A 
ATOM     78  F   UNL A   1      36.029  31.558  31.853  1.00  0.00    -0.206 F 
ATOM     79  C   UNL A   1      34.785  34.078  29.579  1.00  0.00     0.060 A 
BRANCH  79  80
ATOM     80  S   UNL A   1      33.247  34.940  29.184  1.00  0.00     0.124 S 
ATOM     81  O   UNL A   1      32.675  34.068  28.166  1.00  0.00    -0.237 OA
ATOM     82  O   UNL A   1      32.563  34.954  30.473  1.00  0.00    -0.237 OA
ATOM     83  O   UNL A   1      33.707  36.244  28.715  1.00  0.00    -0.744 OA
ENDBRANCH  79  80
ENDBRANCH  47  72
BRANCH  59  84
ATOM     84  C   UNL A   1      42.875  34.257  33.836  1.00  0.00     0.058 A 
ATOM     85  C   UNL A   1      42.699  34.325  35.227  1.00  0.00     0.135 A 
ATOM     86  C   UNL A   1      43.499  35.341  33.198  1.00  0.00     0.135 A 
ATOM     87  F   UNL A   1      42.102  33.317  35.882  1.00  0.00    -0.206 F 
ATOM     88  C   UNL A   1      43.110  35.436  35.955  1.00  0.00     0.059 A 
ATOM     89  C   UNL A   1      43.941  36.450  33.910  1.00  0.00     0.059 A 
ATOM     90  F   UNL A   1      43.700  35.318  31.871  1.00  0.00    -0.206 F 
ATOM     91  C   UNL A   1      43.732  36.493  35.288  1.00  0.00     0.060 A 
BRANCH  91  92
ATOM     92  S   UNL A   1      44.296  37.912  36.252  1.00  0.00     0.124 S 
ATOM     93  O   UNL A   1      44.049  39.011  35.325  1.00  0.00    -0.237 OA
ATOM     94  O   UNL A   1      43.427  37.861  37.423  1.00  0.00    -0.237 OA
ATOM     95  O   UNL A   1      45.701  37.609  36.509  1.00  0.00    -0.744 OA
ENDBRANCH  91  92
ENDBRANCH  59  84
ENDBRANCH  33  34
ENDBRANCH  25  28
ENDBRANCH  23  24
ENDBRANCH  22  23
ENDBRANCH   1  22
TORSDOF 18
ENDMDL
