MODEL 1
REMARK VINA RESULT:     -11.9      0.000      0.000
REMARK SMILES O=C(NCCCCNC(=O)[C@@H](Cc1ccccc1)Nc1ccc(Cl)c(Br)c1)c1ccc(-c2c3nc(c(-c4c(F)cc(S(=O)(=O)[O-])cc4F)c4ccc([nH]4)c(-c4c(F)cc(S(=O)(=O)[O-])cc4F)c4nc(c(-c5c(F)cc(S(=O)(=O)[O-])cc5F)c5ccc2[nH]5)C=C4)C=C3)cc1
REMARK SMILES IDX 5 1 4 2 3 3 1 4 2 5 28 7 29 8 93 9 30 10 92 11 31 12 32 13
REMARK SMILES IDX 33 14 86 15 34 16 91 17 85 18 87 19 35 20 90 21 84 22 83 23
REMARK SMILES IDX 36 25 70 26 49 27 69 28 50 29 53 30 68 31 88 32 51 33 52 34
REMARK SMILES IDX 67 36 89 37 54 38 37 39 38 40 47 41 39 42 40 43 46 44 48 45
REMARK SMILES IDX 41 46 42 47 43 48 44 49 45 50 71 51 72 52 81 53 73 54 74 55
REMARK SMILES IDX 80 56 82 57 75 58 76 59 77 60 78 61 79 62 55 63 56 64 65 65
REMARK SMILES IDX 57 66 58 67 64 68 66 69 59 70 60 71 61 72 62 73 63 74 6 75
REMARK SMILES IDX 7 76 8 77 9 78 10 80 11 81 12 82 13 83 14 84 18 85 15 86
REMARK SMILES IDX 17 87 16 88 19 89 20 91 21 92 27 93 22 94 25 95 23 96 26 97
REMARK SMILES IDX 24 98
REMARK H PARENT 3 6 87 24 53 35 8 79 19 90
REMARK Flexibility Score: inf
ROOT
ATOM      1  C   UNL A   1      40.046  22.136  26.909  1.00  0.00     0.023 C 
ENDROOT
BRANCH   1   2
ATOM      2  C   UNL A   1      41.281  23.017  27.040  1.00  0.00     0.116 C 
BRANCH   2   3
ATOM      3  N   UNL A   1      41.488  23.932  25.921  1.00  0.00    -0.352 N 
ATOM      4  O   UNL A   1      41.722  25.958  24.932  1.00  0.00    -0.269 OA
ATOM      5  C   UNL A   1      41.609  25.302  25.963  1.00  0.00     0.251 C 
ATOM      6  H   UNL A   1      41.550  23.519  25.029  1.00  0.00     0.163 HD
BRANCH   5   7
ATOM      7  C   UNL A   1      41.543  25.966  27.280  1.00  0.00     0.039 A 
ATOM      8  C   UNL A   1      40.359  25.924  28.016  1.00  0.00     0.014 A 
ATOM      9  C   UNL A   1      42.627  26.733  27.713  1.00  0.00     0.014 A 
ATOM     10  C   UNL A   1      40.192  26.793  29.084  1.00  0.00     0.010 A 
ATOM     11  C   UNL A   1      42.488  27.535  28.848  1.00  0.00     0.010 A 
ATOM     12  C   UNL A   1      41.254  27.609  29.512  1.00  0.00    -0.014 A 
BRANCH  12  13
ATOM     13  C   UNL A   1      41.046  28.504  30.678  1.00  0.00     0.031 A 
ATOM     14  C   UNL A   1      41.975  28.474  31.862  1.00  0.00     0.074 A 
ATOM     15  C   UNL A   1      40.037  29.395  30.626  1.00  0.00     0.049 A 
ATOM     16  N   UNL A   1      41.935  29.195  32.953  1.00  0.00    -0.248 NA
ATOM     17  C   UNL A   1      43.085  27.509  31.823  1.00  0.00     0.031 C 
ATOM     18  C   UNL A   1      39.078  29.515  29.524  1.00  0.00     0.029 A 
ATOM     19  N   UNL A   1      39.666  30.384  31.497  1.00  0.00    -0.354 N 
ATOM     20  C   UNL A   1      42.991  28.754  33.742  1.00  0.00     0.074 A 
ATOM     21  C   UNL A   1      43.650  27.694  33.010  1.00  0.00     0.031 C 
ATOM     22  C   UNL A   1      38.272  30.559  29.754  1.00  0.00     0.029 A 
ATOM     23  C   UNL A   1      38.607  31.138  31.050  1.00  0.00     0.049 A 
ATOM     24  H   UNL A   1      40.114  30.541  32.359  1.00  0.00     0.167 HD
ATOM     25  C   UNL A   1      43.372  29.196  34.966  1.00  0.00     0.037 A 
ATOM     26  C   UNL A   1      37.963  32.169  31.624  1.00  0.00     0.037 A 
ATOM     27  C   UNL A   1      42.726  30.273  35.674  1.00  0.00     0.049 A 
ATOM     28  C   UNL A   1      38.405  32.638  32.977  1.00  0.00     0.074 A 
ATOM     29  C   UNL A   1      43.046  30.805  36.912  1.00  0.00     0.029 A 
ATOM     30  N   UNL A   1      41.632  30.986  35.205  1.00  0.00    -0.354 N 
ATOM     31  N   UNL A   1      39.395  32.195  33.715  1.00  0.00    -0.248 NA
ATOM     32  C   UNL A   1      37.638  33.733  33.581  1.00  0.00     0.031 C 
ATOM     33  C   UNL A   1      42.128  31.820  37.202  1.00  0.00     0.029 A 
ATOM     34  C   UNL A   1      41.257  31.944  36.132  1.00  0.00     0.049 A 
ATOM     35  H   UNL A   1      41.187  30.833  34.340  1.00  0.00     0.167 HD
ATOM     36  C   UNL A   1      39.367  32.955  34.876  1.00  0.00     0.074 A 
ATOM     37  C   UNL A   1      38.279  33.903  34.730  1.00  0.00     0.031 C 
ATOM     38  C   UNL A   1      40.164  32.870  35.969  1.00  0.00     0.037 A 
BRANCH  25  39
ATOM     39  C   UNL A   1      44.531  28.506  35.630  1.00  0.00     0.058 A 
ATOM     40  C   UNL A   1      45.850  28.957  35.472  1.00  0.00     0.135 A 
ATOM     41  C   UNL A   1      44.312  27.404  36.475  1.00  0.00     0.135 A 
ATOM     42  F   UNL A   1      46.118  29.995  34.664  1.00  0.00    -0.206 F 
ATOM     43  C   UNL A   1      46.915  28.328  36.112  1.00  0.00     0.059 A 
ATOM     44  C   UNL A   1      45.361  26.773  37.140  1.00  0.00     0.059 A 
ATOM     45  F   UNL A   1      43.070  26.933  36.661  1.00  0.00    -0.206 F 
ATOM     46  C   UNL A   1      46.661  27.234  36.941  1.00  0.00     0.060 A 
BRANCH  46  47
ATOM     47  S   UNL A   1      48.050  26.429  37.767  1.00  0.00     0.124 S 
ATOM     48  O   UNL A   1      47.415  25.225  38.294  1.00  0.00    -0.237 OA
ATOM     49  O   UNL A   1      48.990  26.219  36.671  1.00  0.00    -0.237 OA
ATOM     50  O   UNL A   1      48.465  27.408  38.767  1.00  0.00    -0.744 OA
ENDBRANCH  46  47
ENDBRANCH  25  39
BRANCH  26  51
ATOM     51  C   UNL A   1      36.827  32.805  30.912  1.00  0.00     0.058 A 
ATOM     52  C   UNL A   1      35.504  32.563  31.305  1.00  0.00     0.135 A 
ATOM     53  C   UNL A   1      37.048  33.720  29.870  1.00  0.00     0.135 A 
ATOM     54  F   UNL A   1      35.246  31.696  32.295  1.00  0.00    -0.206 F 
ATOM     55  C   UNL A   1      34.436  33.210  30.692  1.00  0.00     0.059 A 
ATOM     56  C   UNL A   1      36.000  34.395  29.259  1.00  0.00     0.059 A 
ATOM     57  F   UNL A   1      38.300  33.997  29.474  1.00  0.00    -0.206 F 
ATOM     58  C   UNL A   1      34.695  34.130  29.675  1.00  0.00     0.060 A 
BRANCH  58  59
ATOM     59  S   UNL A   1      33.314  35.035  28.943  1.00  0.00     0.124 S 
ATOM     60  O   UNL A   1      32.808  34.065  27.978  1.00  0.00    -0.237 OA
ATOM     61  O   UNL A   1      32.462  35.292  30.100  1.00  0.00    -0.237 OA
ATOM     62  O   UNL A   1      33.956  36.218  28.376  1.00  0.00    -0.744 OA
ENDBRANCH  58  59
ENDBRANCH  26  51
BRANCH  38  63
ATOM     63  C   UNL A   1      39.885  33.830  37.086  1.00  0.00     0.058 A 
ATOM     64  C   UNL A   1      40.478  35.102  37.119  1.00  0.00     0.135 A 
ATOM     65  C   UNL A   1      38.999  33.487  38.119  1.00  0.00     0.135 A 
ATOM     66  F   UNL A   1      41.339  35.470  36.157  1.00  0.00    -0.206 F 
ATOM     67  C   UNL A   1      40.219  35.995  38.152  1.00  0.00     0.059 A 
ATOM     68  C   UNL A   1      38.711  34.372  39.152  1.00  0.00     0.059 A 
ATOM     69  F   UNL A   1      38.403  32.284  38.127  1.00  0.00    -0.206 F 
ATOM     70  C   UNL A   1      39.336  35.620  39.166  1.00  0.00     0.060 A 
BRANCH  70  71
ATOM     71  S   UNL A   1      38.989  36.793  40.493  1.00  0.00     0.124 S 
ATOM     72  O   UNL A   1      40.314  36.979  41.073  1.00  0.00    -0.237 OA
ATOM     73  O   UNL A   1      38.448  37.939  39.769  1.00  0.00    -0.237 OA
ATOM     74  O   UNL A   1      38.028  36.080  41.331  1.00  0.00    -0.744 OA
ENDBRANCH  70  71
ENDBRANCH  38  63
ENDBRANCH  12  13
ENDBRANCH   5   7
ENDBRANCH   2   3
ENDBRANCH   1   2
BRANCH   1  75
ATOM     75  C   UNL A   1      38.841  22.842  26.304  1.00  0.00     0.023 C 
BRANCH  75  76
ATOM     76  C   UNL A   1      37.804  21.922  25.668  1.00  0.00     0.116 C 
BRANCH  76  77
ATOM     77  N   UNL A   1      37.423  22.423  24.365  1.00  0.00    -0.354 N 
ATOM     78  C   UNL A   1      36.285  23.045  23.957  1.00  0.00     0.242 C 
ATOM     79  H   UNL A   1      38.098  22.293  23.660  1.00  0.00     0.163 HD
ATOM     80  O   UNL A   1      36.113  23.133  22.735  1.00  0.00    -0.273 OA
BRANCH  78  81
ATOM     81  C   UNL A   1      35.251  23.668  24.929  1.00  0.00     0.173 C 
BRANCH  81  82
ATOM     82  C   UNL A   1      34.568  24.967  24.446  1.00  0.00     0.070 C 
BRANCH  82  83
ATOM     83  C   UNL A   1      33.193  25.398  24.912  1.00  0.00    -0.045 A 
ATOM     84  C   UNL A   1      32.088  25.217  24.059  1.00  0.00     0.004 A 
ATOM     85  C   UNL A   1      32.982  26.062  26.128  1.00  0.00     0.004 A 
ATOM     86  C   UNL A   1      30.804  25.614  24.447  1.00  0.00     0.000 A 
ATOM     87  C   UNL A   1      31.696  26.448  26.522  1.00  0.00     0.000 A 
ATOM     88  C   UNL A   1      30.606  26.215  25.686  1.00  0.00     0.000 A 
ENDBRANCH  82  83
ENDBRANCH  81  82
BRANCH  81  89
ATOM     89  N   UNL A   1      34.353  22.651  25.505  1.00  0.00    -0.373 N 
ATOM     90  H   UNL A   1      34.076  22.764  26.442  1.00  0.00     0.161 HD
BRANCH  89  91
ATOM     91  C   UNL A   1      33.873  21.548  24.820  1.00  0.00     0.036 A 
ATOM     92  C   UNL A   1      32.795  21.720  23.941  1.00  0.00     0.027 A 
ATOM     93  C   UNL A   1      34.367  20.249  24.985  1.00  0.00     0.043 A 
ATOM     94  C   UNL A   1      32.268  20.649  23.210  1.00  0.00     0.024 A 
ATOM     95  C   UNL A   1      33.850  19.168  24.256  1.00  0.00     0.038 A 
ATOM     96  C   UNL A   1      32.801  19.370  23.358  1.00  0.00     0.055 A 
ATOM     97  Br  UNL A   1      34.641  17.463  24.543  1.00  0.00    -0.049 Br
ATOM     98  Cl  UNL A   1      32.118  18.097  22.412  1.00  0.00    -0.083 Cl
ENDBRANCH  89  91
ENDBRANCH  81  89
ENDBRANCH  78  81
ENDBRANCH  76  77
ENDBRANCH  75  76
ENDBRANCH   1  75
TORSDOF 18
ENDMDL
MODEL 2
REMARK VINA RESULT:     -11.9      1.962      3.399
REMARK SMILES O=C(NCCCCNC(=O)[C@@H](Cc1ccccc1)Nc1ccc(Cl)c(Br)c1)c1ccc(-c2c3nc(c(-c4c(F)cc(S(=O)(=O)[O-])cc4F)c4ccc([nH]4)c(-c4c(F)cc(S(=O)(=O)[O-])cc4F)c4nc(c(-c5c(F)cc(S(=O)(=O)[O-])cc5F)c5ccc2[nH]5)C=C4)C=C3)cc1
REMARK SMILES IDX 5 1 4 2 3 3 1 4 2 5 28 7 29 8 93 9 30 10 92 11 31 12 32 13
REMARK SMILES IDX 33 14 86 15 34 16 91 17 85 18 87 19 35 20 90 21 84 22 83 23
REMARK SMILES IDX 36 25 70 26 49 27 69 28 50 29 53 30 68 31 88 32 51 33 52 34
REMARK SMILES IDX 67 36 89 37 54 38 37 39 38 40 47 41 39 42 40 43 46 44 48 45
REMARK SMILES IDX 41 46 42 47 43 48 44 49 45 50 71 51 72 52 81 53 73 54 74 55
REMARK SMILES IDX 80 56 82 57 75 58 76 59 77 60 78 61 79 62 55 63 56 64 65 65
REMARK SMILES IDX 57 66 58 67 64 68 66 69 59 70 60 71 61 72 62 73 63 74 6 75
REMARK SMILES IDX 7 76 8 77 9 78 10 80 11 81 12 82 13 83 14 84 18 85 15 86
REMARK SMILES IDX 17 87 16 88 19 89 20 91 21 92 27 93 22 94 25 95 23 96 26 97
REMARK SMILES IDX 24 98
REMARK H PARENT 3 6 87 24 53 35 8 79 19 90
REMARK Flexibility Score: inf
ROOT
ATOM      1  C   UNL A   1      37.422  23.571  25.383  1.00  0.00     0.023 C 
ENDROOT
BRANCH   1   2
ATOM      2  C   UNL A   1      38.376  23.988  26.494  1.00  0.00     0.116 C 
BRANCH   2   3
ATOM      3  N   UNL A   1      39.789  23.902  26.138  1.00  0.00    -0.352 N 
ATOM      4  O   UNL A   1      41.960  24.556  26.144  1.00  0.00    -0.269 OA
ATOM      5  C   UNL A   1      40.820  24.704  26.573  1.00  0.00     0.251 C 
ATOM      6  H   UNL A   1      40.035  23.184  25.510  1.00  0.00     0.163 HD
BRANCH   5   7
ATOM      7  C   UNL A   1      40.505  25.783  27.530  1.00  0.00     0.039 A 
ATOM      8  C   UNL A   1      41.246  26.965  27.507  1.00  0.00     0.014 A 
ATOM      9  C   UNL A   1      39.554  25.555  28.528  1.00  0.00     0.014 A 
ATOM     10  C   UNL A   1      41.169  27.836  28.584  1.00  0.00     0.010 A 
ATOM     11  C   UNL A   1      39.409  26.484  29.562  1.00  0.00     0.010 A 
ATOM     12  C   UNL A   1      40.251  27.605  29.623  1.00  0.00    -0.014 A 
BRANCH  12  13
ATOM     13  C   UNL A   1      40.178  28.576  30.744  1.00  0.00     0.031 A 
ATOM     14  C   UNL A   1      41.156  28.525  31.886  1.00  0.00     0.074 A 
ATOM     15  C   UNL A   1      39.249  29.549  30.686  1.00  0.00     0.049 A 
ATOM     16  N   UNL A   1      41.232  29.304  32.935  1.00  0.00    -0.248 NA
ATOM     17  C   UNL A   1      42.176  27.465  31.854  1.00  0.00     0.031 C 
ATOM     18  C   UNL A   1      38.251  29.696  29.622  1.00  0.00     0.029 A 
ATOM     19  N   UNL A   1      39.007  30.613  31.513  1.00  0.00    -0.354 N 
ATOM     20  C   UNL A   1      42.283  28.813  33.702  1.00  0.00     0.074 A 
ATOM     21  C   UNL A   1      42.811  27.662  33.003  1.00  0.00     0.031 C 
ATOM     22  C   UNL A   1      37.551  30.819  29.826  1.00  0.00     0.029 A 
ATOM     23  C   UNL A   1      37.997  31.433  31.071  1.00  0.00     0.049 A 
ATOM     24  H   UNL A   1      39.509  30.774  32.345  1.00  0.00     0.167 HD
ATOM     25  C   UNL A   1      42.760  29.284  34.880  1.00  0.00     0.037 A 
ATOM     26  C   UNL A   1      37.473  32.547  31.613  1.00  0.00     0.037 A 
ATOM     27  C   UNL A   1      42.244  30.450  35.553  1.00  0.00     0.049 A 
ATOM     28  C   UNL A   1      38.020  33.045  32.916  1.00  0.00     0.074 A 
ATOM     29  C   UNL A   1      42.669  31.016  36.743  1.00  0.00     0.029 A 
ATOM     30  N   UNL A   1      41.196  31.232  35.092  1.00  0.00    -0.354 N 
ATOM     31  N   UNL A   1      39.002  32.556  33.635  1.00  0.00    -0.248 NA
ATOM     32  C   UNL A   1      37.381  34.235  33.490  1.00  0.00     0.031 C 
ATOM     33  C   UNL A   1      41.858  32.123  37.015  1.00  0.00     0.029 A 
ATOM     34  C   UNL A   1      40.950  32.268  35.978  1.00  0.00     0.049 A 
ATOM     35  H   UNL A   1      40.697  31.073  34.257  1.00  0.00     0.167 HD
ATOM     36  C   UNL A   1      39.097  33.375  34.751  1.00  0.00     0.074 A 
ATOM     37  C   UNL A   1      38.089  34.407  34.599  1.00  0.00     0.031 C 
ATOM     38  C   UNL A   1      39.935  33.277  35.811  1.00  0.00     0.037 A 
BRANCH  25  39
ATOM     39  C   UNL A   1      43.885  28.529  35.532  1.00  0.00     0.058 A 
ATOM     40  C   UNL A   1      45.230  28.819  35.253  1.00  0.00     0.135 A 
ATOM     41  C   UNL A   1      43.615  27.531  36.484  1.00  0.00     0.135 A 
ATOM     42  F   UNL A   1      45.545  29.752  34.341  1.00  0.00    -0.206 F 
ATOM     43  C   UNL A   1      46.267  28.133  35.881  1.00  0.00     0.059 A 
ATOM     44  C   UNL A   1      44.636  26.847  37.137  1.00  0.00     0.059 A 
ATOM     45  F   UNL A   1      42.346  27.215  36.787  1.00  0.00    -0.206 F 
ATOM     46  C   UNL A   1      45.960  27.146  36.819  1.00  0.00     0.060 A 
BRANCH  46  47
ATOM     47  S   UNL A   1      47.314  26.266  37.627  1.00  0.00     0.124 S 
ATOM     48  O   UNL A   1      48.476  26.869  36.982  1.00  0.00    -0.237 OA
ATOM     49  O   UNL A   1      47.120  26.610  39.031  1.00  0.00    -0.237 OA
ATOM     50  O   UNL A   1      47.061  24.869  37.287  1.00  0.00    -0.744 OA
ENDBRANCH  46  47
ENDBRANCH  25  39
BRANCH  26  51
ATOM     51  C   UNL A   1      36.364  33.243  30.916  1.00  0.00     0.058 A 
ATOM     52  C   UNL A   1      35.055  33.188  31.412  1.00  0.00     0.135 A 
ATOM     53  C   UNL A   1      36.606  34.032  29.780  1.00  0.00     0.135 A 
ATOM     54  F   UNL A   1      34.777  32.446  32.494  1.00  0.00    -0.206 F 
ATOM     55  C   UNL A   1      34.020  33.896  30.808  1.00  0.00     0.059 A 
ATOM     56  C   UNL A   1      35.595  34.766  29.174  1.00  0.00     0.059 A 
ATOM     57  F   UNL A   1      37.848  34.129  29.282  1.00  0.00    -0.206 F 
ATOM     58  C   UNL A   1      34.302  34.688  29.694  1.00  0.00     0.060 A 
BRANCH  58  59
ATOM     59  S   UNL A   1      32.977  35.677  28.967  1.00  0.00     0.124 S 
ATOM     60  O   UNL A   1      32.358  34.715  28.063  1.00  0.00    -0.237 OA
ATOM     61  O   UNL A   1      32.191  36.053  30.138  1.00  0.00    -0.237 OA
ATOM     62  O   UNL A   1      33.696  36.776  28.328  1.00  0.00    -0.744 OA
ENDBRANCH  58  59
ENDBRANCH  26  51
BRANCH  38  63
ATOM     63  C   UNL A   1      39.795  34.317  36.882  1.00  0.00     0.058 A 
ATOM     64  C   UNL A   1      40.469  35.544  36.799  1.00  0.00     0.135 A 
ATOM     65  C   UNL A   1      38.961  34.094  37.989  1.00  0.00     0.135 A 
ATOM     66  F   UNL A   1      41.285  35.798  35.763  1.00  0.00    -0.206 F 
ATOM     67  C   UNL A   1      40.338  36.511  37.790  1.00  0.00     0.059 A 
ATOM     68  C   UNL A   1      38.801  35.054  38.982  1.00  0.00     0.059 A 
ATOM     69  F   UNL A   1      38.291  32.937  38.109  1.00  0.00    -0.206 F 
ATOM     70  C   UNL A   1      39.504  36.255  38.879  1.00  0.00     0.060 A 
BRANCH  70  71
ATOM     71  S   UNL A   1      39.324  37.523  40.151  1.00  0.00     0.124 S 
ATOM     72  O   UNL A   1      40.664  38.100  40.181  1.00  0.00    -0.237 OA
ATOM     73  O   UNL A   1      38.278  38.378  39.600  1.00  0.00    -0.237 OA
ATOM     74  O   UNL A   1      38.940  36.760  41.336  1.00  0.00    -0.744 OA
ENDBRANCH  70  71
ENDBRANCH  38  63
ENDBRANCH  12  13
ENDBRANCH   5   7
ENDBRANCH   2   3
ENDBRANCH   1   2
BRANCH   1  75
ATOM     75  C   UNL A   1      36.723  22.243  25.631  1.00  0.00     0.023 C 
BRANCH  75  76
ATOM     76  C   UNL A   1      35.199  22.299  25.604  1.00  0.00     0.116 C 
BRANCH  76  77
ATOM     77  N   UNL A   1      34.738  22.750  24.309  1.00  0.00    -0.354 N 
ATOM     78  C   UNL A   1      33.521  22.628  23.714  1.00  0.00     0.242 C 
ATOM     79  H   UNL A   1      35.415  23.221  23.771  1.00  0.00     0.163 HD
ATOM     80  O   UNL A   1      33.474  22.872  22.502  1.00  0.00    -0.273 OA
BRANCH  78  81
ATOM     81  C   UNL A   1      32.225  22.253  24.477  1.00  0.00     0.173 C 
BRANCH  81  82
ATOM     82  C   UNL A   1      32.197  20.840  25.102  1.00  0.00     0.070 C 
BRANCH  82  83
ATOM     83  C   UNL A   1      32.600  19.594  24.342  1.00  0.00    -0.045 A 
ATOM     84  C   UNL A   1      33.524  18.702  24.919  1.00  0.00     0.004 A 
ATOM     85  C   UNL A   1      32.164  19.333  23.036  1.00  0.00     0.004 A 
ATOM     86  C   UNL A   1      33.932  17.548  24.242  1.00  0.00     0.000 A 
ATOM     87  C   UNL A   1      32.562  18.172  22.364  1.00  0.00     0.000 A 
ATOM     88  C   UNL A   1      33.439  17.275  22.970  1.00  0.00     0.000 A 
ENDBRANCH  82  83
ENDBRANCH  81  82
BRANCH  81  89
ATOM     89  N   UNL A   1      31.763  23.347  25.349  1.00  0.00    -0.373 N 
ATOM     90  H   UNL A   1      31.259  23.104  26.159  1.00  0.00     0.161 HD
BRANCH  89  91
ATOM     91  C   UNL A   1      31.989  24.691  25.111  1.00  0.00     0.036 A 
ATOM     92  C   UNL A   1      32.956  25.357  25.876  1.00  0.00     0.027 A 
ATOM     93  C   UNL A   1      31.273  25.451  24.178  1.00  0.00     0.043 A 
ATOM     94  C   UNL A   1      33.240  26.713  25.679  1.00  0.00     0.024 A 
ATOM     95  C   UNL A   1      31.551  26.809  23.968  1.00  0.00     0.038 A 
ATOM     96  C   UNL A   1      32.545  27.442  24.716  1.00  0.00     0.055 A 
ATOM     97  Br  UNL A   1      30.534  27.714  22.640  1.00  0.00    -0.049 Br
ATOM     98  Cl  UNL A   1      32.958  29.106  24.510  1.00  0.00    -0.083 Cl
ENDBRANCH  89  91
ENDBRANCH  81  89
ENDBRANCH  78  81
ENDBRANCH  76  77
ENDBRANCH  75  76
ENDBRANCH   1  75
TORSDOF 18
ENDMDL
MODEL 3
REMARK VINA RESULT:     -11.8      6.632     11.800
REMARK SMILES O=C(NCCCCNC(=O)[C@@H](Cc1ccccc1)Nc1ccc(Cl)c(Br)c1)c1ccc(-c2c3nc(c(-c4c(F)cc(S(=O)(=O)[O-])cc4F)c4ccc([nH]4)c(-c4c(F)cc(S(=O)(=O)[O-])cc4F)c4nc(c(-c5c(F)cc(S(=O)(=O)[O-])cc5F)c5ccc2[nH]5)C=C4)C=C3)cc1
REMARK SMILES IDX 5 1 4 2 3 3 1 4 2 5 28 7 29 8 93 9 30 10 92 11 31 12 32 13
REMARK SMILES IDX 33 14 86 15 34 16 91 17 85 18 87 19 35 20 90 21 84 22 83 23
REMARK SMILES IDX 36 25 70 26 49 27 69 28 50 29 53 30 68 31 88 32 51 33 52 34
REMARK SMILES IDX 67 36 89 37 54 38 37 39 38 40 47 41 39 42 40 43 46 44 48 45
REMARK SMILES IDX 41 46 42 47 43 48 44 49 45 50 71 51 72 52 81 53 73 54 74 55
REMARK SMILES IDX 80 56 82 57 75 58 76 59 77 60 78 61 79 62 55 63 56 64 65 65
REMARK SMILES IDX 57 66 58 67 64 68 66 69 59 70 60 71 61 72 62 73 63 74 6 75
REMARK SMILES IDX 7 76 8 77 9 78 10 80 11 81 12 82 13 83 14 84 18 85 15 86
REMARK SMILES IDX 17 87 16 88 19 89 20 91 21 92 27 93 22 94 25 95 23 96 26 97
REMARK SMILES IDX 24 98
REMARK H PARENT 3 6 87 24 53 35 8 79 19 90
REMARK Flexibility Score: inf
ROOT
ATOM      1  C   UNL A   1      34.620  28.958  27.082  1.00  0.00     0.023 C 
ENDROOT
BRANCH   1   2
ATOM      2  C   UNL A   1      35.808  29.504  27.862  1.00  0.00     0.116 C 
BRANCH   2   3
ATOM      3  N   UNL A   1      35.502  29.878  29.239  1.00  0.00    -0.352 N 
ATOM      4  O   UNL A   1      35.988  30.362  31.400  1.00  0.00    -0.269 OA
ATOM      5  C   UNL A   1      36.387  30.111  30.268  1.00  0.00     0.251 C 
ATOM      6  H   UNL A   1      34.547  29.977  29.460  1.00  0.00     0.163 HD
BRANCH   5   7
ATOM      7  C   UNL A   1      37.830  29.995  29.982  1.00  0.00     0.039 A 
ATOM      8  C   UNL A   1      38.328  30.429  28.752  1.00  0.00     0.014 A 
ATOM      9  C   UNL A   1      38.658  29.337  30.895  1.00  0.00     0.014 A 
ATOM     10  C   UNL A   1      39.601  30.041  28.360  1.00  0.00     0.010 A 
ATOM     11  C   UNL A   1      39.972  29.033  30.534  1.00  0.00     0.010 A 
ATOM     12  C   UNL A   1      40.437  29.339  29.245  1.00  0.00    -0.014 A 
BRANCH  12  13
ATOM     13  C   UNL A   1      41.803  28.968  28.799  1.00  0.00     0.031 A 
ATOM     14  C   UNL A   1      42.947  29.941  28.893  1.00  0.00     0.074 A 
ATOM     15  C   UNL A   1      42.013  27.711  28.363  1.00  0.00     0.049 A 
ATOM     16  N   UNL A   1      44.199  29.770  28.553  1.00  0.00    -0.248 NA
ATOM     17  C   UNL A   1      42.651  31.280  29.429  1.00  0.00     0.031 C 
ATOM     18  C   UNL A   1      40.976  26.682  28.234  1.00  0.00     0.029 A 
ATOM     19  N   UNL A   1      43.161  27.073  27.977  1.00  0.00    -0.354 N 
ATOM     20  C   UNL A   1      44.834  30.981  28.804  1.00  0.00     0.074 A 
ATOM     21  C   UNL A   1      43.827  31.885  29.316  1.00  0.00     0.031 C 
ATOM     22  C   UNL A   1      41.545  25.528  27.864  1.00  0.00     0.029 A 
ATOM     23  C   UNL A   1      42.971  25.749  27.658  1.00  0.00     0.049 A 
ATOM     24  H   UNL A   1      44.038  27.518  27.933  1.00  0.00     0.167 HD
ATOM     25  C   UNL A   1      46.138  31.304  28.623  1.00  0.00     0.037 A 
ATOM     26  C   UNL A   1      43.842  24.819  27.229  1.00  0.00     0.037 A 
ATOM     27  C   UNL A   1      47.138  30.386  28.139  1.00  0.00     0.049 A 
ATOM     28  C   UNL A   1      45.277  25.203  27.038  1.00  0.00     0.074 A 
ATOM     29  C   UNL A   1      48.489  30.612  27.935  1.00  0.00     0.029 A 
ATOM     30  N   UNL A   1      46.899  29.064  27.791  1.00  0.00    -0.354 N 
ATOM     31  N   UNL A   1      45.855  26.359  27.263  1.00  0.00    -0.248 NA
ATOM     32  C   UNL A   1      46.177  24.165  26.521  1.00  0.00     0.031 C 
ATOM     33  C   UNL A   1      49.060  29.436  27.436  1.00  0.00     0.029 A 
ATOM     34  C   UNL A   1      48.073  28.467  27.361  1.00  0.00     0.049 A 
ATOM     35  H   UNL A   1      46.023  28.617  27.840  1.00  0.00     0.167 HD
ATOM     36  C   UNL A   1      47.186  26.191  26.910  1.00  0.00     0.074 A 
ATOM     37  C   UNL A   1      47.334  24.813  26.482  1.00  0.00     0.031 C 
ATOM     38  C   UNL A   1      48.193  27.097  26.930  1.00  0.00     0.037 A 
BRANCH  25  39
ATOM     39  C   UNL A   1      46.559  32.715  28.929  1.00  0.00     0.058 A 
ATOM     40  C   UNL A   1      47.028  33.087  30.197  1.00  0.00     0.135 A 
ATOM     41  C   UNL A   1      46.535  33.697  27.924  1.00  0.00     0.135 A 
ATOM     42  F   UNL A   1      47.058  32.193  31.197  1.00  0.00    -0.206 F 
ATOM     43  C   UNL A   1      47.442  34.390  30.465  1.00  0.00     0.059 A 
ATOM     44  C   UNL A   1      46.962  35.001  28.165  1.00  0.00     0.059 A 
ATOM     45  F   UNL A   1      46.095  33.393  26.694  1.00  0.00    -0.206 F 
ATOM     46  C   UNL A   1      47.402  35.340  29.444  1.00  0.00     0.060 A 
BRANCH  46  47
ATOM     47  S   UNL A   1      47.942  37.026  29.804  1.00  0.00     0.124 S 
ATOM     48  O   UNL A   1      49.375  36.833  30.007  1.00  0.00    -0.237 OA
ATOM     49  O   UNL A   1      47.567  37.743  28.590  1.00  0.00    -0.237 OA
ATOM     50  O   UNL A   1      47.180  37.379  30.998  1.00  0.00    -0.744 OA
ENDBRANCH  46  47
ENDBRANCH  25  39
BRANCH  26  51
ATOM     51  C   UNL A   1      43.359  23.445  26.946  1.00  0.00     0.058 A 
ATOM     52  C   UNL A   1      43.145  23.013  25.631  1.00  0.00     0.135 A 
ATOM     53  C   UNL A   1      43.169  22.518  27.984  1.00  0.00     0.135 A 
ATOM     54  F   UNL A   1      43.312  23.866  24.609  1.00  0.00    -0.206 F 
ATOM     55  C   UNL A   1      42.761  21.706  25.350  1.00  0.00     0.059 A 
ATOM     56  C   UNL A   1      42.810  21.201  27.727  1.00  0.00     0.059 A 
ATOM     57  F   UNL A   1      43.382  22.882  29.258  1.00  0.00    -0.206 F 
ATOM     58  C   UNL A   1      42.604  20.805  26.405  1.00  0.00     0.060 A 
BRANCH  58  59
ATOM     59  S   UNL A   1      42.196  19.086  26.032  1.00  0.00     0.124 S 
ATOM     60  O   UNL A   1      40.756  19.169  25.811  1.00  0.00    -0.237 OA
ATOM     61  O   UNL A   1      43.010  18.822  24.850  1.00  0.00    -0.237 OA
ATOM     62  O   UNL A   1      42.612  18.377  27.238  1.00  0.00    -0.744 OA
ENDBRANCH  58  59
ENDBRANCH  26  51
BRANCH  38  63
ATOM     63  C   UNL A   1      49.541  26.619  26.477  1.00  0.00     0.058 A 
ATOM     64  C   UNL A   1      50.016  26.895  25.185  1.00  0.00     0.135 A 
ATOM     65  C   UNL A   1      50.375  25.902  27.349  1.00  0.00     0.135 A 
ATOM     66  F   UNL A   1      49.249  27.569  24.314  1.00  0.00    -0.206 F 
ATOM     67  C   UNL A   1      51.266  26.455  24.765  1.00  0.00     0.059 A 
ATOM     68  C   UNL A   1      51.636  25.469  26.955  1.00  0.00     0.059 A 
ATOM     69  F   UNL A   1      49.966  25.619  28.596  1.00  0.00    -0.206 F 
ATOM     70  C   UNL A   1      52.068  25.740  25.657  1.00  0.00     0.060 A 
BRANCH  70  71
ATOM     71  S   UNL A   1      53.697  25.191  25.109  1.00  0.00     0.124 S 
ATOM     72  O   UNL A   1      53.613  23.752  25.338  1.00  0.00    -0.237 OA
ATOM     73  O   UNL A   1      53.720  25.610  23.711  1.00  0.00    -0.237 OA
ATOM     74  O   UNL A   1      54.611  25.916  25.989  1.00  0.00    -0.744 OA
ENDBRANCH  70  71
ENDBRANCH  38  63
ENDBRANCH  12  13
ENDBRANCH   5   7
ENDBRANCH   2   3
ENDBRANCH   1   2
BRANCH   1  75
ATOM     75  C   UNL A   1      33.423  29.896  27.037  1.00  0.00     0.023 C 
BRANCH  75  76
ATOM     76  C   UNL A   1      32.531  29.748  25.808  1.00  0.00     0.116 C 
BRANCH  76  77
ATOM     77  N   UNL A   1      33.339  29.658  24.612  1.00  0.00    -0.354 N 
ATOM     78  C   UNL A   1      33.214  28.856  23.521  1.00  0.00     0.242 C 
ATOM     79  H   UNL A   1      34.102  30.280  24.582  1.00  0.00     0.163 HD
ATOM     80  O   UNL A   1      34.190  28.803  22.762  1.00  0.00    -0.273 OA
BRANCH  78  81
ATOM     81  C   UNL A   1      31.925  28.066  23.178  1.00  0.00     0.173 C 
BRANCH  81  82
ATOM     82  C   UNL A   1      30.944  28.765  22.211  1.00  0.00     0.070 C 
BRANCH  82  83
ATOM     83  C   UNL A   1      29.665  29.432  22.674  1.00  0.00    -0.045 A 
ATOM     84  C   UNL A   1      28.506  28.652  22.853  1.00  0.00     0.004 A 
ATOM     85  C   UNL A   1      29.556  30.819  22.845  1.00  0.00     0.004 A 
ATOM     86  C   UNL A   1      27.303  29.233  23.267  1.00  0.00     0.000 A 
ATOM     87  C   UNL A   1      28.355  31.398  23.270  1.00  0.00     0.000 A 
ATOM     88  C   UNL A   1      27.232  30.604  23.490  1.00  0.00     0.000 A 
ENDBRANCH  82  83
ENDBRANCH  81  82
BRANCH  81  89
ATOM     89  N   UNL A   1      32.207  26.649  22.889  1.00  0.00    -0.373 N 
ATOM     90  H   UNL A   1      31.874  26.281  22.039  1.00  0.00     0.161 HD
BRANCH  89  91
ATOM     91  C   UNL A   1      32.907  25.799  23.727  1.00  0.00     0.036 A 
ATOM     92  C   UNL A   1      32.580  25.780  25.090  1.00  0.00     0.027 A 
ATOM     93  C   UNL A   1      33.965  24.984  23.309  1.00  0.00     0.043 A 
ATOM     94  C   UNL A   1      33.242  24.937  25.990  1.00  0.00     0.024 A 
ATOM     95  C   UNL A   1      34.633  24.132  24.200  1.00  0.00     0.038 A 
ATOM     96  C   UNL A   1      34.265  24.102  25.545  1.00  0.00     0.055 A 
ATOM     97  Br  UNL A   1      36.023  23.044  23.493  1.00  0.00    -0.049 Br
ATOM     98  Cl  UNL A   1      35.026  23.072  26.704  1.00  0.00    -0.083 Cl
ENDBRANCH  89  91
ENDBRANCH  81  89
ENDBRANCH  78  81
ENDBRANCH  76  77
ENDBRANCH  75  76
ENDBRANCH   1  75
TORSDOF 18
ENDMDL
