MODEL 1
REMARK VINA RESULT:     -11.5      0.000      0.000
REMARK SMILES O=C(NCCCCNC(=O)[C@H](CO)NC(=O)[C@H](Cc1ccc(O)cc1)NC(=O)c1ccc(F)cc1)c1ccc(-c2c3nc(c(-c4c(F)cc(S(=O)(=O)[O-])cc4F)c4ccc([nH]4)c(-c4c(F)cc(S(=O)(=O)[O-])cc4F)c4nc(c(-c5c(F)cc(S(=O)(=O)[O-])cc5F)c5ccc2[nH]5)C=C4)C=C3)cc1
REMARK SMILES IDX 6 1 5 2 4 3 3 4 1 5 2 6 36 8 37 9 101 10 38 11 100 12 39 13
REMARK SMILES IDX 40 14 41 15 94 16 42 17 99 18 93 19 95 20 43 21 98 22 92 23
REMARK SMILES IDX 91 24 44 26 78 27 57 28 77 29 58 30 61 31 76 32 96 33 59 34
REMARK SMILES IDX 60 35 75 37 97 38 62 39 45 40 46 41 55 42 47 43 48 44 54 45
REMARK SMILES IDX 56 46 49 47 50 48 51 49 52 50 53 51 79 52 80 53 89 54 81 55
REMARK SMILES IDX 82 56 88 57 90 58 83 59 84 60 85 61 86 62 87 63 63 64 64 65
REMARK SMILES IDX 73 66 65 67 66 68 72 69 74 70 67 71 68 72 69 73 70 74 71 75
REMARK SMILES IDX 7 76 8 77 9 78 10 80 11 81 14 82 15 83 16 85 17 86 26 87
REMARK SMILES IDX 27 88 28 90 29 91 30 92 35 93 31 94 34 95 32 96 33 97 18 98
REMARK SMILES IDX 19 99 20 100 25 101 21 102 24 103 22 104 23 105 12 107
REMARK SMILES IDX 13 108
REMARK H PARENT 3 7 95 25 61 36 8 79 14 84 26 89 23 106 13 109
REMARK Flexibility Score: inf
ROOT
ATOM      1  C   UNL A   1      33.455  28.205  27.239  1.00  0.00     0.023 C 
ENDROOT
BRANCH   1   2
ATOM      2  C   UNL A   1      34.345  29.393  26.915  1.00  0.00     0.023 C 
BRANCH   2   3
ATOM      3  C   UNL A   1      35.610  29.464  27.748  1.00  0.00     0.116 C 
BRANCH   3   4
ATOM      4  N   UNL A   1      35.367  29.752  29.157  1.00  0.00    -0.352 N 
ATOM      5  O   UNL A   1      35.943  30.033  31.331  1.00  0.00    -0.269 OA
ATOM      6  C   UNL A   1      36.295  29.875  30.167  1.00  0.00     0.251 C 
ATOM      7  H   UNL A   1      34.426  29.874  29.418  1.00  0.00     0.163 HD
BRANCH   6   8
ATOM      8  C   UNL A   1      37.723  29.773  29.813  1.00  0.00     0.039 A 
ATOM      9  C   UNL A   1      38.121  30.059  28.507  1.00  0.00     0.014 A 
ATOM     10  C   UNL A   1      38.637  29.279  30.746  1.00  0.00     0.014 A 
ATOM     11  C   UNL A   1      39.375  29.658  28.082  1.00  0.00     0.010 A 
ATOM     12  C   UNL A   1      39.946  28.999  30.343  1.00  0.00     0.010 A 
ATOM     13  C   UNL A   1      40.313  29.149  28.998  1.00  0.00    -0.014 A 
BRANCH  13  14
ATOM     14  C   UNL A   1      41.682  28.858  28.501  1.00  0.00     0.031 A 
ATOM     15  C   UNL A   1      42.799  29.858  28.621  1.00  0.00     0.074 A 
ATOM     16  C   UNL A   1      41.920  27.615  28.032  1.00  0.00     0.049 A 
ATOM     17  N   UNL A   1      44.060  29.713  28.302  1.00  0.00    -0.248 NA
ATOM     18  C   UNL A   1      42.470  31.190  29.153  1.00  0.00     0.031 C 
ATOM     19  C   UNL A   1      40.901  26.572  27.871  1.00  0.00     0.029 A 
ATOM     20  N   UNL A   1      43.086  26.994  27.672  1.00  0.00    -0.354 N 
ATOM     21  C   UNL A   1      44.667  30.934  28.564  1.00  0.00     0.074 A 
ATOM     22  C   UNL A   1      43.637  31.818  29.063  1.00  0.00     0.031 C 
ATOM     23  C   UNL A   1      41.499  25.416  27.560  1.00  0.00     0.029 A 
ATOM     24  C   UNL A   1      42.928  25.653  27.407  1.00  0.00     0.049 A 
ATOM     25  H   UNL A   1      43.951  27.460  27.609  1.00  0.00     0.167 HD
ATOM     26  C   UNL A   1      45.967  31.279  28.400  1.00  0.00     0.037 A 
ATOM     27  C   UNL A   1      43.831  24.715  27.071  1.00  0.00     0.037 A 
ATOM     28  C   UNL A   1      46.989  30.374  27.935  1.00  0.00     0.049 A 
ATOM     29  C   UNL A   1      45.264  25.123  26.914  1.00  0.00     0.074 A 
ATOM     30  C   UNL A   1      48.336  30.625  27.737  1.00  0.00     0.029 A 
ATOM     31  N   UNL A   1      46.782  29.041  27.611  1.00  0.00    -0.354 N 
ATOM     32  N   UNL A   1      45.810  26.296  27.131  1.00  0.00    -0.248 NA
ATOM     33  C   UNL A   1      46.198  24.095  26.441  1.00  0.00     0.031 C 
ATOM     34  C   UNL A   1      48.937  29.453  27.267  1.00  0.00     0.029 A 
ATOM     35  C   UNL A   1      47.973  28.461  27.207  1.00  0.00     0.049 A 
ATOM     36  H   UNL A   1      45.915  28.576  27.660  1.00  0.00     0.167 HD
ATOM     37  C   UNL A   1      47.149  26.152  26.805  1.00  0.00     0.074 A 
ATOM     38  C   UNL A   1      47.339  24.769  26.414  1.00  0.00     0.031 C 
ATOM     39  C   UNL A   1      48.132  27.085  26.809  1.00  0.00     0.037 A 
BRANCH  26  40
ATOM     40  C   UNL A   1      46.379  32.690  28.716  1.00  0.00     0.058 A 
ATOM     41  C   UNL A   1      46.386  33.669  27.707  1.00  0.00     0.135 A 
ATOM     42  C   UNL A   1      46.869  33.049  29.979  1.00  0.00     0.135 A 
ATOM     43  F   UNL A   1      45.920  33.380  26.481  1.00  0.00    -0.206 F 
ATOM     44  C   UNL A   1      46.891  34.945  27.934  1.00  0.00     0.059 A 
ATOM     45  C   UNL A   1      47.364  34.326  30.234  1.00  0.00     0.059 A 
ATOM     46  F   UNL A   1      46.864  32.158  30.983  1.00  0.00    -0.206 F 
ATOM     47  C   UNL A   1      47.389  35.261  29.199  1.00  0.00     0.060 A 
BRANCH  47  48
ATOM     48  S   UNL A   1      48.052  36.918  29.476  1.00  0.00     0.124 S 
ATOM     49  O   UNL A   1      48.800  37.152  28.245  1.00  0.00    -0.237 OA
ATOM     50  O   UNL A   1      46.838  37.711  29.643  1.00  0.00    -0.237 OA
ATOM     51  O   UNL A   1      48.859  36.762  30.683  1.00  0.00    -0.744 OA
ENDBRANCH  47  48
ENDBRANCH  26  40
BRANCH  27  52
ATOM     52  C   UNL A   1      43.393  23.314  26.851  1.00  0.00     0.058 A 
ATOM     53  C   UNL A   1      43.182  22.442  27.932  1.00  0.00     0.135 A 
ATOM     54  C   UNL A   1      43.226  22.805  25.555  1.00  0.00     0.135 A 
ATOM     55  F   UNL A   1      43.342  22.879  29.191  1.00  0.00    -0.206 F 
ATOM     56  C   UNL A   1      42.853  21.108  27.736  1.00  0.00     0.059 A 
ATOM     57  C   UNL A   1      42.869  21.478  25.334  1.00  0.00     0.059 A 
ATOM     58  F   UNL A   1      43.410  23.603  24.493  1.00  0.00    -0.206 F 
ATOM     59  C   UNL A   1      42.704  20.633  26.432  1.00  0.00     0.060 A 
BRANCH  59  60
ATOM     60  S   UNL A   1      42.275  18.896  26.193  1.00  0.00     0.124 S 
ATOM     61  O   UNL A   1      42.441  18.370  27.544  1.00  0.00    -0.237 OA
ATOM     62  O   UNL A   1      40.902  18.978  25.708  1.00  0.00    -0.237 OA
ATOM     63  O   UNL A   1      43.257  18.441  25.214  1.00  0.00    -0.744 OA
ENDBRANCH  59  60
ENDBRANCH  27  52
BRANCH  39  64
ATOM     64  C   UNL A   1      49.491  26.635  26.366  1.00  0.00     0.058 A 
ATOM     65  C   UNL A   1      49.923  26.850  25.049  1.00  0.00     0.135 A 
ATOM     66  C   UNL A   1      50.356  25.966  27.246  1.00  0.00     0.135 A 
ATOM     67  F   UNL A   1      49.130  27.484  24.172  1.00  0.00    -0.206 F 
ATOM     68  C   UNL A   1      51.170  26.414  24.617  1.00  0.00     0.059 A 
ATOM     69  C   UNL A   1      51.616  25.540  26.842  1.00  0.00     0.059 A 
ATOM     70  F   UNL A   1      49.990  25.752  28.520  1.00  0.00    -0.206 F 
ATOM     71  C   UNL A   1      52.010  25.760  25.521  1.00  0.00     0.060 A 
BRANCH  71  72
ATOM     72  S   UNL A   1      53.646  25.242  24.962  1.00  0.00     0.124 S 
ATOM     73  O   UNL A   1      53.592  23.801  25.178  1.00  0.00    -0.237 OA
ATOM     74  O   UNL A   1      53.650  25.677  23.568  1.00  0.00    -0.237 OA
ATOM     75  O   UNL A   1      54.550  25.979  25.840  1.00  0.00    -0.744 OA
ENDBRANCH  71  72
ENDBRANCH  39  64
ENDBRANCH  13  14
ENDBRANCH   6   8
ENDBRANCH   3   4
ENDBRANCH   2   3
ENDBRANCH   1   2
BRANCH   1  76
ATOM     76  C   UNL A   1      31.960  28.504  27.314  1.00  0.00     0.116 C 
BRANCH  76  77
ATOM     77  N   UNL A   1      31.130  27.430  26.789  1.00  0.00    -0.354 N 
ATOM     78  C   UNL A   1      30.601  27.179  25.558  1.00  0.00     0.244 C 
ATOM     79  H   UNL A   1      30.906  26.746  27.459  1.00  0.00     0.163 HD
ATOM     80  O   UNL A   1      29.956  26.128  25.447  1.00  0.00    -0.273 OA
BRANCH  78  81
ATOM     81  C   UNL A   1      30.548  28.228  24.418  1.00  0.00     0.197 C 
BRANCH  81  82
ATOM     82  N   UNL A   1      31.812  28.838  24.013  1.00  0.00    -0.340 N 
ATOM     83  C   UNL A   1      32.960  28.247  23.561  1.00  0.00     0.243 C 
ATOM     84  H   UNL A   1      31.842  29.821  24.075  1.00  0.00     0.164 HD
ATOM     85  O   UNL A   1      33.847  28.980  23.116  1.00  0.00    -0.273 OA
BRANCH  83  86
ATOM     86  C   UNL A   1      33.097  26.713  23.529  1.00  0.00     0.176 C 
BRANCH  86  87
ATOM     87  N   UNL A   1      33.034  26.257  22.136  1.00  0.00    -0.340 N 
ATOM     88  C   UNL A   1      32.998  24.978  21.633  1.00  0.00     0.251 C 
ATOM     89  H   UNL A   1      33.013  26.974  21.461  1.00  0.00     0.164 HD
ATOM     90  O   UNL A   1      33.243  24.792  20.445  1.00  0.00    -0.269 OA
BRANCH  88  91
ATOM     91  C   UNL A   1      32.633  23.814  22.484  1.00  0.00     0.040 A 
ATOM     92  C   UNL A   1      33.524  22.755  22.710  1.00  0.00     0.017 A 
ATOM     93  C   UNL A   1      31.426  23.842  23.190  1.00  0.00     0.017 A 
ATOM     94  C   UNL A   1      33.193  21.702  23.561  1.00  0.00     0.040 A 
ATOM     95  C   UNL A   1      31.094  22.793  24.054  1.00  0.00     0.040 A 
ATOM     96  C   UNL A   1      31.973  21.728  24.222  1.00  0.00     0.123 A 
ATOM     97  F   UNL A   1      31.652  20.723  25.044  1.00  0.00    -0.207 F 
ENDBRANCH  88  91
ENDBRANCH  86  87
BRANCH  86  98
ATOM     98  C   UNL A   1      34.434  26.328  24.190  1.00  0.00     0.070 C 
BRANCH  98  99
ATOM     99  C   UNL A   1      34.440  25.125  25.116  1.00  0.00    -0.045 A 
ATOM    100  C   UNL A   1      33.402  24.793  26.000  1.00  0.00     0.007 A 
ATOM    101  C   UNL A   1      35.601  24.332  25.133  1.00  0.00     0.007 A 
ATOM    102  C   UNL A   1      33.499  23.681  26.839  1.00  0.00     0.046 A 
ATOM    103  C   UNL A   1      35.706  23.231  25.984  1.00  0.00     0.046 A 
ATOM    104  C   UNL A   1      34.652  22.909  26.824  1.00  0.00     0.115 A 
BRANCH 104 105
ATOM    105  O   UNL A   1      34.785  21.824  27.637  1.00  0.00    -0.508 OA
ATOM    106  H   UNL A   1      35.194  21.044  27.315  1.00  0.00     0.293 HD
ENDBRANCH 104 105
ENDBRANCH  98  99
ENDBRANCH  86  98
ENDBRANCH  83  86
ENDBRANCH  81  82
BRANCH  81 107
ATOM    107  C   UNL A   1      29.792  27.661  23.198  1.00  0.00     0.191 C 
BRANCH 107 108
ATOM    108  O   UNL A   1      28.406  27.487  23.513  1.00  0.00    -0.394 OA
ATOM    109  H   UNL A   1      28.176  26.547  23.453  1.00  0.00     0.210 HD
ENDBRANCH 107 108
ENDBRANCH  81 107
ENDBRANCH  78  81
ENDBRANCH  76  77
ENDBRANCH   1  76
TORSDOF 23
ENDMDL
MODEL 2
REMARK VINA RESULT:     -11.3      6.555     10.996
REMARK SMILES O=C(NCCCCNC(=O)[C@H](CO)NC(=O)[C@H](Cc1ccc(O)cc1)NC(=O)c1ccc(F)cc1)c1ccc(-c2c3nc(c(-c4c(F)cc(S(=O)(=O)[O-])cc4F)c4ccc([nH]4)c(-c4c(F)cc(S(=O)(=O)[O-])cc4F)c4nc(c(-c5c(F)cc(S(=O)(=O)[O-])cc5F)c5ccc2[nH]5)C=C4)C=C3)cc1
REMARK SMILES IDX 6 1 5 2 4 3 3 4 1 5 2 6 36 8 37 9 101 10 38 11 100 12 39 13
REMARK SMILES IDX 40 14 41 15 94 16 42 17 99 18 93 19 95 20 43 21 98 22 92 23
REMARK SMILES IDX 91 24 44 26 78 27 57 28 77 29 58 30 61 31 76 32 96 33 59 34
REMARK SMILES IDX 60 35 75 37 97 38 62 39 45 40 46 41 55 42 47 43 48 44 54 45
REMARK SMILES IDX 56 46 49 47 50 48 51 49 52 50 53 51 79 52 80 53 89 54 81 55
REMARK SMILES IDX 82 56 88 57 90 58 83 59 84 60 85 61 86 62 87 63 63 64 64 65
REMARK SMILES IDX 73 66 65 67 66 68 72 69 74 70 67 71 68 72 69 73 70 74 71 75
REMARK SMILES IDX 7 76 8 77 9 78 10 80 11 81 14 82 15 83 16 85 17 86 26 87
REMARK SMILES IDX 27 88 28 90 29 91 30 92 35 93 31 94 34 95 32 96 33 97 18 98
REMARK SMILES IDX 19 99 20 100 25 101 21 102 24 103 22 104 23 105 12 107
REMARK SMILES IDX 13 108
REMARK H PARENT 3 7 95 25 61 36 8 79 14 84 26 89 23 106 13 109
REMARK Flexibility Score: inf
ROOT
ATOM      1  C   UNL A   1      34.779  33.179  28.269  1.00  0.00     0.023 C 
ENDROOT
BRANCH   1   2
ATOM      2  C   UNL A   1      33.724  34.271  28.287  1.00  0.00     0.023 C 
BRANCH   2   3
ATOM      3  C   UNL A   1      34.148  35.530  29.019  1.00  0.00     0.116 C 
BRANCH   3   4
ATOM      4  N   UNL A   1      33.120  36.066  29.904  1.00  0.00    -0.352 N 
ATOM      5  O   UNL A   1      32.000  36.291  31.862  1.00  0.00    -0.269 OA
ATOM      6  C   UNL A   1      32.967  35.844  31.254  1.00  0.00     0.251 C 
ATOM      7  H   UNL A   1      32.455  36.660  29.486  1.00  0.00     0.163 HD
BRANCH   6   8
ATOM      8  C   UNL A   1      33.980  35.021  31.941  1.00  0.00     0.039 A 
ATOM      9  C   UNL A   1      35.139  35.630  32.420  1.00  0.00     0.014 A 
ATOM     10  C   UNL A   1      33.826  33.634  31.997  1.00  0.00     0.014 A 
ATOM     11  C   UNL A   1      36.222  34.841  32.763  1.00  0.00     0.010 A 
ATOM     12  C   UNL A   1      34.879  32.845  32.470  1.00  0.00     0.010 A 
ATOM     13  C   UNL A   1      36.099  33.441  32.820  1.00  0.00    -0.014 A 
BRANCH  13  14
ATOM     14  C   UNL A   1      37.261  32.661  33.318  1.00  0.00     0.031 A 
ATOM     15  C   UNL A   1      37.956  31.638  32.462  1.00  0.00     0.074 A 
ATOM     16  C   UNL A   1      37.745  32.981  34.536  1.00  0.00     0.049 A 
ATOM     17  N   UNL A   1      39.028  30.940  32.736  1.00  0.00    -0.248 NA
ATOM     18  C   UNL A   1      37.380  31.349  31.139  1.00  0.00     0.031 C 
ATOM     19  C   UNL A   1      37.139  33.957  35.448  1.00  0.00     0.029 A 
ATOM     20  N   UNL A   1      38.880  32.581  35.190  1.00  0.00    -0.354 N 
ATOM     21  C   UNL A   1      39.239  30.111  31.642  1.00  0.00     0.074 A 
ATOM     22  C   UNL A   1      38.180  30.385  30.695  1.00  0.00     0.031 C 
ATOM     23  C   UNL A   1      37.964  34.166  36.482  1.00  0.00     0.029 A 
ATOM     24  C   UNL A   1      39.108  33.273  36.357  1.00  0.00     0.049 A 
ATOM     25  H   UNL A   1      39.473  31.868  34.860  1.00  0.00     0.167 HD
ATOM     26  C   UNL A   1      40.229  29.206  31.451  1.00  0.00     0.037 A 
ATOM     27  C   UNL A   1      40.123  33.198  37.236  1.00  0.00     0.037 A 
ATOM     28  C   UNL A   1      41.298  28.971  32.390  1.00  0.00     0.049 A 
ATOM     29  C   UNL A   1      41.211  32.199  36.989  1.00  0.00     0.074 A 
ATOM     30  C   UNL A   1      42.351  28.077  32.288  1.00  0.00     0.029 A 
ATOM     31  N   UNL A   1      41.461  29.642  33.593  1.00  0.00    -0.354 N 
ATOM     32  N   UNL A   1      41.370  31.397  35.964  1.00  0.00    -0.248 NA
ATOM     33  C   UNL A   1      42.241  32.072  38.027  1.00  0.00     0.031 C 
ATOM     34  C   UNL A   1      43.134  28.188  33.442  1.00  0.00     0.029 A 
ATOM     35  C   UNL A   1      42.591  29.177  34.246  1.00  0.00     0.049 A 
ATOM     36  H   UNL A   1      40.862  30.346  33.932  1.00  0.00     0.167 HD
ATOM     37  C   UNL A   1      42.509  30.657  36.239  1.00  0.00     0.074 A 
ATOM     38  C   UNL A   1      43.021  31.134  37.508  1.00  0.00     0.031 C 
ATOM     39  C   UNL A   1      43.071  29.658  35.516  1.00  0.00     0.037 A 
BRANCH  26  40
ATOM     40  C   UNL A   1      40.219  28.389  30.189  1.00  0.00     0.058 A 
ATOM     41  C   UNL A   1      39.459  27.210  30.114  1.00  0.00     0.135 A 
ATOM     42  C   UNL A   1      41.040  28.709  29.098  1.00  0.00     0.135 A 
ATOM     43  F   UNL A   1      38.649  26.861  31.127  1.00  0.00    -0.206 F 
ATOM     44  C   UNL A   1      39.536  26.362  29.013  1.00  0.00     0.059 A 
ATOM     45  C   UNL A   1      41.120  27.883  27.979  1.00  0.00     0.059 A 
ATOM     46  F   UNL A   1      41.770  29.836  29.110  1.00  0.00    -0.206 F 
ATOM     47  C   UNL A   1      40.379  26.702  27.954  1.00  0.00     0.060 A 
BRANCH  47  48
ATOM     48  S   UNL A   1      40.478  25.586  26.538  1.00  0.00     0.124 S 
ATOM     49  O   UNL A   1      41.427  24.584  27.010  1.00  0.00    -0.237 OA
ATOM     50  O   UNL A   1      39.095  25.139  26.402  1.00  0.00    -0.237 OA
ATOM     51  O   UNL A   1      40.957  26.448  25.461  1.00  0.00    -0.744 OA
ENDBRANCH  47  48
ENDBRANCH  26  40
BRANCH  27  52
ATOM     52  C   UNL A   1      40.135  34.084  38.427  1.00  0.00     0.058 A 
ATOM     53  C   UNL A   1      39.365  33.785  39.562  1.00  0.00     0.135 A 
ATOM     54  C   UNL A   1      40.877  35.274  38.433  1.00  0.00     0.135 A 
ATOM     55  F   UNL A   1      38.627  32.664  39.599  1.00  0.00    -0.206 F 
ATOM     56  C   UNL A   1      39.304  34.648  40.647  1.00  0.00     0.059 A 
ATOM     57  C   UNL A   1      40.855  36.141  39.521  1.00  0.00     0.059 A 
ATOM     58  F   UNL A   1      41.634  35.597  37.373  1.00  0.00    -0.206 F 
ATOM     59  C   UNL A   1      40.048  35.828  40.615  1.00  0.00     0.060 A 
BRANCH  59  60
ATOM     60  S   UNL A   1      39.959  36.940  42.035  1.00  0.00     0.124 S 
ATOM     61  O   UNL A   1      39.313  38.108  41.445  1.00  0.00    -0.237 OA
ATOM     62  O   UNL A   1      39.152  36.176  42.979  1.00  0.00    -0.237 OA
ATOM     63  O   UNL A   1      41.360  37.115  42.409  1.00  0.00    -0.744 OA
ENDBRANCH  59  60
ENDBRANCH  27  52
BRANCH  39  64
ATOM     64  C   UNL A   1      44.295  29.014  36.094  1.00  0.00     0.058 A 
ATOM     65  C   UNL A   1      45.567  29.553  35.856  1.00  0.00     0.135 A 
ATOM     66  C   UNL A   1      44.204  27.844  36.864  1.00  0.00     0.135 A 
ATOM     67  F   UNL A   1      45.704  30.669  35.124  1.00  0.00    -0.206 F 
ATOM     68  C   UNL A   1      46.713  28.951  36.362  1.00  0.00     0.059 A 
ATOM     69  C   UNL A   1      45.335  27.237  37.399  1.00  0.00     0.059 A 
ATOM     70  F   UNL A   1      43.005  27.303  37.130  1.00  0.00    -0.206 F 
ATOM     71  C   UNL A   1      46.587  27.793  37.133  1.00  0.00     0.060 A 
BRANCH  71  72
ATOM     72  S   UNL A   1      48.077  27.049  37.826  1.00  0.00     0.124 S 
ATOM     73  O   UNL A   1      47.782  25.626  37.708  1.00  0.00    -0.237 OA
ATOM     74  O   UNL A   1      49.120  27.557  36.940  1.00  0.00    -0.237 OA
ATOM     75  O   UNL A   1      48.114  27.575  39.187  1.00  0.00    -0.744 OA
ENDBRANCH  71  72
ENDBRANCH  39  64
ENDBRANCH  13  14
ENDBRANCH   6   8
ENDBRANCH   3   4
ENDBRANCH   2   3
ENDBRANCH   1   2
BRANCH   1  76
ATOM     76  C   UNL A   1      34.247  31.751  28.184  1.00  0.00     0.116 C 
BRANCH  76  77
ATOM     77  N   UNL A   1      35.289  30.740  28.282  1.00  0.00    -0.354 N 
ATOM     78  C   UNL A   1      35.451  29.511  27.715  1.00  0.00     0.244 C 
ATOM     79  H   UNL A   1      36.027  30.996  28.880  1.00  0.00     0.163 HD
ATOM     80  O   UNL A   1      36.499  28.917  27.995  1.00  0.00    -0.273 OA
BRANCH  78  81
ATOM     81  C   UNL A   1      34.316  28.750  26.983  1.00  0.00     0.197 C 
BRANCH  81  82
ATOM     82  N   UNL A   1      32.984  28.800  27.581  1.00  0.00    -0.340 N 
ATOM     83  C   UNL A   1      31.924  27.949  27.421  1.00  0.00     0.243 C 
ATOM     84  H   UNL A   1      32.825  29.559  28.188  1.00  0.00     0.164 HD
ATOM     85  O   UNL A   1      30.950  28.099  28.164  1.00  0.00    -0.273 OA
BRANCH  83  86
ATOM     86  C   UNL A   1      31.990  26.789  26.410  1.00  0.00     0.176 C 
BRANCH  86  87
ATOM     87  N   UNL A   1      31.359  25.604  27.001  1.00  0.00    -0.340 N 
ATOM     88  C   UNL A   1      31.484  24.280  26.654  1.00  0.00     0.251 C 
ATOM     89  H   UNL A   1      30.756  25.785  27.759  1.00  0.00     0.164 HD
ATOM     90  O   UNL A   1      30.658  23.470  27.066  1.00  0.00    -0.269 OA
BRANCH  88  91
ATOM     91  C   UNL A   1      32.616  23.793  25.821  1.00  0.00     0.040 A 
ATOM     92  C   UNL A   1      33.948  23.908  26.245  1.00  0.00     0.017 A 
ATOM     93  C   UNL A   1      32.338  23.078  24.652  1.00  0.00     0.017 A 
ATOM     94  C   UNL A   1      34.994  23.390  25.483  1.00  0.00     0.040 A 
ATOM     95  C   UNL A   1      33.385  22.547  23.890  1.00  0.00     0.040 A 
ATOM     96  C   UNL A   1      34.702  22.719  24.305  1.00  0.00     0.123 A 
ATOM     97  F   UNL A   1      35.702  22.214  23.573  1.00  0.00    -0.207 F 
ENDBRANCH  88  91
ENDBRANCH  86  87
BRANCH  86  98
ATOM     98  C   UNL A   1      31.274  27.226  25.118  1.00  0.00     0.070 C 
BRANCH  98  99
ATOM     99  C   UNL A   1      31.841  26.733  23.799  1.00  0.00    -0.045 A 
ATOM    100  C   UNL A   1      33.209  26.586  23.523  1.00  0.00     0.007 A 
ATOM    101  C   UNL A   1      30.928  26.474  22.762  1.00  0.00     0.007 A 
ATOM    102  C   UNL A   1      33.648  26.151  22.271  1.00  0.00     0.046 A 
ATOM    103  C   UNL A   1      31.366  26.056  21.505  1.00  0.00     0.046 A 
ATOM    104  C   UNL A   1      32.722  25.889  21.272  1.00  0.00     0.115 A 
BRANCH 104 105
ATOM    105  O   UNL A   1      33.116  25.474  20.035  1.00  0.00    -0.508 OA
ATOM    106  H   UNL A   1      32.826  24.646  19.705  1.00  0.00     0.293 HD
ENDBRANCH 104 105
ENDBRANCH  98  99
ENDBRANCH  86  98
ENDBRANCH  83  86
ENDBRANCH  81  82
BRANCH  81 107
ATOM    107  C   UNL A   1      34.270  29.152  25.495  1.00  0.00     0.191 C 
BRANCH 107 108
ATOM    108  O   UNL A   1      33.250  30.135  25.280  1.00  0.00    -0.394 OA
ATOM    109  H   UNL A   1      33.574  30.808  24.662  1.00  0.00     0.210 HD
ENDBRANCH 107 108
ENDBRANCH  81 107
ENDBRANCH  78  81
ENDBRANCH  76  77
ENDBRANCH   1  76
TORSDOF 23
ENDMDL
MODEL 3
REMARK VINA RESULT:     -11.1      6.621      8.831
REMARK SMILES O=C(NCCCCNC(=O)[C@H](CO)NC(=O)[C@H](Cc1ccc(O)cc1)NC(=O)c1ccc(F)cc1)c1ccc(-c2c3nc(c(-c4c(F)cc(S(=O)(=O)[O-])cc4F)c4ccc([nH]4)c(-c4c(F)cc(S(=O)(=O)[O-])cc4F)c4nc(c(-c5c(F)cc(S(=O)(=O)[O-])cc5F)c5ccc2[nH]5)C=C4)C=C3)cc1
REMARK SMILES IDX 6 1 5 2 4 3 3 4 1 5 2 6 36 8 37 9 101 10 38 11 100 12 39 13
REMARK SMILES IDX 40 14 41 15 94 16 42 17 99 18 93 19 95 20 43 21 98 22 92 23
REMARK SMILES IDX 91 24 44 26 78 27 57 28 77 29 58 30 61 31 76 32 96 33 59 34
REMARK SMILES IDX 60 35 75 37 97 38 62 39 45 40 46 41 55 42 47 43 48 44 54 45
REMARK SMILES IDX 56 46 49 47 50 48 51 49 52 50 53 51 79 52 80 53 89 54 81 55
REMARK SMILES IDX 82 56 88 57 90 58 83 59 84 60 85 61 86 62 87 63 63 64 64 65
REMARK SMILES IDX 73 66 65 67 66 68 72 69 74 70 67 71 68 72 69 73 70 74 71 75
REMARK SMILES IDX 7 76 8 77 9 78 10 80 11 81 14 82 15 83 16 85 17 86 26 87
REMARK SMILES IDX 27 88 28 90 29 91 30 92 35 93 31 94 34 95 32 96 33 97 18 98
REMARK SMILES IDX 19 99 20 100 25 101 21 102 24 103 22 104 23 105 12 107
REMARK SMILES IDX 13 108
REMARK H PARENT 3 7 95 25 61 36 8 79 14 84 26 89 23 106 13 109
REMARK Flexibility Score: inf
ROOT
ATOM      1  C   UNL A   1      34.418  33.071  29.030  1.00  0.00     0.023 C 
ENDROOT
BRANCH   1   2
ATOM      2  C   UNL A   1      33.833  34.396  28.571  1.00  0.00     0.023 C 
BRANCH   2   3
ATOM      3  C   UNL A   1      34.013  35.529  29.563  1.00  0.00     0.116 C 
BRANCH   3   4
ATOM      4  N   UNL A   1      32.893  35.684  30.484  1.00  0.00    -0.352 N 
ATOM      5  O   UNL A   1      31.780  35.409  32.439  1.00  0.00    -0.269 OA
ATOM      6  C   UNL A   1      32.823  35.296  31.803  1.00  0.00     0.251 C 
ATOM      7  H   UNL A   1      32.090  36.121  30.119  1.00  0.00     0.163 HD
BRANCH   6   8
ATOM      8  C   UNL A   1      34.026  34.703  32.417  1.00  0.00     0.039 A 
ATOM      9  C   UNL A   1      35.191  35.465  32.499  1.00  0.00     0.014 A 
ATOM     10  C   UNL A   1      34.024  33.359  32.794  1.00  0.00     0.014 A 
ATOM     11  C   UNL A   1      36.392  34.832  32.763  1.00  0.00     0.010 A 
ATOM     12  C   UNL A   1      35.221  32.754  33.188  1.00  0.00     0.010 A 
ATOM     13  C   UNL A   1      36.421  33.477  33.137  1.00  0.00    -0.014 A 
BRANCH  13  14
ATOM     14  C   UNL A   1      37.729  32.893  33.530  1.00  0.00     0.031 A 
ATOM     15  C   UNL A   1      38.366  33.196  34.859  1.00  0.00     0.074 A 
ATOM     16  C   UNL A   1      38.280  31.987  32.695  1.00  0.00     0.049 A 
ATOM     17  N   UNL A   1      39.465  32.698  35.367  1.00  0.00    -0.248 NA
ATOM     18  C   UNL A   1      37.704  34.184  35.725  1.00  0.00     0.031 C 
ATOM     19  C   UNL A   1      37.741  31.627  31.379  1.00  0.00     0.029 A 
ATOM     20  N   UNL A   1      39.361  31.161  32.845  1.00  0.00    -0.354 N 
ATOM     21  C   UNL A   1      39.643  33.328  36.592  1.00  0.00     0.074 A 
ATOM     22  C   UNL A   1      38.542  34.253  36.754  1.00  0.00     0.031 C 
ATOM     23  C   UNL A   1      38.419  30.578  30.897  1.00  0.00     0.029 A 
ATOM     24  C   UNL A   1      39.497  30.252  31.821  1.00  0.00     0.049 A 
ATOM     25  H   UNL A   1      39.980  31.211  33.608  1.00  0.00     0.167 HD
ATOM     26  C   UNL A   1      40.636  33.146  37.495  1.00  0.00     0.037 A 
ATOM     27  C   UNL A   1      40.393  29.265  31.639  1.00  0.00     0.037 A 
ATOM     28  C   UNL A   1      41.706  32.193  37.335  1.00  0.00     0.049 A 
ATOM     29  C   UNL A   1      41.469  29.078  32.663  1.00  0.00     0.074 A 
ATOM     30  C   UNL A   1      42.760  31.930  38.193  1.00  0.00     0.029 A 
ATOM     31  N   UNL A   1      41.851  31.335  36.254  1.00  0.00    -0.354 N 
ATOM     32  N   UNL A   1      41.640  29.713  33.797  1.00  0.00    -0.248 NA
ATOM     33  C   UNL A   1      42.490  28.064  32.373  1.00  0.00     0.031 C 
ATOM     34  C   UNL A   1      43.557  30.934  37.618  1.00  0.00     0.029 A 
ATOM     35  C   UNL A   1      42.980  30.550  36.419  1.00  0.00     0.049 A 
ATOM     36  H   UNL A   1      41.241  31.291  35.482  1.00  0.00     0.167 HD
ATOM     37  C   UNL A   1      42.797  29.188  34.351  1.00  0.00     0.074 A 
ATOM     38  C   UNL A   1      43.263  28.155  33.446  1.00  0.00     0.031 C 
ATOM     39  C   UNL A   1      43.430  29.540  35.496  1.00  0.00     0.037 A 
BRANCH  26  40
ATOM     40  C   UNL A   1      40.634  33.987  38.741  1.00  0.00     0.058 A 
ATOM     41  C   UNL A   1      39.904  33.579  39.870  1.00  0.00     0.135 A 
ATOM     42  C   UNL A   1      41.261  35.240  38.785  1.00  0.00     0.135 A 
ATOM     43  F   UNL A   1      39.292  32.384  39.885  1.00  0.00    -0.206 F 
ATOM     44  C   UNL A   1      39.770  34.399  40.987  1.00  0.00     0.059 A 
ATOM     45  C   UNL A   1      41.155  36.070  39.899  1.00  0.00     0.059 A 
ATOM     46  F   UNL A   1      41.989  35.667  37.741  1.00  0.00    -0.206 F 
ATOM     47  C   UNL A   1      40.391  35.649  40.987  1.00  0.00     0.060 A 
BRANCH  47  48
ATOM     48  S   UNL A   1      40.200  36.706  42.439  1.00  0.00     0.124 S 
ATOM     49  O   UNL A   1      41.325  36.287  43.267  1.00  0.00    -0.237 OA
ATOM     50  O   UNL A   1      40.298  38.043  41.859  1.00  0.00    -0.237 OA
ATOM     51  O   UNL A   1      38.877  36.349  42.945  1.00  0.00    -0.744 OA
ENDBRANCH  47  48
ENDBRANCH  26  40
BRANCH  27  52
ATOM     52  C   UNL A   1      40.306  28.403  30.433  1.00  0.00     0.058 A 
ATOM     53  C   UNL A   1      39.416  27.318  30.381  1.00  0.00     0.135 A 
ATOM     54  C   UNL A   1      41.147  28.616  29.331  1.00  0.00     0.135 A 
ATOM     55  F   UNL A   1      38.601  27.065  31.416  1.00  0.00    -0.206 F 
ATOM     56  C   UNL A   1      39.385  26.455  29.294  1.00  0.00     0.059 A 
ATOM     57  C   UNL A   1      41.114  27.782  28.218  1.00  0.00     0.059 A 
ATOM     58  F   UNL A   1      42.007  29.645  29.334  1.00  0.00    -0.206 F 
ATOM     59  C   UNL A   1      40.243  26.692  28.219  1.00  0.00     0.060 A 
BRANCH  59  60
ATOM     60  S   UNL A   1      40.190  25.562  26.811  1.00  0.00     0.124 S 
ATOM     61  O   UNL A   1      38.769  25.235  26.758  1.00  0.00    -0.237 OA
ATOM     62  O   UNL A   1      40.691  26.396  25.724  1.00  0.00    -0.237 OA
ATOM     63  O   UNL A   1      41.073  24.475  27.223  1.00  0.00    -0.744 OA
ENDBRANCH  59  60
ENDBRANCH  27  52
BRANCH  39  64
ATOM     64  C   UNL A   1      44.697  28.807  35.819  1.00  0.00     0.058 A 
ATOM     65  C   UNL A   1      44.671  27.640  36.597  1.00  0.00     0.135 A 
ATOM     66  C   UNL A   1      45.942  29.281  35.377  1.00  0.00     0.135 A 
ATOM     67  F   UNL A   1      43.504  27.151  37.043  1.00  0.00    -0.206 F 
ATOM     68  C   UNL A   1      45.840  26.966  36.927  1.00  0.00     0.059 A 
ATOM     69  C   UNL A   1      47.122  28.610  35.678  1.00  0.00     0.059 A 
ATOM     70  F   UNL A   1      46.013  30.385  34.617  1.00  0.00    -0.206 F 
ATOM     71  C   UNL A   1      47.061  27.458  36.463  1.00  0.00     0.060 A 
BRANCH  71  72
ATOM     72  S   UNL A   1      48.568  26.547  36.857  1.00  0.00     0.124 S 
ATOM     73  O   UNL A   1      48.602  26.643  38.312  1.00  0.00    -0.237 OA
ATOM     74  O   UNL A   1      48.281  25.222  36.315  1.00  0.00    -0.237 OA
ATOM     75  O   UNL A   1      49.606  27.291  36.150  1.00  0.00    -0.744 OA
ENDBRANCH  71  72
ENDBRANCH  39  64
ENDBRANCH  13  14
ENDBRANCH   6   8
ENDBRANCH   3   4
ENDBRANCH   2   3
ENDBRANCH   1   2
BRANCH   1  76
ATOM     76  C   UNL A   1      34.192  31.891  28.089  1.00  0.00     0.116 C 
BRANCH  76  77
ATOM     77  N   UNL A   1      35.195  30.846  28.223  1.00  0.00    -0.354 N 
ATOM     78  C   UNL A   1      35.337  29.613  27.659  1.00  0.00     0.244 C 
ATOM     79  H   UNL A   1      35.918  31.076  28.848  1.00  0.00     0.163 HD
ATOM     80  O   UNL A   1      36.354  28.984  27.976  1.00  0.00    -0.273 OA
BRANCH  78  81
ATOM     81  C   UNL A   1      34.205  28.891  26.884  1.00  0.00     0.197 C 
BRANCH  81  82
ATOM     82  N   UNL A   1      32.895  28.820  27.526  1.00  0.00    -0.340 N 
ATOM     83  C   UNL A   1      31.918  27.869  27.412  1.00  0.00     0.243 C 
ATOM     84  H   UNL A   1      32.684  29.568  28.131  1.00  0.00     0.164 HD
ATOM     85  O   UNL A   1      30.959  27.934  28.186  1.00  0.00    -0.273 OA
BRANCH  83  86
ATOM     86  C   UNL A   1      32.063  26.707  26.411  1.00  0.00     0.176 C 
BRANCH  86  87
ATOM     87  N   UNL A   1      31.605  25.468  27.048  1.00  0.00    -0.340 N 
ATOM     88  C   UNL A   1      31.799  24.162  26.665  1.00  0.00     0.251 C 
ATOM     89  H   UNL A   1      31.082  25.589  27.874  1.00  0.00     0.164 HD
ATOM     90  O   UNL A   1      31.098  23.281  27.155  1.00  0.00    -0.269 OA
BRANCH  88  91
ATOM     91  C   UNL A   1      32.863  23.781  25.697  1.00  0.00     0.040 A 
ATOM     92  C   UNL A   1      32.560  23.187  24.463  1.00  0.00     0.017 A 
ATOM     93  C   UNL A   1      34.184  24.153  25.962  1.00  0.00     0.017 A 
ATOM     94  C   UNL A   1      33.562  22.894  23.539  1.00  0.00     0.040 A 
ATOM     95  C   UNL A   1      35.191  23.871  25.032  1.00  0.00     0.040 A 
ATOM     96  C   UNL A   1      34.874  23.234  23.836  1.00  0.00     0.123 A 
ATOM     97  F   UNL A   1      35.839  22.961  22.951  1.00  0.00    -0.207 F 
ENDBRANCH  88  91
ENDBRANCH  86  87
BRANCH  86  98
ATOM     98  C   UNL A   1      31.231  27.038  25.156  1.00  0.00     0.070 C 
BRANCH  98  99
ATOM     99  C   UNL A   1      31.825  26.680  23.806  1.00  0.00    -0.045 A 
ATOM    100  C   UNL A   1      33.187  26.774  23.482  1.00  0.00     0.007 A 
ATOM    101  C   UNL A   1      30.931  26.294  22.792  1.00  0.00     0.007 A 
ATOM    102  C   UNL A   1      33.647  26.450  22.204  1.00  0.00     0.046 A 
ATOM    103  C   UNL A   1      31.387  25.987  21.509  1.00  0.00     0.046 A 
ATOM    104  C   UNL A   1      32.742  26.059  21.228  1.00  0.00     0.115 A 
BRANCH 104 105
ATOM    105  O   UNL A   1      33.155  25.748  19.967  1.00  0.00    -0.508 OA
ATOM    106  H   UNL A   1      33.303  24.853  19.731  1.00  0.00     0.293 HD
ENDBRANCH 104 105
ENDBRANCH  98  99
ENDBRANCH  86  98
ENDBRANCH  83  86
ENDBRANCH  81  82
BRANCH  81 107
ATOM    107  C   UNL A   1      34.089  29.452  25.452  1.00  0.00     0.191 C 
BRANCH 107 108
ATOM    108  O   UNL A   1      32.851  30.156  25.296  1.00  0.00    -0.394 OA
ATOM    109  H   UNL A   1      32.902  31.007  25.757  1.00  0.00     0.210 HD
ENDBRANCH 107 108
ENDBRANCH  81 107
ENDBRANCH  78  81
ENDBRANCH  76  77
ENDBRANCH   1  76
TORSDOF 23
ENDMDL
