MODEL 1
REMARK VINA RESULT:      -9.6      0.000      0.000
REMARK SMILES C[C@@H]1C[C@@H](C)C[NH+](C(C)(C)C(=O)NCCCCNC(=O)c2ccc(-c3c4nc(c(-c5c(F)cc(S(=O)(=O)[O-])cc5F)c5ccc([nH]5)c(-c5c(F)cc(S(=O)(=O)[O-])cc5F)c5nc(c(-c6c(F)cc(S(=O)(=O)[O-])cc6F)c6ccc3[nH]6)C=C5)C=C4)cc2)C1
REMARK SMILES IDX 16 1 15 2 14 3 13 4 11 5 12 6 8 8 9 9 10 10 7 11 1 12 2 13
REMARK SMILES IDX 3 14 87 15 4 16 6 17 5 18 17 20 18 21 19 22 20 24 21 25
REMARK SMILES IDX 22 26 86 27 23 28 85 29 24 30 25 31 26 32 79 33 27 34 84 35
REMARK SMILES IDX 78 36 80 37 28 38 83 39 77 40 76 41 29 43 63 44 42 45 62 46
REMARK SMILES IDX 43 47 46 48 61 49 81 50 44 51 45 52 60 54 82 55 47 56 30 57
REMARK SMILES IDX 31 58 40 59 32 60 33 61 39 62 41 63 34 64 35 65 36 66 37 67
REMARK SMILES IDX 38 68 64 69 65 70 74 71 66 72 67 73 73 74 75 75 68 76 69 77
REMARK SMILES IDX 70 78 71 79 72 80 48 81 49 82 58 83 50 84 51 85 57 86 59 87
REMARK SMILES IDX 52 88 53 89 54 90 55 91 56 92
REMARK H PARENT 13 7 7 19 18 23 80 42 46 53
REMARK Flexibility Score: inf
ROOT
ATOM      1  C   UNL A   1      35.759  33.484  28.503  1.00  0.00     0.023 C 
ENDROOT
BRANCH   1   2
ATOM      2  C   UNL A   1      37.159  33.768  29.045  1.00  0.00     0.023 C 
BRANCH   2   3
ATOM      3  C   UNL A   1      37.328  33.532  30.543  1.00  0.00     0.116 C 
BRANCH   3   4
ATOM      4  N   UNL A   1      36.722  34.595  31.326  1.00  0.00    -0.351 N 
ATOM      5  C   UNL A   1      36.282  34.658  32.619  1.00  0.00     0.280 C 
ATOM      6  O   UNL A   1      35.609  35.662  32.880  1.00  0.00    -0.268 OA
ATOM      7  H   UNL A   1      36.606  35.436  30.827  1.00  0.00     0.163 HD
BRANCH   5   8
ATOM      8  C   UNL A   1      36.591  33.522  33.675  1.00  0.00     0.171 C 
ATOM      9  C   UNL A   1      36.059  32.159  33.175  1.00  0.00     0.090 C 
ATOM     10  C   UNL A   1      35.897  33.962  34.987  1.00  0.00     0.090 C 
BRANCH   8  11
ATOM     11  N   UNL A   1      38.086  33.427  33.950  1.00  0.00    -0.322 N 
ATOM     12  C   UNL A   1      40.673  35.049  34.653  1.00  0.00     0.013 C 
ATOM     13  C   UNL A   1      40.001  33.967  35.503  1.00  0.00     0.042 C 
ATOM     14  C   UNL A   1      40.595  32.580  35.247  1.00  0.00     0.018 C 
ATOM     15  C   UNL A   1      38.479  33.934  35.282  1.00  0.00     0.266 C 
ATOM     16  C   UNL A   1      40.187  32.058  33.869  1.00  0.00     0.042 C 
ATOM     17  C   UNL A   1      38.652  32.078  33.730  1.00  0.00     0.266 C 
ATOM     18  C   UNL A   1      40.730  30.645  33.653  1.00  0.00     0.013 C 
ATOM     19  H   UNL A   1      38.493  34.048  33.250  1.00  0.00     0.349 HD
ENDBRANCH   8  11
ENDBRANCH   5   8
ENDBRANCH   3   4
ENDBRANCH   2   3
ENDBRANCH   1   2
BRANCH   1  20
ATOM     20  C   UNL A   1      34.868  32.649  29.415  1.00  0.00     0.116 C 
BRANCH  20  21
ATOM     21  N   UNL A   1      34.060  31.677  28.692  1.00  0.00    -0.352 N 
ATOM     22  C   UNL A   1      34.434  30.476  28.141  1.00  0.00     0.251 C 
ATOM     23  H   UNL A   1      33.111  31.914  28.583  1.00  0.00     0.163 HD
ATOM     24  O   UNL A   1      33.636  29.844  27.454  1.00  0.00    -0.269 OA
BRANCH  22  25
ATOM     25  C   UNL A   1      35.807  29.971  28.349  1.00  0.00     0.039 A 
ATOM     26  C   UNL A   1      36.721  30.057  27.297  1.00  0.00     0.014 A 
ATOM     27  C   UNL A   1      36.197  29.446  29.584  1.00  0.00     0.014 A 
ATOM     28  C   UNL A   1      38.048  29.681  27.508  1.00  0.00     0.010 A 
ATOM     29  C   UNL A   1      37.538  29.146  29.814  1.00  0.00     0.010 A 
ATOM     30  C   UNL A   1      38.478  29.263  28.779  1.00  0.00    -0.014 A 
BRANCH  30  31
ATOM     31  C   UNL A   1      39.909  28.966  29.042  1.00  0.00     0.031 A 
ATOM     32  C   UNL A   1      40.813  30.020  29.619  1.00  0.00     0.074 A 
ATOM     33  C   UNL A   1      40.405  27.760  28.699  1.00  0.00     0.049 A 
ATOM     34  N   UNL A   1      42.091  29.951  29.891  1.00  0.00    -0.248 NA
ATOM     35  C   UNL A   1      40.213  31.334  29.903  1.00  0.00     0.031 C 
ATOM     36  C   UNL A   1      39.644  26.681  28.062  1.00  0.00     0.029 A 
ATOM     37  N   UNL A   1      41.669  27.239  28.827  1.00  0.00    -0.354 N 
ATOM     38  C   UNL A   1      42.450  31.209  30.359  1.00  0.00     0.074 A 
ATOM     39  C   UNL A   1      41.266  32.038  30.291  1.00  0.00     0.031 C 
ATOM     40  C   UNL A   1      40.451  25.623  27.876  1.00  0.00     0.029 A 
ATOM     41  C   UNL A   1      41.790  25.956  28.347  1.00  0.00     0.049 A 
ATOM     42  H   UNL A   1      42.419  27.738  29.226  1.00  0.00     0.167 HD
ATOM     43  C   UNL A   1      43.650  31.627  30.823  1.00  0.00     0.037 A 
ATOM     44  C   UNL A   1      42.861  25.140  28.288  1.00  0.00     0.037 A 
ATOM     45  C   UNL A   1      44.814  30.784  30.921  1.00  0.00     0.049 A 
ATOM     46  C   UNL A   1      44.175  25.619  28.842  1.00  0.00     0.074 A 
ATOM     47  C   UNL A   1      46.050  31.087  31.464  1.00  0.00     0.029 A 
ATOM     48  N   UNL A   1      44.889  29.479  30.459  1.00  0.00    -0.354 N 
ATOM     49  N   UNL A   1      44.470  26.781  29.376  1.00  0.00    -0.248 NA
ATOM     50  C   UNL A   1      45.300  24.675  28.797  1.00  0.00     0.031 C 
ATOM     51  C   UNL A   1      46.889  29.982  31.285  1.00  0.00     0.029 A 
ATOM     52  C   UNL A   1      46.160  28.971  30.679  1.00  0.00     0.049 A 
ATOM     53  H   UNL A   1      44.149  28.985  30.038  1.00  0.00     0.167 HD
ATOM     54  C   UNL A   1      45.807  26.701  29.748  1.00  0.00     0.074 A 
ATOM     55  C   UNL A   1      46.257  25.368  29.399  1.00  0.00     0.031 C 
ATOM     56  C   UNL A   1      46.593  27.643  30.325  1.00  0.00     0.037 A 
BRANCH  43  57
ATOM     57  C   UNL A   1      43.775  33.059  31.269  1.00  0.00     0.058 A 
ATOM     58  C   UNL A   1      43.725  33.417  32.626  1.00  0.00     0.135 A 
ATOM     59  C   UNL A   1      44.010  34.078  30.332  1.00  0.00     0.135 A 
ATOM     60  F   UNL A   1      43.488  32.486  33.563  1.00  0.00    -0.206 F 
ATOM     61  C   UNL A   1      43.886  34.736  33.036  1.00  0.00     0.059 A 
ATOM     62  C   UNL A   1      44.200  35.400  30.722  1.00  0.00     0.059 A 
ATOM     63  F   UNL A   1      44.063  33.793  29.021  1.00  0.00    -0.206 F 
ATOM     64  C   UNL A   1      44.128  35.721  32.077  1.00  0.00     0.060 A 
BRANCH  64  65
ATOM     65  S   UNL A   1      44.363  37.423  32.630  1.00  0.00     0.124 S 
ATOM     66  O   UNL A   1      44.321  38.149  31.364  1.00  0.00    -0.237 OA
ATOM     67  O   UNL A   1      43.219  37.624  33.513  1.00  0.00    -0.237 OA
ATOM     68  O   UNL A   1      45.663  37.390  33.291  1.00  0.00    -0.744 OA
ENDBRANCH  64  65
ENDBRANCH  43  57
BRANCH  44  69
ATOM     69  C   UNL A   1      42.733  23.782  27.694  1.00  0.00     0.058 A 
ATOM     70  C   UNL A   1      42.497  22.657  28.497  1.00  0.00     0.135 A 
ATOM     71  C   UNL A   1      42.844  23.583  26.309  1.00  0.00     0.135 A 
ATOM     72  F   UNL A   1      42.387  22.794  29.828  1.00  0.00    -0.206 F 
ATOM     73  C   UNL A   1      42.401  21.379  27.954  1.00  0.00     0.059 A 
ATOM     74  C   UNL A   1      42.724  22.319  25.739  1.00  0.00     0.059 A 
ATOM     75  F   UNL A   1      43.049  24.629  25.493  1.00  0.00    -0.206 F 
ATOM     76  C   UNL A   1      42.517  21.221  26.573  1.00  0.00     0.060 A 
BRANCH  76  77
ATOM     77  S   UNL A   1      42.358  19.563  25.873  1.00  0.00     0.124 S 
ATOM     78  O   UNL A   1      43.331  19.608  24.789  1.00  0.00    -0.237 OA
ATOM     79  O   UNL A   1      42.705  18.716  27.009  1.00  0.00    -0.237 OA
ATOM     80  O   UNL A   1      40.957  19.506  25.463  1.00  0.00    -0.744 OA
ENDBRANCH  76  77
ENDBRANCH  44  69
BRANCH  56  81
ATOM     81  C   UNL A   1      48.014  27.260  30.636  1.00  0.00     0.058 A 
ATOM     82  C   UNL A   1      49.072  27.590  29.775  1.00  0.00     0.135 A 
ATOM     83  C   UNL A   1      48.324  26.587  31.829  1.00  0.00     0.135 A 
ATOM     84  F   UNL A   1      48.829  28.229  28.619  1.00  0.00    -0.206 F 
ATOM     85  C   UNL A   1      50.385  27.238  30.072  1.00  0.00     0.059 A 
ATOM     86  C   UNL A   1      49.634  26.252  32.160  1.00  0.00     0.059 A 
ATOM     87  F   UNL A   1      47.351  26.258  32.694  1.00  0.00    -0.206 F 
ATOM     88  C   UNL A   1      50.655  26.568  31.266  1.00  0.00     0.060 A 
BRANCH  88  89
ATOM     89  S   UNL A   1      52.365  26.134  31.647  1.00  0.00     0.124 S 
ATOM     90  O   UNL A   1      52.194  24.882  32.376  1.00  0.00    -0.237 OA
ATOM     91  O   UNL A   1      52.963  26.018  30.320  1.00  0.00    -0.237 OA
ATOM     92  O   UNL A   1      52.835  27.265  32.442  1.00  0.00    -0.744 OA
ENDBRANCH  88  89
ENDBRANCH  56  81
ENDBRANCH  30  31
ENDBRANCH  22  25
ENDBRANCH  20  21
ENDBRANCH   1  20
TORSDOF 15
ENDMDL
MODEL 2
REMARK VINA RESULT:      -9.6      3.219      6.264
REMARK SMILES C[C@@H]1C[C@@H](C)C[NH+](C(C)(C)C(=O)NCCCCNC(=O)c2ccc(-c3c4nc(c(-c5c(F)cc(S(=O)(=O)[O-])cc5F)c5ccc([nH]5)c(-c5c(F)cc(S(=O)(=O)[O-])cc5F)c5nc(c(-c6c(F)cc(S(=O)(=O)[O-])cc6F)c6ccc3[nH]6)C=C5)C=C4)cc2)C1
REMARK SMILES IDX 16 1 15 2 14 3 13 4 11 5 12 6 8 8 9 9 10 10 7 11 1 12 2 13
REMARK SMILES IDX 3 14 87 15 4 16 6 17 5 18 17 20 18 21 19 22 20 24 21 25
REMARK SMILES IDX 22 26 86 27 23 28 85 29 24 30 25 31 26 32 79 33 27 34 84 35
REMARK SMILES IDX 78 36 80 37 28 38 83 39 77 40 76 41 29 43 63 44 42 45 62 46
REMARK SMILES IDX 43 47 46 48 61 49 81 50 44 51 45 52 60 54 82 55 47 56 30 57
REMARK SMILES IDX 31 58 40 59 32 60 33 61 39 62 41 63 34 64 35 65 36 66 37 67
REMARK SMILES IDX 38 68 64 69 65 70 74 71 66 72 67 73 73 74 75 75 68 76 69 77
REMARK SMILES IDX 70 78 71 79 72 80 48 81 49 82 58 83 50 84 51 85 57 86 59 87
REMARK SMILES IDX 52 88 53 89 54 90 55 91 56 92
REMARK H PARENT 13 7 7 19 18 23 80 42 46 53
REMARK Flexibility Score: inf
ROOT
ATOM      1  C   UNL A   1      32.253  27.850  26.833  1.00  0.00     0.023 C 
ENDROOT
BRANCH   1   2
ATOM      2  C   UNL A   1      32.292  26.431  26.269  1.00  0.00     0.023 C 
BRANCH   2   3
ATOM      3  C   UNL A   1      33.621  26.028  25.635  1.00  0.00     0.116 C 
BRANCH   3   4
ATOM      4  N   UNL A   1      33.634  26.283  24.206  1.00  0.00    -0.351 N 
ATOM      5  C   UNL A   1      33.520  25.464  23.117  1.00  0.00     0.280 C 
ATOM      6  O   UNL A   1      33.807  26.003  22.041  1.00  0.00    -0.268 OA
ATOM      7  H   UNL A   1      33.748  27.234  23.975  1.00  0.00     0.163 HD
BRANCH   5   8
ATOM      8  C   UNL A   1      33.084  23.949  23.240  1.00  0.00     0.171 C 
ATOM      9  C   UNL A   1      33.299  23.213  21.898  1.00  0.00     0.090 C 
ATOM     10  C   UNL A   1      31.591  23.970  23.650  1.00  0.00     0.090 C 
BRANCH   8  11
ATOM     11  N   UNL A   1      33.860  23.248  24.347  1.00  0.00    -0.322 N 
ATOM     12  C   UNL A   1      33.933  22.597  27.412  1.00  0.00     0.013 C 
ATOM     13  C   UNL A   1      33.817  21.597  26.257  1.00  0.00     0.042 C 
ATOM     14  C   UNL A   1      35.181  21.061  25.819  1.00  0.00     0.018 C 
ATOM     15  C   UNL A   1      33.082  22.206  25.051  1.00  0.00     0.266 C 
ATOM     16  C   UNL A   1      35.984  22.140  25.091  1.00  0.00     0.042 C 
ATOM     17  C   UNL A   1      35.165  22.703  23.913  1.00  0.00     0.266 C 
ATOM     18  C   UNL A   1      37.316  21.572  24.600  1.00  0.00     0.013 C 
ATOM     19  H   UNL A   1      34.046  23.997  25.014  1.00  0.00     0.349 HD
ENDBRANCH   8  11
ENDBRANCH   5   8
ENDBRANCH   3   4
ENDBRANCH   2   3
ENDBRANCH   1   2
BRANCH   1  20
ATOM     20  C   UNL A   1      33.615  28.469  27.125  1.00  0.00     0.116 C 
BRANCH  20  21
ATOM     21  N   UNL A   1      33.530  29.852  27.574  1.00  0.00    -0.352 N 
ATOM     22  C   UNL A   1      34.475  30.618  28.209  1.00  0.00     0.251 C 
ATOM     23  H   UNL A   1      32.672  30.302  27.397  1.00  0.00     0.163 HD
ATOM     24  O   UNL A   1      34.179  31.734  28.627  1.00  0.00    -0.269 OA
BRANCH  22  25
ATOM     25  C   UNL A   1      35.835  30.077  28.418  1.00  0.00     0.039 A 
ATOM     26  C   UNL A   1      36.743  30.115  27.358  1.00  0.00     0.014 A 
ATOM     27  C   UNL A   1      36.220  29.567  29.661  1.00  0.00     0.014 A 
ATOM     28  C   UNL A   1      38.060  29.705  27.567  1.00  0.00     0.010 A 
ATOM     29  C   UNL A   1      37.553  29.234  29.887  1.00  0.00     0.010 A 
ATOM     30  C   UNL A   1      38.488  29.301  28.843  1.00  0.00    -0.014 A 
BRANCH  30  31
ATOM     31  C   UNL A   1      39.912  28.969  29.101  1.00  0.00     0.031 A 
ATOM     32  C   UNL A   1      40.847  30.004  29.662  1.00  0.00     0.074 A 
ATOM     33  C   UNL A   1      40.374  27.746  28.769  1.00  0.00     0.049 A 
ATOM     34  N   UNL A   1      42.125  29.903  29.928  1.00  0.00    -0.248 NA
ATOM     35  C   UNL A   1      40.284  31.337  29.935  1.00  0.00     0.031 C 
ATOM     36  C   UNL A   1      39.580  26.681  28.148  1.00  0.00     0.029 A 
ATOM     37  N   UNL A   1      41.623  27.192  28.896  1.00  0.00    -0.354 N 
ATOM     38  C   UNL A   1      42.520  31.156  30.380  1.00  0.00     0.074 A 
ATOM     39  C   UNL A   1      41.358  32.017  30.309  1.00  0.00     0.031 C 
ATOM     40  C   UNL A   1      40.356  25.600  27.969  1.00  0.00     0.029 A 
ATOM     41  C   UNL A   1      41.707  25.901  28.430  1.00  0.00     0.049 A 
ATOM     42  H   UNL A   1      42.389  27.675  29.285  1.00  0.00     0.167 HD
ATOM     43  C   UNL A   1      43.734  31.547  30.833  1.00  0.00     0.037 A 
ATOM     44  C   UNL A   1      42.755  25.056  28.374  1.00  0.00     0.037 A 
ATOM     45  C   UNL A   1      44.875  30.674  30.934  1.00  0.00     0.049 A 
ATOM     46  C   UNL A   1      44.085  25.506  28.916  1.00  0.00     0.074 A 
ATOM     47  C   UNL A   1      46.122  30.949  31.467  1.00  0.00     0.029 A 
ATOM     48  N   UNL A   1      44.912  29.362  30.487  1.00  0.00    -0.354 N 
ATOM     49  N   UNL A   1      44.414  26.665  29.435  1.00  0.00    -0.248 NA
ATOM     50  C   UNL A   1      45.183  24.532  28.875  1.00  0.00     0.031 C 
ATOM     51  C   UNL A   1      46.929  29.820  31.296  1.00  0.00     0.029 A 
ATOM     52  C   UNL A   1      46.170  28.823  30.705  1.00  0.00     0.049 A 
ATOM     53  H   UNL A   1      44.157  28.884  30.074  1.00  0.00     0.167 HD
ATOM     54  C   UNL A   1      45.751  26.553  29.801  1.00  0.00     0.074 A 
ATOM     55  C   UNL A   1      46.163  25.205  29.464  1.00  0.00     0.031 C 
ATOM     56  C   UNL A   1      46.565  27.480  30.363  1.00  0.00     0.037 A 
BRANCH  43  57
ATOM     57  C   UNL A   1      43.900  32.980  31.263  1.00  0.00     0.058 A 
ATOM     58  C   UNL A   1      44.235  33.991  30.349  1.00  0.00     0.135 A 
ATOM     59  C   UNL A   1      43.660  33.354  32.595  1.00  0.00     0.135 A 
ATOM     60  F   UNL A   1      44.490  33.688  29.067  1.00  0.00    -0.206 F 
ATOM     61  C   UNL A   1      44.343  35.321  30.743  1.00  0.00     0.059 A 
ATOM     62  C   UNL A   1      43.737  34.682  33.006  1.00  0.00     0.059 A 
ATOM     63  F   UNL A   1      43.340  32.427  33.511  1.00  0.00    -0.206 F 
ATOM     64  C   UNL A   1      44.088  35.658  32.074  1.00  0.00     0.060 A 
BRANCH  64  65
ATOM     65  S   UNL A   1      44.205  37.392  32.562  1.00  0.00     0.124 S 
ATOM     66  O   UNL A   1      45.562  37.453  33.096  1.00  0.00    -0.237 OA
ATOM     67  O   UNL A   1      43.990  38.086  31.297  1.00  0.00    -0.237 OA
ATOM     68  O   UNL A   1      43.137  37.541  33.545  1.00  0.00    -0.744 OA
ENDBRANCH  64  65
ENDBRANCH  43  57
BRANCH  44  69
ATOM     69  C   UNL A   1      42.588  23.696  27.796  1.00  0.00     0.058 A 
ATOM     70  C   UNL A   1      42.427  22.571  28.618  1.00  0.00     0.135 A 
ATOM     71  C   UNL A   1      42.584  23.494  26.407  1.00  0.00     0.135 A 
ATOM     72  F   UNL A   1      42.427  22.712  29.953  1.00  0.00    -0.206 F 
ATOM     73  C   UNL A   1      42.294  21.292  28.088  1.00  0.00     0.059 A 
ATOM     74  C   UNL A   1      42.425  22.227  25.852  1.00  0.00     0.059 A 
ATOM     75  F   UNL A   1      42.714  24.539  25.574  1.00  0.00    -0.206 F 
ATOM     76  C   UNL A   1      42.296  21.131  26.702  1.00  0.00     0.060 A 
BRANCH  76  77
ATOM     77  S   UNL A   1      42.090  19.470  26.021  1.00  0.00     0.124 S 
ATOM     78  O   UNL A   1      42.556  18.641  27.126  1.00  0.00    -0.237 OA
ATOM     79  O   UNL A   1      40.657  19.425  25.750  1.00  0.00    -0.237 OA
ATOM     80  O   UNL A   1      42.945  19.486  24.838  1.00  0.00    -0.744 OA
ENDBRANCH  76  77
ENDBRANCH  44  69
BRANCH  56  81
ATOM     81  C   UNL A   1      47.977  27.062  30.671  1.00  0.00     0.058 A 
ATOM     82  C   UNL A   1      49.029  27.300  29.773  1.00  0.00     0.135 A 
ATOM     83  C   UNL A   1      48.285  26.449  31.896  1.00  0.00     0.135 A 
ATOM     84  F   UNL A   1      48.787  27.879  28.586  1.00  0.00    -0.206 F 
ATOM     85  C   UNL A   1      50.334  26.917  30.067  1.00  0.00     0.059 A 
ATOM     86  C   UNL A   1      49.589  26.084  32.222  1.00  0.00     0.059 A 
ATOM     87  F   UNL A   1      47.318  26.209  32.796  1.00  0.00    -0.206 F 
ATOM     88  C   UNL A   1      50.603  26.308  31.293  1.00  0.00     0.060 A 
BRANCH  88  89
ATOM     89  S   UNL A   1      52.303  25.832  31.668  1.00  0.00     0.124 S 
ATOM     90  O   UNL A   1      52.658  26.801  32.700  1.00  0.00    -0.237 OA
ATOM     91  O   UNL A   1      52.150  24.453  32.120  1.00  0.00    -0.237 OA
ATOM     92  O   UNL A   1      52.991  25.993  30.391  1.00  0.00    -0.744 OA
ENDBRANCH  88  89
ENDBRANCH  56  81
ENDBRANCH  30  31
ENDBRANCH  22  25
ENDBRANCH  20  21
ENDBRANCH   1  20
TORSDOF 15
ENDMDL
MODEL 3
REMARK VINA RESULT:      -9.5      3.054     11.268
REMARK SMILES C[C@@H]1C[C@@H](C)C[NH+](C(C)(C)C(=O)NCCCCNC(=O)c2ccc(-c3c4nc(c(-c5c(F)cc(S(=O)(=O)[O-])cc5F)c5ccc([nH]5)c(-c5c(F)cc(S(=O)(=O)[O-])cc5F)c5nc(c(-c6c(F)cc(S(=O)(=O)[O-])cc6F)c6ccc3[nH]6)C=C5)C=C4)cc2)C1
REMARK SMILES IDX 16 1 15 2 14 3 13 4 11 5 12 6 8 8 9 9 10 10 7 11 1 12 2 13
REMARK SMILES IDX 3 14 87 15 4 16 6 17 5 18 17 20 18 21 19 22 20 24 21 25
REMARK SMILES IDX 22 26 86 27 23 28 85 29 24 30 25 31 26 32 79 33 27 34 84 35
REMARK SMILES IDX 78 36 80 37 28 38 83 39 77 40 76 41 29 43 63 44 42 45 62 46
REMARK SMILES IDX 43 47 46 48 61 49 81 50 44 51 45 52 60 54 82 55 47 56 30 57
REMARK SMILES IDX 31 58 40 59 32 60 33 61 39 62 41 63 34 64 35 65 36 66 37 67
REMARK SMILES IDX 38 68 64 69 65 70 74 71 66 72 67 73 73 74 75 75 68 76 69 77
REMARK SMILES IDX 70 78 71 79 72 80 48 81 49 82 58 83 50 84 51 85 57 86 59 87
REMARK SMILES IDX 52 88 53 89 54 90 55 91 56 92
REMARK H PARENT 13 7 7 19 18 23 80 42 46 53
REMARK Flexibility Score: inf
ROOT
ATOM      1  C   UNL A   1      40.458  20.159  26.180  1.00  0.00     0.023 C 
ENDROOT
BRANCH   1   2
ATOM      2  C   UNL A   1      41.949  19.828  26.209  1.00  0.00     0.023 C 
BRANCH   2   3
ATOM      3  C   UNL A   1      42.877  21.024  26.016  1.00  0.00     0.116 C 
BRANCH   3   4
ATOM      4  N   UNL A   1      44.269  20.618  25.942  1.00  0.00    -0.351 N 
ATOM      5  C   UNL A   1      45.373  21.189  25.370  1.00  0.00     0.280 C 
ATOM      6  O   UNL A   1      46.357  20.444  25.308  1.00  0.00    -0.268 OA
ATOM      7  H   UNL A   1      44.456  19.762  26.392  1.00  0.00     0.163 HD
BRANCH   5   8
ATOM      8  C   UNL A   1      45.367  22.669  24.815  1.00  0.00     0.171 C 
ATOM      9  C   UNL A   1      44.215  22.863  23.802  1.00  0.00     0.090 C 
ATOM     10  C   UNL A   1      46.752  22.880  24.155  1.00  0.00     0.090 C 
BRANCH   8  11
ATOM     11  N   UNL A   1      45.235  23.676  25.950  1.00  0.00    -0.322 N 
ATOM     12  C   UNL A   1      45.359  24.070  29.056  1.00  0.00     0.013 C 
ATOM     13  C   UNL A   1      46.272  24.710  28.006  1.00  0.00     0.042 C 
ATOM     14  C   UNL A   1      45.767  26.085  27.565  1.00  0.00     0.018 C 
ATOM     15  C   UNL A   1      46.453  23.800  26.780  1.00  0.00     0.266 C 
ATOM     16  C   UNL A   1      44.508  25.955  26.706  1.00  0.00     0.042 C 
ATOM     17  C   UNL A   1      44.776  25.014  25.516  1.00  0.00     0.266 C 
ATOM     18  C   UNL A   1      44.054  27.330  26.216  1.00  0.00     0.013 C 
ATOM     19  H   UNL A   1      44.502  23.275  26.535  1.00  0.00     0.349 HD
ENDBRANCH   8  11
ENDBRANCH   5   8
ENDBRANCH   3   4
ENDBRANCH   2   3
ENDBRANCH   1   2
BRANCH   1  20
ATOM     20  C   UNL A   1      40.103  21.586  26.579  1.00  0.00     0.116 C 
BRANCH  20  21
ATOM     21  N   UNL A   1      39.034  22.157  25.772  1.00  0.00    -0.352 N 
ATOM     22  C   UNL A   1      38.503  23.422  25.805  1.00  0.00     0.251 C 
ATOM     23  H   UNL A   1      38.636  21.549  25.107  1.00  0.00     0.163 HD
ATOM     24  O   UNL A   1      37.513  23.688  25.129  1.00  0.00    -0.269 OA
BRANCH  22  25
ATOM     25  C   UNL A   1      39.106  24.447  26.683  1.00  0.00     0.039 A 
ATOM     26  C   UNL A   1      39.975  25.385  26.122  1.00  0.00     0.014 A 
ATOM     27  C   UNL A   1      38.790  24.499  28.043  1.00  0.00     0.014 A 
ATOM     28  C   UNL A   1      40.471  26.421  26.914  1.00  0.00     0.010 A 
ATOM     29  C   UNL A   1      39.223  25.578  28.810  1.00  0.00     0.010 A 
ATOM     30  C   UNL A   1      40.067  26.551  28.254  1.00  0.00    -0.014 A 
BRANCH  30  31
ATOM     31  C   UNL A   1      40.502  27.710  29.074  1.00  0.00     0.031 A 
ATOM     32  C   UNL A   1      41.817  27.679  29.802  1.00  0.00     0.074 A 
ATOM     33  C   UNL A   1      39.677  28.769  29.208  1.00  0.00     0.049 A 
ATOM     34  N   UNL A   1      42.349  28.584  30.583  1.00  0.00    -0.248 NA
ATOM     35  C   UNL A   1      42.631  26.460  29.662  1.00  0.00     0.031 C 
ATOM     36  C   UNL A   1      38.344  28.884  28.610  1.00  0.00     0.029 A 
ATOM     37  N   UNL A   1      39.831  29.946  29.896  1.00  0.00    -0.354 N 
ATOM     38  C   UNL A   1      43.544  28.041  31.037  1.00  0.00     0.074 A 
ATOM     39  C   UNL A   1      43.640  26.708  30.485  1.00  0.00     0.031 C 
ATOM     40  C   UNL A   1      37.813  30.073  28.941  1.00  0.00     0.029 A 
ATOM     41  C   UNL A   1      38.750  30.790  29.798  1.00  0.00     0.049 A 
ATOM     42  H   UNL A   1      40.641  30.166  30.413  1.00  0.00     0.167 HD
ATOM     43  C   UNL A   1      44.485  28.611  31.826  1.00  0.00     0.037 A 
ATOM     44  C   UNL A   1      38.534  32.004  30.343  1.00  0.00     0.037 A 
ATOM     45  C   UNL A   1      44.399  29.953  32.342  1.00  0.00     0.049 A 
ATOM     46  C   UNL A   1      39.612  32.628  31.188  1.00  0.00     0.074 A 
ATOM     47  C   UNL A   1      45.343  30.655  33.071  1.00  0.00     0.029 A 
ATOM     48  N   UNL A   1      43.306  30.792  32.192  1.00  0.00    -0.354 N 
ATOM     49  N   UNL A   1      40.782  32.138  31.523  1.00  0.00    -0.248 NA
ATOM     50  C   UNL A   1      39.346  33.971  31.718  1.00  0.00     0.031 C 
ATOM     51  C   UNL A   1      44.800  31.899  33.405  1.00  0.00     0.029 A 
ATOM     52  C   UNL A   1      43.539  31.995  32.839  1.00  0.00     0.049 A 
ATOM     53  H   UNL A   1      42.484  30.567  31.698  1.00  0.00     0.167 HD
ATOM     54  C   UNL A   1      41.401  33.122  32.287  1.00  0.00     0.074 A 
ATOM     55  C   UNL A   1      40.484  34.242  32.345  1.00  0.00     0.031 C 
ATOM     56  C   UNL A   1      42.615  33.100  32.889  1.00  0.00     0.037 A 
BRANCH  43  57
ATOM     57  C   UNL A   1      45.699  27.795  32.179  1.00  0.00     0.058 A 
ATOM     58  C   UNL A   1      46.809  27.712  31.323  1.00  0.00     0.135 A 
ATOM     59  C   UNL A   1      45.778  27.137  33.418  1.00  0.00     0.135 A 
ATOM     60  F   UNL A   1      46.782  28.308  30.121  1.00  0.00    -0.206 F 
ATOM     61  C   UNL A   1      47.946  26.993  31.674  1.00  0.00     0.059 A 
ATOM     62  C   UNL A   1      46.916  26.434  33.801  1.00  0.00     0.059 A 
ATOM     63  F   UNL A   1      44.744  27.180  34.273  1.00  0.00    -0.206 F 
ATOM     64  C   UNL A   1      47.993  26.360  32.918  1.00  0.00     0.060 A 
BRANCH  64  65
ATOM     65  S   UNL A   1      49.488  25.455  33.369  1.00  0.00     0.124 S 
ATOM     66  O   UNL A   1      49.938  24.969  32.068  1.00  0.00    -0.237 OA
ATOM     67  O   UNL A   1      50.310  26.496  33.977  1.00  0.00    -0.237 OA
ATOM     68  O   UNL A   1      49.001  24.429  34.286  1.00  0.00    -0.744 OA
ENDBRANCH  64  65
ENDBRANCH  43  57
BRANCH  44  69
ATOM     69  C   UNL A   1      37.251  32.716  30.096  1.00  0.00     0.058 A 
ATOM     70  C   UNL A   1      37.132  33.664  29.070  1.00  0.00     0.135 A 
ATOM     71  C   UNL A   1      36.117  32.460  30.882  1.00  0.00     0.135 A 
ATOM     72  F   UNL A   1      38.188  33.946  28.292  1.00  0.00    -0.206 F 
ATOM     73  C   UNL A   1      35.943  34.353  28.846  1.00  0.00     0.059 A 
ATOM     74  C   UNL A   1      34.909  33.116  30.661  1.00  0.00     0.059 A 
ATOM     75  F   UNL A   1      36.171  31.547  31.865  1.00  0.00    -0.206 F 
ATOM     76  C   UNL A   1      34.837  34.071  29.650  1.00  0.00     0.060 A 
BRANCH  76  77
ATOM     77  S   UNL A   1      33.289  34.946  29.332  1.00  0.00     0.124 S 
ATOM     78  O   UNL A   1      32.661  34.081  28.340  1.00  0.00    -0.237 OA
ATOM     79  O   UNL A   1      32.668  34.961  30.652  1.00  0.00    -0.237 OA
ATOM     80  O   UNL A   1      33.735  36.248  28.843  1.00  0.00    -0.744 OA
ENDBRANCH  76  77
ENDBRANCH  44  69
BRANCH  56  81
ATOM     81  C   UNL A   1      43.034  34.333  33.641  1.00  0.00     0.058 A 
ATOM     82  C   UNL A   1      42.767  34.487  35.011  1.00  0.00     0.135 A 
ATOM     83  C   UNL A   1      43.745  35.356  32.992  1.00  0.00     0.135 A 
ATOM     84  F   UNL A   1      42.087  33.541  35.677  1.00  0.00    -0.206 F 
ATOM     85  C   UNL A   1      43.162  35.627  35.703  1.00  0.00     0.059 A 
ATOM     86  C   UNL A   1      44.176  36.491  33.673  1.00  0.00     0.059 A 
ATOM     87  F   UNL A   1      44.037  35.253  31.686  1.00  0.00    -0.206 F 
ATOM     88  C   UNL A   1      43.865  36.624  35.025  1.00  0.00     0.060 A 
BRANCH  88  89
ATOM     89  S   UNL A   1      44.388  38.090  35.939  1.00  0.00     0.124 S 
ATOM     90  O   UNL A   1      43.948  39.162  35.052  1.00  0.00    -0.237 OA
ATOM     91  O   UNL A   1      43.648  37.960  37.190  1.00  0.00    -0.237 OA
ATOM     92  O   UNL A   1      45.834  37.922  36.053  1.00  0.00    -0.744 OA
ENDBRANCH  88  89
ENDBRANCH  56  81
ENDBRANCH  30  31
ENDBRANCH  22  25
ENDBRANCH  20  21
ENDBRANCH   1  20
TORSDOF 15
ENDMDL
