MODEL 1
REMARK VINA RESULT:     -11.2      0.000      0.000
REMARK SMILES O=C(CCC(=O)Nc1cc(Cl)cc(Cl)c1)NCCCCNC(=O)c1ccc(-c2c3nc(c(-c4c(F)cc(S(=O)(=O)[O-])cc4F)c4ccc([nH]4)c(-c4c(F)cc(S(=O)(=O)[O-])cc4F)c4nc(c(-c5c(F)cc(S(=O)(=O)[O-])cc5F)c5ccc2[nH]5)C=C4)C=C3)cc1
REMARK SMILES IDX 18 1 17 2 16 3 1 4 2 5 3 7 4 8 5 9 6 10 7 11 8 13 9 14 15 15
REMARK SMILES IDX 10 16 13 17 11 18 12 19 14 20 19 21 20 22 21 23 22 24 23 26
REMARK SMILES IDX 24 27 25 28 89 29 26 30 88 31 27 32 28 33 29 34 82 35 30 36
REMARK SMILES IDX 87 37 81 38 83 39 31 40 86 41 80 42 79 43 32 45 66 46 45 47
REMARK SMILES IDX 65 48 46 49 49 50 64 51 84 52 47 53 48 54 63 56 85 57 50 58
REMARK SMILES IDX 33 59 34 60 43 61 35 62 36 63 42 64 44 65 37 66 38 67 39 68
REMARK SMILES IDX 40 69 41 70 67 71 68 72 77 73 69 74 70 75 76 76 78 77 71 78
REMARK SMILES IDX 72 79 73 80 74 81 75 82 51 83 52 84 61 85 53 86 54 87 60 88
REMARK SMILES IDX 62 89 55 90 56 91 57 92 58 93 59 94
REMARK H PARENT 16 6 7 12 21 25 83 44 49 55
REMARK Flexibility Score: inf
ROOT
ATOM      1  C   UNL A   1      35.520  32.682  28.007  1.00  0.00     0.023 C 
ENDROOT
BRANCH   1   2
ATOM      2  C   UNL A   1      34.271  31.807  28.007  1.00  0.00     0.116 C 
BRANCH   2   3
ATOM      3  N   UNL A   1      34.334  30.674  27.101  1.00  0.00    -0.356 N 
ATOM      4  O   UNL A   1      32.076  30.577  26.670  1.00  0.00    -0.275 OA
ATOM      5  C   UNL A   1      33.223  30.215  26.429  1.00  0.00     0.220 C 
ATOM      6  H   UNL A   1      35.197  30.222  26.963  1.00  0.00     0.163 HD
BRANCH   5   7
ATOM      7  C   UNL A   1      33.535  29.305  25.263  1.00  0.00     0.110 C 
BRANCH   7   8
ATOM      8  C   UNL A   1      32.265  28.693  24.673  1.00  0.00     0.110 C 
BRANCH   8   9
ATOM      9  C   UNL A   1      32.380  28.482  23.185  1.00  0.00     0.224 C 
ATOM     10  O   UNL A   1      33.500  28.303  22.692  1.00  0.00    -0.275 OA
ATOM     11  N   UNL A   1      31.338  28.513  22.313  1.00  0.00    -0.326 N 
ATOM     12  H   UNL A   1      31.588  28.157  21.430  1.00  0.00     0.169 HD
BRANCH  11  13
ATOM     13  C   UNL A   1      29.991  28.925  22.351  1.00  0.00     0.044 A 
ATOM     14  C   UNL A   1      28.926  28.215  22.901  1.00  0.00     0.046 A 
ATOM     15  C   UNL A   1      29.743  30.225  21.882  1.00  0.00     0.046 A 
ATOM     16  C   UNL A   1      27.668  28.814  23.047  1.00  0.00     0.044 A 
ATOM     17  C   UNL A   1      28.482  30.812  22.022  1.00  0.00     0.044 A 
ATOM     18  Cl  UNL A   1      26.392  27.942  23.806  1.00  0.00    -0.084 Cl
ATOM     19  C   UNL A   1      27.442  30.116  22.619  1.00  0.00     0.041 A 
ATOM     20  Cl  UNL A   1      28.227  32.426  21.486  1.00  0.00    -0.084 Cl
ENDBRANCH  11  13
ENDBRANCH   8   9
ENDBRANCH   7   8
ENDBRANCH   5   7
ENDBRANCH   2   3
ENDBRANCH   1   2
BRANCH   1  21
ATOM     21  C   UNL A   1      35.658  33.638  29.194  1.00  0.00     0.023 C 
BRANCH  21  22
ATOM     22  C   UNL A   1      36.536  33.147  30.342  1.00  0.00     0.116 C 
BRANCH  22  23
ATOM     23  N   UNL A   1      36.050  31.915  30.944  1.00  0.00    -0.352 N 
ATOM     24  C   UNL A   1      36.617  30.661  30.969  1.00  0.00     0.251 C 
ATOM     25  H   UNL A   1      35.183  31.990  31.405  1.00  0.00     0.163 HD
ATOM     26  O   UNL A   1      35.961  29.708  31.392  1.00  0.00    -0.269 OA
BRANCH  24  27
ATOM     27  C   UNL A   1      37.992  30.438  30.463  1.00  0.00     0.039 A 
ATOM     28  C   UNL A   1      39.048  30.376  31.376  1.00  0.00     0.014 A 
ATOM     29  C   UNL A   1      38.248  30.296  29.098  1.00  0.00     0.014 A 
ATOM     30  C   UNL A   1      40.340  30.078  30.929  1.00  0.00     0.010 A 
ATOM     31  C   UNL A   1      39.519  29.921  28.662  1.00  0.00     0.010 A 
ATOM     32  C   UNL A   1      40.580  29.799  29.574  1.00  0.00    -0.014 A 
BRANCH  32  33
ATOM     33  C   UNL A   1      41.918  29.353  29.097  1.00  0.00     0.031 A 
ATOM     34  C   UNL A   1      43.053  30.334  28.970  1.00  0.00     0.074 A 
ATOM     35  C   UNL A   1      42.095  28.073  28.707  1.00  0.00     0.049 A 
ATOM     36  N   UNL A   1      44.258  30.148  28.496  1.00  0.00    -0.248 NA
ATOM     37  C   UNL A   1      42.791  31.713  29.414  1.00  0.00     0.031 C 
ATOM     38  C   UNL A   1      41.065  27.031  28.731  1.00  0.00     0.029 A 
ATOM     39  N   UNL A   1      43.200  27.432  28.201  1.00  0.00    -0.354 N 
ATOM     40  C   UNL A   1      44.895  31.382  28.574  1.00  0.00     0.074 A 
ATOM     41  C   UNL A   1      43.922  32.322  29.089  1.00  0.00     0.031 C 
ATOM     42  C   UNL A   1      41.590  25.882  28.278  1.00  0.00     0.029 A 
ATOM     43  C   UNL A   1      42.979  26.110  27.892  1.00  0.00     0.049 A 
ATOM     44  H   UNL A   1      44.067  27.877  28.070  1.00  0.00     0.167 HD
ATOM     45  C   UNL A   1      46.176  31.698  28.269  1.00  0.00     0.037 A 
ATOM     46  C   UNL A   1      43.796  25.185  27.349  1.00  0.00     0.037 A 
ATOM     47  C   UNL A   1      47.147  30.757  27.770  1.00  0.00     0.049 A 
ATOM     48  C   UNL A   1      45.213  25.561  27.010  1.00  0.00     0.074 A 
ATOM     49  C   UNL A   1      48.482  30.975  27.473  1.00  0.00     0.029 A 
ATOM     50  N   UNL A   1      46.890  29.422  27.494  1.00  0.00    -0.354 N 
ATOM     51  N   UNL A   1      45.811  26.720  27.141  1.00  0.00    -0.248 NA
ATOM     52  C   UNL A   1      46.069  24.502  26.456  1.00  0.00     0.031 C 
ATOM     53  C   UNL A   1      49.020  29.783  26.977  1.00  0.00     0.029 A 
ATOM     54  C   UNL A   1      48.036  28.808  27.015  1.00  0.00     0.049 A 
ATOM     55  H   UNL A   1      46.021  28.976  27.620  1.00  0.00     0.167 HD
ATOM     56  C   UNL A   1      47.119  26.524  26.710  1.00  0.00     0.074 A 
ATOM     57  C   UNL A   1      47.228  25.132  26.328  1.00  0.00     0.031 C 
ATOM     58  C   UNL A   1      48.137  27.418  26.641  1.00  0.00     0.037 A 
BRANCH  45  59
ATOM     59  C   UNL A   1      46.609  33.126  28.475  1.00  0.00     0.058 A 
ATOM     60  C   UNL A   1      47.143  33.563  29.698  1.00  0.00     0.135 A 
ATOM     61  C   UNL A   1      46.524  34.060  27.429  1.00  0.00     0.135 A 
ATOM     62  F   UNL A   1      47.235  32.715  30.736  1.00  0.00    -0.206 F 
ATOM     63  C   UNL A   1      47.547  34.879  29.889  1.00  0.00     0.059 A 
ATOM     64  C   UNL A   1      46.950  35.376  27.589  1.00  0.00     0.059 A 
ATOM     65  F   UNL A   1      46.025  33.698  26.237  1.00  0.00    -0.206 F 
ATOM     66  C   UNL A   1      47.445  35.780  28.828  1.00  0.00     0.060 A 
BRANCH  66  67
ATOM     67  S   UNL A   1      47.973  37.486  29.094  1.00  0.00     0.124 S 
ATOM     68  O   UNL A   1      46.698  38.195  29.049  1.00  0.00    -0.237 OA
ATOM     69  O   UNL A   1      48.613  37.414  30.403  1.00  0.00    -0.237 OA
ATOM     70  O   UNL A   1      48.872  37.742  27.973  1.00  0.00    -0.744 OA
ENDBRANCH  66  67
ENDBRANCH  45  59
BRANCH  46  71
ATOM     71  C   UNL A   1      43.295  23.804  27.108  1.00  0.00     0.058 A 
ATOM     72  C   UNL A   1      42.891  23.394  25.829  1.00  0.00     0.135 A 
ATOM     73  C   UNL A   1      43.228  22.863  28.148  1.00  0.00     0.135 A 
ATOM     74  F   UNL A   1      42.930  24.259  24.804  1.00  0.00    -0.206 F 
ATOM     75  C   UNL A   1      42.427  22.104  25.590  1.00  0.00     0.059 A 
ATOM     76  C   UNL A   1      42.792  21.560  27.928  1.00  0.00     0.059 A 
ATOM     77  F   UNL A   1      43.617  23.200  29.387  1.00  0.00    -0.206 F 
ATOM     78  C   UNL A   1      42.384  21.193  26.646  1.00  0.00     0.060 A 
BRANCH  78  79
ATOM     79  S   UNL A   1      41.834  19.505  26.312  1.00  0.00     0.124 S 
ATOM     80  O   UNL A   1      40.394  19.689  26.170  1.00  0.00    -0.237 OA
ATOM     81  O   UNL A   1      42.561  19.183  25.087  1.00  0.00    -0.237 OA
ATOM     82  O   UNL A   1      42.264  18.772  27.498  1.00  0.00    -0.744 OA
ENDBRANCH  78  79
ENDBRANCH  46  71
BRANCH  58  83
ATOM     83  C   UNL A   1      49.472  26.915  26.164  1.00  0.00     0.058 A 
ATOM     84  C   UNL A   1      49.893  27.078  24.836  1.00  0.00     0.135 A 
ATOM     85  C   UNL A   1      50.365  26.309  27.065  1.00  0.00     0.135 A 
ATOM     86  F   UNL A   1      49.077  27.644  23.933  1.00  0.00    -0.206 F 
ATOM     87  C   UNL A   1      51.143  26.638  24.410  1.00  0.00     0.059 A 
ATOM     88  C   UNL A   1      51.630  25.887  26.667  1.00  0.00     0.059 A 
ATOM     89  F   UNL A   1      50.017  26.138  28.350  1.00  0.00    -0.206 F 
ATOM     90  C   UNL A   1      52.005  26.046  25.335  1.00  0.00     0.060 A 
BRANCH  90  91
ATOM     91  S   UNL A   1      53.638  25.513  24.777  1.00  0.00     0.124 S 
ATOM     92  O   UNL A   1      54.498  26.531  25.370  1.00  0.00    -0.237 OA
ATOM     93  O   UNL A   1      53.746  24.177  25.355  1.00  0.00    -0.237 OA
ATOM     94  O   UNL A   1      53.530  25.552  23.322  1.00  0.00    -0.744 OA
ENDBRANCH  90  91
ENDBRANCH  58  83
ENDBRANCH  32  33
ENDBRANCH  24  27
ENDBRANCH  22  23
ENDBRANCH  21  22
ENDBRANCH   1  21
TORSDOF 17
ENDMDL
MODEL 2
REMARK VINA RESULT:     -11.2      7.079     13.599
REMARK SMILES O=C(CCC(=O)Nc1cc(Cl)cc(Cl)c1)NCCCCNC(=O)c1ccc(-c2c3nc(c(-c4c(F)cc(S(=O)(=O)[O-])cc4F)c4ccc([nH]4)c(-c4c(F)cc(S(=O)(=O)[O-])cc4F)c4nc(c(-c5c(F)cc(S(=O)(=O)[O-])cc5F)c5ccc2[nH]5)C=C4)C=C3)cc1
REMARK SMILES IDX 18 1 17 2 16 3 1 4 2 5 3 7 4 8 5 9 6 10 7 11 8 13 9 14 15 15
REMARK SMILES IDX 10 16 13 17 11 18 12 19 14 20 19 21 20 22 21 23 22 24 23 26
REMARK SMILES IDX 24 27 25 28 89 29 26 30 88 31 27 32 28 33 29 34 82 35 30 36
REMARK SMILES IDX 87 37 81 38 83 39 31 40 86 41 80 42 79 43 32 45 66 46 45 47
REMARK SMILES IDX 65 48 46 49 49 50 64 51 84 52 47 53 48 54 63 56 85 57 50 58
REMARK SMILES IDX 33 59 34 60 43 61 35 62 36 63 42 64 44 65 37 66 38 67 39 68
REMARK SMILES IDX 40 69 41 70 67 71 68 72 77 73 69 74 70 75 76 76 78 77 71 78
REMARK SMILES IDX 72 79 73 80 74 81 75 82 51 83 52 84 61 85 53 86 54 87 60 88
REMARK SMILES IDX 62 89 55 90 56 91 57 92 58 93 59 94
REMARK H PARENT 16 6 7 12 21 25 83 44 49 55
REMARK Flexibility Score: inf
ROOT
ATOM      1  C   UNL A   1      46.152  23.228  25.477  1.00  0.00     0.023 C 
ENDROOT
BRANCH   1   2
ATOM      2  C   UNL A   1      46.388  22.342  24.259  1.00  0.00     0.116 C 
BRANCH   2   3
ATOM      3  N   UNL A   1      45.433  21.259  24.113  1.00  0.00    -0.356 N 
ATOM      4  O   UNL A   1      46.901  19.565  24.637  1.00  0.00    -0.275 OA
ATOM      5  C   UNL A   1      45.759  19.954  24.414  1.00  0.00     0.220 C 
ATOM      6  H   UNL A   1      44.527  21.463  23.789  1.00  0.00     0.163 HD
BRANCH   5   7
ATOM      7  C   UNL A   1      44.567  19.038  24.575  1.00  0.00     0.110 C 
BRANCH   7   8
ATOM      8  C   UNL A   1      44.021  19.072  26.002  1.00  0.00     0.110 C 
BRANCH   8   9
ATOM      9  C   UNL A   1      42.653  18.446  26.097  1.00  0.00     0.224 C 
ATOM     10  O   UNL A   1      42.511  17.267  25.751  1.00  0.00    -0.275 OA
ATOM     11  N   UNL A   1      41.530  19.092  26.503  1.00  0.00    -0.326 N 
ATOM     12  H   UNL A   1      40.792  18.466  26.687  1.00  0.00     0.169 HD
BRANCH  11  13
ATOM     13  C   UNL A   1      41.150  20.430  26.728  1.00  0.00     0.044 A 
ATOM     14  C   UNL A   1      40.026  21.068  26.205  1.00  0.00     0.046 A 
ATOM     15  C   UNL A   1      41.934  21.135  27.656  1.00  0.00     0.046 A 
ATOM     16  C   UNL A   1      39.655  22.342  26.654  1.00  0.00     0.044 A 
ATOM     17  C   UNL A   1      41.562  22.410  28.090  1.00  0.00     0.044 A 
ATOM     18  Cl  UNL A   1      38.216  23.071  26.053  1.00  0.00    -0.084 Cl
ATOM     19  C   UNL A   1      40.412  23.015  27.604  1.00  0.00     0.041 A 
ATOM     20  Cl  UNL A   1      42.515  23.222  29.270  1.00  0.00    -0.084 Cl
ENDBRANCH  11  13
ENDBRANCH   8   9
ENDBRANCH   7   8
ENDBRANCH   5   7
ENDBRANCH   2   3
ENDBRANCH   1   2
BRANCH   1  21
ATOM     21  C   UNL A   1      44.754  23.147  26.094  1.00  0.00     0.023 C 
BRANCH  21  22
ATOM     22  C   UNL A   1      44.150  24.474  26.545  1.00  0.00     0.116 C 
BRANCH  22  23
ATOM     23  N   UNL A   1      43.128  24.973  25.636  1.00  0.00    -0.352 N 
ATOM     24  C   UNL A   1      42.068  25.816  25.877  1.00  0.00     0.251 C 
ATOM     25  H   UNL A   1      43.210  24.659  24.706  1.00  0.00     0.163 HD
ATOM     26  O   UNL A   1      41.218  25.986  25.001  1.00  0.00    -0.269 OA
BRANCH  24  27
ATOM     27  C   UNL A   1      41.920  26.496  27.184  1.00  0.00     0.039 A 
ATOM     28  C   UNL A   1      42.751  27.579  27.484  1.00  0.00     0.014 A 
ATOM     29  C   UNL A   1      40.972  26.073  28.119  1.00  0.00     0.014 A 
ATOM     30  C   UNL A   1      42.568  28.291  28.675  1.00  0.00     0.010 A 
ATOM     31  C   UNL A   1      40.738  26.829  29.267  1.00  0.00     0.010 A 
ATOM     32  C   UNL A   1      41.527  27.953  29.555  1.00  0.00    -0.014 A 
BRANCH  32  33
ATOM     33  C   UNL A   1      41.232  28.776  30.761  1.00  0.00     0.031 A 
ATOM     34  C   UNL A   1      40.118  29.789  30.744  1.00  0.00     0.074 A 
ATOM     35  C   UNL A   1      42.016  28.664  31.854  1.00  0.00     0.049 A 
ATOM     36  N   UNL A   1      39.769  30.651  31.664  1.00  0.00    -0.248 NA
ATOM     37  C   UNL A   1      39.302  29.858  29.521  1.00  0.00     0.031 C 
ATOM     38  C   UNL A   1      43.160  27.759  31.985  1.00  0.00     0.029 A 
ATOM     39  N   UNL A   1      41.980  29.326  33.057  1.00  0.00    -0.354 N 
ATOM     40  C   UNL A   1      38.704  31.369  31.133  1.00  0.00     0.074 A 
ATOM     41  C   UNL A   1      38.501  30.879  29.786  1.00  0.00     0.031 C 
ATOM     42  C   UNL A   1      43.705  27.909  33.203  1.00  0.00     0.029 A 
ATOM     43  C   UNL A   1      42.978  28.948  33.926  1.00  0.00     0.049 A 
ATOM     44  H   UNL A   1      41.305  30.006  33.277  1.00  0.00     0.167 HD
ATOM     45  C   UNL A   1      37.949  32.329  31.718  1.00  0.00     0.037 A 
ATOM     46  C   UNL A   1      43.285  29.394  35.161  1.00  0.00     0.037 A 
ATOM     47  C   UNL A   1      38.143  32.804  33.065  1.00  0.00     0.049 A 
ATOM     48  C   UNL A   1      42.438  30.467  35.788  1.00  0.00     0.074 A 
ATOM     49  C   UNL A   1      37.402  33.744  33.761  1.00  0.00     0.029 A 
ATOM     50  N   UNL A   1      39.150  32.380  33.920  1.00  0.00    -0.354 N 
ATOM     51  N   UNL A   1      41.401  31.097  35.288  1.00  0.00    -0.248 NA
ATOM     52  C   UNL A   1      42.795  30.887  37.151  1.00  0.00     0.031 C 
ATOM     53  C   UNL A   1      37.986  33.919  35.020  1.00  0.00     0.029 A 
ATOM     54  C   UNL A   1      39.059  33.049  35.130  1.00  0.00     0.049 A 
ATOM     55  H   UNL A   1      39.829  31.701  33.699  1.00  0.00     0.167 HD
ATOM     56  C   UNL A   1      40.969  31.968  36.283  1.00  0.00     0.074 A 
ATOM     57  C   UNL A   1      41.847  31.774  37.418  1.00  0.00     0.031 C 
ATOM     58  C   UNL A   1      39.935  32.845  36.257  1.00  0.00     0.037 A 
BRANCH  45  59
ATOM     59  C   UNL A   1      36.831  32.928  30.907  1.00  0.00     0.058 A 
ATOM     60  C   UNL A   1      37.081  33.867  29.893  1.00  0.00     0.135 A 
ATOM     61  C   UNL A   1      35.499  32.534  31.117  1.00  0.00     0.135 A 
ATOM     62  F   UNL A   1      38.333  34.289  29.657  1.00  0.00    -0.206 F 
ATOM     63  C   UNL A   1      36.051  34.418  29.139  1.00  0.00     0.059 A 
ATOM     64  C   UNL A   1      34.455  33.050  30.354  1.00  0.00     0.059 A 
ATOM     65  F   UNL A   1      35.201  31.638  32.071  1.00  0.00    -0.206 F 
ATOM     66  C   UNL A   1      34.739  34.004  29.378  1.00  0.00     0.060 A 
BRANCH  66  67
ATOM     67  S   UNL A   1      33.413  34.730  28.391  1.00  0.00     0.124 S 
ATOM     68  O   UNL A   1      32.525  35.243  29.430  1.00  0.00    -0.237 OA
ATOM     69  O   UNL A   1      34.123  35.738  27.610  1.00  0.00    -0.237 OA
ATOM     70  O   UNL A   1      32.898  33.598  27.628  1.00  0.00    -0.744 OA
ENDBRANCH  66  67
ENDBRANCH  45  59
BRANCH  46  71
ATOM     71  C   UNL A   1      44.441  28.810  35.893  1.00  0.00     0.058 A 
ATOM     72  C   UNL A   1      44.273  27.721  36.761  1.00  0.00     0.135 A 
ATOM     73  C   UNL A   1      45.740  29.315  35.723  1.00  0.00     0.135 A 
ATOM     74  F   UNL A   1      43.050  27.207  36.962  1.00  0.00    -0.206 F 
ATOM     75  C   UNL A   1      45.347  27.162  37.446  1.00  0.00     0.059 A 
ATOM     76  C   UNL A   1      46.834  28.756  36.377  1.00  0.00     0.059 A 
ATOM     77  F   UNL A   1      45.958  30.346  34.892  1.00  0.00    -0.206 F 
ATOM     78  C   UNL A   1      46.625  27.685  37.244  1.00  0.00     0.060 A 
BRANCH  78  79
ATOM     79  S   UNL A   1      48.020  26.914  38.094  1.00  0.00     0.124 S 
ATOM     80  O   UNL A   1      48.441  25.913  37.120  1.00  0.00    -0.237 OA
ATOM     81  O   UNL A   1      48.926  28.043  38.282  1.00  0.00    -0.237 OA
ATOM     82  O   UNL A   1      47.420  26.392  39.318  1.00  0.00    -0.744 OA
ENDBRANCH  78  79
ENDBRANCH  46  71
BRANCH  58  83
ATOM     83  C   UNL A   1      39.671  33.645  37.504  1.00  0.00     0.058 A 
ATOM     84  C   UNL A   1      38.770  33.208  38.487  1.00  0.00     0.135 A 
ATOM     85  C   UNL A   1      40.371  34.840  37.742  1.00  0.00     0.135 A 
ATOM     86  F   UNL A   1      38.070  32.077  38.306  1.00  0.00    -0.206 F 
ATOM     87  C   UNL A   1      38.554  33.938  39.652  1.00  0.00     0.059 A 
ATOM     88  C   UNL A   1      40.193  35.571  38.912  1.00  0.00     0.059 A 
ATOM     89  F   UNL A   1      41.253  35.298  36.840  1.00  0.00    -0.206 F 
ATOM     90  C   UNL A   1      39.273  35.118  39.856  1.00  0.00     0.060 A 
BRANCH  90  91
ATOM     91  S   UNL A   1      39.010  36.036  41.389  1.00  0.00     0.124 S 
ATOM     92  O   UNL A   1      40.223  35.716  42.134  1.00  0.00    -0.237 OA
ATOM     93  O   UNL A   1      38.902  37.412  40.915  1.00  0.00    -0.237 OA
ATOM     94  O   UNL A   1      37.777  35.464  41.921  1.00  0.00    -0.744 OA
ENDBRANCH  90  91
ENDBRANCH  58  83
ENDBRANCH  32  33
ENDBRANCH  24  27
ENDBRANCH  22  23
ENDBRANCH  21  22
ENDBRANCH   1  21
TORSDOF 17
ENDMDL
MODEL 3
REMARK VINA RESULT:     -11.2      4.017      5.417
REMARK SMILES O=C(CCC(=O)Nc1cc(Cl)cc(Cl)c1)NCCCCNC(=O)c1ccc(-c2c3nc(c(-c4c(F)cc(S(=O)(=O)[O-])cc4F)c4ccc([nH]4)c(-c4c(F)cc(S(=O)(=O)[O-])cc4F)c4nc(c(-c5c(F)cc(S(=O)(=O)[O-])cc5F)c5ccc2[nH]5)C=C4)C=C3)cc1
REMARK SMILES IDX 18 1 17 2 16 3 1 4 2 5 3 7 4 8 5 9 6 10 7 11 8 13 9 14 15 15
REMARK SMILES IDX 10 16 13 17 11 18 12 19 14 20 19 21 20 22 21 23 22 24 23 26
REMARK SMILES IDX 24 27 25 28 89 29 26 30 88 31 27 32 28 33 29 34 82 35 30 36
REMARK SMILES IDX 87 37 81 38 83 39 31 40 86 41 80 42 79 43 32 45 66 46 45 47
REMARK SMILES IDX 65 48 46 49 49 50 64 51 84 52 47 53 48 54 63 56 85 57 50 58
REMARK SMILES IDX 33 59 34 60 43 61 35 62 36 63 42 64 44 65 37 66 38 67 39 68
REMARK SMILES IDX 40 69 41 70 67 71 68 72 77 73 69 74 70 75 76 76 78 77 71 78
REMARK SMILES IDX 72 79 73 80 74 81 75 82 51 83 52 84 61 85 53 86 54 87 60 88
REMARK SMILES IDX 62 89 55 90 56 91 57 92 58 93 59 94
REMARK H PARENT 16 6 7 12 21 25 83 44 49 55
REMARK Flexibility Score: inf
ROOT
ATOM      1  C   UNL A   1      32.002  28.731  25.096  1.00  0.00     0.023 C 
ENDROOT
BRANCH   1   2
ATOM      2  C   UNL A   1      31.724  27.784  23.934  1.00  0.00     0.116 C 
BRANCH   2   3
ATOM      3  N   UNL A   1      31.987  26.386  24.224  1.00  0.00    -0.356 N 
ATOM      4  O   UNL A   1      29.823  25.661  23.931  1.00  0.00    -0.275 OA
ATOM      5  C   UNL A   1      31.014  25.420  24.101  1.00  0.00     0.220 C 
ATOM      6  H   UNL A   1      32.889  26.123  24.519  1.00  0.00     0.163 HD
BRANCH   5   7
ATOM      7  C   UNL A   1      31.545  24.005  24.065  1.00  0.00     0.110 C 
BRANCH   7   8
ATOM      8  C   UNL A   1      30.913  23.140  25.155  1.00  0.00     0.110 C 
BRANCH   8   9
ATOM      9  C   UNL A   1      31.447  23.478  26.523  1.00  0.00     0.224 C 
ATOM     10  O   UNL A   1      30.805  24.256  27.239  1.00  0.00    -0.275 OA
ATOM     11  N   UNL A   1      32.620  23.020  27.034  1.00  0.00    -0.326 N 
ATOM     12  H   UNL A   1      32.689  23.189  28.001  1.00  0.00     0.169 HD
BRANCH  11  13
ATOM     13  C   UNL A   1      33.763  22.367  26.532  1.00  0.00     0.044 A 
ATOM     14  C   UNL A   1      33.813  21.076  26.010  1.00  0.00     0.046 A 
ATOM     15  C   UNL A   1      34.925  23.151  26.460  1.00  0.00     0.046 A 
ATOM     16  C   UNL A   1      34.967  20.610  25.368  1.00  0.00     0.044 A 
ATOM     17  C   UNL A   1      36.077  22.674  25.828  1.00  0.00     0.044 A 
ATOM     18  Cl  UNL A   1      34.973  19.041  24.659  1.00  0.00    -0.084 Cl
ATOM     19  C   UNL A   1      36.100  21.407  25.264  1.00  0.00     0.041 A 
ATOM     20  Cl  UNL A   1      37.466  23.681  25.709  1.00  0.00    -0.084 Cl
ENDBRANCH  11  13
ENDBRANCH   8   9
ENDBRANCH   7   8
ENDBRANCH   5   7
ENDBRANCH   2   3
ENDBRANCH   1   2
BRANCH   1  21
ATOM     21  C   UNL A   1      32.186  28.067  26.462  1.00  0.00     0.023 C 
BRANCH  21  22
ATOM     22  C   UNL A   1      33.423  28.494  27.246  1.00  0.00     0.116 C 
BRANCH  22  23
ATOM     23  N   UNL A   1      33.414  29.905  27.602  1.00  0.00    -0.352 N 
ATOM     24  C   UNL A   1      34.395  30.676  28.181  1.00  0.00     0.251 C 
ATOM     25  H   UNL A   1      32.576  30.381  27.396  1.00  0.00     0.163 HD
ATOM     26  O   UNL A   1      34.127  31.819  28.554  1.00  0.00    -0.269 OA
BRANCH  24  27
ATOM     27  C   UNL A   1      35.759  30.138  28.392  1.00  0.00     0.039 A 
ATOM     28  C   UNL A   1      36.654  30.118  27.319  1.00  0.00     0.014 A 
ATOM     29  C   UNL A   1      36.162  29.648  29.637  1.00  0.00     0.014 A 
ATOM     30  C   UNL A   1      37.974  29.697  27.517  1.00  0.00     0.010 A 
ATOM     31  C   UNL A   1      37.496  29.304  29.853  1.00  0.00     0.010 A 
ATOM     32  C   UNL A   1      38.421  29.333  28.798  1.00  0.00    -0.014 A 
BRANCH  32  33
ATOM     33  C   UNL A   1      39.851  29.008  29.058  1.00  0.00     0.031 A 
ATOM     34  C   UNL A   1      40.789  30.055  29.598  1.00  0.00     0.074 A 
ATOM     35  C   UNL A   1      40.327  27.786  28.738  1.00  0.00     0.049 A 
ATOM     36  N   UNL A   1      42.079  29.982  29.806  1.00  0.00    -0.248 NA
ATOM     37  C   UNL A   1      40.204  31.365  29.925  1.00  0.00     0.031 C 
ATOM     38  C   UNL A   1      39.537  26.696  28.160  1.00  0.00     0.029 A 
ATOM     39  N   UNL A   1      41.591  27.259  28.840  1.00  0.00    -0.354 N 
ATOM     40  C   UNL A   1      42.461  31.232  30.279  1.00  0.00     0.074 A 
ATOM     41  C   UNL A   1      41.276  32.062  30.272  1.00  0.00     0.031 C 
ATOM     42  C   UNL A   1      40.329  25.627  27.975  1.00  0.00     0.029 A 
ATOM     43  C   UNL A   1      41.690  25.966  28.381  1.00  0.00     0.049 A 
ATOM     44  H   UNL A   1      42.355  27.760  29.205  1.00  0.00     0.167 HD
ATOM     45  C   UNL A   1      43.681  31.645  30.702  1.00  0.00     0.037 A 
ATOM     46  C   UNL A   1      42.756  25.145  28.284  1.00  0.00     0.037 A 
ATOM     47  C   UNL A   1      44.856  30.811  30.722  1.00  0.00     0.049 A 
ATOM     48  C   UNL A   1      44.102  25.628  28.753  1.00  0.00     0.074 A 
ATOM     49  C   UNL A   1      46.126  31.128  31.174  1.00  0.00     0.029 A 
ATOM     50  N   UNL A   1      44.909  29.501  30.272  1.00  0.00    -0.354 N 
ATOM     51  N   UNL A   1      44.433  26.797  29.246  1.00  0.00    -0.248 NA
ATOM     52  C   UNL A   1      45.220  24.677  28.659  1.00  0.00     0.031 C 
ATOM     53  C   UNL A   1      46.956  30.023  30.957  1.00  0.00     0.029 A 
ATOM     54  C   UNL A   1      46.192  28.999  30.420  1.00  0.00     0.049 A 
ATOM     55  H   UNL A   1      44.146  28.999  29.902  1.00  0.00     0.167 HD
ATOM     56  C   UNL A   1      45.788  26.715  29.544  1.00  0.00     0.074 A 
ATOM     57  C   UNL A   1      46.213  25.377  29.189  1.00  0.00     0.031 C 
ATOM     58  C   UNL A   1      46.605  27.662  30.068  1.00  0.00     0.037 A 
BRANCH  45  59
ATOM     59  C   UNL A   1      43.805  33.064  31.190  1.00  0.00     0.058 A 
ATOM     60  C   UNL A   1      44.091  34.120  30.310  1.00  0.00     0.135 A 
ATOM     61  C   UNL A   1      43.601  33.379  32.543  1.00  0.00     0.135 A 
ATOM     62  F   UNL A   1      44.309  33.875  29.007  1.00  0.00    -0.206 F 
ATOM     63  C   UNL A   1      44.202  35.432  30.757  1.00  0.00     0.059 A 
ATOM     64  C   UNL A   1      43.678  34.690  33.008  1.00  0.00     0.059 A 
ATOM     65  F   UNL A   1      43.322  32.410  33.429  1.00  0.00    -0.206 F 
ATOM     66  C   UNL A   1      43.996  35.707  32.109  1.00  0.00     0.060 A 
BRANCH  66  67
ATOM     67  S   UNL A   1      44.145  37.416  32.673  1.00  0.00     0.124 S 
ATOM     68  O   UNL A   1      45.527  37.447  33.142  1.00  0.00    -0.237 OA
ATOM     69  O   UNL A   1      43.872  38.171  31.455  1.00  0.00    -0.237 OA
ATOM     70  O   UNL A   1      43.127  37.521  33.713  1.00  0.00    -0.744 OA
ENDBRANCH  66  67
ENDBRANCH  45  59
BRANCH  46  71
ATOM     71  C   UNL A   1      42.586  23.773  27.735  1.00  0.00     0.058 A 
ATOM     72  C   UNL A   1      42.469  22.663  28.584  1.00  0.00     0.135 A 
ATOM     73  C   UNL A   1      42.518  23.547  26.351  1.00  0.00     0.135 A 
ATOM     74  F   UNL A   1      42.536  22.827  29.914  1.00  0.00    -0.206 F 
ATOM     75  C   UNL A   1      42.304  21.375  28.083  1.00  0.00     0.059 A 
ATOM     76  C   UNL A   1      42.327  22.272  25.827  1.00  0.00     0.059 A 
ATOM     77  F   UNL A   1      42.609  24.576  25.496  1.00  0.00    -0.206 F 
ATOM     78  C   UNL A   1      42.230  21.191  26.701  1.00  0.00     0.060 A 
BRANCH  78  79
ATOM     79  S   UNL A   1      41.957  19.523  26.064  1.00  0.00     0.124 S 
ATOM     80  O   UNL A   1      42.833  19.508  24.898  1.00  0.00    -0.237 OA
ATOM     81  O   UNL A   1      42.377  18.693  27.189  1.00  0.00    -0.237 OA
ATOM     82  O   UNL A   1      40.526  19.503  25.780  1.00  0.00    -0.744 OA
ENDBRANCH  78  79
ENDBRANCH  46  71
BRANCH  58  83
ATOM     83  C   UNL A   1      48.039  27.281  30.322  1.00  0.00     0.058 A 
ATOM     84  C   UNL A   1      49.039  27.477  29.359  1.00  0.00     0.135 A 
ATOM     85  C   UNL A   1      48.423  26.763  31.570  1.00  0.00     0.135 A 
ATOM     86  F   UNL A   1      48.724  27.964  28.148  1.00  0.00    -0.206 F 
ATOM     87  C   UNL A   1      50.368  27.152  29.613  1.00  0.00     0.059 A 
ATOM     88  C   UNL A   1      49.750  26.456  31.856  1.00  0.00     0.059 A 
ATOM     89  F   UNL A   1      47.509  26.565  32.532  1.00  0.00    -0.206 F 
ATOM     90  C   UNL A   1      50.714  26.643  30.867  1.00  0.00     0.060 A 
BRANCH  90  91
ATOM     91  S   UNL A   1      52.447  26.259  31.196  1.00  0.00     0.124 S 
ATOM     92  O   UNL A   1      52.821  27.342  32.100  1.00  0.00    -0.237 OA
ATOM     93  O   UNL A   1      52.365  24.931  31.798  1.00  0.00    -0.237 OA
ATOM     94  O   UNL A   1      53.063  26.304  29.874  1.00  0.00    -0.744 OA
ENDBRANCH  90  91
ENDBRANCH  58  83
ENDBRANCH  32  33
ENDBRANCH  24  27
ENDBRANCH  22  23
ENDBRANCH  21  22
ENDBRANCH   1  21
TORSDOF 17
ENDMDL
