MODEL 1
REMARK VINA RESULT:     -13.0      0.000      0.000
REMARK SMILES CC[NH+]1CCN(c2ccc(NC(=O)C3CCCC3)c(C(=O)NCCCCNC(=O)c3ccc(-c4c5nc(c(-c6c(F)cc(S(=O)(=O)[O-])cc6F)c6ccc([nH]6)c(-c6c(F)cc(S(=O)(=O)[O-])cc6F)c6nc(c(-c7c(F)cc(S(=O)(=O)[O-])cc7F)c7ccc4[nH]7)C=C6)C=C5)cc3)c2)CC1
REMARK SMILES IDX 25 1 24 2 23 3 22 4 20 5 21 6 19 8 7 9 8 10 96 11 9 12 10 13
REMARK SMILES IDX 6 14 3 15 4 16 98 17 5 19 97 20 2 21 1 22 11 23 12 24 13 26
REMARK SMILES IDX 14 27 15 28 18 29 16 30 17 31 26 32 27 33 28 34 29 36 30 37
REMARK SMILES IDX 31 38 95 39 32 40 94 41 33 42 34 43 35 44 88 45 36 46 93 47
REMARK SMILES IDX 87 48 89 49 37 50 92 51 86 52 85 53 38 55 72 56 51 57 71 58
REMARK SMILES IDX 52 59 55 60 70 61 90 62 53 63 54 64 69 66 91 67 56 68 39 69
REMARK SMILES IDX 40 70 49 71 41 72 42 73 48 74 50 75 43 76 44 77 45 78 46 79
REMARK SMILES IDX 47 80 73 81 74 82 83 83 75 84 76 85 82 86 84 87 77 88 78 89
REMARK SMILES IDX 79 90 80 91 81 92 57 93 58 94 67 95 59 96 60 97 66 98 68 99
REMARK SMILES IDX 61 100 62 101 63 102 64 103 65 104
REMARK H PARENT 22 7 3 18 11 25 27 35 89 54 55 65
REMARK Flexibility Score: inf
ROOT
ATOM      1  C   UNL A   1      34.754  31.298  28.107  1.00  0.00     0.023 C 
ENDROOT
BRANCH   1   2
ATOM      2  C   UNL A   1      35.197  30.032  27.387  1.00  0.00     0.023 C 
BRANCH   2   3
ATOM      3  C   UNL A   1      34.112  29.160  26.770  1.00  0.00     0.116 C 
BRANCH   3   4
ATOM      4  N   UNL A   1      33.023  28.754  27.649  1.00  0.00    -0.352 N 
ATOM      5  C   UNL A   1      31.814  28.128  27.379  1.00  0.00     0.253 C 
ATOM      6  O   UNL A   1      31.070  27.872  28.327  1.00  0.00    -0.269 OA
ATOM      7  H   UNL A   1      33.171  28.960  28.601  1.00  0.00     0.163 HD
BRANCH   5   8
ATOM      8  C   UNL A   1      31.342  27.809  25.989  1.00  0.00     0.065 A 
ATOM      9  C   UNL A   1      30.413  28.716  23.930  1.00  0.00     0.038 A 
ATOM     10  C   UNL A   1      30.081  27.427  23.548  1.00  0.00     0.028 A 
ATOM     11  C   UNL A   1      31.217  28.851  25.054  1.00  0.00     0.042 A 
ATOM     12  C   UNL A   1      30.408  26.335  24.344  1.00  0.00     0.029 A 
ATOM     13  C   UNL A   1      30.938  26.496  25.625  1.00  0.00     0.054 A 
BRANCH   9  14
ATOM     14  N   UNL A   1      29.832  29.798  23.309  1.00  0.00    -0.360 N 
ATOM     15  N   UNL A   1      27.660  31.398  22.135  1.00  0.00    -0.332 N 
ATOM     16  C   UNL A   1      27.988  30.041  21.658  1.00  0.00     0.283 C 
ATOM     17  C   UNL A   1      27.955  31.435  23.592  1.00  0.00     0.283 C 
ATOM     18  H   UNL A   1      26.674  31.581  21.945  1.00  0.00     0.348 HD
ATOM     19  C   UNL A   1      29.455  29.631  21.892  1.00  0.00     0.178 C 
ATOM     20  C   UNL A   1      29.392  31.013  24.002  1.00  0.00     0.178 C 
BRANCH  15  21
ATOM     21  C   UNL A   1      28.389  32.464  21.429  1.00  0.00     0.258 C 
ATOM     22  C   UNL A   1      28.004  32.630  19.961  1.00  0.00     0.071 C 
ENDBRANCH  15  21
ENDBRANCH   9  14
BRANCH  13  23
ATOM     23  N   UNL A   1      31.075  25.415  26.540  1.00  0.00    -0.325 N 
ATOM     24  C   UNL A   1      31.766  24.225  26.543  1.00  0.00     0.227 C 
ATOM     25  H   UNL A   1      30.552  25.550  27.363  1.00  0.00     0.169 HD
ATOM     26  O   UNL A   1      31.722  23.521  27.557  1.00  0.00    -0.274 OA
BRANCH  24  27
ATOM     27  C   UNL A   1      32.559  23.764  25.333  1.00  0.00     0.079 C 
ATOM     28  C   UNL A   1      33.750  22.837  25.584  1.00  0.00     0.013 C 
ATOM     29  C   UNL A   1      31.737  22.896  24.378  1.00  0.00     0.013 C 
ATOM     30  C   UNL A   1      34.092  22.346  24.174  1.00  0.00     0.001 C 
ATOM     31  C   UNL A   1      32.772  22.358  23.399  1.00  0.00     0.001 C 
ENDBRANCH  24  27
ENDBRANCH  13  23
ENDBRANCH   5   8
ENDBRANCH   3   4
ENDBRANCH   2   3
ENDBRANCH   1   2
BRANCH   1  32
ATOM     32  C   UNL A   1      35.703  31.860  29.159  1.00  0.00     0.116 C 
BRANCH  32  33
ATOM     33  N   UNL A   1      35.607  31.219  30.462  1.00  0.00    -0.352 N 
ATOM     34  C   UNL A   1      36.558  30.529  31.186  1.00  0.00     0.251 C 
ATOM     35  H   UNL A   1      34.724  31.287  30.895  1.00  0.00     0.163 HD
ATOM     36  O   UNL A   1      36.251  30.023  32.258  1.00  0.00    -0.269 OA
BRANCH  34  37
ATOM     37  C   UNL A   1      37.929  30.360  30.650  1.00  0.00     0.039 A 
ATOM     38  C   UNL A   1      38.978  30.131  31.547  1.00  0.00     0.014 A 
ATOM     39  C   UNL A   1      38.184  30.398  29.278  1.00  0.00     0.014 A 
ATOM     40  C   UNL A   1      40.258  29.846  31.060  1.00  0.00     0.010 A 
ATOM     41  C   UNL A   1      39.437  30.027  28.794  1.00  0.00     0.010 A 
ATOM     42  C   UNL A   1      40.487  29.741  29.679  1.00  0.00    -0.014 A 
BRANCH  42  43
ATOM     43  C   UNL A   1      41.813  29.322  29.146  1.00  0.00     0.031 A 
ATOM     44  C   UNL A   1      42.933  30.321  29.021  1.00  0.00     0.074 A 
ATOM     45  C   UNL A   1      41.989  28.057  28.713  1.00  0.00     0.049 A 
ATOM     46  N   UNL A   1      44.138  30.155  28.537  1.00  0.00    -0.248 NA
ATOM     47  C   UNL A   1      42.653  31.694  29.471  1.00  0.00     0.031 C 
ATOM     48  C   UNL A   1      40.962  27.010  28.717  1.00  0.00     0.029 A 
ATOM     49  N   UNL A   1      43.090  27.435  28.178  1.00  0.00    -0.354 N 
ATOM     50  C   UNL A   1      44.752  31.400  28.611  1.00  0.00     0.074 A 
ATOM     51  C   UNL A   1      43.768  32.324  29.130  1.00  0.00     0.031 C 
ATOM     52  C   UNL A   1      41.491  25.872  28.238  1.00  0.00     0.029 A 
ATOM     53  C   UNL A   1      42.880  26.113  27.862  1.00  0.00     0.049 A 
ATOM     54  H   UNL A   1      43.948  27.893  28.034  1.00  0.00     0.167 HD
ATOM     55  C   UNL A   1      46.027  31.738  28.301  1.00  0.00     0.037 A 
ATOM     56  C   UNL A   1      43.713  25.196  27.330  1.00  0.00     0.037 A 
ATOM     57  C   UNL A   1      47.012  30.809  27.811  1.00  0.00     0.049 A 
ATOM     58  C   UNL A   1      45.132  25.589  27.017  1.00  0.00     0.074 A 
ATOM     59  C   UNL A   1      48.346  31.039  27.523  1.00  0.00     0.029 A 
ATOM     60  N   UNL A   1      46.771  29.471  27.536  1.00  0.00    -0.354 N 
ATOM     61  N   UNL A   1      45.714  26.757  27.158  1.00  0.00    -0.248 NA
ATOM     62  C   UNL A   1      46.010  24.538  26.485  1.00  0.00     0.031 C 
ATOM     63  C   UNL A   1      48.902  29.851  27.040  1.00  0.00     0.029 A 
ATOM     64  C   UNL A   1      47.928  28.865  27.071  1.00  0.00     0.049 A 
ATOM     65  H   UNL A   1      45.905  29.017  27.655  1.00  0.00     0.167 HD
ATOM     66  C   UNL A   1      47.034  26.573  26.759  1.00  0.00     0.074 A 
ATOM     67  C   UNL A   1      47.166  25.179  26.386  1.00  0.00     0.031 C 
ATOM     68  C   UNL A   1      48.045  27.476  26.708  1.00  0.00     0.037 A 
BRANCH  55  69
ATOM     69  C   UNL A   1      46.432  33.174  28.497  1.00  0.00     0.058 A 
ATOM     70  C   UNL A   1      46.951  33.631  29.721  1.00  0.00     0.135 A 
ATOM     71  C   UNL A   1      46.326  34.100  27.447  1.00  0.00     0.135 A 
ATOM     72  F   UNL A   1      47.061  32.794  30.764  1.00  0.00    -0.206 F 
ATOM     73  C   UNL A   1      47.318  34.960  29.905  1.00  0.00     0.059 A 
ATOM     74  C   UNL A   1      46.714  35.428  27.600  1.00  0.00     0.059 A 
ATOM     75  F   UNL A   1      45.837  33.718  26.256  1.00  0.00    -0.206 F 
ATOM     76  C   UNL A   1      47.194  35.852  28.839  1.00  0.00     0.060 A 
BRANCH  76  77
ATOM     77  S   UNL A   1      47.675  37.572  29.095  1.00  0.00     0.124 S 
ATOM     78  O   UNL A   1      46.992  38.233  27.988  1.00  0.00    -0.237 OA
ATOM     79  O   UNL A   1      47.144  37.851  30.425  1.00  0.00    -0.237 OA
ATOM     80  O   UNL A   1      49.132  37.536  29.000  1.00  0.00    -0.744 OA
ENDBRANCH  76  77
ENDBRANCH  55  69
BRANCH  56  81
ATOM     81  C   UNL A   1      43.239  23.805  27.097  1.00  0.00     0.058 A 
ATOM     82  C   UNL A   1      42.966  23.345  25.800  1.00  0.00     0.135 A 
ATOM     83  C   UNL A   1      43.057  22.906  28.160  1.00  0.00     0.135 A 
ATOM     84  F   UNL A   1      43.118  24.169  24.752  1.00  0.00    -0.206 F 
ATOM     85  C   UNL A   1      42.513  22.051  25.564  1.00  0.00     0.059 A 
ATOM     86  C   UNL A   1      42.630  21.600  27.948  1.00  0.00     0.059 A 
ATOM     87  F   UNL A   1      43.321  23.291  29.418  1.00  0.00    -0.206 F 
ATOM     88  C   UNL A   1      42.350  21.185  26.646  1.00  0.00     0.060 A 
BRANCH  88  89
ATOM     89  S   UNL A   1      41.808  19.491  26.325  1.00  0.00     0.124 S 
ATOM     90  O   UNL A   1      40.374  19.672  26.137  1.00  0.00    -0.237 OA
ATOM     91  O   UNL A   1      42.570  19.147  25.129  1.00  0.00    -0.237 OA
ATOM     92  O   UNL A   1      42.203  18.778  27.536  1.00  0.00    -0.744 OA
ENDBRANCH  88  89
ENDBRANCH  56  81
BRANCH  68  93
ATOM     93  C   UNL A   1      49.393  26.974  26.268  1.00  0.00     0.058 A 
ATOM     94  C   UNL A   1      50.292  26.382  27.168  1.00  0.00     0.135 A 
ATOM     95  C   UNL A   1      49.777  27.062  24.920  1.00  0.00     0.135 A 
ATOM     96  F   UNL A   1      49.975  26.278  28.469  1.00  0.00    -0.206 F 
ATOM     97  C   UNL A   1      51.540  25.928  26.754  1.00  0.00     0.059 A 
ATOM     98  C   UNL A   1      51.008  26.587  24.479  1.00  0.00     0.059 A 
ATOM     99  F   UNL A   1      48.949  27.606  24.015  1.00  0.00    -0.206 F 
ATOM    100  C   UNL A   1      51.890  26.038  25.408  1.00  0.00     0.060 A 
BRANCH 100 101
ATOM    101  S   UNL A   1      53.509  25.436  24.880  1.00  0.00     0.124 S 
ATOM    102  O   UNL A   1      54.403  26.214  25.732  1.00  0.00    -0.237 OA
ATOM    103  O   UNL A   1      53.427  24.010  25.181  1.00  0.00    -0.237 OA
ATOM    104  O   UNL A   1      53.548  25.768  23.459  1.00  0.00    -0.744 OA
ENDBRANCH 100 101
ENDBRANCH  68  93
ENDBRANCH  42  43
ENDBRANCH  34  37
ENDBRANCH  32  33
ENDBRANCH   1  32
TORSDOF 18
ENDMDL
MODEL 2
REMARK VINA RESULT:     -12.8      6.481     12.327
REMARK SMILES CC[NH+]1CCN(c2ccc(NC(=O)C3CCCC3)c(C(=O)NCCCCNC(=O)c3ccc(-c4c5nc(c(-c6c(F)cc(S(=O)(=O)[O-])cc6F)c6ccc([nH]6)c(-c6c(F)cc(S(=O)(=O)[O-])cc6F)c6nc(c(-c7c(F)cc(S(=O)(=O)[O-])cc7F)c7ccc4[nH]7)C=C6)C=C5)cc3)c2)CC1
REMARK SMILES IDX 25 1 24 2 23 3 22 4 20 5 21 6 19 8 7 9 8 10 96 11 9 12 10 13
REMARK SMILES IDX 6 14 3 15 4 16 98 17 5 19 97 20 2 21 1 22 11 23 12 24 13 26
REMARK SMILES IDX 14 27 15 28 18 29 16 30 17 31 26 32 27 33 28 34 29 36 30 37
REMARK SMILES IDX 31 38 95 39 32 40 94 41 33 42 34 43 35 44 88 45 36 46 93 47
REMARK SMILES IDX 87 48 89 49 37 50 92 51 86 52 85 53 38 55 72 56 51 57 71 58
REMARK SMILES IDX 52 59 55 60 70 61 90 62 53 63 54 64 69 66 91 67 56 68 39 69
REMARK SMILES IDX 40 70 49 71 41 72 42 73 48 74 50 75 43 76 44 77 45 78 46 79
REMARK SMILES IDX 47 80 73 81 74 82 83 83 75 84 76 85 82 86 84 87 77 88 78 89
REMARK SMILES IDX 79 90 80 91 81 92 57 93 58 94 67 95 59 96 60 97 66 98 68 99
REMARK SMILES IDX 61 100 62 101 63 102 64 103 65 104
REMARK H PARENT 22 7 3 18 11 25 27 35 89 54 55 65
REMARK Flexibility Score: inf
ROOT
ATOM      1  C   UNL A   1      39.549  22.912  26.525  1.00  0.00     0.023 C 
ENDROOT
BRANCH   1   2
ATOM      2  C   UNL A   1      38.435  23.933  26.706  1.00  0.00     0.023 C 
BRANCH   2   3
ATOM      3  C   UNL A   1      37.168  23.742  25.884  1.00  0.00     0.116 C 
BRANCH   3   4
ATOM      4  N   UNL A   1      37.346  23.487  24.461  1.00  0.00    -0.352 N 
ATOM      5  C   UNL A   1      36.476  22.973  23.508  1.00  0.00     0.253 C 
ATOM      6  O   UNL A   1      36.879  22.880  22.347  1.00  0.00    -0.269 OA
ATOM      7  H   UNL A   1      38.238  23.718  24.115  1.00  0.00     0.163 HD
BRANCH   5   8
ATOM      8  C   UNL A   1      35.100  22.467  23.834  1.00  0.00     0.065 A 
ATOM      9  C   UNL A   1      33.787  20.543  24.538  1.00  0.00     0.038 A 
ATOM     10  C   UNL A   1      32.645  21.208  24.123  1.00  0.00     0.028 A 
ATOM     11  C   UNL A   1      34.966  21.275  24.566  1.00  0.00     0.042 A 
ATOM     12  C   UNL A   1      32.712  22.499  23.610  1.00  0.00     0.029 A 
ATOM     13  C   UNL A   1      33.935  23.118  23.345  1.00  0.00     0.054 A 
BRANCH   9  14
ATOM     14  N   UNL A   1      33.761  19.184  24.753  1.00  0.00    -0.360 N 
ATOM     15  N   UNL A   1      33.117  16.369  24.190  1.00  0.00    -0.332 N 
ATOM     16  C   UNL A   1      32.077  17.408  24.307  1.00  0.00     0.283 C 
ATOM     17  C   UNL A   1      34.328  17.018  23.623  1.00  0.00     0.283 C 
ATOM     18  H   UNL A   1      32.769  15.625  23.584  1.00  0.00     0.348 HD
ATOM     19  C   UNL A   1      32.480  18.601  25.195  1.00  0.00     0.178 C 
ATOM     20  C   UNL A   1      34.846  18.268  24.387  1.00  0.00     0.178 C 
BRANCH  15  21
ATOM     21  C   UNL A   1      33.432  15.704  25.467  1.00  0.00     0.258 C 
ATOM     22  C   UNL A   1      32.276  14.912  26.070  1.00  0.00     0.071 C 
ENDBRANCH  15  21
ENDBRANCH   9  14
BRANCH  13  23
ATOM     23  N   UNL A   1      34.036  24.339  22.621  1.00  0.00    -0.325 N 
ATOM     24  C   UNL A   1      33.406  25.561  22.684  1.00  0.00     0.227 C 
ATOM     25  H   UNL A   1      34.714  24.300  21.909  1.00  0.00     0.169 HD
ATOM     26  O   UNL A   1      33.789  26.461  21.930  1.00  0.00    -0.274 OA
BRANCH  24  27
ATOM     27  C   UNL A   1      32.255  25.813  23.643  1.00  0.00     0.079 C 
ATOM     28  C   UNL A   1      32.561  26.608  24.914  1.00  0.00     0.013 C 
ATOM     29  C   UNL A   1      31.155  26.686  23.035  1.00  0.00     0.013 C 
ATOM     30  C   UNL A   1      31.162  26.928  25.451  1.00  0.00     0.001 C 
ATOM     31  C   UNL A   1      30.254  27.006  24.220  1.00  0.00     0.001 C 
ENDBRANCH  24  27
ENDBRANCH  13  23
ENDBRANCH   5   8
ENDBRANCH   3   4
ENDBRANCH   2   3
ENDBRANCH   1   2
BRANCH   1  32
ATOM     32  C   UNL A   1      40.968  23.378  26.828  1.00  0.00     0.116 C 
BRANCH  32  33
ATOM     33  N   UNL A   1      41.553  24.237  25.809  1.00  0.00    -0.352 N 
ATOM     34  C   UNL A   1      41.979  25.546  25.886  1.00  0.00     0.251 C 
ATOM     35  H   UNL A   1      41.661  23.816  24.924  1.00  0.00     0.163 HD
ATOM     36  O   UNL A   1      42.404  26.104  24.884  1.00  0.00    -0.269 OA
BRANCH  34  37
ATOM     37  C   UNL A   1      41.877  26.292  27.164  1.00  0.00     0.039 A 
ATOM     38  C   UNL A   1      42.683  27.420  27.350  1.00  0.00     0.014 A 
ATOM     39  C   UNL A   1      40.980  25.906  28.162  1.00  0.00     0.014 A 
ATOM     40  C   UNL A   1      42.519  28.210  28.492  1.00  0.00     0.010 A 
ATOM     41  C   UNL A   1      40.756  26.742  29.254  1.00  0.00     0.010 A 
ATOM     42  C   UNL A   1      41.519  27.907  29.430  1.00  0.00    -0.014 A 
BRANCH  42  43
ATOM     43  C   UNL A   1      41.250  28.802  30.588  1.00  0.00     0.031 A 
ATOM     44  C   UNL A   1      42.075  28.690  31.843  1.00  0.00     0.074 A 
ATOM     45  C   UNL A   1      40.221  29.672  30.535  1.00  0.00     0.049 A 
ATOM     46  N   UNL A   1      41.959  29.347  32.970  1.00  0.00    -0.248 NA
ATOM     47  C   UNL A   1      43.151  27.687  31.845  1.00  0.00     0.031 C 
ATOM     48  C   UNL A   1      39.304  29.831  29.403  1.00  0.00     0.029 A 
ATOM     49  N   UNL A   1      39.764  30.582  31.457  1.00  0.00    -0.354 N 
ATOM     50  C   UNL A   1      42.934  28.829  33.814  1.00  0.00     0.074 A 
ATOM     51  C   UNL A   1      43.592  27.763  33.093  1.00  0.00     0.031 C 
ATOM     52  C   UNL A   1      38.417  30.799  29.686  1.00  0.00     0.029 A 
ATOM     53  C   UNL A   1      38.678  31.308  31.028  1.00  0.00     0.049 A 
ATOM     54  H   UNL A   1      40.177  30.703  32.342  1.00  0.00     0.167 HD
ATOM     55  C   UNL A   1      43.270  29.224  35.066  1.00  0.00     0.037 A 
ATOM     56  C   UNL A   1      37.972  32.276  31.645  1.00  0.00     0.037 A 
ATOM     57  C   UNL A   1      42.630  30.304  35.771  1.00  0.00     0.049 A 
ATOM     58  C   UNL A   1      38.379  32.713  33.027  1.00  0.00     0.074 A 
ATOM     59  C   UNL A   1      42.936  30.819  37.019  1.00  0.00     0.029 A 
ATOM     60  N   UNL A   1      41.557  31.038  35.290  1.00  0.00    -0.354 N 
ATOM     61  N   UNL A   1      39.350  32.257  33.783  1.00  0.00    -0.248 NA
ATOM     62  C   UNL A   1      37.605  33.805  33.633  1.00  0.00     0.031 C 
ATOM     63  C   UNL A   1      42.024  31.839  37.308  1.00  0.00     0.029 A 
ATOM     64  C   UNL A   1      41.179  31.994  36.220  1.00  0.00     0.049 A 
ATOM     65  H   UNL A   1      41.126  30.901  34.414  1.00  0.00     0.167 HD
ATOM     66  C   UNL A   1      39.320  33.025  34.942  1.00  0.00     0.074 A 
ATOM     67  C   UNL A   1      38.246  33.984  34.780  1.00  0.00     0.031 C 
ATOM     68  C   UNL A   1      40.111  32.944  36.042  1.00  0.00     0.037 A 
BRANCH  55  69
ATOM     69  C   UNL A   1      44.390  28.487  35.749  1.00  0.00     0.058 A 
ATOM     70  C   UNL A   1      45.732  28.871  35.583  1.00  0.00     0.135 A 
ATOM     71  C   UNL A   1      44.123  27.402  36.599  1.00  0.00     0.135 A 
ATOM     72  F   UNL A   1      46.047  29.892  34.769  1.00  0.00    -0.206 F 
ATOM     73  C   UNL A   1      46.769  28.185  36.207  1.00  0.00     0.059 A 
ATOM     74  C   UNL A   1      45.143  26.719  37.257  1.00  0.00     0.059 A 
ATOM     75  F   UNL A   1      42.860  26.991  36.795  1.00  0.00    -0.206 F 
ATOM     76  C   UNL A   1      46.465  27.109  37.042  1.00  0.00     0.060 A 
BRANCH  76  77
ATOM     77  S   UNL A   1      47.822  26.231  37.844  1.00  0.00     0.124 S 
ATOM     78  O   UNL A   1      47.723  24.913  37.224  1.00  0.00    -0.237 OA
ATOM     79  O   UNL A   1      48.982  27.028  37.457  1.00  0.00    -0.237 OA
ATOM     80  O   UNL A   1      47.472  26.285  39.260  1.00  0.00    -0.744 OA
ENDBRANCH  76  77
ENDBRANCH  55  69
BRANCH  56  81
ATOM     81  C   UNL A   1      36.831  32.926  30.946  1.00  0.00     0.058 A 
ATOM     82  C   UNL A   1      35.506  32.584  31.258  1.00  0.00     0.135 A 
ATOM     83  C   UNL A   1      37.038  33.905  29.962  1.00  0.00     0.135 A 
ATOM     84  F   UNL A   1      35.257  31.649  32.187  1.00  0.00    -0.206 F 
ATOM     85  C   UNL A   1      34.427  33.174  30.608  1.00  0.00     0.059 A 
ATOM     86  C   UNL A   1      35.975  34.528  29.316  1.00  0.00     0.059 A 
ATOM     87  F   UNL A   1      38.285  34.281  29.640  1.00  0.00    -0.206 F 
ATOM     88  C   UNL A   1      34.673  34.148  29.639  1.00  0.00     0.060 A 
BRANCH  88  89
ATOM     89  S   UNL A   1      33.263  34.944  28.835  1.00  0.00     0.124 S 
ATOM     90  O   UNL A   1      32.406  35.246  29.976  1.00  0.00    -0.237 OA
ATOM     91  O   UNL A   1      33.889  36.092  28.186  1.00  0.00    -0.237 OA
ATOM     92  O   UNL A   1      32.770  33.914  27.927  1.00  0.00    -0.744 OA
ENDBRANCH  88  89
ENDBRANCH  56  81
BRANCH  68  93
ATOM     93  C   UNL A   1      39.869  33.946  37.137  1.00  0.00     0.058 A 
ATOM     94  C   UNL A   1      39.041  33.658  38.233  1.00  0.00     0.135 A 
ATOM     95  C   UNL A   1      40.498  35.201  37.102  1.00  0.00     0.135 A 
ATOM     96  F   UNL A   1      38.413  32.474  38.313  1.00  0.00    -0.206 F 
ATOM     97  C   UNL A   1      38.816  34.593  39.239  1.00  0.00     0.059 A 
ATOM     98  C   UNL A   1      40.311  36.140  38.112  1.00  0.00     0.059 A 
ATOM     99  F   UNL A   1      41.311  35.522  36.084  1.00  0.00    -0.206 F 
ATOM    100  C   UNL A   1      39.452  35.833  39.167  1.00  0.00     0.060 A 
BRANCH 100 101
ATOM    101  S   UNL A   1      39.161  37.036  40.482  1.00  0.00     0.124 S 
ATOM    102  O   UNL A   1      38.505  36.211  41.492  1.00  0.00    -0.237 OA
ATOM    103  O   UNL A   1      40.513  37.480  40.806  1.00  0.00    -0.237 OA
ATOM    104  O   UNL A   1      38.314  38.039  39.843  1.00  0.00    -0.744 OA
ENDBRANCH 100 101
ENDBRANCH  68  93
ENDBRANCH  42  43
ENDBRANCH  34  37
ENDBRANCH  32  33
ENDBRANCH   1  32
TORSDOF 18
ENDMDL
MODEL 3
REMARK VINA RESULT:     -12.7      0.602      7.992
REMARK SMILES CC[NH+]1CCN(c2ccc(NC(=O)C3CCCC3)c(C(=O)NCCCCNC(=O)c3ccc(-c4c5nc(c(-c6c(F)cc(S(=O)(=O)[O-])cc6F)c6ccc([nH]6)c(-c6c(F)cc(S(=O)(=O)[O-])cc6F)c6nc(c(-c7c(F)cc(S(=O)(=O)[O-])cc7F)c7ccc4[nH]7)C=C6)C=C5)cc3)c2)CC1
REMARK SMILES IDX 25 1 24 2 23 3 22 4 20 5 21 6 19 8 7 9 8 10 96 11 9 12 10 13
REMARK SMILES IDX 6 14 3 15 4 16 98 17 5 19 97 20 2 21 1 22 11 23 12 24 13 26
REMARK SMILES IDX 14 27 15 28 18 29 16 30 17 31 26 32 27 33 28 34 29 36 30 37
REMARK SMILES IDX 31 38 95 39 32 40 94 41 33 42 34 43 35 44 88 45 36 46 93 47
REMARK SMILES IDX 87 48 89 49 37 50 92 51 86 52 85 53 38 55 72 56 51 57 71 58
REMARK SMILES IDX 52 59 55 60 70 61 90 62 53 63 54 64 69 66 91 67 56 68 39 69
REMARK SMILES IDX 40 70 49 71 41 72 42 73 48 74 50 75 43 76 44 77 45 78 46 79
REMARK SMILES IDX 47 80 73 81 74 82 83 83 75 84 76 85 82 86 84 87 77 88 78 89
REMARK SMILES IDX 79 90 80 91 81 92 57 93 58 94 67 95 59 96 60 97 66 98 68 99
REMARK SMILES IDX 61 100 62 101 63 102 64 103 65 104
REMARK H PARENT 22 7 3 18 11 25 27 35 89 54 55 65
REMARK Flexibility Score: inf
ROOT
ATOM      1  C   UNL A   1      34.462  31.035  27.683  1.00  0.00     0.023 C 
ENDROOT
BRANCH   1   2
ATOM      2  C   UNL A   1      34.777  29.989  26.623  1.00  0.00     0.023 C 
BRANCH   2   3
ATOM      3  C   UNL A   1      34.269  28.574  26.862  1.00  0.00     0.116 C 
BRANCH   3   4
ATOM      4  N   UNL A   1      33.086  28.438  27.701  1.00  0.00    -0.352 N 
ATOM      5  C   UNL A   1      31.791  28.037  27.399  1.00  0.00     0.253 C 
ATOM      6  O   UNL A   1      30.972  27.988  28.317  1.00  0.00    -0.269 OA
ATOM      7  H   UNL A   1      33.229  28.673  28.647  1.00  0.00     0.163 HD
BRANCH   5   8
ATOM      8  C   UNL A   1      31.328  27.725  26.005  1.00  0.00     0.065 A 
ATOM      9  C   UNL A   1      30.419  28.642  23.942  1.00  0.00     0.038 A 
ATOM     10  C   UNL A   1      30.084  27.356  23.553  1.00  0.00     0.028 A 
ATOM     11  C   UNL A   1      31.216  28.769  25.072  1.00  0.00     0.042 A 
ATOM     12  C   UNL A   1      30.398  26.260  24.349  1.00  0.00     0.029 A 
ATOM     13  C   UNL A   1      30.921  26.415  25.634  1.00  0.00     0.054 A 
BRANCH   9  14
ATOM     14  N   UNL A   1      29.848  29.729  23.320  1.00  0.00    -0.360 N 
ATOM     15  N   UNL A   1      27.686  31.361  22.172  1.00  0.00    -0.332 N 
ATOM     16  C   UNL A   1      27.975  29.992  21.704  1.00  0.00     0.283 C 
ATOM     17  C   UNL A   1      28.012  31.409  23.621  1.00  0.00     0.283 C 
ATOM     18  H   UNL A   1      26.701  31.563  22.000  1.00  0.00     0.348 HD
ATOM     19  C   UNL A   1      29.438  29.553  21.913  1.00  0.00     0.178 C 
ATOM     20  C   UNL A   1      29.449  30.961  24.007  1.00  0.00     0.178 C 
BRANCH  15  21
ATOM     21  C   UNL A   1      28.423  32.403  21.437  1.00  0.00     0.258 C 
ATOM     22  C   UNL A   1      27.696  32.947  20.210  1.00  0.00     0.071 C 
ENDBRANCH  15  21
ENDBRANCH   9  14
BRANCH  13  23
ATOM     23  N   UNL A   1      31.045  25.330  26.547  1.00  0.00    -0.325 N 
ATOM     24  C   UNL A   1      31.879  24.241  26.655  1.00  0.00     0.227 C 
ATOM     25  H   UNL A   1      30.378  25.368  27.269  1.00  0.00     0.169 HD
ATOM     26  O   UNL A   1      31.760  23.503  27.638  1.00  0.00    -0.274 OA
BRANCH  24  27
ATOM     27  C   UNL A   1      32.919  23.929  25.593  1.00  0.00     0.079 C 
ATOM     28  C   UNL A   1      34.131  24.858  25.503  1.00  0.00     0.013 C 
ATOM     29  C   UNL A   1      33.621  22.590  25.824  1.00  0.00     0.013 C 
ATOM     30  C   UNL A   1      35.078  24.082  24.581  1.00  0.00     0.001 C 
ATOM     31  C   UNL A   1      34.762  22.602  24.815  1.00  0.00     0.001 C 
ENDBRANCH  24  27
ENDBRANCH  13  23
ENDBRANCH   5   8
ENDBRANCH   3   4
ENDBRANCH   2   3
ENDBRANCH   1   2
BRANCH   1  32
ATOM     32  C   UNL A   1      35.602  31.443  28.609  1.00  0.00     0.116 C 
BRANCH  32  33
ATOM     33  N   UNL A   1      35.535  30.863  29.942  1.00  0.00    -0.352 N 
ATOM     34  C   UNL A   1      36.517  30.261  30.701  1.00  0.00     0.251 C 
ATOM     35  H   UNL A   1      34.649  30.908  30.369  1.00  0.00     0.163 HD
ATOM     36  O   UNL A   1      36.234  29.793  31.795  1.00  0.00    -0.269 OA
BRANCH  34  37
ATOM     37  C   UNL A   1      37.898  30.136  30.175  1.00  0.00     0.039 A 
ATOM     38  C   UNL A   1      38.963  30.119  31.081  1.00  0.00     0.014 A 
ATOM     39  C   UNL A   1      38.147  30.010  28.807  1.00  0.00     0.014 A 
ATOM     40  C   UNL A   1      40.262  29.879  30.622  1.00  0.00     0.010 A 
ATOM     41  C   UNL A   1      39.426  29.684  28.362  1.00  0.00     0.010 A 
ATOM     42  C   UNL A   1      40.498  29.609  29.264  1.00  0.00    -0.014 A 
BRANCH  42  43
ATOM     43  C   UNL A   1      41.854  29.234  28.776  1.00  0.00     0.031 A 
ATOM     44  C   UNL A   1      42.140  27.822  28.336  1.00  0.00     0.074 A 
ATOM     45  C   UNL A   1      42.846  30.147  28.791  1.00  0.00     0.049 A 
ATOM     46  N   UNL A   1      43.267  27.295  27.928  1.00  0.00    -0.248 NA
ATOM     47  C   UNL A   1      41.020  26.868  28.391  1.00  0.00     0.031 C 
ATOM     48  C   UNL A   1      42.716  31.531  29.257  1.00  0.00     0.029 A 
ATOM     49  N   UNL A   1      44.162  30.051  28.412  1.00  0.00    -0.354 N 
ATOM     50  C   UNL A   1      42.996  25.953  27.692  1.00  0.00     0.074 A 
ATOM     51  C   UNL A   1      41.615  25.731  28.060  1.00  0.00     0.031 C 
ATOM     52  C   UNL A   1      43.893  32.159  29.108  1.00  0.00     0.029 A 
ATOM     53  C   UNL A   1      44.871  31.219  28.568  1.00  0.00     0.049 A 
ATOM     54  H   UNL A   1      44.561  29.223  28.061  1.00  0.00     0.167 HD
ATOM     55  C   UNL A   1      43.814  24.997  27.189  1.00  0.00     0.037 A 
ATOM     56  C   UNL A   1      46.161  31.503  28.305  1.00  0.00     0.037 A 
ATOM     57  C   UNL A   1      45.181  25.228  26.798  1.00  0.00     0.049 A 
ATOM     58  C   UNL A   1      47.044  30.431  27.725  1.00  0.00     0.074 A 
ATOM     59  C   UNL A   1      46.074  24.341  26.224  1.00  0.00     0.029 A 
ATOM     60  N   UNL A   1      45.852  26.433  26.940  1.00  0.00    -0.354 N 
ATOM     61  N   UNL A   1      46.751  29.184  27.444  1.00  0.00    -0.248 NA
ATOM     62  C   UNL A   1      48.429  30.809  27.412  1.00  0.00     0.031 C 
ATOM     63  C   UNL A   1      47.296  24.999  26.052  1.00  0.00     0.029 A 
ATOM     64  C   UNL A   1      47.152  26.311  26.475  1.00  0.00     0.049 A 
ATOM     65  H   UNL A   1      45.462  27.256  27.315  1.00  0.00     0.167 HD
ATOM     66  C   UNL A   1      47.905  28.636  26.896  1.00  0.00     0.074 A 
ATOM     67  C   UNL A   1      48.897  29.693  26.872  1.00  0.00     0.031 C 
ATOM     68  C   UNL A   1      48.125  27.373  26.453  1.00  0.00     0.037 A 
BRANCH  55  69
ATOM     69  C   UNL A   1      43.245  23.614  27.022  1.00  0.00     0.058 A 
ATOM     70  C   UNL A   1      43.118  22.734  28.110  1.00  0.00     0.135 A 
ATOM     71  C   UNL A   1      42.797  23.169  25.768  1.00  0.00     0.135 A 
ATOM     72  F   UNL A   1      43.544  23.101  29.330  1.00  0.00    -0.206 F 
ATOM     73  C   UNL A   1      42.599  21.453  27.955  1.00  0.00     0.059 A 
ATOM     74  C   UNL A   1      42.248  21.901  25.594  1.00  0.00     0.059 A 
ATOM     75  F   UNL A   1      42.894  23.967  24.693  1.00  0.00    -0.206 F 
ATOM     76  C   UNL A   1      42.168  21.044  26.692  1.00  0.00     0.060 A 
BRANCH  76  77
ATOM     77  S   UNL A   1      41.498  19.379  26.508  1.00  0.00     0.124 S 
ATOM     78  O   UNL A   1      40.195  19.655  25.911  1.00  0.00    -0.237 OA
ATOM     79  O   UNL A   1      42.475  18.743  25.631  1.00  0.00    -0.237 OA
ATOM     80  O   UNL A   1      41.465  18.873  27.877  1.00  0.00    -0.744 OA
ENDBRANCH  76  77
ENDBRANCH  55  69
BRANCH  56  81
ATOM     81  C   UNL A   1      46.688  32.873  28.552  1.00  0.00     0.058 A 
ATOM     82  C   UNL A   1      47.263  33.212  29.786  1.00  0.00     0.135 A 
ATOM     83  C   UNL A   1      46.637  33.866  27.561  1.00  0.00     0.135 A 
ATOM     84  F   UNL A   1      47.328  32.300  30.768  1.00  0.00    -0.206 F 
ATOM     85  C   UNL A   1      47.751  34.490  30.038  1.00  0.00     0.059 A 
ATOM     86  C   UNL A   1      47.142  35.143  27.779  1.00  0.00     0.059 A 
ATOM     87  F   UNL A   1      46.114  33.587  26.357  1.00  0.00    -0.206 F 
ATOM     88  C   UNL A   1      47.688  35.449  29.026  1.00  0.00     0.060 A 
BRANCH  88  89
ATOM     89  S   UNL A   1      48.370  37.092  29.345  1.00  0.00     0.124 S 
ATOM     90  O   UNL A   1      49.792  36.871  29.109  1.00  0.00    -0.237 OA
ATOM     91  O   UNL A   1      47.677  37.909  28.355  1.00  0.00    -0.237 OA
ATOM     92  O   UNL A   1      47.991  37.347  30.731  1.00  0.00    -0.744 OA
ENDBRANCH  88  89
ENDBRANCH  56  81
BRANCH  68  93
ATOM     93  C   UNL A   1      49.478  27.076  25.867  1.00  0.00     0.058 A 
ATOM     94  C   UNL A   1      50.547  26.633  26.660  1.00  0.00     0.135 A 
ATOM     95  C   UNL A   1      49.698  27.211  24.486  1.00  0.00     0.135 A 
ATOM     96  F   UNL A   1      50.391  26.490  27.986  1.00  0.00    -0.206 F 
ATOM     97  C   UNL A   1      51.798  26.368  26.111  1.00  0.00     0.059 A 
ATOM     98  C   UNL A   1      50.932  26.924  23.911  1.00  0.00     0.059 A 
ATOM     99  F   UNL A   1      48.706  27.619  23.680  1.00  0.00    -0.206 F 
ATOM    100  C   UNL A   1      51.982  26.520  24.736  1.00  0.00     0.060 A 
BRANCH 100 101
ATOM    101  S   UNL A   1      53.606  26.165  24.032  1.00  0.00     0.124 S 
ATOM    102  O   UNL A   1      53.308  26.146  22.603  1.00  0.00    -0.237 OA
ATOM    103  O   UNL A   1      54.404  27.294  24.499  1.00  0.00    -0.237 OA
ATOM    104  O   UNL A   1      53.955  24.874  24.619  1.00  0.00    -0.744 OA
ENDBRANCH 100 101
ENDBRANCH  68  93
ENDBRANCH  42  43
ENDBRANCH  34  37
ENDBRANCH  32  33
ENDBRANCH   1  32
TORSDOF 18
ENDMDL
