MODEL 1
REMARK VINA RESULT:     -11.0      0.000      0.000
REMARK SMILES CC(C)CN(C)S(=O)(=O)c1ccc(C(=O)NCCCCNC(=O)c2ccc(-c3c4nc(c(-c5c(F)cc(S(=O)(=O)[O-])cc5F)c5ccc([nH]5)c(-c5c(F)cc(S(=O)(=O)[O-])cc5F)c5nc(c(-c6c(F)cc(S(=O)(=O)[O-])cc6F)c6ccc3[nH]6)C=C5)C=C4)cc2)cc1
REMARK SMILES IDX 18 1 17 2 16 3 14 4 15 5 13 7 10 8 11 9 91 10 12 11 90 12
REMARK SMILES IDX 7 13 8 14 9 15 5 16 6 17 4 18 2 19 1 20 3 21 19 22 20 23
REMARK SMILES IDX 21 24 22 25 23 27 24 28 25 29 89 30 26 31 88 32 27 33 28 34
REMARK SMILES IDX 29 35 82 36 30 37 87 38 81 39 83 40 31 41 86 42 80 43 79 44
REMARK SMILES IDX 32 46 66 47 45 48 65 49 46 50 49 51 64 52 84 53 47 54 48 55
REMARK SMILES IDX 63 57 85 58 50 59 33 60 34 61 43 62 35 63 36 64 42 65 44 66
REMARK SMILES IDX 37 67 38 68 39 69 40 70 41 71 67 72 68 73 77 74 69 75 70 76
REMARK SMILES IDX 76 77 78 78 71 79 72 80 73 81 74 82 75 83 51 84 52 85 61 86
REMARK SMILES IDX 53 87 54 88 60 89 62 90 55 91 56 92 57 93 58 94 59 95
REMARK H PARENT 16 6 21 26 83 45 49 56
REMARK Flexibility Score: inf
ROOT
ATOM      1  C   UNL A   1      33.579  28.643  23.864  1.00  0.00     0.023 C 
ENDROOT
BRANCH   1   2
ATOM      2  C   UNL A   1      33.215  28.131  22.465  1.00  0.00     0.116 C 
BRANCH   2   3
ATOM      3  N   UNL A   1      31.812  28.353  22.169  1.00  0.00    -0.352 N 
ATOM      4  C   UNL A   1      30.668  27.731  22.608  1.00  0.00     0.251 C 
ATOM      5  O   UNL A   1      29.588  28.203  22.251  1.00  0.00    -0.269 OA
ATOM      6  H   UNL A   1      31.648  29.089  21.535  1.00  0.00     0.163 HD
BRANCH   4   7
ATOM      7  C   UNL A   1      30.665  26.541  23.515  1.00  0.00     0.039 A 
ATOM      8  C   UNL A   1      30.679  24.418  25.375  1.00  0.00     0.082 A 
ATOM      9  C   UNL A   1      30.257  25.683  25.776  1.00  0.00     0.022 A 
ATOM     10  C   UNL A   1      31.000  24.193  24.035  1.00  0.00     0.022 A 
ATOM     11  C   UNL A   1      30.278  26.742  24.853  1.00  0.00     0.015 A 
ATOM     12  C   UNL A   1      30.965  25.240  23.114  1.00  0.00     0.015 A 
BRANCH   8  13
ATOM     13  S   UNL A   1      30.844  23.008  26.444  1.00  0.00     0.242 S 
ATOM     14  O   UNL A   1      30.520  21.839  25.652  1.00  0.00    -0.207 OA
ATOM     15  O   UNL A   1      30.075  23.328  27.626  1.00  0.00    -0.207 OA
BRANCH  13  16
ATOM     16  N   UNL A   1      32.500  22.861  26.904  1.00  0.00    -0.201 NA
ATOM     17  C   UNL A   1      33.315  24.052  26.501  1.00  0.00     0.124 C 
BRANCH  16  18
ATOM     18  C   UNL A   1      33.146  21.615  26.341  1.00  0.00     0.105 C 
BRANCH  18  19
ATOM     19  C   UNL A   1      34.056  21.893  25.128  1.00  0.00    -0.002 C 
ATOM     20  C   UNL A   1      35.438  21.248  25.249  1.00  0.00     0.009 C 
ATOM     21  C   UNL A   1      33.378  21.349  23.863  1.00  0.00     0.009 C 
ENDBRANCH  18  19
ENDBRANCH  16  18
ENDBRANCH  13  16
ENDBRANCH   8  13
ENDBRANCH   4   7
ENDBRANCH   2   3
ENDBRANCH   1   2
BRANCH   1  22
ATOM     22  C   UNL A   1      33.789  27.556  24.918  1.00  0.00     0.023 C 
BRANCH  22  23
ATOM     23  C   UNL A   1      34.062  28.076  26.325  1.00  0.00     0.116 C 
BRANCH  23  24
ATOM     24  N   UNL A   1      33.672  29.463  26.512  1.00  0.00    -0.352 N 
ATOM     25  C   UNL A   1      34.301  30.435  27.251  1.00  0.00     0.251 C 
ATOM     26  H   UNL A   1      32.851  29.742  26.047  1.00  0.00     0.163 HD
ATOM     27  O   UNL A   1      33.773  31.535  27.382  1.00  0.00    -0.269 OA
BRANCH  25  28
ATOM     28  C   UNL A   1      35.582  30.136  27.925  1.00  0.00     0.039 A 
ATOM     29  C   UNL A   1      35.547  29.659  29.239  1.00  0.00     0.014 A 
ATOM     30  C   UNL A   1      36.807  30.322  27.280  1.00  0.00     0.014 A 
ATOM     31  C   UNL A   1      36.738  29.328  29.887  1.00  0.00     0.010 A 
ATOM     32  C   UNL A   1      37.989  29.931  27.903  1.00  0.00     0.010 A 
ATOM     33  C   UNL A   1      37.965  29.442  29.216  1.00  0.00    -0.014 A 
BRANCH  33  34
ATOM     34  C   UNL A   1      39.235  29.088  29.895  1.00  0.00     0.031 A 
ATOM     35  C   UNL A   1      39.646  29.815  31.145  1.00  0.00     0.074 A 
ATOM     36  C   UNL A   1      40.032  28.143  29.363  1.00  0.00     0.049 A 
ATOM     37  N   UNL A   1      40.718  29.655  31.878  1.00  0.00    -0.248 NA
ATOM     38  C   UNL A   1      38.748  30.880  31.620  1.00  0.00     0.031 C 
ATOM     39  C   UNL A   1      39.771  27.417  28.117  1.00  0.00     0.029 A 
ATOM     40  N   UNL A   1      41.226  27.631  29.802  1.00  0.00    -0.354 N 
ATOM     41  C   UNL A   1      40.633  30.607  32.887  1.00  0.00     0.074 A 
ATOM     42  C   UNL A   1      39.428  31.372  32.645  1.00  0.00     0.031 C 
ATOM     43  C   UNL A   1      40.762  26.535  27.907  1.00  0.00     0.029 A 
ATOM     44  C   UNL A   1      41.731  26.641  28.994  1.00  0.00     0.049 A 
ATOM     45  H   UNL A   1      41.677  27.943  30.619  1.00  0.00     0.167 HD
ATOM     46  C   UNL A   1      41.468  30.811  33.933  1.00  0.00     0.037 A 
ATOM     47  C   UNL A   1      42.843  25.893  29.127  1.00  0.00     0.037 A 
ATOM     48  C   UNL A   1      42.644  30.023  34.190  1.00  0.00     0.049 A 
ATOM     49  C   UNL A   1      43.711  26.081  30.339  1.00  0.00     0.074 A 
ATOM     50  C   UNL A   1      43.536  30.119  35.243  1.00  0.00     0.029 A 
ATOM     51  N   UNL A   1      43.084  28.981  33.387  1.00  0.00    -0.354 N 
ATOM     52  N   UNL A   1      43.587  26.951  31.315  1.00  0.00    -0.248 NA
ATOM     53  C   UNL A   1      44.856  25.174  30.483  1.00  0.00     0.031 C 
ATOM     54  C   UNL A   1      44.523  29.140  35.071  1.00  0.00     0.029 A 
ATOM     55  C   UNL A   1      44.230  28.420  33.924  1.00  0.00     0.049 A 
ATOM     56  H   UNL A   1      42.646  28.685  32.556  1.00  0.00     0.167 HD
ATOM     57  C   UNL A   1      44.621  26.676  32.201  1.00  0.00     0.074 A 
ATOM     58  C   UNL A   1      45.355  25.554  31.650  1.00  0.00     0.031 C 
ATOM     59  C   UNL A   1      44.936  27.295  33.367  1.00  0.00     0.037 A 
BRANCH  46  60
ATOM     60  C   UNL A   1      41.122  31.924  34.880  1.00  0.00     0.058 A 
ATOM     61  C   UNL A   1      40.255  31.718  35.966  1.00  0.00     0.135 A 
ATOM     62  C   UNL A   1      41.655  33.209  34.703  1.00  0.00     0.135 A 
ATOM     63  F   UNL A   1      39.702  30.511  36.169  1.00  0.00    -0.206 F 
ATOM     64  C   UNL A   1      39.902  32.755  36.822  1.00  0.00     0.059 A 
ATOM     65  C   UNL A   1      41.334  34.257  35.561  1.00  0.00     0.059 A 
ATOM     66  F   UNL A   1      42.486  33.461  33.679  1.00  0.00    -0.206 F 
ATOM     67  C   UNL A   1      40.441  34.024  36.607  1.00  0.00     0.060 A 
BRANCH  67  68
ATOM     68  S   UNL A   1      39.963  35.369  37.712  1.00  0.00     0.124 S 
ATOM     69  O   UNL A   1      41.176  35.534  38.508  1.00  0.00    -0.237 OA
ATOM     70  O   UNL A   1      39.665  36.453  36.782  1.00  0.00    -0.237 OA
ATOM     71  O   UNL A   1      38.812  34.827  38.426  1.00  0.00    -0.744 OA
ENDBRANCH  67  68
ENDBRANCH  46  60
BRANCH  47  72
ATOM     72  C   UNL A   1      43.158  24.852  28.118  1.00  0.00     0.058 A 
ATOM     73  C   UNL A   1      43.886  25.170  26.962  1.00  0.00     0.135 A 
ATOM     74  C   UNL A   1      42.756  23.519  28.294  1.00  0.00     0.135 A 
ATOM     75  F   UNL A   1      44.290  26.432  26.751  1.00  0.00    -0.206 F 
ATOM     76  C   UNL A   1      44.191  24.209  26.004  1.00  0.00     0.059 A 
ATOM     77  C   UNL A   1      43.065  22.536  27.360  1.00  0.00     0.059 A 
ATOM     78  F   UNL A   1      42.074  23.163  29.393  1.00  0.00    -0.206 F 
ATOM     79  C   UNL A   1      43.775  22.893  26.213  1.00  0.00     0.060 A 
BRANCH  79  80
ATOM     80  S   UNL A   1      44.219  21.637  24.992  1.00  0.00     0.124 S 
ATOM     81  O   UNL A   1      45.579  21.303  25.395  1.00  0.00    -0.237 OA
ATOM     82  O   UNL A   1      43.212  20.607  25.226  1.00  0.00    -0.237 OA
ATOM     83  O   UNL A   1      44.091  22.349  23.724  1.00  0.00    -0.744 OA
ENDBRANCH  79  80
ENDBRANCH  47  72
BRANCH  59  84
ATOM     84  C   UNL A   1      46.097  26.742  34.137  1.00  0.00     0.058 A 
ATOM     85  C   UNL A   1      45.929  25.734  35.100  1.00  0.00     0.135 A 
ATOM     86  C   UNL A   1      47.396  27.214  33.896  1.00  0.00     0.135 A 
ATOM     87  F   UNL A   1      44.704  25.255  35.367  1.00  0.00    -0.206 F 
ATOM     88  C   UNL A   1      47.008  25.236  35.822  1.00  0.00     0.059 A 
ATOM     89  C   UNL A   1      48.492  26.716  34.593  1.00  0.00     0.059 A 
ATOM     90  F   UNL A   1      47.609  28.170  32.978  1.00  0.00    -0.206 F 
ATOM     91  C   UNL A   1      48.285  25.739  35.567  1.00  0.00     0.060 A 
BRANCH  91  92
ATOM     92  S   UNL A   1      49.683  25.086  36.502  1.00  0.00     0.124 S 
ATOM     93  O   UNL A   1      50.773  25.241  35.545  1.00  0.00    -0.237 OA
ATOM     94  O   UNL A   1      49.731  25.969  37.664  1.00  0.00    -0.237 OA
ATOM     95  O   UNL A   1      49.283  23.711  36.787  1.00  0.00    -0.744 OA
ENDBRANCH  91  92
ENDBRANCH  59  84
ENDBRANCH  33  34
ENDBRANCH  25  28
ENDBRANCH  23  24
ENDBRANCH  22  23
ENDBRANCH   1  22
TORSDOF 18
ENDMDL
MODEL 2
REMARK VINA RESULT:     -11.0      2.653      3.340
REMARK SMILES CC(C)CN(C)S(=O)(=O)c1ccc(C(=O)NCCCCNC(=O)c2ccc(-c3c4nc(c(-c5c(F)cc(S(=O)(=O)[O-])cc5F)c5ccc([nH]5)c(-c5c(F)cc(S(=O)(=O)[O-])cc5F)c5nc(c(-c6c(F)cc(S(=O)(=O)[O-])cc6F)c6ccc3[nH]6)C=C5)C=C4)cc2)cc1
REMARK SMILES IDX 18 1 17 2 16 3 14 4 15 5 13 7 10 8 11 9 91 10 12 11 90 12
REMARK SMILES IDX 7 13 8 14 9 15 5 16 6 17 4 18 2 19 1 20 3 21 19 22 20 23
REMARK SMILES IDX 21 24 22 25 23 27 24 28 25 29 89 30 26 31 88 32 27 33 28 34
REMARK SMILES IDX 29 35 82 36 30 37 87 38 81 39 83 40 31 41 86 42 80 43 79 44
REMARK SMILES IDX 32 46 66 47 45 48 65 49 46 50 49 51 64 52 84 53 47 54 48 55
REMARK SMILES IDX 63 57 85 58 50 59 33 60 34 61 43 62 35 63 36 64 42 65 44 66
REMARK SMILES IDX 37 67 38 68 39 69 40 70 41 71 67 72 68 73 77 74 69 75 70 76
REMARK SMILES IDX 76 77 78 78 71 79 72 80 73 81 74 82 75 83 51 84 52 85 61 86
REMARK SMILES IDX 53 87 54 88 60 89 62 90 55 91 56 92 57 93 58 94 59 95
REMARK H PARENT 16 6 21 26 83 45 49 56
REMARK Flexibility Score: inf
ROOT
ATOM      1  C   UNL A   1      33.271  29.165  24.655  1.00  0.00     0.023 C 
ENDROOT
BRANCH   1   2
ATOM      2  C   UNL A   1      33.314  28.980  23.133  1.00  0.00     0.116 C 
BRANCH   2   3
ATOM      3  N   UNL A   1      31.980  28.980  22.563  1.00  0.00    -0.352 N 
ATOM      4  C   UNL A   1      30.917  28.120  22.706  1.00  0.00     0.251 C 
ATOM      5  O   UNL A   1      29.856  28.429  22.162  1.00  0.00    -0.269 OA
ATOM      6  H   UNL A   1      31.801  29.740  21.962  1.00  0.00     0.163 HD
BRANCH   4   7
ATOM      7  C   UNL A   1      30.970  26.858  23.507  1.00  0.00     0.039 A 
ATOM      8  C   UNL A   1      31.044  24.583  25.176  1.00  0.00     0.082 A 
ATOM      9  C   UNL A   1      30.338  25.713  25.582  1.00  0.00     0.022 A 
ATOM     10  C   UNL A   1      31.627  24.555  23.908  1.00  0.00     0.022 A 
ATOM     11  C   UNL A   1      30.328  26.852  24.759  1.00  0.00     0.015 A 
ATOM     12  C   UNL A   1      31.564  25.673  23.076  1.00  0.00     0.015 A 
BRANCH   8  13
ATOM     13  S   UNL A   1      31.272  23.115  26.152  1.00  0.00     0.242 S 
ATOM     14  O   UNL A   1      30.212  22.198  25.785  1.00  0.00    -0.207 OA
ATOM     15  O   UNL A   1      31.404  23.575  27.516  1.00  0.00    -0.207 OA
BRANCH  13  16
ATOM     16  N   UNL A   1      32.760  22.376  25.687  1.00  0.00    -0.201 NA
ATOM     17  C   UNL A   1      32.582  20.960  25.235  1.00  0.00     0.124 C 
BRANCH  16  18
ATOM     18  C   UNL A   1      33.790  22.409  26.795  1.00  0.00     0.105 C 
BRANCH  18  19
ATOM     19  C   UNL A   1      35.137  23.017  26.359  1.00  0.00    -0.002 C 
ATOM     20  C   UNL A   1      36.120  21.980  25.811  1.00  0.00     0.009 C 
ATOM     21  C   UNL A   1      34.879  24.063  25.266  1.00  0.00     0.009 C 
ENDBRANCH  18  19
ENDBRANCH  16  18
ENDBRANCH  13  16
ENDBRANCH   8  13
ENDBRANCH   4   7
ENDBRANCH   2   3
ENDBRANCH   1   2
BRANCH   1  22
ATOM     22  C   UNL A   1      33.609  27.917  25.471  1.00  0.00     0.023 C 
BRANCH  22  23
ATOM     23  C   UNL A   1      33.925  28.180  26.938  1.00  0.00     0.116 C 
BRANCH  23  24
ATOM     24  N   UNL A   1      33.672  29.553  27.345  1.00  0.00    -0.352 N 
ATOM     25  C   UNL A   1      34.527  30.431  27.964  1.00  0.00     0.251 C 
ATOM     26  H   UNL A   1      32.771  29.897  27.150  1.00  0.00     0.163 HD
ATOM     27  O   UNL A   1      34.112  31.527  28.330  1.00  0.00    -0.269 OA
BRANCH  25  28
ATOM     28  C   UNL A   1      35.926  30.036  28.230  1.00  0.00     0.039 A 
ATOM     29  C   UNL A   1      36.862  30.164  27.200  1.00  0.00     0.014 A 
ATOM     30  C   UNL A   1      36.320  29.540  29.476  1.00  0.00     0.014 A 
ATOM     31  C   UNL A   1      38.198  29.839  27.434  1.00  0.00     0.010 A 
ATOM     32  C   UNL A   1      37.663  29.277  29.728  1.00  0.00     0.010 A 
ATOM     33  C   UNL A   1      38.612  29.412  28.705  1.00  0.00    -0.014 A 
BRANCH  33  34
ATOM     34  C   UNL A   1      40.031  29.068  28.965  1.00  0.00     0.031 A 
ATOM     35  C   UNL A   1      40.944  30.078  29.603  1.00  0.00     0.074 A 
ATOM     36  C   UNL A   1      40.502  27.863  28.592  1.00  0.00     0.049 A 
ATOM     37  N   UNL A   1      42.212  29.969  29.905  1.00  0.00    -0.248 NA
ATOM     38  C   UNL A   1      40.362  31.393  29.918  1.00  0.00     0.031 C 
ATOM     39  C   UNL A   1      39.728  26.826  27.904  1.00  0.00     0.029 A 
ATOM     40  N   UNL A   1      41.747  27.308  28.736  1.00  0.00    -0.354 N 
ATOM     41  C   UNL A   1      42.583  31.202  30.428  1.00  0.00     0.074 A 
ATOM     42  C   UNL A   1      41.419  32.059  30.358  1.00  0.00     0.031 C 
ATOM     43  C   UNL A   1      40.510  25.751  27.711  1.00  0.00     0.029 A 
ATOM     44  C   UNL A   1      41.839  26.027  28.249  1.00  0.00     0.049 A 
ATOM     45  H   UNL A   1      42.504  27.783  29.151  1.00  0.00     0.167 HD
ATOM     46  C   UNL A   1      43.778  31.580  30.943  1.00  0.00     0.037 A 
ATOM     47  C   UNL A   1      42.875  25.167  28.253  1.00  0.00     0.037 A 
ATOM     48  C   UNL A   1      44.921  30.712  31.044  1.00  0.00     0.049 A 
ATOM     49  C   UNL A   1      44.166  25.579  28.902  1.00  0.00     0.074 A 
ATOM     50  C   UNL A   1      46.166  30.981  31.585  1.00  0.00     0.029 A 
ATOM     51  N   UNL A   1      44.953  29.397  30.604  1.00  0.00    -0.354 N 
ATOM     52  N   UNL A   1      44.485  26.732  29.442  1.00  0.00    -0.248 NA
ATOM     53  C   UNL A   1      45.230  24.569  28.965  1.00  0.00     0.031 C 
ATOM     54  C   UNL A   1      46.954  29.831  31.463  1.00  0.00     0.029 A 
ATOM     55  C   UNL A   1      46.192  28.838  30.868  1.00  0.00     0.049 A 
ATOM     56  H   UNL A   1      44.204  28.930  30.168  1.00  0.00     0.167 HD
ATOM     57  C   UNL A   1      45.775  26.577  29.933  1.00  0.00     0.074 A 
ATOM     58  C   UNL A   1      46.174  25.216  29.634  1.00  0.00     0.031 C 
ATOM     59  C   UNL A   1      46.561  27.478  30.575  1.00  0.00     0.037 A 
BRANCH  46  60
ATOM     60  C   UNL A   1      43.894  32.991  31.444  1.00  0.00     0.058 A 
ATOM     61  C   UNL A   1      44.379  34.021  30.622  1.00  0.00     0.135 A 
ATOM     62  C   UNL A   1      43.522  33.320  32.756  1.00  0.00     0.135 A 
ATOM     63  F   UNL A   1      44.767  33.756  29.364  1.00  0.00    -0.206 F 
ATOM     64  C   UNL A   1      44.525  35.321  31.094  1.00  0.00     0.059 A 
ATOM     65  C   UNL A   1      43.637  34.618  33.243  1.00  0.00     0.059 A 
ATOM     66  F   UNL A   1      43.054  32.372  33.584  1.00  0.00    -0.206 F 
ATOM     67  C   UNL A   1      44.158  35.608  32.409  1.00  0.00     0.060 A 
BRANCH  67  68
ATOM     68  S   UNL A   1      44.367  37.294  33.020  1.00  0.00     0.124 S 
ATOM     69  O   UNL A   1      43.581  37.256  34.249  1.00  0.00    -0.237 OA
ATOM     70  O   UNL A   1      45.812  37.391  33.197  1.00  0.00    -0.237 OA
ATOM     71  O   UNL A   1      43.815  38.114  31.946  1.00  0.00    -0.744 OA
ENDBRANCH  67  68
ENDBRANCH  46  60
BRANCH  47  72
ATOM     72  C   UNL A   1      42.709  23.807  27.682  1.00  0.00     0.058 A 
ATOM     73  C   UNL A   1      42.792  23.595  26.298  1.00  0.00     0.135 A 
ATOM     74  C   UNL A   1      42.482  22.693  28.504  1.00  0.00     0.135 A 
ATOM     75  F   UNL A   1      43.006  24.632  25.473  1.00  0.00    -0.206 F 
ATOM     76  C   UNL A   1      42.639  22.329  25.744  1.00  0.00     0.059 A 
ATOM     77  C   UNL A   1      42.345  21.414  27.975  1.00  0.00     0.059 A 
ATOM     78  F   UNL A   1      42.415  22.843  29.836  1.00  0.00    -0.206 F 
ATOM     79  C   UNL A   1      42.416  21.243  26.592  1.00  0.00     0.060 A 
BRANCH  79  80
ATOM     80  S   UNL A   1      42.270  19.593  25.872  1.00  0.00     0.124 S 
ATOM     81  O   UNL A   1      43.268  19.647  24.811  1.00  0.00    -0.237 OA
ATOM     82  O   UNL A   1      42.587  18.730  27.006  1.00  0.00    -0.237 OA
ATOM     83  O   UNL A   1      40.879  19.546  25.431  1.00  0.00    -0.744 OA
ENDBRANCH  79  80
ENDBRANCH  47  72
BRANCH  59  84
ATOM     84  C   UNL A   1      47.909  27.002  31.029  1.00  0.00     0.058 A 
ATOM     85  C   UNL A   1      48.089  26.380  32.274  1.00  0.00     0.135 A 
ATOM     86  C   UNL A   1      49.030  27.155  30.199  1.00  0.00     0.135 A 
ATOM     87  F   UNL A   1      47.046  26.216  33.103  1.00  0.00    -0.206 F 
ATOM     88  C   UNL A   1      49.344  25.954  32.696  1.00  0.00     0.059 A 
ATOM     89  C   UNL A   1      50.291  26.719  30.593  1.00  0.00     0.059 A 
ATOM     90  F   UNL A   1      48.907  27.735  28.995  1.00  0.00    -0.206 F 
ATOM     91  C   UNL A   1      50.441  26.136  31.851  1.00  0.00     0.060 A 
BRANCH  91  92
ATOM     92  S   UNL A   1      52.067  25.577  32.400  1.00  0.00     0.124 S 
ATOM     93  O   UNL A   1      51.814  24.167  32.674  1.00  0.00    -0.237 OA
ATOM     94  O   UNL A   1      52.908  25.857  31.240  1.00  0.00    -0.237 OA
ATOM     95  O   UNL A   1      52.330  26.410  33.570  1.00  0.00    -0.744 OA
ENDBRANCH  91  92
ENDBRANCH  59  84
ENDBRANCH  33  34
ENDBRANCH  25  28
ENDBRANCH  23  24
ENDBRANCH  22  23
ENDBRANCH   1  22
TORSDOF 18
ENDMDL
MODEL 3
REMARK VINA RESULT:     -10.8      5.210      9.624
REMARK SMILES CC(C)CN(C)S(=O)(=O)c1ccc(C(=O)NCCCCNC(=O)c2ccc(-c3c4nc(c(-c5c(F)cc(S(=O)(=O)[O-])cc5F)c5ccc([nH]5)c(-c5c(F)cc(S(=O)(=O)[O-])cc5F)c5nc(c(-c6c(F)cc(S(=O)(=O)[O-])cc6F)c6ccc3[nH]6)C=C5)C=C4)cc2)cc1
REMARK SMILES IDX 18 1 17 2 16 3 14 4 15 5 13 7 10 8 11 9 91 10 12 11 90 12
REMARK SMILES IDX 7 13 8 14 9 15 5 16 6 17 4 18 2 19 1 20 3 21 19 22 20 23
REMARK SMILES IDX 21 24 22 25 23 27 24 28 25 29 89 30 26 31 88 32 27 33 28 34
REMARK SMILES IDX 29 35 82 36 30 37 87 38 81 39 83 40 31 41 86 42 80 43 79 44
REMARK SMILES IDX 32 46 66 47 45 48 65 49 46 50 49 51 64 52 84 53 47 54 48 55
REMARK SMILES IDX 63 57 85 58 50 59 33 60 34 61 43 62 35 63 36 64 42 65 44 66
REMARK SMILES IDX 37 67 38 68 39 69 40 70 41 71 67 72 68 73 77 74 69 75 70 76
REMARK SMILES IDX 76 77 78 78 71 79 72 80 73 81 74 82 75 83 51 84 52 85 61 86
REMARK SMILES IDX 53 87 54 88 60 89 62 90 55 91 56 92 57 93 58 94 59 95
REMARK H PARENT 16 6 21 26 83 45 49 56
REMARK Flexibility Score: inf
ROOT
ATOM      1  C   UNL A   1      33.294  30.620  27.324  1.00  0.00     0.023 C 
ENDROOT
BRANCH   1   2
ATOM      2  C   UNL A   1      31.992  30.304  26.581  1.00  0.00     0.116 C 
BRANCH   2   3
ATOM      3  N   UNL A   1      32.243  29.987  25.186  1.00  0.00    -0.352 N 
ATOM      4  C   UNL A   1      32.236  28.799  24.497  1.00  0.00     0.251 C 
ATOM      5  O   UNL A   1      32.399  28.846  23.277  1.00  0.00    -0.269 OA
ATOM      6  H   UNL A   1      32.457  30.771  24.630  1.00  0.00     0.163 HD
BRANCH   4   7
ATOM      7  C   UNL A   1      32.012  27.466  25.138  1.00  0.00     0.039 A 
ATOM      8  C   UNL A   1      31.762  24.898  26.283  1.00  0.00     0.082 A 
ATOM      9  C   UNL A   1      33.027  25.446  26.088  1.00  0.00     0.022 A 
ATOM     10  C   UNL A   1      30.630  25.664  25.998  1.00  0.00     0.022 A 
ATOM     11  C   UNL A   1      33.146  26.713  25.492  1.00  0.00     0.015 A 
ATOM     12  C   UNL A   1      30.760  26.943  25.457  1.00  0.00     0.015 A 
BRANCH   8  13
ATOM     13  S   UNL A   1      31.439  23.261  26.895  1.00  0.00     0.242 S 
ATOM     14  O   UNL A   1      30.041  23.221  27.273  1.00  0.00    -0.207 OA
ATOM     15  O   UNL A   1      32.471  23.005  27.875  1.00  0.00    -0.207 OA
BRANCH  13  16
ATOM     16  N   UNL A   1      31.642  22.143  25.596  1.00  0.00    -0.201 NA
ATOM     17  C   UNL A   1      32.919  21.369  25.698  1.00  0.00     0.124 C 
BRANCH  16  18
ATOM     18  C   UNL A   1      31.586  22.818  24.243  1.00  0.00     0.105 C 
BRANCH  18  19
ATOM     19  C   UNL A   1      32.630  22.275  23.247  1.00  0.00    -0.002 C 
ATOM     20  C   UNL A   1      32.044  21.293  22.231  1.00  0.00     0.009 C 
ATOM     21  C   UNL A   1      33.244  23.455  22.480  1.00  0.00     0.009 C 
ENDBRANCH  18  19
ENDBRANCH  16  18
ENDBRANCH  13  16
ENDBRANCH   8  13
ENDBRANCH   4   7
ENDBRANCH   2   3
ENDBRANCH   1   2
BRANCH   1  22
ATOM     22  C   UNL A   1      34.554  30.000  26.720  1.00  0.00     0.023 C 
BRANCH  22  23
ATOM     23  C   UNL A   1      35.467  29.303  27.722  1.00  0.00     0.116 C 
BRANCH  23  24
ATOM     24  N   UNL A   1      35.389  29.865  29.060  1.00  0.00    -0.352 N 
ATOM     25  C   UNL A   1      36.408  30.095  29.951  1.00  0.00     0.251 C 
ATOM     26  H   UNL A   1      34.487  30.115  29.366  1.00  0.00     0.163 HD
ATOM     27  O   UNL A   1      36.147  30.484  31.085  1.00  0.00    -0.269 OA
BRANCH  25  28
ATOM     28  C   UNL A   1      37.807  29.824  29.557  1.00  0.00     0.039 A 
ATOM     29  C   UNL A   1      38.712  29.429  30.547  1.00  0.00     0.014 A 
ATOM     30  C   UNL A   1      38.231  29.959  28.232  1.00  0.00     0.014 A 
ATOM     31  C   UNL A   1      40.029  29.126  30.198  1.00  0.00     0.010 A 
ATOM     32  C   UNL A   1      39.526  29.594  27.876  1.00  0.00     0.010 A 
ATOM     33  C   UNL A   1      40.439  29.187  28.858  1.00  0.00    -0.014 A 
BRANCH  33  34
ATOM     34  C   UNL A   1      41.836  28.862  28.478  1.00  0.00     0.031 A 
ATOM     35  C   UNL A   1      42.194  27.463  28.059  1.00  0.00     0.074 A 
ATOM     36  C   UNL A   1      42.783  29.816  28.548  1.00  0.00     0.049 A 
ATOM     37  N   UNL A   1      43.355  26.982  27.697  1.00  0.00    -0.248 NA
ATOM     38  C   UNL A   1      41.110  26.467  28.075  1.00  0.00     0.031 C 
ATOM     39  C   UNL A   1      42.569  31.192  29.004  1.00  0.00     0.029 A 
ATOM     40  N   UNL A   1      44.118  29.773  28.237  1.00  0.00    -0.354 N 
ATOM     41  C   UNL A   1      43.147  25.629  27.459  1.00  0.00     0.074 A 
ATOM     42  C   UNL A   1      41.759  25.355  27.764  1.00  0.00     0.031 C 
ATOM     43  C   UNL A   1      43.726  31.868  28.918  1.00  0.00     0.029 A 
ATOM     44  C   UNL A   1      44.763  30.974  28.413  1.00  0.00     0.049 A 
ATOM     45  H   UNL A   1      44.570  28.959  27.917  1.00  0.00     0.167 HD
ATOM     46  C   UNL A   1      44.024  24.702  27.005  1.00  0.00     0.037 A 
ATOM     47  C   UNL A   1      46.043  31.315  28.175  1.00  0.00     0.037 A 
ATOM     48  C   UNL A   1      45.393  24.988  26.668  1.00  0.00     0.049 A 
ATOM     49  C   UNL A   1      46.979  30.292  27.595  1.00  0.00     0.074 A 
ATOM     50  C   UNL A   1      46.356  24.133  26.161  1.00  0.00     0.029 A 
ATOM     51  N   UNL A   1      45.992  26.234  26.792  1.00  0.00    -0.354 N 
ATOM     52  N   UNL A   1      46.752  29.028  27.325  1.00  0.00    -0.248 NA
ATOM     53  C   UNL A   1      48.336  30.745  27.266  1.00  0.00     0.031 C 
ATOM     54  C   UNL A   1      47.540  24.860  25.988  1.00  0.00     0.029 A 
ATOM     55  C   UNL A   1      47.307  26.173  26.364  1.00  0.00     0.049 A 
ATOM     56  H   UNL A   1      45.546  27.042  27.134  1.00  0.00     0.167 HD
ATOM     57  C   UNL A   1      47.928  28.543  26.768  1.00  0.00     0.074 A 
ATOM     58  C   UNL A   1      48.861  29.651  26.731  1.00  0.00     0.031 C 
ATOM     59  C   UNL A   1      48.212  27.292  26.324  1.00  0.00     0.037 A 
BRANCH  46  60
ATOM     60  C   UNL A   1      43.516  23.299  26.839  1.00  0.00     0.058 A 
ATOM     61  C   UNL A   1      43.311  22.459  27.946  1.00  0.00     0.135 A 
ATOM     62  C   UNL A   1      43.234  22.784  25.565  1.00  0.00     0.135 A 
ATOM     63  F   UNL A   1      43.585  22.897  29.185  1.00  0.00    -0.206 F 
ATOM     64  C   UNL A   1      42.878  21.147  27.793  1.00  0.00     0.059 A 
ATOM     65  C   UNL A   1      42.778  21.481  25.389  1.00  0.00     0.059 A 
ATOM     66  F   UNL A   1      43.415  23.544  24.473  1.00  0.00    -0.206 F 
ATOM     67  C   UNL A   1      42.621  20.664  26.509  1.00  0.00     0.060 A 
BRANCH  67  68
ATOM     68  S   UNL A   1      42.076  18.954  26.318  1.00  0.00     0.124 S 
ATOM     69  O   UNL A   1      40.698  19.137  25.872  1.00  0.00    -0.237 OA
ATOM     70  O   UNL A   1      43.001  18.436  25.316  1.00  0.00    -0.237 OA
ATOM     71  O   UNL A   1      42.235  18.397  27.658  1.00  0.00    -0.744 OA
ENDBRANCH  67  68
ENDBRANCH  46  60
BRANCH  47  72
ATOM     72  C   UNL A   1      46.495  32.707  28.424  1.00  0.00     0.058 A 
ATOM     73  C   UNL A   1      47.092  33.061  29.642  1.00  0.00     0.135 A 
ATOM     74  C   UNL A   1      46.357  33.704  27.447  1.00  0.00     0.135 A 
ATOM     75  F   UNL A   1      47.243  32.141  30.607  1.00  0.00    -0.206 F 
ATOM     76  C   UNL A   1      47.521  34.360  29.894  1.00  0.00     0.059 A 
ATOM     77  C   UNL A   1      46.795  35.006  27.667  1.00  0.00     0.059 A 
ATOM     78  F   UNL A   1      45.810  33.408  26.257  1.00  0.00    -0.206 F 
ATOM     79  C   UNL A   1      47.368  35.326  28.898  1.00  0.00     0.060 A 
BRANCH  79  80
ATOM     80  S   UNL A   1      47.974  36.999  29.210  1.00  0.00     0.124 S 
ATOM     81  O   UNL A   1      47.449  37.258  30.545  1.00  0.00    -0.237 OA
ATOM     82  O   UNL A   1      49.421  36.828  29.114  1.00  0.00    -0.237 OA
ATOM     83  O   UNL A   1      47.371  37.776  28.131  1.00  0.00    -0.744 OA
ENDBRANCH  79  80
ENDBRANCH  47  72
BRANCH  59  84
ATOM     84  C   UNL A   1      49.571  27.076  25.727  1.00  0.00     0.058 A 
ATOM     85  C   UNL A   1      49.817  27.288  24.362  1.00  0.00     0.135 A 
ATOM     86  C   UNL A   1      50.643  26.668  26.535  1.00  0.00     0.135 A 
ATOM     87  F   UNL A   1      48.821  27.674  23.549  1.00  0.00    -0.206 F 
ATOM     88  C   UNL A   1      51.075  27.071  23.811  1.00  0.00     0.059 A 
ATOM     89  C   UNL A   1      51.914  26.464  26.009  1.00  0.00     0.059 A 
ATOM     90  F   UNL A   1      50.459  26.462  27.849  1.00  0.00    -0.206 F 
ATOM     91  C   UNL A   1      52.116  26.651  24.642  1.00  0.00     0.060 A 
BRANCH  91  92
ATOM     92  S   UNL A   1      53.749  26.376  23.924  1.00  0.00     0.124 S 
ATOM     93  O   UNL A   1      54.405  27.651  24.192  1.00  0.00    -0.237 OA
ATOM     94  O   UNL A   1      54.246  25.236  24.689  1.00  0.00    -0.237 OA
ATOM     95  O   UNL A   1      53.456  26.099  22.521  1.00  0.00    -0.744 OA
ENDBRANCH  91  92
ENDBRANCH  59  84
ENDBRANCH  33  34
ENDBRANCH  25  28
ENDBRANCH  23  24
ENDBRANCH  22  23
ENDBRANCH   1  22
TORSDOF 18
ENDMDL
