MODEL 1
REMARK VINA RESULT:     -11.5      0.000      0.000
REMARK SMILES C[NH2+][C@]1(C(=O)NCCCCNC(=O)c2ccc(-c3c4nc(c(-c5c(F)cc(S(=O)(=O)[O-])cc5F)c5ccc([nH]5)c(-c5c(F)cc(S(=O)(=O)[O-])cc5F)c5nc(c(-c6c(F)cc(S(=O)(=O)[O-])cc6F)c6ccc3[nH]6)C=C5)C=C4)cc2)CCC[C@@H]([N@H+]2CC[C@@H](C)C2)C1
REMARK SMILES IDX 9 1 8 2 7 3 6 4 4 5 5 6 3 8 80 9 90 10 81 11 83 12 82 13
REMARK SMILES IDX 2 14 1 15 84 18 85 19 89 20 86 22 87 23 88 24 10 25 11 26
REMARK SMILES IDX 12 27 13 29 14 30 15 31 79 32 16 33 78 34 17 35 18 36 19 37
REMARK SMILES IDX 72 38 20 39 77 40 71 41 73 42 21 43 76 44 70 45 69 46 22 48
REMARK SMILES IDX 56 49 35 50 55 51 36 52 39 53 54 54 74 55 37 56 38 57 53 59
REMARK SMILES IDX 75 60 40 61 23 62 24 63 33 64 25 65 26 66 32 67 34 68 27 69
REMARK SMILES IDX 28 70 29 71 30 72 31 73 57 74 58 75 67 76 59 77 60 78 66 79
REMARK SMILES IDX 68 80 61 81 62 82 63 83 64 84 65 85 41 86 42 87 51 88 43 89
REMARK SMILES IDX 44 90 50 91 52 92 45 93 46 94 47 95 48 96 49 97
REMARK H PARENT 6 7 2 16 2 17 84 21 11 28 73 47 39 58
REMARK Flexibility Score: inf
ROOT
ATOM      1  C   UNL A   1      33.053  28.031  25.881  1.00  0.00     0.023 C 
ENDROOT
BRANCH   1   2
ATOM      2  C   UNL A   1      32.651  26.575  25.654  1.00  0.00     0.023 C 
BRANCH   2   3
ATOM      3  C   UNL A   1      33.492  25.852  24.610  1.00  0.00     0.116 C 
BRANCH   3   4
ATOM      4  N   UNL A   1      34.484  24.980  25.221  1.00  0.00    -0.351 N 
ATOM      5  C   UNL A   1      34.519  23.629  25.422  1.00  0.00     0.281 C 
ATOM      6  O   UNL A   1      35.592  23.176  25.839  1.00  0.00    -0.268 OA
ATOM      7  H   UNL A   1      35.281  25.453  25.552  1.00  0.00     0.163 HD
BRANCH   5   8
ATOM      8  C   UNL A   1      33.321  22.689  25.033  1.00  0.00     0.181 C 
ATOM      9  C   UNL A   1      33.061  22.632  23.514  1.00  0.00     0.079 C 
ATOM     10  C   UNL A   1      33.700  21.308  25.621  1.00  0.00     0.144 C 
ATOM     11  C   UNL A   1      32.171  21.461  23.105  1.00  0.00     0.013 C 
ATOM     12  C   UNL A   1      32.948  20.080  25.091  1.00  0.00     0.190 C 
ATOM     13  C   UNL A   1      32.770  20.133  23.561  1.00  0.00     0.065 C 
BRANCH   8  14
ATOM     14  N   UNL A   1      32.076  23.096  25.772  1.00  0.00    -0.336 N 
ATOM     15  C   UNL A   1      32.167  23.053  27.229  1.00  0.00     0.331 C 
ATOM     16  H   UNL A   1      31.849  24.053  25.499  1.00  0.00     0.346 HD
ATOM     17  H   UNL A   1      31.364  22.414  25.515  1.00  0.00     0.346 HD
ENDBRANCH   8  14
BRANCH  12  18
ATOM     18  N   UNL A   1      33.569  18.803  25.519  1.00  0.00    -0.332 N 
ATOM     19  C   UNL A   1      32.662  17.663  25.713  1.00  0.00     0.262 C 
ATOM     20  C   UNL A   1      34.694  18.356  24.687  1.00  0.00     0.265 C 
ATOM     21  H   UNL A   1      33.911  19.082  26.438  1.00  0.00     0.348 HD
ATOM     22  C   UNL A   1      33.372  16.437  25.149  1.00  0.00     0.070 C 
ATOM     23  C   UNL A   1      34.325  16.993  24.100  1.00  0.00     0.047 C 
ATOM     24  C   UNL A   1      33.679  17.051  22.714  1.00  0.00     0.014 C 
ENDBRANCH  12  18
ENDBRANCH   5   8
ENDBRANCH   3   4
ENDBRANCH   2   3
ENDBRANCH   1   2
BRANCH   1  25
ATOM     25  C   UNL A   1      33.542  28.355  27.289  1.00  0.00     0.116 C 
BRANCH  25  26
ATOM     26  N   UNL A   1      33.476  29.774  27.603  1.00  0.00    -0.352 N 
ATOM     27  C   UNL A   1      34.448  30.589  28.136  1.00  0.00     0.251 C 
ATOM     28  H   UNL A   1      32.614  30.212  27.409  1.00  0.00     0.163 HD
ATOM     29  O   UNL A   1      34.177  31.735  28.465  1.00  0.00    -0.269 OA
BRANCH  27  30
ATOM     30  C   UNL A   1      35.812  30.052  28.335  1.00  0.00     0.039 A 
ATOM     31  C   UNL A   1      36.717  30.098  27.273  1.00  0.00     0.014 A 
ATOM     32  C   UNL A   1      36.203  29.541  29.575  1.00  0.00     0.014 A 
ATOM     33  C   UNL A   1      38.040  29.702  27.478  1.00  0.00     0.010 A 
ATOM     34  C   UNL A   1      37.538  29.219  29.798  1.00  0.00     0.010 A 
ATOM     35  C   UNL A   1      38.471  29.298  28.754  1.00  0.00    -0.014 A 
BRANCH  35  36
ATOM     36  C   UNL A   1      39.894  28.964  29.018  1.00  0.00     0.031 A 
ATOM     37  C   UNL A   1      40.816  30.001  29.600  1.00  0.00     0.074 A 
ATOM     38  C   UNL A   1      40.371  27.752  28.672  1.00  0.00     0.049 A 
ATOM     39  N   UNL A   1      42.102  29.927  29.829  1.00  0.00    -0.248 NA
ATOM     40  C   UNL A   1      40.220  31.302  29.944  1.00  0.00     0.031 C 
ATOM     41  C   UNL A   1      39.588  26.678  28.056  1.00  0.00     0.029 A 
ATOM     42  N   UNL A   1      41.632  27.220  28.778  1.00  0.00    -0.354 N 
ATOM     43  C   UNL A   1      42.470  31.170  30.330  1.00  0.00     0.074 A 
ATOM     44  C   UNL A   1      41.284  31.997  30.320  1.00  0.00     0.031 C 
ATOM     45  C   UNL A   1      40.379  25.610  27.863  1.00  0.00     0.029 A 
ATOM     46  C   UNL A   1      41.732  25.933  28.304  1.00  0.00     0.049 A 
ATOM     47  H   UNL A   1      42.393  27.714  29.158  1.00  0.00     0.167 HD
ATOM     48  C   UNL A   1      43.680  31.577  30.781  1.00  0.00     0.037 A 
ATOM     49  C   UNL A   1      42.795  25.109  28.227  1.00  0.00     0.037 A 
ATOM     50  C   UNL A   1      44.851  30.740  30.813  1.00  0.00     0.049 A 
ATOM     51  C   UNL A   1      44.130  25.585  28.732  1.00  0.00     0.074 A 
ATOM     52  C   UNL A   1      46.112  31.043  31.299  1.00  0.00     0.029 A 
ATOM     53  N   UNL A   1      44.908  29.437  30.341  1.00  0.00    -0.354 N 
ATOM     54  N   UNL A   1      44.447  26.746  29.254  1.00  0.00    -0.248 NA
ATOM     55  C   UNL A   1      45.251  24.638  28.643  1.00  0.00     0.031 C 
ATOM     56  C   UNL A   1      46.940  29.937  31.086  1.00  0.00     0.029 A 
ATOM     57  C   UNL A   1      46.184  28.927  30.510  1.00  0.00     0.049 A 
ATOM     58  H   UNL A   1      44.151  28.946  29.945  1.00  0.00     0.167 HD
ATOM     59  C   UNL A   1      45.796  26.660  29.581  1.00  0.00     0.074 A 
ATOM     60  C   UNL A   1      46.231  25.329  29.209  1.00  0.00     0.031 C 
ATOM     61  C   UNL A   1      46.600  27.596  30.142  1.00  0.00     0.037 A 
BRANCH  48  62
ATOM     62  C   UNL A   1      43.795  32.988  31.288  1.00  0.00     0.058 A 
ATOM     63  C   UNL A   1      43.622  33.298  32.647  1.00  0.00     0.135 A 
ATOM     64  C   UNL A   1      44.113  34.040  30.413  1.00  0.00     0.135 A 
ATOM     65  F   UNL A   1      43.301  32.334  33.525  1.00  0.00    -0.206 F 
ATOM     66  C   UNL A   1      43.730  34.602  33.116  1.00  0.00     0.059 A 
ATOM     67  C   UNL A   1      44.254  35.350  30.865  1.00  0.00     0.059 A 
ATOM     68  F   UNL A   1      44.287  33.801  29.105  1.00  0.00    -0.206 F 
ATOM     69  C   UNL A   1      44.046  35.622  32.217  1.00  0.00     0.060 A 
BRANCH  69  70
ATOM     70  S   UNL A   1      44.186  37.309  32.843  1.00  0.00     0.124 S 
ATOM     71  O   UNL A   1      44.044  38.087  31.615  1.00  0.00    -0.237 OA
ATOM     72  O   UNL A   1      43.067  37.391  33.777  1.00  0.00    -0.237 OA
ATOM     73  O   UNL A   1      45.513  37.336  33.453  1.00  0.00    -0.744 OA
ENDBRANCH  69  70
ENDBRANCH  48  62
BRANCH  49  74
ATOM     74  C   UNL A   1      42.634  23.736  27.676  1.00  0.00     0.058 A 
ATOM     75  C   UNL A   1      42.457  22.636  28.528  1.00  0.00     0.135 A 
ATOM     76  C   UNL A   1      42.643  23.497  26.294  1.00  0.00     0.135 A 
ATOM     77  F   UNL A   1      42.449  22.813  29.858  1.00  0.00    -0.206 F 
ATOM     78  C   UNL A   1      42.311  21.346  28.031  1.00  0.00     0.059 A 
ATOM     79  C   UNL A   1      42.473  22.219  25.771  1.00  0.00     0.059 A 
ATOM     80  F   UNL A   1      42.792  24.519  25.435  1.00  0.00    -0.206 F 
ATOM     81  C   UNL A   1      42.318  21.147  26.650  1.00  0.00     0.060 A 
BRANCH  81  82
ATOM     82  S   UNL A   1      42.078  19.473  26.015  1.00  0.00     0.124 S 
ATOM     83  O   UNL A   1      40.642  19.457  25.765  1.00  0.00    -0.237 OA
ATOM     84  O   UNL A   1      42.934  19.469  24.832  1.00  0.00    -0.237 OA
ATOM     85  O   UNL A   1      42.539  18.629  27.114  1.00  0.00    -0.744 OA
ENDBRANCH  81  82
ENDBRANCH  49  74
BRANCH  61  86
ATOM     86  C   UNL A   1      48.025  27.208  30.424  1.00  0.00     0.058 A 
ATOM     87  C   UNL A   1      49.060  27.494  29.521  1.00  0.00     0.135 A 
ATOM     88  C   UNL A   1      48.364  26.588  31.638  1.00  0.00     0.135 A 
ATOM     89  F   UNL A   1      48.788  28.079  28.344  1.00  0.00    -0.206 F 
ATOM     90  C   UNL A   1      50.381  27.161  29.802  1.00  0.00     0.059 A 
ATOM     91  C   UNL A   1      49.682  26.271  31.952  1.00  0.00     0.059 A 
ATOM     92  F   UNL A   1      47.413  26.302  32.540  1.00  0.00    -0.206 F 
ATOM     93  C   UNL A   1      50.683  26.551  31.021  1.00  0.00     0.060 A 
BRANCH  93  94
ATOM     94  S   UNL A   1      52.406  26.156  31.390  1.00  0.00     0.124 S 
ATOM     95  O   UNL A   1      52.281  24.834  31.994  1.00  0.00    -0.237 OA
ATOM     96  O   UNL A   1      53.025  26.196  30.070  1.00  0.00    -0.237 OA
ATOM     97  O   UNL A   1      52.811  27.226  32.298  1.00  0.00    -0.744 OA
ENDBRANCH  93  94
ENDBRANCH  61  86
ENDBRANCH  35  36
ENDBRANCH  27  30
ENDBRANCH  25  26
ENDBRANCH   1  25
TORSDOF 16
ENDMDL
MODEL 2
REMARK VINA RESULT:     -11.3      1.535      2.169
REMARK SMILES C[NH2+][C@]1(C(=O)NCCCCNC(=O)c2ccc(-c3c4nc(c(-c5c(F)cc(S(=O)(=O)[O-])cc5F)c5ccc([nH]5)c(-c5c(F)cc(S(=O)(=O)[O-])cc5F)c5nc(c(-c6c(F)cc(S(=O)(=O)[O-])cc6F)c6ccc3[nH]6)C=C5)C=C4)cc2)CCC[C@@H]([N@H+]2CC[C@@H](C)C2)C1
REMARK SMILES IDX 9 1 8 2 7 3 6 4 4 5 5 6 3 8 80 9 90 10 81 11 83 12 82 13
REMARK SMILES IDX 2 14 1 15 84 18 85 19 89 20 86 22 87 23 88 24 10 25 11 26
REMARK SMILES IDX 12 27 13 29 14 30 15 31 79 32 16 33 78 34 17 35 18 36 19 37
REMARK SMILES IDX 72 38 20 39 77 40 71 41 73 42 21 43 76 44 70 45 69 46 22 48
REMARK SMILES IDX 56 49 35 50 55 51 36 52 39 53 54 54 74 55 37 56 38 57 53 59
REMARK SMILES IDX 75 60 40 61 23 62 24 63 33 64 25 65 26 66 32 67 34 68 27 69
REMARK SMILES IDX 28 70 29 71 30 72 31 73 57 74 58 75 67 76 59 77 60 78 66 79
REMARK SMILES IDX 68 80 61 81 62 82 63 83 64 84 65 85 41 86 42 87 51 88 43 89
REMARK SMILES IDX 44 90 50 91 52 92 45 93 46 94 47 95 48 96 49 97
REMARK H PARENT 6 7 2 16 2 17 84 21 11 28 73 47 39 58
REMARK Flexibility Score: inf
ROOT
ATOM      1  C   UNL A   1      33.854  28.437  25.635  1.00  0.00     0.023 C 
ENDROOT
BRANCH   1   2
ATOM      2  C   UNL A   1      33.731  27.031  25.053  1.00  0.00     0.023 C 
BRANCH   2   3
ATOM      3  C   UNL A   1      32.473  26.808  24.223  1.00  0.00     0.116 C 
BRANCH   3   4
ATOM      4  N   UNL A   1      31.297  26.623  25.059  1.00  0.00    -0.351 N 
ATOM      5  C   UNL A   1      30.650  25.502  25.499  1.00  0.00     0.281 C 
ATOM      6  O   UNL A   1      29.758  25.690  26.335  1.00  0.00    -0.268 OA
ATOM      7  H   UNL A   1      30.891  27.465  25.368  1.00  0.00     0.163 HD
BRANCH   5   8
ATOM      8  C   UNL A   1      31.089  24.055  25.070  1.00  0.00     0.181 C 
ATOM      9  C   UNL A   1      31.219  23.886  23.542  1.00  0.00     0.079 C 
ATOM     10  C   UNL A   1      32.429  23.817  25.808  1.00  0.00     0.144 C 
ATOM     11  C   UNL A   1      31.991  22.631  23.145  1.00  0.00     0.013 C 
ATOM     12  C   UNL A   1      33.321  22.673  25.309  1.00  0.00     0.190 C 
ATOM     13  C   UNL A   1      33.384  22.623  23.770  1.00  0.00     0.065 C 
BRANCH   8  14
ATOM     14  N   UNL A   1      30.146  23.033  25.640  1.00  0.00    -0.336 N 
ATOM     15  C   UNL A   1      30.280  22.783  27.074  1.00  0.00     0.331 C 
ATOM     16  H   UNL A   1      29.193  23.353  25.465  1.00  0.00     0.346 HD
ATOM     17  H   UNL A   1      30.376  22.153  25.180  1.00  0.00     0.346 HD
ENDBRANCH   8  14
BRANCH  12  18
ATOM     18  N   UNL A   1      34.679  22.707  25.905  1.00  0.00    -0.332 N 
ATOM     19  C   UNL A   1      35.444  21.454  25.871  1.00  0.00     0.262 C 
ATOM     20  C   UNL A   1      35.543  23.785  25.404  1.00  0.00     0.265 C 
ATOM     21  H   UNL A   1      34.432  22.890  26.876  1.00  0.00     0.348 HD
ATOM     22  C   UNL A   1      36.883  21.827  25.532  1.00  0.00     0.070 C 
ATOM     23  C   UNL A   1      36.770  23.134  24.762  1.00  0.00     0.047 C 
ATOM     24  C   UNL A   1      36.650  22.902  23.254  1.00  0.00     0.014 C 
ENDBRANCH  12  18
ENDBRANCH   5   8
ENDBRANCH   3   4
ENDBRANCH   2   3
ENDBRANCH   1   2
BRANCH   1  25
ATOM     25  C   UNL A   1      33.607  28.539  27.137  1.00  0.00     0.116 C 
BRANCH  25  26
ATOM     26  N   UNL A   1      33.514  29.912  27.608  1.00  0.00    -0.352 N 
ATOM     27  C   UNL A   1      34.458  30.668  28.266  1.00  0.00     0.251 C 
ATOM     28  H   UNL A   1      32.656  30.364  27.433  1.00  0.00     0.163 HD
ATOM     29  O   UNL A   1      34.163  31.767  28.713  1.00  0.00    -0.269 OA
BRANCH  27  30
ATOM     30  C   UNL A   1      35.819  30.121  28.453  1.00  0.00     0.039 A 
ATOM     31  C   UNL A   1      36.702  30.124  27.372  1.00  0.00     0.014 A 
ATOM     32  C   UNL A   1      36.230  29.643  29.700  1.00  0.00     0.014 A 
ATOM     33  C   UNL A   1      38.025  29.719  27.562  1.00  0.00     0.010 A 
ATOM     34  C   UNL A   1      37.565  29.312  29.905  1.00  0.00     0.010 A 
ATOM     35  C   UNL A   1      38.478  29.349  28.840  1.00  0.00    -0.014 A 
BRANCH  35  36
ATOM     36  C   UNL A   1      39.902  29.006  29.085  1.00  0.00     0.031 A 
ATOM     37  C   UNL A   1      40.841  30.039  29.644  1.00  0.00     0.074 A 
ATOM     38  C   UNL A   1      40.365  27.787  28.741  1.00  0.00     0.049 A 
ATOM     39  N   UNL A   1      42.129  29.958  29.854  1.00  0.00    -0.248 NA
ATOM     40  C   UNL A   1      40.260  31.348  29.986  1.00  0.00     0.031 C 
ATOM     41  C   UNL A   1      39.564  26.714  28.146  1.00  0.00     0.029 A 
ATOM     42  N   UNL A   1      41.623  27.246  28.832  1.00  0.00    -0.354 N 
ATOM     43  C   UNL A   1      42.514  31.202  30.339  1.00  0.00     0.074 A 
ATOM     44  C   UNL A   1      41.334  32.038  30.341  1.00  0.00     0.031 C 
ATOM     45  C   UNL A   1      40.344  25.638  27.950  1.00  0.00     0.029 A 
ATOM     46  C   UNL A   1      41.706  25.955  28.367  1.00  0.00     0.049 A 
ATOM     47  H   UNL A   1      42.394  27.738  29.197  1.00  0.00     0.167 HD
ATOM     48  C   UNL A   1      43.734  31.603  30.769  1.00  0.00     0.037 A 
ATOM     49  C   UNL A   1      42.762  25.122  28.281  1.00  0.00     0.037 A 
ATOM     50  C   UNL A   1      44.899  30.758  30.789  1.00  0.00     0.049 A 
ATOM     51  C   UNL A   1      44.108  25.592  28.762  1.00  0.00     0.074 A 
ATOM     52  C   UNL A   1      46.170  31.055  31.253  1.00  0.00     0.029 A 
ATOM     53  N   UNL A   1      44.939  29.451  30.328  1.00  0.00    -0.354 N 
ATOM     54  N   UNL A   1      44.441  26.754  29.269  1.00  0.00    -0.248 NA
ATOM     55  C   UNL A   1      45.220  24.636  28.663  1.00  0.00     0.031 C 
ATOM     56  C   UNL A   1      46.986  29.941  31.037  1.00  0.00     0.029 A 
ATOM     57  C   UNL A   1      46.214  28.933  30.481  1.00  0.00     0.049 A 
ATOM     58  H   UNL A   1      44.173  28.962  29.947  1.00  0.00     0.167 HD
ATOM     59  C   UNL A   1      45.794  26.661  29.577  1.00  0.00     0.074 A 
ATOM     60  C   UNL A   1      46.214  25.324  29.209  1.00  0.00     0.031 C 
ATOM     61  C   UNL A   1      46.614  27.595  30.118  1.00  0.00     0.037 A 
BRANCH  48  62
ATOM     62  C   UNL A   1      43.867  33.018  31.262  1.00  0.00     0.058 A 
ATOM     63  C   UNL A   1      43.774  33.332  32.628  1.00  0.00     0.135 A 
ATOM     64  C   UNL A   1      44.124  34.068  30.366  1.00  0.00     0.135 A 
ATOM     65  F   UNL A   1      43.513  32.369  33.527  1.00  0.00    -0.206 F 
ATOM     66  C   UNL A   1      43.898  34.639  33.085  1.00  0.00     0.059 A 
ATOM     67  C   UNL A   1      44.281  35.381  30.803  1.00  0.00     0.059 A 
ATOM     68  F   UNL A   1      44.222  33.825  29.050  1.00  0.00    -0.206 F 
ATOM     69  C   UNL A   1      44.152  35.657  32.164  1.00  0.00     0.060 A 
BRANCH  69  70
ATOM     70  S   UNL A   1      44.316  37.348  32.774  1.00  0.00     0.124 S 
ATOM     71  O   UNL A   1      44.367  38.104  31.525  1.00  0.00    -0.237 OA
ATOM     72  O   UNL A   1      43.100  37.515  33.565  1.00  0.00    -0.237 OA
ATOM     73  O   UNL A   1      45.559  37.315  33.538  1.00  0.00    -0.744 OA
ENDBRANCH  69  70
ENDBRANCH  48  62
BRANCH  49  74
ATOM     74  C   UNL A   1      42.581  23.746  27.744  1.00  0.00     0.058 A 
ATOM     75  C   UNL A   1      42.554  23.513  26.361  1.00  0.00     0.135 A 
ATOM     76  C   UNL A   1      42.443  22.640  28.595  1.00  0.00     0.135 A 
ATOM     77  F   UNL A   1      42.675  24.540  25.506  1.00  0.00    -0.206 F 
ATOM     78  C   UNL A   1      42.380  22.236  25.840  1.00  0.00     0.059 A 
ATOM     79  C   UNL A   1      42.294  21.349  28.099  1.00  0.00     0.059 A 
ATOM     80  F   UNL A   1      42.479  22.808  29.927  1.00  0.00    -0.206 F 
ATOM     81  C   UNL A   1      42.253  21.158  26.718  1.00  0.00     0.060 A 
BRANCH  81  82
ATOM     82  S   UNL A   1      42.076  19.497  26.031  1.00  0.00     0.124 S 
ATOM     83  O   UNL A   1      42.567  18.671  27.128  1.00  0.00    -0.237 OA
ATOM     84  O   UNL A   1      40.642  19.425  25.768  1.00  0.00    -0.237 OA
ATOM     85  O   UNL A   1      42.922  19.536  24.841  1.00  0.00    -0.744 OA
ENDBRANCH  81  82
ENDBRANCH  49  74
BRANCH  61  86
ATOM     86  C   UNL A   1      48.040  27.198  30.380  1.00  0.00     0.058 A 
ATOM     87  C   UNL A   1      49.050  27.400  29.428  1.00  0.00     0.135 A 
ATOM     88  C   UNL A   1      48.408  26.657  31.623  1.00  0.00     0.135 A 
ATOM     89  F   UNL A   1      48.750  27.908  28.222  1.00  0.00    -0.206 F 
ATOM     90  C   UNL A   1      50.373  27.060  29.689  1.00  0.00     0.059 A 
ATOM     91  C   UNL A   1      49.729  26.335  31.917  1.00  0.00     0.059 A 
ATOM     92  F   UNL A   1      47.482  26.453  32.573  1.00  0.00    -0.206 F 
ATOM     93  C   UNL A   1      50.704  26.530  30.938  1.00  0.00     0.060 A 
BRANCH  93  94
ATOM     94  S   UNL A   1      52.430  26.127  31.279  1.00  0.00     0.124 S 
ATOM     95  O   UNL A   1      52.812  27.210  32.179  1.00  0.00    -0.237 OA
ATOM     96  O   UNL A   1      52.329  24.804  31.886  1.00  0.00    -0.237 OA
ATOM     97  O   UNL A   1      53.053  26.158  29.959  1.00  0.00    -0.744 OA
ENDBRANCH  93  94
ENDBRANCH  61  86
ENDBRANCH  35  36
ENDBRANCH  27  30
ENDBRANCH  25  26
ENDBRANCH   1  25
TORSDOF 16
ENDMDL
MODEL 3
REMARK VINA RESULT:     -11.3      0.777      1.989
REMARK SMILES C[NH2+][C@]1(C(=O)NCCCCNC(=O)c2ccc(-c3c4nc(c(-c5c(F)cc(S(=O)(=O)[O-])cc5F)c5ccc([nH]5)c(-c5c(F)cc(S(=O)(=O)[O-])cc5F)c5nc(c(-c6c(F)cc(S(=O)(=O)[O-])cc6F)c6ccc3[nH]6)C=C5)C=C4)cc2)CCC[C@@H]([N@H+]2CC[C@@H](C)C2)C1
REMARK SMILES IDX 9 1 8 2 7 3 6 4 4 5 5 6 3 8 80 9 90 10 81 11 83 12 82 13
REMARK SMILES IDX 2 14 1 15 84 18 85 19 89 20 86 22 87 23 88 24 10 25 11 26
REMARK SMILES IDX 12 27 13 29 14 30 15 31 79 32 16 33 78 34 17 35 18 36 19 37
REMARK SMILES IDX 72 38 20 39 77 40 71 41 73 42 21 43 76 44 70 45 69 46 22 48
REMARK SMILES IDX 56 49 35 50 55 51 36 52 39 53 54 54 74 55 37 56 38 57 53 59
REMARK SMILES IDX 75 60 40 61 23 62 24 63 33 64 25 65 26 66 32 67 34 68 27 69
REMARK SMILES IDX 28 70 29 71 30 72 31 73 57 74 58 75 67 76 59 77 60 78 66 79
REMARK SMILES IDX 68 80 61 81 62 82 63 83 64 84 65 85 41 86 42 87 51 88 43 89
REMARK SMILES IDX 44 90 50 91 52 92 45 93 46 94 47 95 48 96 49 97
REMARK H PARENT 6 7 2 16 2 17 84 21 11 28 73 47 39 58
REMARK Flexibility Score: inf
ROOT
ATOM      1  C   UNL A   1      33.091  28.223  25.550  1.00  0.00     0.023 C 
ENDROOT
BRANCH   1   2
ATOM      2  C   UNL A   1      34.007  27.453  24.600  1.00  0.00     0.023 C 
BRANCH   2   3
ATOM      3  C   UNL A   1      33.371  26.210  23.992  1.00  0.00     0.116 C 
BRANCH   3   4
ATOM      4  N   UNL A   1      32.799  25.341  25.008  1.00  0.00    -0.351 N 
ATOM      5  C   UNL A   1      33.044  24.040  25.349  1.00  0.00     0.281 C 
ATOM      6  O   UNL A   1      32.485  23.639  26.377  1.00  0.00    -0.268 OA
ATOM      7  H   UNL A   1      32.103  25.772  25.556  1.00  0.00     0.163 HD
BRANCH   5   8
ATOM      8  C   UNL A   1      34.066  23.143  24.560  1.00  0.00     0.181 C 
ATOM      9  C   UNL A   1      35.538  23.449  24.908  1.00  0.00     0.079 C 
ATOM     10  C   UNL A   1      33.665  21.690  24.913  1.00  0.00     0.144 C 
ATOM     11  C   UNL A   1      36.498  22.356  24.446  1.00  0.00     0.013 C 
ATOM     12  C   UNL A   1      34.689  20.583  24.632  1.00  0.00     0.190 C 
ATOM     13  C   UNL A   1      36.114  21.003  25.040  1.00  0.00     0.065 C 
BRANCH   8  14
ATOM     14  N   UNL A   1      33.832  23.261  23.080  1.00  0.00    -0.336 N 
ATOM     15  C   UNL A   1      32.613  22.629  22.583  1.00  0.00     0.331 C 
ATOM     16  H   UNL A   1      33.788  24.254  22.848  1.00  0.00     0.346 HD
ATOM     17  H   UNL A   1      34.606  22.769  22.635  1.00  0.00     0.346 HD
ENDBRANCH   8  14
BRANCH  12  18
ATOM     18  N   UNL A   1      34.310  19.287  25.248  1.00  0.00    -0.332 N 
ATOM     19  C   UNL A   1      32.896  19.118  25.609  1.00  0.00     0.262 C 
ATOM     20  C   UNL A   1      34.735  18.100  24.493  1.00  0.00     0.265 C 
ATOM     21  H   UNL A   1      34.843  19.351  26.115  1.00  0.00     0.348 HD
ATOM     22  C   UNL A   1      32.515  17.690  25.236  1.00  0.00     0.070 C 
ATOM     23  C   UNL A   1      33.477  17.315  24.117  1.00  0.00     0.047 C 
ATOM     24  C   UNL A   1      32.908  17.651  22.737  1.00  0.00     0.014 C 
ENDBRANCH  12  18
ENDBRANCH   5   8
ENDBRANCH   3   4
ENDBRANCH   2   3
ENDBRANCH   1   2
BRANCH   1  25
ATOM     25  C   UNL A   1      33.647  28.433  26.955  1.00  0.00     0.116 C 
BRANCH  25  26
ATOM     26  N   UNL A   1      33.531  29.809  27.413  1.00  0.00    -0.352 N 
ATOM     27  C   UNL A   1      34.451  30.576  28.091  1.00  0.00     0.251 C 
ATOM     28  H   UNL A   1      32.674  30.253  27.212  1.00  0.00     0.163 HD
ATOM     29  O   UNL A   1      34.135  31.676  28.522  1.00  0.00    -0.269 OA
BRANCH  27  30
ATOM     30  C   UNL A   1      35.811  30.041  28.319  1.00  0.00     0.039 A 
ATOM     31  C   UNL A   1      36.746  30.112  27.285  1.00  0.00     0.014 A 
ATOM     32  C   UNL A   1      36.167  29.507  29.560  1.00  0.00     0.014 A 
ATOM     33  C   UNL A   1      38.065  29.717  27.521  1.00  0.00     0.010 A 
ATOM     34  C   UNL A   1      37.497  29.186  29.815  1.00  0.00     0.010 A 
ATOM     35  C   UNL A   1      38.460  29.290  28.800  1.00  0.00    -0.014 A 
BRANCH  35  36
ATOM     36  C   UNL A   1      39.876  28.956  29.100  1.00  0.00     0.031 A 
ATOM     37  C   UNL A   1      40.780  29.989  29.715  1.00  0.00     0.074 A 
ATOM     38  C   UNL A   1      40.365  27.748  28.754  1.00  0.00     0.049 A 
ATOM     39  N   UNL A   1      42.059  29.916  29.978  1.00  0.00    -0.248 NA
ATOM     40  C   UNL A   1      40.171  31.286  30.056  1.00  0.00     0.031 C 
ATOM     41  C   UNL A   1      39.601  26.678  28.107  1.00  0.00     0.029 A 
ATOM     42  N   UNL A   1      41.624  27.218  28.889  1.00  0.00    -0.354 N 
ATOM     43  C   UNL A   1      42.410  31.154  30.501  1.00  0.00     0.074 A 
ATOM     44  C   UNL A   1      41.223  31.980  30.467  1.00  0.00     0.031 C 
ATOM     45  C   UNL A   1      40.400  25.614  27.926  1.00  0.00     0.029 A 
ATOM     46  C   UNL A   1      41.740  25.936  28.405  1.00  0.00     0.049 A 
ATOM     47  H   UNL A   1      42.373  27.710  29.294  1.00  0.00     0.167 HD
ATOM     48  C   UNL A   1      43.607  31.560  30.989  1.00  0.00     0.037 A 
ATOM     49  C   UNL A   1      42.807  25.115  28.350  1.00  0.00     0.037 A 
ATOM     50  C   UNL A   1      44.779  30.726  31.043  1.00  0.00     0.049 A 
ATOM     51  C   UNL A   1      44.126  25.589  28.894  1.00  0.00     0.074 A 
ATOM     52  C   UNL A   1      46.026  31.027  31.566  1.00  0.00     0.029 A 
ATOM     53  N   UNL A   1      44.851  29.427  30.561  1.00  0.00    -0.354 N 
ATOM     54  N   UNL A   1      44.426  26.746  29.436  1.00  0.00    -0.248 NA
ATOM     55  C   UNL A   1      45.252  24.646  28.827  1.00  0.00     0.031 C 
ATOM     56  C   UNL A   1      46.862  29.924  31.364  1.00  0.00     0.029 A 
ATOM     57  C   UNL A   1      46.124  28.919  30.759  1.00  0.00     0.049 A 
ATOM     58  H   UNL A   1      44.107  28.938  30.140  1.00  0.00     0.167 HD
ATOM     59  C   UNL A   1      45.766  26.659  29.798  1.00  0.00     0.074 A 
ATOM     60  C   UNL A   1      46.215  25.333  29.425  1.00  0.00     0.031 C 
ATOM     61  C   UNL A   1      46.553  27.592  30.390  1.00  0.00     0.037 A 
BRANCH  48  62
ATOM     62  C   UNL A   1      43.705  32.966  31.512  1.00  0.00     0.058 A 
ATOM     63  C   UNL A   1      44.085  34.034  30.683  1.00  0.00     0.135 A 
ATOM     64  C   UNL A   1      43.382  33.258  32.847  1.00  0.00     0.135 A 
ATOM     65  F   UNL A   1      44.421  33.810  29.402  1.00  0.00    -0.206 F 
ATOM     66  C   UNL A   1      44.174  35.335  31.166  1.00  0.00     0.059 A 
ATOM     67  C   UNL A   1      43.436  34.558  33.345  1.00  0.00     0.059 A 
ATOM     68  F   UNL A   1      43.013  32.276  33.684  1.00  0.00    -0.206 F 
ATOM     69  C   UNL A   1      43.848  35.587  32.500  1.00  0.00     0.060 A 
BRANCH  69  70
ATOM     70  S   UNL A   1      43.963  37.282  33.109  1.00  0.00     0.124 S 
ATOM     71  O   UNL A   1      42.820  37.343  34.016  1.00  0.00    -0.237 OA
ATOM     72  O   UNL A   1      45.277  37.297  33.745  1.00  0.00    -0.237 OA
ATOM     73  O   UNL A   1      43.846  38.088  31.897  1.00  0.00    -0.744 OA
ENDBRANCH  69  70
ENDBRANCH  48  62
BRANCH  49  74
ATOM     74  C   UNL A   1      42.663  23.747  27.781  1.00  0.00     0.058 A 
ATOM     75  C   UNL A   1      42.736  23.533  26.397  1.00  0.00     0.135 A 
ATOM     76  C   UNL A   1      42.461  22.630  28.605  1.00  0.00     0.135 A 
ATOM     77  F   UNL A   1      42.921  24.572  25.567  1.00  0.00    -0.206 F 
ATOM     78  C   UNL A   1      42.598  22.264  25.847  1.00  0.00     0.059 A 
ATOM     79  C   UNL A   1      42.346  21.346  28.081  1.00  0.00     0.059 A 
ATOM     80  F   UNL A   1      42.401  22.779  29.938  1.00  0.00    -0.206 F 
ATOM     81  C   UNL A   1      42.405  21.175  26.698  1.00  0.00     0.060 A 
BRANCH  81  82
ATOM     82  S   UNL A   1      42.276  19.524  25.976  1.00  0.00     0.124 S 
ATOM     83  O   UNL A   1      40.846  19.433  25.705  1.00  0.00    -0.237 OA
ATOM     84  O   UNL A   1      43.144  19.632  24.808  1.00  0.00    -0.237 OA
ATOM     85  O   UNL A   1      42.775  18.655  27.038  1.00  0.00    -0.744 OA
ENDBRANCH  81  82
ENDBRANCH  49  74
BRANCH  61  86
ATOM     86  C   UNL A   1      47.970  27.204  30.705  1.00  0.00     0.058 A 
ATOM     87  C   UNL A   1      48.327  26.657  31.948  1.00  0.00     0.135 A 
ATOM     88  C   UNL A   1      48.975  27.332  29.732  1.00  0.00     0.135 A 
ATOM     89  F   UNL A   1      47.406  26.521  32.915  1.00  0.00    -0.206 F 
ATOM     90  C   UNL A   1      49.634  26.270  32.223  1.00  0.00     0.059 A 
ATOM     91  C   UNL A   1      50.283  26.926  29.975  1.00  0.00     0.059 A 
ATOM     92  F   UNL A   1      48.685  27.839  28.524  1.00  0.00    -0.206 F 
ATOM     93  C   UNL A   1      50.605  26.406  31.229  1.00  0.00     0.060 A 
BRANCH  93  94
ATOM     94  S   UNL A   1      52.291  25.865  31.584  1.00  0.00     0.124 S 
ATOM     95  O   UNL A   1      52.957  26.127  30.313  1.00  0.00    -0.237 OA
ATOM     96  O   UNL A   1      52.671  26.735  32.692  1.00  0.00    -0.237 OA
ATOM     97  O   UNL A   1      52.129  24.456  31.930  1.00  0.00    -0.744 OA
ENDBRANCH  93  94
ENDBRANCH  61  86
ENDBRANCH  35  36
ENDBRANCH  27  30
ENDBRANCH  25  26
ENDBRANCH   1  25
TORSDOF 16
ENDMDL
