MODEL 1
REMARK VINA RESULT:     -10.2      0.000      0.000
REMARK SMILES CC[C@H](Oc1ccc(C)nc1C[NH3+])C(=O)NCCCCNC(=O)c1ccc(-c2c3nc(c(-c4c(F)cc(S(=O)(=O)[O-])cc4F)c4ccc([nH]4)c(-c4c(F)cc(S(=O)(=O)[O-])cc4F)c4nc(c(-c5c(F)cc(S(=O)(=O)[O-])cc5F)c5ccc2[nH]5)C=C4)C=C3)cc1
REMARK SMILES IDX 18 1 17 2 16 3 14 4 15 5 3 7 2 8 1 9 4 10 5 11 6 12 11 13
REMARK SMILES IDX 7 14 10 15 8 16 9 17 12 18 13 19 19 23 20 24 21 25 22 26
REMARK SMILES IDX 23 28 24 29 25 30 89 31 26 32 88 33 27 34 28 35 29 36 82 37
REMARK SMILES IDX 30 38 87 39 81 40 83 41 31 42 86 43 80 44 79 45 32 47 66 48
REMARK SMILES IDX 45 49 65 50 46 51 49 52 64 53 84 54 47 55 48 56 63 58 85 59
REMARK SMILES IDX 50 60 33 61 34 62 43 63 35 64 36 65 42 66 44 67 37 68 38 69
REMARK SMILES IDX 39 70 40 71 41 72 67 73 68 74 77 75 69 76 70 77 76 78 78 79
REMARK SMILES IDX 71 80 72 81 73 82 74 83 75 84 51 85 52 86 61 87 53 88 54 89
REMARK SMILES IDX 60 90 62 91 55 92 56 93 57 94 58 95 59 96
REMARK H PARENT 16 6 13 20 13 21 13 22 21 27 83 46 49 57
REMARK Flexibility Score: inf
ROOT
ATOM      1  C   UNL A   1      31.690  27.178  26.453  1.00  0.00     0.023 C 
ENDROOT
BRANCH   1   2
ATOM      2  C   UNL A   1      30.597  26.374  25.761  1.00  0.00     0.116 C 
BRANCH   2   3
ATOM      3  N   UNL A   1      30.098  25.280  26.570  1.00  0.00    -0.353 N 
ATOM      4  C   UNL A   1      30.499  23.969  26.577  1.00  0.00     0.261 C 
ATOM      5  O   UNL A   1      29.981  23.205  27.396  1.00  0.00    -0.271 OA
ATOM      6  H   UNL A   1      29.376  25.508  27.199  1.00  0.00     0.163 HD
BRANCH   4   7
ATOM      7  C   UNL A   1      31.606  23.477  25.620  1.00  0.00     0.261 C 
BRANCH   7   8
ATOM      8  C   UNL A   1      30.992  23.240  24.216  1.00  0.00     0.052 C 
ATOM      9  C   UNL A   1      31.924  22.982  23.037  1.00  0.00     0.008 C 
ENDBRANCH   7   8
BRANCH   7  10
ATOM     10  O   UNL A   1      32.215  22.362  26.271  1.00  0.00    -0.478 OA
BRANCH  10  11
ATOM     11  C   UNL A   1      33.541  22.098  26.101  1.00  0.00     0.147 A 
ATOM     12  C   UNL A   1      34.572  22.991  26.386  1.00  0.00     0.050 A 
ATOM     13  C   UNL A   1      33.883  20.861  25.536  1.00  0.00     0.136 A 
ATOM     14  C   UNL A   1      35.872  22.696  25.990  1.00  0.00     0.027 A 
ATOM     15  N   UNL A   1      35.158  20.566  25.155  1.00  0.00    -0.248 NA
ATOM     16  C   UNL A   1      36.118  21.498  25.336  1.00  0.00     0.038 A 
ATOM     17  C   UNL A   1      37.478  21.175  24.803  1.00  0.00     0.067 C 
BRANCH  13  18
ATOM     18  C   UNL A   1      32.853  19.753  25.378  1.00  0.00     0.320 C 
BRANCH  18  19
ATOM     19  N   UNL A   1      33.385  18.403  25.604  1.00  0.00    -0.352 N 
ATOM     20  H   UNL A   1      33.245  17.838  24.767  1.00  0.00     0.344 HD
ATOM     21  H   UNL A   1      32.897  17.973  26.389  1.00  0.00     0.344 HD
ATOM     22  H   UNL A   1      34.382  18.461  25.812  1.00  0.00     0.344 HD
ENDBRANCH  18  19
ENDBRANCH  13  18
ENDBRANCH  10  11
ENDBRANCH   7  10
ENDBRANCH   4   7
ENDBRANCH   2   3
ENDBRANCH   1   2
BRANCH   1  23
ATOM     23  C   UNL A   1      33.115  26.771  26.090  1.00  0.00     0.023 C 
BRANCH  23  24
ATOM     24  C   UNL A   1      34.198  27.774  26.474  1.00  0.00     0.116 C 
BRANCH  24  25
ATOM     25  N   UNL A   1      33.667  29.064  26.884  1.00  0.00    -0.352 N 
ATOM     26  C   UNL A   1      34.264  30.056  27.632  1.00  0.00     0.251 C 
ATOM     27  H   UNL A   1      32.749  29.257  26.585  1.00  0.00     0.163 HD
ATOM     28  O   UNL A   1      33.615  31.027  27.988  1.00  0.00    -0.269 OA
BRANCH  26  29
ATOM     29  C   UNL A   1      35.685  29.917  28.027  1.00  0.00     0.039 A 
ATOM     30  C   UNL A   1      35.986  29.532  29.335  1.00  0.00     0.014 A 
ATOM     31  C   UNL A   1      36.711  30.136  27.104  1.00  0.00     0.014 A 
ATOM     32  C   UNL A   1      37.314  29.292  29.694  1.00  0.00     0.010 A 
ATOM     33  C   UNL A   1      38.023  29.819  27.441  1.00  0.00     0.010 A 
ATOM     34  C   UNL A   1      38.340  29.392  28.739  1.00  0.00    -0.014 A 
BRANCH  34  35
ATOM     35  C   UNL A   1      39.746  29.045  29.076  1.00  0.00     0.031 A 
ATOM     36  C   UNL A   1      40.650  30.074  29.698  1.00  0.00     0.074 A 
ATOM     37  C   UNL A   1      40.228  27.828  28.754  1.00  0.00     0.049 A 
ATOM     38  N   UNL A   1      41.921  29.983  29.997  1.00  0.00    -0.248 NA
ATOM     39  C   UNL A   1      40.057  31.387  30.000  1.00  0.00     0.031 C 
ATOM     40  C   UNL A   1      39.468  26.763  28.095  1.00  0.00     0.029 A 
ATOM     41  N   UNL A   1      41.477  27.282  28.928  1.00  0.00    -0.354 N 
ATOM     42  C   UNL A   1      42.281  31.227  30.504  1.00  0.00     0.074 A 
ATOM     43  C   UNL A   1      41.110  32.071  30.423  1.00  0.00     0.031 C 
ATOM     44  C   UNL A   1      40.258  25.689  27.938  1.00  0.00     0.029 A 
ATOM     45  C   UNL A   1      41.590  25.997  28.450  1.00  0.00     0.049 A 
ATOM     46  H   UNL A   1      42.220  27.766  29.354  1.00  0.00     0.167 HD
ATOM     47  C   UNL A   1      43.473  31.621  31.010  1.00  0.00     0.037 A 
ATOM     48  C   UNL A   1      42.649  25.164  28.417  1.00  0.00     0.037 A 
ATOM     49  C   UNL A   1      44.627  30.768  31.116  1.00  0.00     0.049 A 
ATOM     50  C   UNL A   1      43.959  25.621  29.000  1.00  0.00     0.074 A 
ATOM     51  C   UNL A   1      45.860  31.053  31.677  1.00  0.00     0.029 A 
ATOM     52  N   UNL A   1      44.694  29.462  30.649  1.00  0.00    -0.354 N 
ATOM     53  N   UNL A   1      44.262  26.778  29.539  1.00  0.00    -0.248 NA
ATOM     54  C   UNL A   1      45.069  24.659  28.979  1.00  0.00     0.031 C 
ATOM     55  C   UNL A   1      46.687  29.938  31.508  1.00  0.00     0.029 A 
ATOM     56  C   UNL A   1      45.953  28.937  30.891  1.00  0.00     0.049 A 
ATOM     57  H   UNL A   1      43.956  28.980  30.212  1.00  0.00     0.167 HD
ATOM     58  C   UNL A   1      45.588  26.673  29.945  1.00  0.00     0.074 A 
ATOM     59  C   UNL A   1      46.025  25.336  29.601  1.00  0.00     0.031 C 
ATOM     60  C   UNL A   1      46.373  27.601  30.548  1.00  0.00     0.037 A 
BRANCH  47  61
ATOM     61  C   UNL A   1      43.590  33.040  31.500  1.00  0.00     0.058 A 
ATOM     62  C   UNL A   1      43.329  33.383  32.836  1.00  0.00     0.135 A 
ATOM     63  C   UNL A   1      44.009  34.062  30.633  1.00  0.00     0.135 A 
ATOM     64  F   UNL A   1      42.911  32.450  33.705  1.00  0.00    -0.206 F 
ATOM     65  C   UNL A   1      43.452  34.693  33.289  1.00  0.00     0.059 A 
ATOM     66  C   UNL A   1      44.167  35.374  31.070  1.00  0.00     0.059 A 
ATOM     67  F   UNL A   1      44.271  33.790  29.344  1.00  0.00    -0.206 F 
ATOM     68  C   UNL A   1      43.873  35.682  32.397  1.00  0.00     0.060 A 
BRANCH  68  69
ATOM     69  S   UNL A   1      44.039  37.374  33.004  1.00  0.00     0.124 S 
ATOM     70  O   UNL A   1      45.357  37.329  33.632  1.00  0.00    -0.237 OA
ATOM     71  O   UNL A   1      43.952  38.156  31.776  1.00  0.00    -0.237 OA
ATOM     72  O   UNL A   1      42.913  37.519  33.919  1.00  0.00    -0.744 OA
ENDBRANCH  68  69
ENDBRANCH  47  61
BRANCH  48  73
ATOM     73  C   UNL A   1      42.506  23.805  27.831  1.00  0.00     0.058 A 
ATOM     74  C   UNL A   1      42.515  23.612  26.442  1.00  0.00     0.135 A 
ATOM     75  C   UNL A   1      42.372  22.670  28.648  1.00  0.00     0.135 A 
ATOM     76  F   UNL A   1      42.633  24.665  25.620  1.00  0.00    -0.206 F 
ATOM     77  C   UNL A   1      42.382  22.346  25.881  1.00  0.00     0.059 A 
ATOM     78  C   UNL A   1      42.265  21.391  28.110  1.00  0.00     0.059 A 
ATOM     79  F   UNL A   1      42.375  22.800  29.984  1.00  0.00    -0.206 F 
ATOM     80  C   UNL A   1      42.261  21.240  26.725  1.00  0.00     0.060 A 
BRANCH  80  81
ATOM     81  S   UNL A   1      42.144  19.596  25.987  1.00  0.00     0.124 S 
ATOM     82  O   UNL A   1      40.721  19.515  25.677  1.00  0.00    -0.237 OA
ATOM     83  O   UNL A   1      43.042  19.709  24.843  1.00  0.00    -0.237 OA
ATOM     84  O   UNL A   1      42.609  18.716  27.055  1.00  0.00    -0.744 OA
ENDBRANCH  80  81
ENDBRANCH  48  73
BRANCH  60  85
ATOM     85  C   UNL A   1      47.775  27.194  30.910  1.00  0.00     0.058 A 
ATOM     86  C   UNL A   1      48.841  27.331  30.008  1.00  0.00     0.135 A 
ATOM     87  C   UNL A   1      48.063  26.709  32.197  1.00  0.00     0.135 A 
ATOM     88  F   UNL A   1      48.619  27.784  28.763  1.00  0.00    -0.206 F 
ATOM     89  C   UNL A   1      50.140  26.979  30.359  1.00  0.00     0.059 A 
ATOM     90  C   UNL A   1      49.359  26.378  32.579  1.00  0.00     0.059 A 
ATOM     91  F   UNL A   1      47.082  26.569  33.102  1.00  0.00    -0.206 F 
ATOM     92  C   UNL A   1      50.390  26.504  31.648  1.00  0.00     0.060 A 
BRANCH  92  93
ATOM     93  S   UNL A   1      52.084  26.081  32.103  1.00  0.00     0.124 S 
ATOM     94  O   UNL A   1      52.167  26.615  33.458  1.00  0.00    -0.237 OA
ATOM     95  O   UNL A   1      52.082  24.625  31.995  1.00  0.00    -0.237 OA
ATOM     96  O   UNL A   1      52.889  26.776  31.103  1.00  0.00    -0.744 OA
ENDBRANCH  92  93
ENDBRANCH  60  85
ENDBRANCH  34  35
ENDBRANCH  26  29
ENDBRANCH  24  25
ENDBRANCH  23  24
ENDBRANCH   1  23
TORSDOF 19
ENDMDL
MODEL 2
REMARK VINA RESULT:     -10.2      3.297      4.384
REMARK SMILES CC[C@H](Oc1ccc(C)nc1C[NH3+])C(=O)NCCCCNC(=O)c1ccc(-c2c3nc(c(-c4c(F)cc(S(=O)(=O)[O-])cc4F)c4ccc([nH]4)c(-c4c(F)cc(S(=O)(=O)[O-])cc4F)c4nc(c(-c5c(F)cc(S(=O)(=O)[O-])cc5F)c5ccc2[nH]5)C=C4)C=C3)cc1
REMARK SMILES IDX 18 1 17 2 16 3 14 4 15 5 3 7 2 8 1 9 4 10 5 11 6 12 11 13
REMARK SMILES IDX 7 14 10 15 8 16 9 17 12 18 13 19 19 23 20 24 21 25 22 26
REMARK SMILES IDX 23 28 24 29 25 30 89 31 26 32 88 33 27 34 28 35 29 36 82 37
REMARK SMILES IDX 30 38 87 39 81 40 83 41 31 42 86 43 80 44 79 45 32 47 66 48
REMARK SMILES IDX 45 49 65 50 46 51 49 52 64 53 84 54 47 55 48 56 63 58 85 59
REMARK SMILES IDX 50 60 33 61 34 62 43 63 35 64 36 65 42 66 44 67 37 68 38 69
REMARK SMILES IDX 39 70 40 71 41 72 67 73 68 74 77 75 69 76 70 77 76 78 78 79
REMARK SMILES IDX 71 80 72 81 73 82 74 83 75 84 51 85 52 86 61 87 53 88 54 89
REMARK SMILES IDX 60 90 62 91 55 92 56 93 57 94 58 95 59 96
REMARK H PARENT 16 6 13 20 13 21 13 22 21 27 83 46 49 57
REMARK Flexibility Score: inf
ROOT
ATOM      1  C   UNL A   1      34.828  29.586  27.387  1.00  0.00     0.023 C 
ENDROOT
BRANCH   1   2
ATOM      2  C   UNL A   1      33.530  28.788  27.376  1.00  0.00     0.116 C 
BRANCH   2   3
ATOM      3  N   UNL A   1      32.530  29.344  26.486  1.00  0.00    -0.353 N 
ATOM      4  C   UNL A   1      32.298  29.049  25.168  1.00  0.00     0.261 C 
ATOM      5  O   UNL A   1      31.346  29.597  24.605  1.00  0.00    -0.271 OA
ATOM      6  H   UNL A   1      31.937  30.025  26.881  1.00  0.00     0.163 HD
BRANCH   4   7
ATOM      7  C   UNL A   1      33.174  28.018  24.425  1.00  0.00     0.261 C 
BRANCH   7   8
ATOM      8  C   UNL A   1      33.587  28.602  23.050  1.00  0.00     0.052 C 
ATOM      9  C   UNL A   1      33.657  27.673  21.843  1.00  0.00     0.008 C 
ENDBRANCH   7   8
BRANCH   7  10
ATOM     10  O   UNL A   1      32.427  26.801  24.426  1.00  0.00    -0.478 OA
BRANCH  10  11
ATOM     11  C   UNL A   1      32.758  25.784  25.270  1.00  0.00     0.147 A 
ATOM     12  C   UNL A   1      34.030  25.226  25.381  1.00  0.00     0.050 A 
ATOM     13  C   UNL A   1      31.725  25.217  26.030  1.00  0.00     0.136 A 
ATOM     14  C   UNL A   1      34.214  24.064  26.124  1.00  0.00     0.027 A 
ATOM     15  N   UNL A   1      31.904  24.084  26.765  1.00  0.00    -0.248 NA
ATOM     16  C   UNL A   1      33.120  23.497  26.762  1.00  0.00     0.038 A 
ATOM     17  C   UNL A   1      33.242  22.196  27.492  1.00  0.00     0.067 C 
BRANCH  13  18
ATOM     18  C   UNL A   1      30.359  25.879  26.124  1.00  0.00     0.320 C 
BRANCH  18  19
ATOM     19  N   UNL A   1      29.528  25.716  24.925  1.00  0.00    -0.352 N 
ATOM     20  H   UNL A   1      28.573  25.488  25.201  1.00  0.00     0.344 HD
ATOM     21  H   UNL A   1      29.905  24.962  24.351  1.00  0.00     0.344 HD
ATOM     22  H   UNL A   1      29.530  26.584  24.390  1.00  0.00     0.344 HD
ENDBRANCH  18  19
ENDBRANCH  13  18
ENDBRANCH  10  11
ENDBRANCH   7  10
ENDBRANCH   4   7
ENDBRANCH   2   3
ENDBRANCH   1   2
BRANCH   1  23
ATOM     23  C   UNL A   1      34.665  31.073  27.687  1.00  0.00     0.023 C 
BRANCH  23  24
ATOM     24  C   UNL A   1      35.689  31.661  28.652  1.00  0.00     0.116 C 
BRANCH  24  25
ATOM     25  N   UNL A   1      35.546  31.165  30.012  1.00  0.00    -0.352 N 
ATOM     26  C   UNL A   1      36.452  30.481  30.792  1.00  0.00     0.251 C 
ATOM     27  H   UNL A   1      34.675  31.344  30.437  1.00  0.00     0.163 HD
ATOM     28  O   UNL A   1      36.111  30.030  31.874  1.00  0.00    -0.269 OA
BRANCH  26  29
ATOM     29  C   UNL A   1      37.831  30.269  30.293  1.00  0.00     0.039 A 
ATOM     30  C   UNL A   1      38.874  30.171  31.216  1.00  0.00     0.014 A 
ATOM     31  C   UNL A   1      38.086  30.139  28.925  1.00  0.00     0.014 A 
ATOM     32  C   UNL A   1      40.162  29.865  30.770  1.00  0.00     0.010 A 
ATOM     33  C   UNL A   1      39.352  29.755  28.492  1.00  0.00     0.010 A 
ATOM     34  C   UNL A   1      40.404  29.613  29.409  1.00  0.00    -0.014 A 
BRANCH  34  35
ATOM     35  C   UNL A   1      41.745  29.189  28.928  1.00  0.00     0.031 A 
ATOM     36  C   UNL A   1      42.857  30.195  28.804  1.00  0.00     0.074 A 
ATOM     37  C   UNL A   1      41.941  27.914  28.535  1.00  0.00     0.049 A 
ATOM     38  N   UNL A   1      44.069  30.033  28.338  1.00  0.00    -0.248 NA
ATOM     39  C   UNL A   1      42.560  31.571  29.233  1.00  0.00     0.031 C 
ATOM     40  C   UNL A   1      40.926  26.857  28.551  1.00  0.00     0.029 A 
ATOM     41  N   UNL A   1      43.057  27.290  28.033  1.00  0.00    -0.354 N 
ATOM     42  C   UNL A   1      44.671  31.284  28.403  1.00  0.00     0.074 A 
ATOM     43  C   UNL A   1      43.675  32.206  28.901  1.00  0.00     0.031 C 
ATOM     44  C   UNL A   1      41.471  25.716  28.102  1.00  0.00     0.029 A 
ATOM     45  C   UNL A   1      42.860  25.964  27.729  1.00  0.00     0.049 A 
ATOM     46  H   UNL A   1      43.917  27.751  27.903  1.00  0.00     0.167 HD
ATOM     47  C   UNL A   1      45.944  31.628  28.095  1.00  0.00     0.037 A 
ATOM     48  C   UNL A   1      43.700  25.051  27.200  1.00  0.00     0.037 A 
ATOM     49  C   UNL A   1      46.940  30.700  27.627  1.00  0.00     0.049 A 
ATOM     50  C   UNL A   1      45.114  25.455  26.880  1.00  0.00     0.074 A 
ATOM     51  C   UNL A   1      48.276  30.938  27.354  1.00  0.00     0.029 A 
ATOM     52  N   UNL A   1      46.710  29.358  27.362  1.00  0.00    -0.354 N 
ATOM     53  N   UNL A   1      45.686  26.628  27.014  1.00  0.00    -0.248 NA
ATOM     54  C   UNL A   1      45.999  24.411  26.347  1.00  0.00     0.031 C 
ATOM     55  C   UNL A   1      48.843  29.751  26.878  1.00  0.00     0.029 A 
ATOM     56  C   UNL A   1      47.874  28.759  26.907  1.00  0.00     0.049 A 
ATOM     57  H   UNL A   1      45.848  28.898  27.479  1.00  0.00     0.167 HD
ATOM     58  C   UNL A   1      47.004  26.456  26.606  1.00  0.00     0.074 A 
ATOM     59  C   UNL A   1      47.148  25.064  26.235  1.00  0.00     0.031 C 
ATOM     60  C   UNL A   1      48.005  27.370  26.546  1.00  0.00     0.037 A 
BRANCH  47  61
ATOM     61  C   UNL A   1      46.338  33.071  28.263  1.00  0.00     0.058 A 
ATOM     62  C   UNL A   1      46.850  33.560  29.476  1.00  0.00     0.135 A 
ATOM     63  C   UNL A   1      46.243  33.967  27.186  1.00  0.00     0.135 A 
ATOM     64  F   UNL A   1      46.949  32.752  30.543  1.00  0.00    -0.206 F 
ATOM     65  C   UNL A   1      47.227  34.891  29.623  1.00  0.00     0.059 A 
ATOM     66  C   UNL A   1      46.642  35.295  27.301  1.00  0.00     0.059 A 
ATOM     67  F   UNL A   1      45.759  33.553  26.003  1.00  0.00    -0.206 F 
ATOM     68  C   UNL A   1      47.121  35.752  28.528  1.00  0.00     0.060 A 
BRANCH  68  69
ATOM     69  S   UNL A   1      47.626  37.472  28.733  1.00  0.00     0.124 S 
ATOM     70  O   UNL A   1      47.151  37.754  30.085  1.00  0.00    -0.237 OA
ATOM     71  O   UNL A   1      49.074  37.393  28.576  1.00  0.00    -0.237 OA
ATOM     72  O   UNL A   1      46.918  38.165  27.663  1.00  0.00    -0.744 OA
ENDBRANCH  68  69
ENDBRANCH  47  61
BRANCH  48  73
ATOM     73  C   UNL A   1      43.229  23.660  26.961  1.00  0.00     0.058 A 
ATOM     74  C   UNL A   1      42.928  23.211  25.667  1.00  0.00     0.135 A 
ATOM     75  C   UNL A   1      43.085  22.749  28.020  1.00  0.00     0.135 A 
ATOM     76  F   UNL A   1      43.044  24.045  24.624  1.00  0.00    -0.206 F 
ATOM     77  C   UNL A   1      42.488  21.913  25.431  1.00  0.00     0.059 A 
ATOM     78  C   UNL A   1      42.671  21.438  27.805  1.00  0.00     0.059 A 
ATOM     79  F   UNL A   1      43.376  23.125  29.275  1.00  0.00    -0.206 F 
ATOM     80  C   UNL A   1      42.366  21.032  26.507  1.00  0.00     0.060 A 
BRANCH  80  81
ATOM     81  S   UNL A   1      41.845  19.333  26.182  1.00  0.00     0.124 S 
ATOM     82  O   UNL A   1      42.643  19.002  25.006  1.00  0.00    -0.237 OA
ATOM     83  O   UNL A   1      42.220  18.657  27.420  1.00  0.00    -0.237 OA
ATOM     84  O   UNL A   1      40.409  19.460  25.957  1.00  0.00    -0.744 OA
ENDBRANCH  80  81
ENDBRANCH  48  73
BRANCH  60  85
ATOM     85  C   UNL A   1      49.357  26.889  26.094  1.00  0.00     0.058 A 
ATOM     86  C   UNL A   1      49.795  27.048  24.771  1.00  0.00     0.135 A 
ATOM     87  C   UNL A   1      50.246  26.307  27.014  1.00  0.00     0.135 A 
ATOM     88  F   UNL A   1      48.982  27.593  23.852  1.00  0.00    -0.206 F 
ATOM     89  C   UNL A   1      51.057  26.626  24.368  1.00  0.00     0.059 A 
ATOM     90  C   UNL A   1      51.524  25.903  26.639  1.00  0.00     0.059 A 
ATOM     91  F   UNL A   1      49.881  26.141  28.295  1.00  0.00    -0.206 F 
ATOM     92  C   UNL A   1      51.916  26.056  25.310  1.00  0.00     0.060 A 
BRANCH  92  93
ATOM     93  S   UNL A   1      53.563  25.542  24.782  1.00  0.00     0.124 S 
ATOM     94  O   UNL A   1      53.533  24.112  25.076  1.00  0.00    -0.237 OA
ATOM     95  O   UNL A   1      53.563  25.897  23.366  1.00  0.00    -0.237 OA
ATOM     96  O   UNL A   1      54.454  26.337  25.621  1.00  0.00    -0.744 OA
ENDBRANCH  92  93
ENDBRANCH  60  85
ENDBRANCH  34  35
ENDBRANCH  26  29
ENDBRANCH  24  25
ENDBRANCH  23  24
ENDBRANCH   1  23
TORSDOF 19
ENDMDL
MODEL 3
REMARK VINA RESULT:     -10.2      1.198      2.196
REMARK SMILES CC[C@H](Oc1ccc(C)nc1C[NH3+])C(=O)NCCCCNC(=O)c1ccc(-c2c3nc(c(-c4c(F)cc(S(=O)(=O)[O-])cc4F)c4ccc([nH]4)c(-c4c(F)cc(S(=O)(=O)[O-])cc4F)c4nc(c(-c5c(F)cc(S(=O)(=O)[O-])cc5F)c5ccc2[nH]5)C=C4)C=C3)cc1
REMARK SMILES IDX 18 1 17 2 16 3 14 4 15 5 3 7 2 8 1 9 4 10 5 11 6 12 11 13
REMARK SMILES IDX 7 14 10 15 8 16 9 17 12 18 13 19 19 23 20 24 21 25 22 26
REMARK SMILES IDX 23 28 24 29 25 30 89 31 26 32 88 33 27 34 28 35 29 36 82 37
REMARK SMILES IDX 30 38 87 39 81 40 83 41 31 42 86 43 80 44 79 45 32 47 66 48
REMARK SMILES IDX 45 49 65 50 46 51 49 52 64 53 84 54 47 55 48 56 63 58 85 59
REMARK SMILES IDX 50 60 33 61 34 62 43 63 35 64 36 65 42 66 44 67 37 68 38 69
REMARK SMILES IDX 39 70 40 71 41 72 67 73 68 74 77 75 69 76 70 77 76 78 78 79
REMARK SMILES IDX 71 80 72 81 73 82 74 83 75 84 51 85 52 86 61 87 53 88 54 89
REMARK SMILES IDX 60 90 62 91 55 92 56 93 57 94 58 95 59 96
REMARK H PARENT 16 6 13 20 13 21 13 22 21 27 83 46 49 57
REMARK Flexibility Score: inf
ROOT
ATOM      1  C   UNL A   1      31.356  27.336  26.468  1.00  0.00     0.023 C 
ENDROOT
BRANCH   1   2
ATOM      2  C   UNL A   1      31.201  25.831  26.292  1.00  0.00     0.116 C 
BRANCH   2   3
ATOM      3  N   UNL A   1      30.622  25.465  25.015  1.00  0.00    -0.353 N 
ATOM      4  C   UNL A   1      31.246  25.306  23.805  1.00  0.00     0.261 C 
ATOM      5  O   UNL A   1      30.571  24.926  22.845  1.00  0.00    -0.271 OA
ATOM      6  H   UNL A   1      29.649  25.308  25.017  1.00  0.00     0.163 HD
BRANCH   4   7
ATOM      7  C   UNL A   1      32.765  25.548  23.665  1.00  0.00     0.261 C 
BRANCH   7   8
ATOM      8  C   UNL A   1      32.997  26.904  22.949  1.00  0.00     0.052 C 
ATOM      9  C   UNL A   1      33.940  27.921  23.582  1.00  0.00     0.008 C 
ENDBRANCH   7   8
BRANCH   7  10
ATOM     10  O   UNL A   1      33.288  24.375  23.040  1.00  0.00    -0.478 OA
BRANCH  10  11
ATOM     11  C   UNL A   1      34.195  23.591  23.687  1.00  0.00     0.147 A 
ATOM     12  C   UNL A   1      35.476  23.998  24.058  1.00  0.00     0.050 A 
ATOM     13  C   UNL A   1      33.834  22.259  23.934  1.00  0.00     0.136 A 
ATOM     14  C   UNL A   1      36.389  23.061  24.533  1.00  0.00     0.027 A 
ATOM     15  N   UNL A   1      34.724  21.342  24.406  1.00  0.00    -0.248 NA
ATOM     16  C   UNL A   1      35.992  21.737  24.647  1.00  0.00     0.038 A 
ATOM     17  C   UNL A   1      36.962  20.674  25.058  1.00  0.00     0.067 C 
BRANCH  13  18
ATOM     18  C   UNL A   1      32.402  21.782  23.747  1.00  0.00     0.320 C 
BRANCH  18  19
ATOM     19  N   UNL A   1      31.859  22.023  22.405  1.00  0.00    -0.352 N 
ATOM     20  H   UNL A   1      30.848  21.886  22.417  1.00  0.00     0.344 HD
ATOM     21  H   UNL A   1      32.282  21.371  21.745  1.00  0.00     0.344 HD
ATOM     22  H   UNL A   1      32.068  22.980  22.121  1.00  0.00     0.344 HD
ENDBRANCH  18  19
ENDBRANCH  13  18
ENDBRANCH  10  11
ENDBRANCH   7  10
ENDBRANCH   4   7
ENDBRANCH   2   3
ENDBRANCH   1   2
BRANCH   1  23
ATOM     23  C   UNL A   1      32.302  27.759  27.588  1.00  0.00     0.023 C 
BRANCH  23  24
ATOM     24  C   UNL A   1      33.527  28.550  27.144  1.00  0.00     0.116 C 
BRANCH  24  25
ATOM     25  N   UNL A   1      33.463  29.958  27.505  1.00  0.00    -0.352 N 
ATOM     26  C   UNL A   1      34.422  30.753  28.094  1.00  0.00     0.251 C 
ATOM     27  H   UNL A   1      32.611  30.408  27.298  1.00  0.00     0.163 HD
ATOM     28  O   UNL A   1      34.145  31.890  28.441  1.00  0.00    -0.269 OA
BRANCH  26  29
ATOM     29  C   UNL A   1      35.777  30.205  28.332  1.00  0.00     0.039 A 
ATOM     30  C   UNL A   1      36.696  30.201  27.280  1.00  0.00     0.014 A 
ATOM     31  C   UNL A   1      36.147  29.727  29.591  1.00  0.00     0.014 A 
ATOM     32  C   UNL A   1      38.010  29.788  27.514  1.00  0.00     0.010 A 
ATOM     33  C   UNL A   1      37.475  29.394  29.841  1.00  0.00     0.010 A 
ATOM     34  C   UNL A   1      38.422  29.421  28.807  1.00  0.00    -0.014 A 
BRANCH  34  35
ATOM     35  C   UNL A   1      39.838  29.075  29.097  1.00  0.00     0.031 A 
ATOM     36  C   UNL A   1      40.766  30.106  29.680  1.00  0.00     0.074 A 
ATOM     37  C   UNL A   1      40.307  27.854  28.768  1.00  0.00     0.049 A 
ATOM     38  N   UNL A   1      42.046  30.015  29.934  1.00  0.00    -0.248 NA
ATOM     39  C   UNL A   1      40.185  31.422  29.991  1.00  0.00     0.031 C 
ATOM     40  C   UNL A   1      39.522  26.785  28.144  1.00  0.00     0.029 A 
ATOM     41  N   UNL A   1      41.560  27.307  28.902  1.00  0.00    -0.354 N 
ATOM     42  C   UNL A   1      42.425  31.262  30.419  1.00  0.00     0.074 A 
ATOM     43  C   UNL A   1      41.254  32.108  30.372  1.00  0.00     0.031 C 
ATOM     44  C   UNL A   1      40.305  25.709  27.968  1.00  0.00     0.029 A 
ATOM     45  C   UNL A   1      41.654  26.018  28.431  1.00  0.00     0.049 A 
ATOM     46  H   UNL A   1      42.318  27.792  29.298  1.00  0.00     0.167 HD
ATOM     47  C   UNL A   1      43.635  31.658  30.880  1.00  0.00     0.037 A 
ATOM     48  C   UNL A   1      42.710  25.183  28.368  1.00  0.00     0.037 A 
ATOM     49  C   UNL A   1      44.791  30.803  30.952  1.00  0.00     0.049 A 
ATOM     50  C   UNL A   1      44.040  25.642  28.901  1.00  0.00     0.074 A 
ATOM     51  C   UNL A   1      46.043  31.090  31.467  1.00  0.00     0.029 A 
ATOM     52  N   UNL A   1      44.839  29.494  30.494  1.00  0.00    -0.354 N 
ATOM     53  N   UNL A   1      44.364  26.802  29.421  1.00  0.00    -0.248 NA
ATOM     54  C   UNL A   1      45.147  24.677  28.849  1.00  0.00     0.031 C 
ATOM     55  C   UNL A   1      46.861  29.972  31.279  1.00  0.00     0.029 A 
ATOM     56  C   UNL A   1      46.104  28.967  30.696  1.00  0.00     0.049 A 
ATOM     57  H   UNL A   1      44.085  29.010  30.086  1.00  0.00     0.167 HD
ATOM     58  C   UNL A   1      45.703  26.698  29.780  1.00  0.00     0.074 A 
ATOM     59  C   UNL A   1      46.125  25.356  29.432  1.00  0.00     0.031 C 
ATOM     60  C   UNL A   1      46.510  27.628  30.349  1.00  0.00     0.037 A 
BRANCH  47  61
ATOM     61  C   UNL A   1      43.772  33.080  31.354  1.00  0.00     0.058 A 
ATOM     62  C   UNL A   1      44.226  34.101  30.504  1.00  0.00     0.135 A 
ATOM     63  C   UNL A   1      43.404  33.435  32.662  1.00  0.00     0.135 A 
ATOM     64  F   UNL A   1      44.605  33.817  29.248  1.00  0.00    -0.206 F 
ATOM     65  C   UNL A   1      44.337  35.417  30.941  1.00  0.00     0.059 A 
ATOM     66  C   UNL A   1      43.479  34.750  33.112  1.00  0.00     0.059 A 
ATOM     67  F   UNL A   1      42.965  32.498  33.518  1.00  0.00    -0.206 F 
ATOM     68  C   UNL A   1      43.959  35.732  32.248  1.00  0.00     0.060 A 
BRANCH  68  69
ATOM     69  S   UNL A   1      44.098  37.447  32.794  1.00  0.00     0.124 S 
ATOM     70  O   UNL A   1      43.060  37.509  33.819  1.00  0.00    -0.237 OA
ATOM     71  O   UNL A   1      45.472  37.508  33.282  1.00  0.00    -0.237 OA
ATOM     72  O   UNL A   1      43.830  38.213  31.583  1.00  0.00    -0.744 OA
ENDBRANCH  68  69
ENDBRANCH  47  61
BRANCH  48  73
ATOM     73  C   UNL A   1      42.544  23.819  27.798  1.00  0.00     0.058 A 
ATOM     74  C   UNL A   1      42.416  22.698  28.631  1.00  0.00     0.135 A 
ATOM     75  C   UNL A   1      42.494  23.611  26.410  1.00  0.00     0.135 A 
ATOM     76  F   UNL A   1      42.464  22.844  29.963  1.00  0.00    -0.206 F 
ATOM     77  C   UNL A   1      42.259  21.417  28.110  1.00  0.00     0.059 A 
ATOM     78  C   UNL A   1      42.311  22.343  25.867  1.00  0.00     0.059 A 
ATOM     79  F   UNL A   1      42.594  24.653  25.570  1.00  0.00    -0.206 F 
ATOM     80  C   UNL A   1      42.204  21.250  26.726  1.00  0.00     0.060 A 
BRANCH  80  81
ATOM     81  S   UNL A   1      41.946  19.591  26.062  1.00  0.00     0.124 S 
ATOM     82  O   UNL A   1      40.511  19.600  25.801  1.00  0.00    -0.237 OA
ATOM     83  O   UNL A   1      42.810  19.594  24.886  1.00  0.00    -0.237 OA
ATOM     84  O   UNL A   1      42.386  18.723  27.149  1.00  0.00    -0.744 OA
ENDBRANCH  80  81
ENDBRANCH  48  73
BRANCH  60  85
ATOM     85  C   UNL A   1      47.923  27.221  30.664  1.00  0.00     0.058 A 
ATOM     86  C   UNL A   1      48.256  26.573  31.863  1.00  0.00     0.135 A 
ATOM     87  C   UNL A   1      48.949  27.437  29.728  1.00  0.00     0.135 A 
ATOM     88  F   UNL A   1      47.315  26.348  32.793  1.00  0.00    -0.206 F 
ATOM     89  C   UNL A   1      49.561  26.174  32.135  1.00  0.00     0.059 A 
ATOM     90  C   UNL A   1      50.255  27.021  29.966  1.00  0.00     0.059 A 
ATOM     91  F   UNL A   1      48.682  28.042  28.560  1.00  0.00    -0.206 F 
ATOM     92  C   UNL A   1      50.554  26.401  31.179  1.00  0.00     0.060 A 
BRANCH  92  93
ATOM     93  S   UNL A   1      52.236  25.851  31.530  1.00  0.00     0.124 S 
ATOM     94  O   UNL A   1      52.667  26.833  32.520  1.00  0.00    -0.237 OA
ATOM     95  O   UNL A   1      52.024  24.496  32.031  1.00  0.00    -0.237 OA
ATOM     96  O   UNL A   1      52.900  25.935  30.232  1.00  0.00    -0.744 OA
ENDBRANCH  92  93
ENDBRANCH  60  85
ENDBRANCH  34  35
ENDBRANCH  26  29
ENDBRANCH  24  25
ENDBRANCH  23  24
ENDBRANCH   1  23
TORSDOF 19
ENDMDL
