MODEL 1
REMARK VINA RESULT:     -12.6      0.000      0.000
REMARK SMILES Cc1nc(C(=O)NCCCCNC(=O)c2ccc(-c3c4nc(c(-c5c(F)cc(S(=O)(=O)[O-])cc5F)c5ccc([nH]5)c(-c5c(F)cc(S(=O)(=O)[O-])cc5F)c5nc(c(-c6c(F)cc(S(=O)(=O)[O-])cc6F)c6ccc3[nH]6)C=C5)C=C4)cc2)nn1-c1cccc(C(F)(F)F)c1
REMARK SMILES IDX 10 1 9 2 8 3 7 4 5 5 6 6 4 8 1 9 2 10 3 11 82 12 81 13 83 14
REMARK SMILES IDX 84 15 92 16 85 17 87 18 86 19 88 20 89 21 90 22 91 23 11 24
REMARK SMILES IDX 12 25 13 26 14 28 15 29 16 30 80 31 17 32 79 33 18 34 19 35
REMARK SMILES IDX 20 36 73 37 21 38 78 39 72 40 74 41 22 42 77 43 71 44 70 45
REMARK SMILES IDX 23 47 57 48 36 49 56 50 37 51 40 52 55 53 75 54 38 55 39 56
REMARK SMILES IDX 54 58 76 59 41 60 24 61 25 62 34 63 26 64 27 65 33 66 35 67
REMARK SMILES IDX 28 68 29 69 30 70 31 71 32 72 58 73 59 74 68 75 60 76 61 77
REMARK SMILES IDX 67 78 69 79 62 80 63 81 64 82 65 83 66 84 42 85 43 86 52 87
REMARK SMILES IDX 44 88 45 89 51 90 53 91 46 92 47 93 48 94 49 95 50 96
REMARK H PARENT 7 7 12 27 74 46 40 57
REMARK Flexibility Score: inf
ROOT
ATOM      1  C   UNL A   1      36.942  22.848  23.904  1.00  0.00     0.023 C 
ENDROOT
BRANCH   1   2
ATOM      2  C   UNL A   1      35.436  22.921  23.616  1.00  0.00     0.023 C 
BRANCH   2   3
ATOM      3  C   UNL A   1      34.515  22.766  24.831  1.00  0.00     0.116 C 
BRANCH   3   4
ATOM      4  N   UNL A   1      33.105  22.789  24.469  1.00  0.00    -0.349 N 
ATOM      5  C   UNL A   1      32.257  23.851  24.204  1.00  0.00     0.290 C 
ATOM      6  O   UNL A   1      31.057  23.586  24.062  1.00  0.00    -0.266 OA
ATOM      7  H   UNL A   1      32.685  21.901  24.402  1.00  0.00     0.163 HD
BRANCH   5   8
ATOM      8  C   UNL A   1      32.766  25.241  24.150  1.00  0.00     0.239 A 
ATOM      9  C   UNL A   1      33.778  28.250  22.503  1.00  0.00     0.090 C 
ATOM     10  C   UNL A   1      33.267  27.162  23.370  1.00  0.00     0.130 A 
ATOM     11  N   UNL A   1      32.877  25.966  22.975  1.00  0.00    -0.207 NA
ATOM     12  N   UNL A   1      33.271  27.191  24.748  1.00  0.00    -0.217 N 
ATOM     13  N   UNL A   1      33.190  25.933  25.221  1.00  0.00    -0.140 NA
BRANCH  12  14
ATOM     14  C   UNL A   1      33.179  28.273  25.656  1.00  0.00     0.067 A 
ATOM     15  C   UNL A   1      31.974  28.985  25.740  1.00  0.00     0.028 A 
ATOM     16  C   UNL A   1      34.312  28.729  26.343  1.00  0.00     0.041 A 
ATOM     17  C   UNL A   1      31.889  30.120  26.544  1.00  0.00     0.003 A 
ATOM     18  C   UNL A   1      34.244  29.904  27.114  1.00  0.00     0.058 A 
ATOM     19  C   UNL A   1      33.017  30.578  27.224  1.00  0.00     0.013 A 
BRANCH  18  20
ATOM     20  C   UNL A   1      35.472  30.477  27.777  1.00  0.00     0.416 C 
ATOM     21  F   UNL A   1      35.625  30.043  29.060  1.00  0.00    -0.166 F 
ATOM     22  F   UNL A   1      36.621  30.140  27.129  1.00  0.00    -0.166 F 
ATOM     23  F   UNL A   1      35.469  31.838  27.845  1.00  0.00    -0.166 F 
ENDBRANCH  18  20
ENDBRANCH  12  14
ENDBRANCH   5   8
ENDBRANCH   3   4
ENDBRANCH   2   3
ENDBRANCH   1   2
BRANCH   1  24
ATOM     24  C   UNL A   1      37.330  23.221  25.331  1.00  0.00     0.116 C 
BRANCH  24  25
ATOM     25  N   UNL A   1      38.125  22.191  26.004  1.00  0.00    -0.352 N 
ATOM     26  C   UNL A   1      39.353  22.351  26.616  1.00  0.00     0.251 C 
ATOM     27  H   UNL A   1      37.742  21.284  26.022  1.00  0.00     0.163 HD
ATOM     28  O   UNL A   1      40.090  21.382  26.818  1.00  0.00    -0.269 OA
BRANCH  26  29
ATOM     29  C   UNL A   1      39.759  23.699  27.041  1.00  0.00     0.039 A 
ATOM     30  C   UNL A   1      38.898  24.800  26.958  1.00  0.00     0.014 A 
ATOM     31  C   UNL A   1      41.037  23.831  27.577  1.00  0.00     0.014 A 
ATOM     32  C   UNL A   1      39.305  26.017  27.503  1.00  0.00     0.010 A 
ATOM     33  C   UNL A   1      41.376  24.980  28.238  1.00  0.00     0.010 A 
ATOM     34  C   UNL A   1      40.542  26.092  28.158  1.00  0.00    -0.014 A 
BRANCH  34  35
ATOM     35  C   UNL A   1      40.951  27.278  28.908  1.00  0.00     0.031 A 
ATOM     36  C   UNL A   1      42.090  28.020  28.291  1.00  0.00     0.074 A 
ATOM     37  C   UNL A   1      40.145  27.807  29.859  1.00  0.00     0.049 A 
ATOM     38  N   UNL A   1      43.276  28.215  28.768  1.00  0.00    -0.248 NA
ATOM     39  C   UNL A   1      41.948  28.461  26.889  1.00  0.00     0.031 C 
ATOM     40  C   UNL A   1      38.825  27.316  30.281  1.00  0.00     0.029 A 
ATOM     41  N   UNL A   1      40.252  28.973  30.551  1.00  0.00    -0.354 N 
ATOM     42  C   UNL A   1      43.926  29.034  27.841  1.00  0.00     0.074 A 
ATOM     43  C   UNL A   1      43.168  28.931  26.626  1.00  0.00     0.031 C 
ATOM     44  C   UNL A   1      38.165  28.288  30.947  1.00  0.00     0.029 A 
ATOM     45  C   UNL A   1      39.067  29.405  31.148  1.00  0.00     0.049 A 
ATOM     46  H   UNL A   1      41.098  29.471  30.626  1.00  0.00     0.167 HD
ATOM     47  C   UNL A   1      44.844  29.961  28.239  1.00  0.00     0.037 A 
ATOM     48  C   UNL A   1      38.838  30.608  31.737  1.00  0.00     0.037 A 
ATOM     49  C   UNL A   1      45.263  29.704  29.596  1.00  0.00     0.049 A 
ATOM     50  C   UNL A   1      40.168  31.199  32.027  1.00  0.00     0.074 A 
ATOM     51  C   UNL A   1      45.877  28.660  30.256  1.00  0.00     0.029 A 
ATOM     52  N   UNL A   1      44.693  30.489  30.568  1.00  0.00    -0.354 N 
ATOM     53  N   UNL A   1      41.016  30.691  32.879  1.00  0.00    -0.248 NA
ATOM     54  C   UNL A   1      40.741  32.097  31.038  1.00  0.00     0.031 C 
ATOM     55  C   UNL A   1      45.270  28.629  31.547  1.00  0.00     0.029 A 
ATOM     56  C   UNL A   1      44.375  29.697  31.637  1.00  0.00     0.049 A 
ATOM     57  H   UNL A   1      44.540  31.460  30.506  1.00  0.00     0.167 HD
ATOM     58  C   UNL A   1      42.257  30.849  32.279  1.00  0.00     0.074 A 
ATOM     59  C   UNL A   1      42.036  31.815  31.205  1.00  0.00     0.031 C 
ATOM     60  C   UNL A   1      43.264  29.960  32.526  1.00  0.00     0.037 A 
BRANCH  47  61
ATOM     61  C   UNL A   1      45.033  31.334  27.606  1.00  0.00     0.058 A 
ATOM     62  C   UNL A   1      46.253  31.613  26.948  1.00  0.00     0.135 A 
ATOM     63  C   UNL A   1      44.226  32.463  27.871  1.00  0.00     0.135 A 
ATOM     64  F   UNL A   1      47.100  30.621  26.626  1.00  0.00    -0.206 F 
ATOM     65  C   UNL A   1      46.685  32.914  26.682  1.00  0.00     0.059 A 
ATOM     66  C   UNL A   1      44.615  33.764  27.564  1.00  0.00     0.059 A 
ATOM     67  F   UNL A   1      43.061  32.387  28.521  1.00  0.00    -0.206 F 
ATOM     68  C   UNL A   1      45.864  33.985  27.014  1.00  0.00     0.060 A 
BRANCH  68  69
ATOM     69  S   UNL A   1      46.459  35.667  26.776  1.00  0.00     0.124 S 
ATOM     70  O   UNL A   1      45.212  36.388  26.555  1.00  0.00    -0.237 OA
ATOM     71  O   UNL A   1      47.136  35.928  28.043  1.00  0.00    -0.237 OA
ATOM     72  O   UNL A   1      47.338  35.549  25.616  1.00  0.00    -0.744 OA
ENDBRANCH  68  69
ENDBRANCH  47  61
BRANCH  48  73
ATOM     73  C   UNL A   1      37.586  31.415  31.783  1.00  0.00     0.058 A 
ATOM     74  C   UNL A   1      36.919  31.661  32.999  1.00  0.00     0.135 A 
ATOM     75  C   UNL A   1      37.182  32.205  30.689  1.00  0.00     0.135 A 
ATOM     76  F   UNL A   1      37.249  30.968  34.100  1.00  0.00    -0.206 F 
ATOM     77  C   UNL A   1      35.953  32.666  33.136  1.00  0.00     0.059 A 
ATOM     78  C   UNL A   1      36.216  33.207  30.798  1.00  0.00     0.059 A 
ATOM     79  F   UNL A   1      37.785  32.087  29.496  1.00  0.00    -0.206 F 
ATOM     80  C   UNL A   1      35.624  33.451  32.032  1.00  0.00     0.060 A 
BRANCH  80  81
ATOM     81  S   UNL A   1      34.514  34.865  32.244  1.00  0.00     0.124 S 
ATOM     82  O   UNL A   1      34.255  35.257  30.863  1.00  0.00    -0.237 OA
ATOM     83  O   UNL A   1      33.388  34.271  32.959  1.00  0.00    -0.237 OA
ATOM     84  O   UNL A   1      35.313  35.810  33.020  1.00  0.00    -0.744 OA
ENDBRANCH  80  81
ENDBRANCH  48  73
BRANCH  60  85
ATOM     85  C   UNL A   1      43.119  29.042  33.714  1.00  0.00     0.058 A 
ATOM     86  C   UNL A   1      43.373  29.402  35.048  1.00  0.00     0.135 A 
ATOM     87  C   UNL A   1      42.560  27.776  33.488  1.00  0.00     0.135 A 
ATOM     88  F   UNL A   1      43.816  30.628  35.361  1.00  0.00    -0.206 F 
ATOM     89  C   UNL A   1      43.118  28.527  36.108  1.00  0.00     0.059 A 
ATOM     90  C   UNL A   1      42.268  26.902  34.528  1.00  0.00     0.059 A 
ATOM     91  F   UNL A   1      42.238  27.397  32.240  1.00  0.00    -0.206 F 
ATOM     92  C   UNL A   1      42.563  27.278  35.836  1.00  0.00     0.060 A 
BRANCH  92  93
ATOM     93  S   UNL A   1      42.170  26.169  37.207  1.00  0.00     0.124 S 
ATOM     94  O   UNL A   1      40.783  26.516  37.494  1.00  0.00    -0.237 OA
ATOM     95  O   UNL A   1      42.386  24.850  36.620  1.00  0.00    -0.237 OA
ATOM     96  O   UNL A   1      43.134  26.546  38.238  1.00  0.00    -0.744 OA
ENDBRANCH  92  93
ENDBRANCH  60  85
ENDBRANCH  34  35
ENDBRANCH  26  29
ENDBRANCH  24  25
ENDBRANCH   1  24
TORSDOF 16
ENDMDL
MODEL 2
REMARK VINA RESULT:     -12.4      2.205      2.723
REMARK SMILES Cc1nc(C(=O)NCCCCNC(=O)c2ccc(-c3c4nc(c(-c5c(F)cc(S(=O)(=O)[O-])cc5F)c5ccc([nH]5)c(-c5c(F)cc(S(=O)(=O)[O-])cc5F)c5nc(c(-c6c(F)cc(S(=O)(=O)[O-])cc6F)c6ccc3[nH]6)C=C5)C=C4)cc2)nn1-c1cccc(C(F)(F)F)c1
REMARK SMILES IDX 10 1 9 2 8 3 7 4 5 5 6 6 4 8 1 9 2 10 3 11 82 12 81 13 83 14
REMARK SMILES IDX 84 15 92 16 85 17 87 18 86 19 88 20 89 21 90 22 91 23 11 24
REMARK SMILES IDX 12 25 13 26 14 28 15 29 16 30 80 31 17 32 79 33 18 34 19 35
REMARK SMILES IDX 20 36 73 37 21 38 78 39 72 40 74 41 22 42 77 43 71 44 70 45
REMARK SMILES IDX 23 47 57 48 36 49 56 50 37 51 40 52 55 53 75 54 38 55 39 56
REMARK SMILES IDX 54 58 76 59 41 60 24 61 25 62 34 63 26 64 27 65 33 66 35 67
REMARK SMILES IDX 28 68 29 69 30 70 31 71 32 72 58 73 59 74 68 75 60 76 61 77
REMARK SMILES IDX 67 78 69 79 62 80 63 81 64 82 65 83 66 84 42 85 43 86 52 87
REMARK SMILES IDX 44 88 45 89 51 90 53 91 46 92 47 93 48 94 49 95 50 96
REMARK H PARENT 7 7 12 27 74 46 40 57
REMARK Flexibility Score: inf
ROOT
ATOM      1  C   UNL A   1      35.940  23.447  25.993  1.00  0.00     0.023 C 
ENDROOT
BRANCH   1   2
ATOM      2  C   UNL A   1      35.093  24.568  25.375  1.00  0.00     0.023 C 
BRANCH   2   3
ATOM      3  C   UNL A   1      33.975  24.117  24.429  1.00  0.00     0.116 C 
BRANCH   3   4
ATOM      4  N   UNL A   1      34.104  24.694  23.098  1.00  0.00    -0.349 N 
ATOM      5  C   UNL A   1      33.505  25.807  22.533  1.00  0.00     0.290 C 
ATOM      6  O   UNL A   1      33.687  25.986  21.323  1.00  0.00    -0.266 OA
ATOM      7  H   UNL A   1      34.720  24.211  22.501  1.00  0.00     0.163 HD
BRANCH   5   8
ATOM      8  C   UNL A   1      32.645  26.704  23.339  1.00  0.00     0.239 A 
ATOM      9  C   UNL A   1      32.007  29.189  25.831  1.00  0.00     0.090 C 
ATOM     10  C   UNL A   1      32.076  28.272  24.668  1.00  0.00     0.130 A 
ATOM     11  N   UNL A   1      33.144  27.621  24.250  1.00  0.00    -0.207 NA
ATOM     12  N   UNL A   1      30.986  27.845  23.941  1.00  0.00    -0.217 N 
ATOM     13  N   UNL A   1      31.302  26.709  23.289  1.00  0.00    -0.140 NA
BRANCH  12  14
ATOM     14  C   UNL A   1      29.746  28.470  23.668  1.00  0.00     0.067 A 
ATOM     15  C   UNL A   1      28.599  27.675  23.547  1.00  0.00     0.028 A 
ATOM     16  C   UNL A   1      29.686  29.837  23.365  1.00  0.00     0.041 A 
ATOM     17  C   UNL A   1      27.386  28.250  23.172  1.00  0.00     0.003 A 
ATOM     18  C   UNL A   1      28.476  30.412  22.936  1.00  0.00     0.058 A 
ATOM     19  C   UNL A   1      27.326  29.609  22.866  1.00  0.00     0.013 A 
BRANCH  18  20
ATOM     20  C   UNL A   1      28.406  31.856  22.501  1.00  0.00     0.416 C 
ATOM     21  F   UNL A   1      27.478  32.065  21.527  1.00  0.00    -0.166 F 
ATOM     22  F   UNL A   1      28.073  32.692  23.522  1.00  0.00    -0.166 F 
ATOM     23  F   UNL A   1      29.582  32.330  22.000  1.00  0.00    -0.166 F 
ENDBRANCH  18  20
ENDBRANCH  12  14
ENDBRANCH   5   8
ENDBRANCH   3   4
ENDBRANCH   2   3
ENDBRANCH   1   2
BRANCH   1  24
ATOM     24  C   UNL A   1      37.350  23.336  25.424  1.00  0.00     0.116 C 
BRANCH  24  25
ATOM     25  N   UNL A   1      38.154  22.291  26.065  1.00  0.00    -0.352 N 
ATOM     26  C   UNL A   1      39.396  22.434  26.649  1.00  0.00     0.251 C 
ATOM     27  H   UNL A   1      37.764  21.387  26.079  1.00  0.00     0.163 HD
ATOM     28  O   UNL A   1      40.131  21.457  26.821  1.00  0.00    -0.269 OA
BRANCH  26  29
ATOM     29  C   UNL A   1      39.822  23.773  27.084  1.00  0.00     0.039 A 
ATOM     30  C   UNL A   1      39.041  24.914  26.861  1.00  0.00     0.014 A 
ATOM     31  C   UNL A   1      41.029  23.856  27.772  1.00  0.00     0.014 A 
ATOM     32  C   UNL A   1      39.446  26.127  27.418  1.00  0.00     0.010 A 
ATOM     33  C   UNL A   1      41.348  25.009  28.437  1.00  0.00     0.010 A 
ATOM     34  C   UNL A   1      40.594  26.160  28.221  1.00  0.00    -0.014 A 
BRANCH  34  35
ATOM     35  C   UNL A   1      40.974  27.349  28.983  1.00  0.00     0.031 A 
ATOM     36  C   UNL A   1      42.098  28.121  28.377  1.00  0.00     0.074 A 
ATOM     37  C   UNL A   1      40.152  27.852  29.934  1.00  0.00     0.049 A 
ATOM     38  N   UNL A   1      43.278  28.338  28.860  1.00  0.00    -0.248 NA
ATOM     39  C   UNL A   1      41.952  28.569  26.978  1.00  0.00     0.031 C 
ATOM     40  C   UNL A   1      38.841  27.327  30.347  1.00  0.00     0.029 A 
ATOM     41  N   UNL A   1      40.230  29.014  30.636  1.00  0.00    -0.354 N 
ATOM     42  C   UNL A   1      43.913  29.179  27.942  1.00  0.00     0.074 A 
ATOM     43  C   UNL A   1      43.162  29.069  26.723  1.00  0.00     0.031 C 
ATOM     44  C   UNL A   1      38.157  28.279  31.017  1.00  0.00     0.029 A 
ATOM     45  C   UNL A   1      39.033  29.415  31.231  1.00  0.00     0.049 A 
ATOM     46  H   UNL A   1      41.064  29.530  30.718  1.00  0.00     0.167 HD
ATOM     47  C   UNL A   1      44.808  30.123  28.352  1.00  0.00     0.037 A 
ATOM     48  C   UNL A   1      38.775  30.608  31.829  1.00  0.00     0.037 A 
ATOM     49  C   UNL A   1      45.228  29.864  29.709  1.00  0.00     0.049 A 
ATOM     50  C   UNL A   1      40.090  31.226  32.129  1.00  0.00     0.074 A 
ATOM     51  C   UNL A   1      45.862  28.829  30.364  1.00  0.00     0.029 A 
ATOM     52  N   UNL A   1      44.636  30.629  30.685  1.00  0.00    -0.354 N 
ATOM     53  N   UNL A   1      40.946  30.730  32.981  1.00  0.00    -0.248 NA
ATOM     54  C   UNL A   1      40.647  32.144  31.150  1.00  0.00     0.031 C 
ATOM     55  C   UNL A   1      45.250  28.774  31.652  1.00  0.00     0.029 A 
ATOM     56  C   UNL A   1      44.331  29.821  31.746  1.00  0.00     0.049 A 
ATOM     57  H   UNL A   1      44.461  31.597  30.630  1.00  0.00     0.167 HD
ATOM     58  C   UNL A   1      42.185  30.920  32.388  1.00  0.00     0.074 A 
ATOM     59  C   UNL A   1      41.947  31.890  31.321  1.00  0.00     0.031 C 
ATOM     60  C   UNL A   1      43.211  30.052  32.632  1.00  0.00     0.037 A 
BRANCH  47  61
ATOM     61  C   UNL A   1      44.969  31.505  27.731  1.00  0.00     0.058 A 
ATOM     62  C   UNL A   1      46.180  31.812  27.070  1.00  0.00     0.135 A 
ATOM     63  C   UNL A   1      44.143  32.617  28.010  1.00  0.00     0.135 A 
ATOM     64  F   UNL A   1      47.044  30.839  26.735  1.00  0.00    -0.206 F 
ATOM     65  C   UNL A   1      46.587  33.123  26.813  1.00  0.00     0.059 A 
ATOM     66  C   UNL A   1      44.507  33.927  27.713  1.00  0.00     0.059 A 
ATOM     67  F   UNL A   1      42.983  32.514  28.665  1.00  0.00    -0.206 F 
ATOM     68  C   UNL A   1      45.749  34.176  27.159  1.00  0.00     0.060 A 
BRANCH  68  69
ATOM     69  S   UNL A   1      46.312  35.871  26.934  1.00  0.00     0.124 S 
ATOM     70  O   UNL A   1      45.050  36.573  26.744  1.00  0.00    -0.237 OA
ATOM     71  O   UNL A   1      47.006  36.126  28.193  1.00  0.00    -0.237 OA
ATOM     72  O   UNL A   1      47.173  35.783  25.758  1.00  0.00    -0.744 OA
ENDBRANCH  68  69
ENDBRANCH  47  61
BRANCH  48  73
ATOM     73  C   UNL A   1      37.505  31.386  31.876  1.00  0.00     0.058 A 
ATOM     74  C   UNL A   1      36.930  31.773  33.102  1.00  0.00     0.135 A 
ATOM     75  C   UNL A   1      36.989  32.018  30.728  1.00  0.00     0.135 A 
ATOM     76  F   UNL A   1      37.369  31.236  34.251  1.00  0.00    -0.206 F 
ATOM     77  C   UNL A   1      35.945  32.765  33.190  1.00  0.00     0.059 A 
ATOM     78  C   UNL A   1      36.003  33.004  30.788  1.00  0.00     0.059 A 
ATOM     79  F   UNL A   1      37.498  31.759  29.513  1.00  0.00    -0.206 F 
ATOM     80  C   UNL A   1      35.504  33.394  32.026  1.00  0.00     0.060 A 
BRANCH  80  81
ATOM     81  S   UNL A   1      34.368  34.798  32.147  1.00  0.00     0.124 S 
ATOM     82  O   UNL A   1      35.161  35.765  32.898  1.00  0.00    -0.237 OA
ATOM     83  O   UNL A   1      34.127  35.124  30.746  1.00  0.00    -0.237 OA
ATOM     84  O   UNL A   1      33.221  34.245  32.862  1.00  0.00    -0.744 OA
ENDBRANCH  80  81
ENDBRANCH  48  73
BRANCH  60  85
ATOM     85  C   UNL A   1      43.082  29.121  33.811  1.00  0.00     0.058 A 
ATOM     86  C   UNL A   1      43.319  29.477  35.150  1.00  0.00     0.135 A 
ATOM     87  C   UNL A   1      42.554  27.844  33.573  1.00  0.00     0.135 A 
ATOM     88  F   UNL A   1      43.730  30.711  35.476  1.00  0.00    -0.206 F 
ATOM     89  C   UNL A   1      43.080  28.588  36.201  1.00  0.00     0.059 A 
ATOM     90  C   UNL A   1      42.278  26.955  34.605  1.00  0.00     0.059 A 
ATOM     91  F   UNL A   1      42.249  27.467  32.320  1.00  0.00    -0.206 F 
ATOM     92  C   UNL A   1      42.557  27.328  35.917  1.00  0.00     0.060 A 
BRANCH  92  93
ATOM     93  S   UNL A   1      42.183  26.199  37.277  1.00  0.00     0.124 S 
ATOM     94  O   UNL A   1      40.816  26.577  37.623  1.00  0.00    -0.237 OA
ATOM     95  O   UNL A   1      42.341  24.888  36.654  1.00  0.00    -0.237 OA
ATOM     96  O   UNL A   1      43.193  26.526  38.280  1.00  0.00    -0.744 OA
ENDBRANCH  92  93
ENDBRANCH  60  85
ENDBRANCH  34  35
ENDBRANCH  26  29
ENDBRANCH  24  25
ENDBRANCH   1  24
TORSDOF 16
ENDMDL
MODEL 3
REMARK VINA RESULT:     -12.3      3.874      9.851
REMARK SMILES Cc1nc(C(=O)NCCCCNC(=O)c2ccc(-c3c4nc(c(-c5c(F)cc(S(=O)(=O)[O-])cc5F)c5ccc([nH]5)c(-c5c(F)cc(S(=O)(=O)[O-])cc5F)c5nc(c(-c6c(F)cc(S(=O)(=O)[O-])cc6F)c6ccc3[nH]6)C=C5)C=C4)cc2)nn1-c1cccc(C(F)(F)F)c1
REMARK SMILES IDX 10 1 9 2 8 3 7 4 5 5 6 6 4 8 1 9 2 10 3 11 82 12 81 13 83 14
REMARK SMILES IDX 84 15 92 16 85 17 87 18 86 19 88 20 89 21 90 22 91 23 11 24
REMARK SMILES IDX 12 25 13 26 14 28 15 29 16 30 80 31 17 32 79 33 18 34 19 35
REMARK SMILES IDX 20 36 73 37 21 38 78 39 72 40 74 41 22 42 77 43 71 44 70 45
REMARK SMILES IDX 23 47 57 48 36 49 56 50 37 51 40 52 55 53 75 54 38 55 39 56
REMARK SMILES IDX 54 58 76 59 41 60 24 61 25 62 34 63 26 64 27 65 33 66 35 67
REMARK SMILES IDX 28 68 29 69 30 70 31 71 32 72 58 73 59 74 68 75 60 76 61 77
REMARK SMILES IDX 67 78 69 79 62 80 63 81 64 82 65 83 66 84 42 85 43 86 52 87
REMARK SMILES IDX 44 88 45 89 51 90 53 91 46 92 47 93 48 94 49 95 50 96
REMARK H PARENT 7 7 12 27 74 46 40 57
REMARK Flexibility Score: inf
ROOT
ATOM      1  C   UNL A   1      32.357  28.457  26.971  1.00  0.00     0.023 C 
ENDROOT
BRANCH   1   2
ATOM      2  C   UNL A   1      32.655  27.133  26.256  1.00  0.00     0.023 C 
BRANCH   2   3
ATOM      3  C   UNL A   1      31.442  26.394  25.682  1.00  0.00     0.116 C 
BRANCH   3   4
ATOM      4  N   UNL A   1      30.917  25.388  26.595  1.00  0.00    -0.349 N 
ATOM      5  C   UNL A   1      31.101  24.016  26.631  1.00  0.00     0.290 C 
ATOM      6  O   UNL A   1      30.413  23.381  27.439  1.00  0.00    -0.266 OA
ATOM      7  H   UNL A   1      30.335  25.743  27.305  1.00  0.00     0.163 HD
BRANCH   5   8
ATOM      8  C   UNL A   1      32.043  23.347  25.704  1.00  0.00     0.239 A 
ATOM      9  C   UNL A   1      35.249  22.721  24.249  1.00  0.00     0.090 C 
ATOM     10  C   UNL A   1      33.881  22.725  24.819  1.00  0.00     0.130 A 
ATOM     11  N   UNL A   1      33.409  23.574  25.710  1.00  0.00    -0.207 NA
ATOM     12  N   UNL A   1      32.847  21.926  24.380  1.00  0.00    -0.217 N 
ATOM     13  N   UNL A   1      31.673  22.472  24.753  1.00  0.00    -0.140 NA
BRANCH  12  14
ATOM     14  C   UNL A   1      32.850  20.637  23.796  1.00  0.00     0.067 A 
ATOM     15  C   UNL A   1      32.171  20.441  22.586  1.00  0.00     0.028 A 
ATOM     16  C   UNL A   1      33.381  19.540  24.487  1.00  0.00     0.041 A 
ATOM     17  C   UNL A   1      32.065  19.161  22.044  1.00  0.00     0.003 A 
ATOM     18  C   UNL A   1      33.231  18.241  23.970  1.00  0.00     0.058 A 
ATOM     19  C   UNL A   1      32.589  18.068  22.733  1.00  0.00     0.013 A 
BRANCH  18  20
ATOM     20  C   UNL A   1      33.699  17.032  24.743  1.00  0.00     0.416 C 
ATOM     21  F   UNL A   1      33.272  15.861  24.193  1.00  0.00    -0.166 F 
ATOM     22  F   UNL A   1      35.056  16.944  24.803  1.00  0.00    -0.166 F 
ATOM     23  F   UNL A   1      33.267  17.012  26.036  1.00  0.00    -0.166 F 
ENDBRANCH  18  20
ENDBRANCH  12  14
ENDBRANCH   5   8
ENDBRANCH   3   4
ENDBRANCH   2   3
ENDBRANCH   1   2
BRANCH   1  24
ATOM     24  C   UNL A   1      33.568  29.102  27.637  1.00  0.00     0.116 C 
BRANCH  24  25
ATOM     25  N   UNL A   1      33.777  30.496  27.238  1.00  0.00    -0.352 N 
ATOM     26  C   UNL A   1      34.805  31.331  27.627  1.00  0.00     0.251 C 
ATOM     27  H   UNL A   1      33.109  30.879  26.624  1.00  0.00     0.163 HD
ATOM     28  O   UNL A   1      34.693  32.557  27.539  1.00  0.00    -0.269 OA
BRANCH  26  29
ATOM     29  C   UNL A   1      36.049  30.730  28.131  1.00  0.00     0.039 A 
ATOM     30  C   UNL A   1      36.371  29.385  27.914  1.00  0.00     0.014 A 
ATOM     31  C   UNL A   1      36.926  31.575  28.806  1.00  0.00     0.014 A 
ATOM     32  C   UNL A   1      37.626  28.921  28.305  1.00  0.00     0.010 A 
ATOM     33  C   UNL A   1      38.205  31.158  29.057  1.00  0.00     0.010 A 
ATOM     34  C   UNL A   1      38.545  29.822  28.861  1.00  0.00    -0.014 A 
BRANCH  34  35
ATOM     35  C   UNL A   1      39.934  29.449  29.124  1.00  0.00     0.031 A 
ATOM     36  C   UNL A   1      40.263  29.326  30.575  1.00  0.00     0.074 A 
ATOM     37  C   UNL A   1      40.712  28.944  28.137  1.00  0.00     0.049 A 
ATOM     38  N   UNL A   1      41.092  30.029  31.274  1.00  0.00    -0.248 NA
ATOM     39  C   UNL A   1      39.441  28.413  31.393  1.00  0.00     0.031 C 
ATOM     40  C   UNL A   1      40.334  28.709  26.736  1.00  0.00     0.029 A 
ATOM     41  N   UNL A   1      41.955  28.394  28.195  1.00  0.00    -0.354 N 
ATOM     42  C   UNL A   1      41.088  29.458  32.550  1.00  0.00     0.074 A 
ATOM     43  C   UNL A   1      39.894  28.664  32.622  1.00  0.00     0.031 C 
ATOM     44  C   UNL A   1      41.209  27.856  26.162  1.00  0.00     0.029 A 
ATOM     45  C   UNL A   1      42.298  27.616  27.088  1.00  0.00     0.049 A 
ATOM     46  H   UNL A   1      42.564  28.534  28.956  1.00  0.00     0.167 HD
ATOM     47  C   UNL A   1      42.215  29.439  33.318  1.00  0.00     0.037 A 
ATOM     48  C   UNL A   1      43.385  26.810  26.959  1.00  0.00     0.037 A 
ATOM     49  C   UNL A   1      43.197  30.359  32.795  1.00  0.00     0.049 A 
ATOM     50  C   UNL A   1      44.355  27.235  27.998  1.00  0.00     0.074 A 
ATOM     51  C   UNL A   1      43.250  31.718  32.565  1.00  0.00     0.029 A 
ATOM     52  N   UNL A   1      44.216  29.806  32.058  1.00  0.00    -0.354 N 
ATOM     53  N   UNL A   1      44.942  28.401  28.008  1.00  0.00    -0.248 NA
ATOM     54  C   UNL A   1      44.329  26.540  29.274  1.00  0.00     0.031 C 
ATOM     55  C   UNL A   1      44.008  31.863  31.365  1.00  0.00     0.029 A 
ATOM     56  C   UNL A   1      44.442  30.597  30.965  1.00  0.00     0.049 A 
ATOM     57  H   UNL A   1      44.703  28.979  32.279  1.00  0.00     0.167 HD
ATOM     58  C   UNL A   1      44.966  28.773  29.344  1.00  0.00     0.074 A 
ATOM     59  C   UNL A   1      44.677  27.545  30.082  1.00  0.00     0.031 C 
ATOM     60  C   UNL A   1      44.923  30.093  29.697  1.00  0.00     0.037 A 
BRANCH  47  61
ATOM     61  C   UNL A   1      42.620  28.304  34.249  1.00  0.00     0.058 A 
ATOM     62  C   UNL A   1      42.720  28.568  35.635  1.00  0.00     0.135 A 
ATOM     63  C   UNL A   1      43.202  27.086  33.831  1.00  0.00     0.135 A 
ATOM     64  F   UNL A   1      42.191  29.687  36.158  1.00  0.00    -0.206 F 
ATOM     65  C   UNL A   1      43.435  27.747  36.509  1.00  0.00     0.059 A 
ATOM     66  C   UNL A   1      43.873  26.227  34.697  1.00  0.00     0.059 A 
ATOM     67  F   UNL A   1      43.236  26.698  32.553  1.00  0.00    -0.206 F 
ATOM     68  C   UNL A   1      44.027  26.587  36.023  1.00  0.00     0.060 A 
BRANCH  68  69
ATOM     69  S   UNL A   1      45.043  25.583  37.118  1.00  0.00     0.124 S 
ATOM     70  O   UNL A   1      44.465  24.260  36.919  1.00  0.00    -0.237 OA
ATOM     71  O   UNL A   1      46.377  25.791  36.564  1.00  0.00    -0.237 OA
ATOM     72  O   UNL A   1      44.815  26.184  38.429  1.00  0.00    -0.744 OA
ENDBRANCH  68  69
ENDBRANCH  47  61
BRANCH  48  73
ATOM     73  C   UNL A   1      43.522  25.519  26.228  1.00  0.00     0.058 A 
ATOM     74  C   UNL A   1      44.569  25.306  25.311  1.00  0.00     0.135 A 
ATOM     75  C   UNL A   1      42.811  24.371  26.628  1.00  0.00     0.135 A 
ATOM     76  F   UNL A   1      45.312  26.339  24.885  1.00  0.00    -0.206 F 
ATOM     77  C   UNL A   1      44.927  24.028  24.863  1.00  0.00     0.059 A 
ATOM     78  C   UNL A   1      43.143  23.087  26.191  1.00  0.00     0.059 A 
ATOM     79  F   UNL A   1      41.825  24.454  27.536  1.00  0.00    -0.206 F 
ATOM     80  C   UNL A   1      44.221  22.919  25.328  1.00  0.00     0.060 A 
BRANCH  80  81
ATOM     81  S   UNL A   1      44.790  21.256  24.898  1.00  0.00     0.124 S 
ATOM     82  O   UNL A   1      46.162  21.267  25.393  1.00  0.00    -0.237 OA
ATOM     83  O   UNL A   1      43.855  20.409  25.632  1.00  0.00    -0.237 OA
ATOM     84  O   UNL A   1      44.653  21.216  23.444  1.00  0.00    -0.744 OA
ENDBRANCH  80  81
ENDBRANCH  48  73
BRANCH  60  85
ATOM     85  C   UNL A   1      45.214  31.118  28.630  1.00  0.00     0.058 A 
ATOM     86  C   UNL A   1      44.264  31.649  27.740  1.00  0.00     0.135 A 
ATOM     87  C   UNL A   1      46.495  31.685  28.611  1.00  0.00     0.135 A 
ATOM     88  F   UNL A   1      42.990  31.233  27.759  1.00  0.00    -0.206 F 
ATOM     89  C   UNL A   1      44.586  32.672  26.845  1.00  0.00     0.059 A 
ATOM     90  C   UNL A   1      46.830  32.726  27.752  1.00  0.00     0.059 A 
ATOM     91  F   UNL A   1      47.430  31.263  29.479  1.00  0.00    -0.206 F 
ATOM     92  C   UNL A   1      45.874  33.205  26.860  1.00  0.00     0.060 A 
BRANCH  92  93
ATOM     93  S   UNL A   1      46.277  34.573  25.751  1.00  0.00     0.124 S 
ATOM     94  O   UNL A   1      45.985  35.737  26.581  1.00  0.00    -0.237 OA
ATOM     95  O   UNL A   1      47.689  34.340  25.460  1.00  0.00    -0.237 OA
ATOM     96  O   UNL A   1      45.376  34.371  24.619  1.00  0.00    -0.744 OA
ENDBRANCH  92  93
ENDBRANCH  60  85
ENDBRANCH  34  35
ENDBRANCH  26  29
ENDBRANCH  24  25
ENDBRANCH   1  24
TORSDOF 16
ENDMDL
