MODEL 1
REMARK VINA RESULT:     -11.8      0.000      0.000
REMARK SMILES Cc1cc2c(c(C)c1Cl)C=C(C(=O)NCCCCNC(=O)c1ccc(-c3c4nc(c(-c5c(F)cc(S(=O)(=O)[O-])cc5F)c5ccc([nH]5)c(-c5c(F)cc(S(=O)(=O)[O-])cc5F)c5nc(c(-c6c(F)cc(S(=O)(=O)[O-])cc6F)c6ccc3[nH]6)C=C5)C=C4)cc1)[C@@H](C(F)(F)F)O2
REMARK SMILES IDX 17 1 16 2 15 3 14 4 12 5 13 6 11 8 1 9 2 10 3 11 8 12 4 13
REMARK SMILES IDX 6 14 9 15 5 16 93 17 7 18 10 19 88 20 89 21 90 22 91 23
REMARK SMILES IDX 92 24 18 25 19 26 20 27 21 29 22 30 23 31 87 32 24 33 86 34
REMARK SMILES IDX 25 35 26 36 27 37 80 38 28 39 85 40 79 41 81 42 29 43 84 44
REMARK SMILES IDX 78 45 77 46 30 48 64 49 43 50 63 51 44 52 47 53 62 54 82 55
REMARK SMILES IDX 45 56 46 57 61 59 83 60 48 61 31 62 32 63 41 64 33 65 34 66
REMARK SMILES IDX 40 67 42 68 35 69 36 70 37 71 38 72 39 73 65 74 66 75 75 76
REMARK SMILES IDX 67 77 68 78 74 79 76 80 69 81 70 82 71 83 72 84 73 85 49 86
REMARK SMILES IDX 50 87 59 88 51 89 52 90 58 91 60 92 53 93 54 94 55 95 56 96
REMARK SMILES IDX 57 97
REMARK H PARENT 14 7 19 28 81 47 47 58
REMARK Flexibility Score: inf
ROOT
ATOM      1  C   UNL A   1      33.595  28.479  25.469  1.00  0.00     0.023 C 
ENDROOT
BRANCH   1   2
ATOM      2  C   UNL A   1      33.671  27.061  24.895  1.00  0.00     0.023 C 
BRANCH   2   3
ATOM      3  C   UNL A   1      32.320  26.470  24.499  1.00  0.00     0.116 C 
BRANCH   3   4
ATOM      4  N   UNL A   1      31.681  25.782  25.607  1.00  0.00    -0.352 N 
ATOM      5  C   UNL A   1      31.768  24.569  26.200  1.00  0.00     0.251 C 
ATOM      6  O   UNL A   1      31.002  24.393  27.152  1.00  0.00    -0.270 OA
ATOM      7  H   UNL A   1      31.007  26.350  26.044  1.00  0.00     0.163 HD
BRANCH   5   8
ATOM      8  C   UNL A   1      32.698  23.471  25.796  1.00  0.00     0.067 C 
ATOM      9  C   UNL A   1      37.694  19.426  24.726  1.00  0.00     0.046 C 
ATOM     10  C   UNL A   1      36.781  20.561  25.103  1.00  0.00    -0.028 A 
ATOM     11  C   UNL A   1      35.402  20.390  24.954  1.00  0.00     0.052 A 
ATOM     12  C   UNL A   1      37.266  21.794  25.588  1.00  0.00     0.047 A 
ATOM     13  C   UNL A   1      34.522  21.418  25.281  1.00  0.00     0.128 A 
ATOM     14  C   UNL A   1      36.382  22.845  25.933  1.00  0.00    -0.021 A 
ATOM     15  Cl  UNL A   1      38.986  21.990  25.761  1.00  0.00    -0.084 Cl
ATOM     16  C   UNL A   1      34.988  22.636  25.783  1.00  0.00     0.022 A 
ATOM     17  O   UNL A   1      33.196  21.133  25.120  1.00  0.00    -0.475 OA
ATOM     18  C   UNL A   1      36.882  24.167  26.466  1.00  0.00     0.047 C 
ATOM     19  C   UNL A   1      33.982  23.630  26.171  1.00  0.00     0.026 C 
ATOM     20  C   UNL A   1      32.303  22.273  24.988  1.00  0.00     0.314 C 
BRANCH  20  21
ATOM     21  C   UNL A   1      32.106  22.599  23.495  1.00  0.00     0.429 C 
ATOM     22  F   UNL A   1      30.878  23.136  23.285  1.00  0.00    -0.167 F 
ATOM     23  F   UNL A   1      33.005  23.503  23.039  1.00  0.00    -0.167 F 
ATOM     24  F   UNL A   1      32.209  21.506  22.705  1.00  0.00    -0.167 F 
ENDBRANCH  20  21
ENDBRANCH   5   8
ENDBRANCH   3   4
ENDBRANCH   2   3
ENDBRANCH   1   2
BRANCH   1  25
ATOM     25  C   UNL A   1      33.647  28.578  26.994  1.00  0.00     0.116 C 
BRANCH  25  26
ATOM     26  N   UNL A   1      33.564  29.940  27.503  1.00  0.00    -0.352 N 
ATOM     27  C   UNL A   1      34.551  30.665  28.130  1.00  0.00     0.251 C 
ATOM     28  H   UNL A   1      32.699  30.395  27.385  1.00  0.00     0.163 HD
ATOM     29  O   UNL A   1      34.324  31.789  28.563  1.00  0.00    -0.269 OA
BRANCH  27  30
ATOM     30  C   UNL A   1      35.871  30.036  28.318  1.00  0.00     0.039 A 
ATOM     31  C   UNL A   1      36.813  30.138  27.293  1.00  0.00     0.014 A 
ATOM     32  C   UNL A   1      36.201  29.443  29.541  1.00  0.00     0.014 A 
ATOM     33  C   UNL A   1      38.123  29.720  27.527  1.00  0.00     0.010 A 
ATOM     34  C   UNL A   1      37.520  29.078  29.789  1.00  0.00     0.010 A 
ATOM     35  C   UNL A   1      38.495  29.230  28.791  1.00  0.00    -0.014 A 
BRANCH  35  36
ATOM     36  C   UNL A   1      39.910  28.913  29.092  1.00  0.00     0.031 A 
ATOM     37  C   UNL A   1      40.776  29.917  29.795  1.00  0.00     0.074 A 
ATOM     38  C   UNL A   1      40.424  27.736  28.685  1.00  0.00     0.049 A 
ATOM     39  N   UNL A   1      42.038  29.827  30.122  1.00  0.00    -0.248 NA
ATOM     40  C   UNL A   1      40.150  31.199  30.155  1.00  0.00     0.031 C 
ATOM     41  C   UNL A   1      39.692  26.704  27.945  1.00  0.00     0.029 A 
ATOM     42  N   UNL A   1      41.681  27.206  28.834  1.00  0.00    -0.354 N 
ATOM     43  C   UNL A   1      42.359  31.037  30.722  1.00  0.00     0.074 A 
ATOM     44  C   UNL A   1      41.173  31.865  30.670  1.00  0.00     0.031 C 
ATOM     45  C   UNL A   1      40.502  25.652  27.738  1.00  0.00     0.029 A 
ATOM     46  C   UNL A   1      41.814  25.943  28.307  1.00  0.00     0.049 A 
ATOM     47  H   UNL A   1      42.418  27.685  29.277  1.00  0.00     0.167 HD
ATOM     48  C   UNL A   1      43.529  31.413  31.291  1.00  0.00     0.037 A 
ATOM     49  C   UNL A   1      42.872  25.109  28.296  1.00  0.00     0.037 A 
ATOM     50  C   UNL A   1      44.694  30.576  31.367  1.00  0.00     0.049 A 
ATOM     51  C   UNL A   1      44.154  25.542  28.948  1.00  0.00     0.074 A 
ATOM     52  C   UNL A   1      45.913  30.850  31.962  1.00  0.00     0.029 A 
ATOM     53  N   UNL A   1      44.785  29.298  30.836  1.00  0.00    -0.354 N 
ATOM     54  N   UNL A   1      44.425  26.672  29.557  1.00  0.00    -0.248 NA
ATOM     55  C   UNL A   1      45.274  24.590  28.917  1.00  0.00     0.031 C 
ATOM     56  C   UNL A   1      46.748  29.743  31.775  1.00  0.00     0.029 A 
ATOM     57  C   UNL A   1      46.040  28.771  31.085  1.00  0.00     0.049 A 
ATOM     58  H   UNL A   1      44.063  28.833  30.354  1.00  0.00     0.167 HD
ATOM     59  C   UNL A   1      45.737  26.560  29.998  1.00  0.00     0.074 A 
ATOM     60  C   UNL A   1      46.207  25.251  29.590  1.00  0.00     0.031 C 
ATOM     61  C   UNL A   1      46.483  27.461  30.681  1.00  0.00     0.037 A 
BRANCH  48  62
ATOM     62  C   UNL A   1      43.590  32.785  31.896  1.00  0.00     0.058 A 
ATOM     63  C   UNL A   1      43.193  33.012  33.222  1.00  0.00     0.135 A 
ATOM     64  C   UNL A   1      44.067  33.877  31.155  1.00  0.00     0.135 A 
ATOM     65  F   UNL A   1      42.713  32.003  33.967  1.00  0.00    -0.206 F 
ATOM     66  C   UNL A   1      43.241  34.281  33.787  1.00  0.00     0.059 A 
ATOM     67  C   UNL A   1      44.144  35.153  31.707  1.00  0.00     0.059 A 
ATOM     68  F   UNL A   1      44.456  33.712  29.880  1.00  0.00    -0.206 F 
ATOM     69  C   UNL A   1      43.715  35.346  33.020  1.00  0.00     0.060 A 
BRANCH  69  70
ATOM     70  S   UNL A   1      43.766  36.990  33.765  1.00  0.00     0.124 S 
ATOM     71  O   UNL A   1      43.600  37.844  32.593  1.00  0.00    -0.237 OA
ATOM     72  O   UNL A   1      42.637  36.952  34.688  1.00  0.00    -0.237 OA
ATOM     73  O   UNL A   1      45.083  37.036  34.393  1.00  0.00    -0.744 OA
ENDBRANCH  69  70
ENDBRANCH  48  62
BRANCH  49  74
ATOM     74  C   UNL A   1      42.737  23.759  27.693  1.00  0.00     0.058 A 
ATOM     75  C   UNL A   1      42.965  23.564  26.324  1.00  0.00     0.135 A 
ATOM     76  C   UNL A   1      42.422  22.636  28.473  1.00  0.00     0.135 A 
ATOM     77  F   UNL A   1      43.266  24.611  25.539  1.00  0.00    -0.206 F 
ATOM     78  C   UNL A   1      42.884  22.303  25.744  1.00  0.00     0.059 A 
ATOM     79  C   UNL A   1      42.350  21.361  27.919  1.00  0.00     0.059 A 
ATOM     80  F   UNL A   1      42.212  22.771  29.792  1.00  0.00    -0.206 F 
ATOM     81  C   UNL A   1      42.579  21.206  26.552  1.00  0.00     0.060 A 
BRANCH  81  82
ATOM     82  S   UNL A   1      42.546  19.563  25.803  1.00  0.00     0.124 S 
ATOM     83  O   UNL A   1      41.136  19.426  25.459  1.00  0.00    -0.237 OA
ATOM     84  O   UNL A   1      43.466  19.718  24.680  1.00  0.00    -0.237 OA
ATOM     85  O   UNL A   1      43.023  18.697  26.877  1.00  0.00    -0.744 OA
ENDBRANCH  81  82
ENDBRANCH  49  74
BRANCH  61  86
ATOM     86  C   UNL A   1      47.883  27.070  31.051  1.00  0.00     0.058 A 
ATOM     87  C   UNL A   1      48.157  26.406  32.255  1.00  0.00     0.135 A 
ATOM     88  C   UNL A   1      48.938  27.264  30.146  1.00  0.00     0.135 A 
ATOM     89  F   UNL A   1      47.181  26.205  33.154  1.00  0.00    -0.206 F 
ATOM     90  C   UNL A   1      49.433  25.936  32.546  1.00  0.00     0.059 A 
ATOM     91  C   UNL A   1      50.218  26.788  30.410  1.00  0.00     0.059 A 
ATOM     92  F   UNL A   1      48.720  27.890  28.979  1.00  0.00    -0.206 F 
ATOM     93  C   UNL A   1      50.456  26.123  31.612  1.00  0.00     0.060 A 
BRANCH  93  94
ATOM     94  S   UNL A   1      52.086  25.433  31.964  1.00  0.00     0.124 S 
ATOM     95  O   UNL A   1      52.417  26.086  33.225  1.00  0.00    -0.237 OA
ATOM     96  O   UNL A   1      51.809  24.001  32.045  1.00  0.00    -0.237 OA
ATOM     97  O   UNL A   1      52.885  25.845  30.813  1.00  0.00    -0.744 OA
ENDBRANCH  93  94
ENDBRANCH  61  86
ENDBRANCH  35  36
ENDBRANCH  27  30
ENDBRANCH  25  26
ENDBRANCH   1  25
TORSDOF 15
ENDMDL
MODEL 2
REMARK VINA RESULT:     -11.6      3.161      9.461
REMARK SMILES Cc1cc2c(c(C)c1Cl)C=C(C(=O)NCCCCNC(=O)c1ccc(-c3c4nc(c(-c5c(F)cc(S(=O)(=O)[O-])cc5F)c5ccc([nH]5)c(-c5c(F)cc(S(=O)(=O)[O-])cc5F)c5nc(c(-c6c(F)cc(S(=O)(=O)[O-])cc6F)c6ccc3[nH]6)C=C5)C=C4)cc1)[C@@H](C(F)(F)F)O2
REMARK SMILES IDX 17 1 16 2 15 3 14 4 12 5 13 6 11 8 1 9 2 10 3 11 8 12 4 13
REMARK SMILES IDX 6 14 9 15 5 16 93 17 7 18 10 19 88 20 89 21 90 22 91 23
REMARK SMILES IDX 92 24 18 25 19 26 20 27 21 29 22 30 23 31 87 32 24 33 86 34
REMARK SMILES IDX 25 35 26 36 27 37 80 38 28 39 85 40 79 41 81 42 29 43 84 44
REMARK SMILES IDX 78 45 77 46 30 48 64 49 43 50 63 51 44 52 47 53 62 54 82 55
REMARK SMILES IDX 45 56 46 57 61 59 83 60 48 61 31 62 32 63 41 64 33 65 34 66
REMARK SMILES IDX 40 67 42 68 35 69 36 70 37 71 38 72 39 73 65 74 66 75 75 76
REMARK SMILES IDX 67 77 68 78 74 79 76 80 69 81 70 82 71 83 72 84 73 85 49 86
REMARK SMILES IDX 50 87 59 88 51 89 52 90 58 91 60 92 53 93 54 94 55 95 56 96
REMARK SMILES IDX 57 97
REMARK H PARENT 14 7 19 28 81 47 47 58
REMARK Flexibility Score: inf
ROOT
ATOM      1  C   UNL A   1      35.733  23.001  26.312  1.00  0.00     0.023 C 
ENDROOT
BRANCH   1   2
ATOM      2  C   UNL A   1      34.444  23.826  26.364  1.00  0.00     0.023 C 
BRANCH   2   3
ATOM      3  C   UNL A   1      33.410  23.446  25.306  1.00  0.00     0.116 C 
BRANCH   3   4
ATOM      4  N   UNL A   1      33.772  23.941  23.990  1.00  0.00    -0.352 N 
ATOM      5  C   UNL A   1      33.616  25.087  23.287  1.00  0.00     0.251 C 
ATOM      6  O   UNL A   1      34.097  25.074  22.150  1.00  0.00    -0.270 OA
ATOM      7  H   UNL A   1      34.262  23.263  23.472  1.00  0.00     0.163 HD
BRANCH   5   8
ATOM      8  C   UNL A   1      32.929  26.319  23.779  1.00  0.00     0.067 C 
ATOM      9  C   UNL A   1      31.156  31.961  26.516  1.00  0.00     0.046 C 
ATOM     10  C   UNL A   1      31.849  30.703  26.065  1.00  0.00    -0.028 A 
ATOM     11  C   UNL A   1      31.251  29.930  25.066  1.00  0.00     0.052 A 
ATOM     12  C   UNL A   1      33.070  30.271  26.623  1.00  0.00     0.047 A 
ATOM     13  C   UNL A   1      31.852  28.754  24.628  1.00  0.00     0.128 A 
ATOM     14  C   UNL A   1      33.698  29.081  26.180  1.00  0.00    -0.021 A 
ATOM     15  Cl  UNL A   1      33.796  31.243  27.870  1.00  0.00    -0.084 Cl
ATOM     16  C   UNL A   1      33.073  28.326  25.155  1.00  0.00     0.022 A 
ATOM     17  O   UNL A   1      31.195  28.091  23.630  1.00  0.00    -0.475 OA
ATOM     18  C   UNL A   1      35.011  28.608  26.756  1.00  0.00     0.047 C 
ATOM     19  C   UNL A   1      33.666  27.115  24.577  1.00  0.00     0.026 C 
ATOM     20  C   UNL A   1      31.505  26.679  23.480  1.00  0.00     0.314 C 
BRANCH  20  21
ATOM     21  C   UNL A   1      30.497  25.844  24.292  1.00  0.00     0.429 C 
ATOM     22  F   UNL A   1      29.278  26.440  24.290  1.00  0.00    -0.167 F 
ATOM     23  F   UNL A   1      30.319  24.603  23.780  1.00  0.00    -0.167 F 
ATOM     24  F   UNL A   1      30.868  25.689  25.583  1.00  0.00    -0.167 F 
ENDBRANCH  20  21
ENDBRANCH   5   8
ENDBRANCH   3   4
ENDBRANCH   2   3
ENDBRANCH   1   2
BRANCH   1  25
ATOM     25  C   UNL A   1      36.936  23.693  25.671  1.00  0.00     0.116 C 
BRANCH  25  26
ATOM     26  N   UNL A   1      38.158  22.904  25.699  1.00  0.00    -0.352 N 
ATOM     27  C   UNL A   1      39.364  23.240  26.271  1.00  0.00     0.251 C 
ATOM     28  H   UNL A   1      38.118  22.026  25.255  1.00  0.00     0.163 HD
ATOM     29  O   UNL A   1      40.335  22.499  26.168  1.00  0.00    -0.269 OA
BRANCH  27  30
ATOM     30  C   UNL A   1      39.474  24.538  26.963  1.00  0.00     0.039 A 
ATOM     31  C   UNL A   1      38.986  24.644  28.266  1.00  0.00     0.014 A 
ATOM     32  C   UNL A   1      40.148  25.604  26.359  1.00  0.00     0.014 A 
ATOM     33  C   UNL A   1      39.252  25.799  29.002  1.00  0.00     0.010 A 
ATOM     34  C   UNL A   1      40.459  26.730  27.113  1.00  0.00     0.010 A 
ATOM     35  C   UNL A   1      40.029  26.829  28.445  1.00  0.00    -0.014 A 
BRANCH  35  36
ATOM     36  C   UNL A   1      40.434  27.998  29.262  1.00  0.00     0.031 A 
ATOM     37  C   UNL A   1      41.779  28.026  29.925  1.00  0.00     0.074 A 
ATOM     38  C   UNL A   1      39.563  29.009  29.444  1.00  0.00     0.049 A 
ATOM     39  N   UNL A   1      42.297  28.948  30.693  1.00  0.00    -0.248 NA
ATOM     40  C   UNL A   1      42.646  26.855  29.719  1.00  0.00     0.031 C 
ATOM     41  C   UNL A   1      38.205  29.066  28.892  1.00  0.00     0.029 A 
ATOM     42  N   UNL A   1      39.685  30.185  30.141  1.00  0.00    -0.354 N 
ATOM     43  C   UNL A   1      43.547  28.470  31.065  1.00  0.00     0.074 A 
ATOM     44  C   UNL A   1      43.689  27.154  30.480  1.00  0.00     0.031 C 
ATOM     45  C   UNL A   1      37.637  30.232  29.243  1.00  0.00     0.029 A 
ATOM     46  C   UNL A   1      38.576  30.993  30.061  1.00  0.00     0.049 A 
ATOM     47  H   UNL A   1      40.492  30.426  30.650  1.00  0.00     0.167 HD
ATOM     48  C   UNL A   1      44.499  29.085  31.804  1.00  0.00     0.037 A 
ATOM     49  C   UNL A   1      38.348  32.215  30.578  1.00  0.00     0.037 A 
ATOM     50  C   UNL A   1      44.364  30.404  32.358  1.00  0.00     0.049 A 
ATOM     51  C   UNL A   1      39.426  32.885  31.382  1.00  0.00     0.074 A 
ATOM     52  C   UNL A   1      45.290  31.132  33.085  1.00  0.00     0.029 A 
ATOM     53  N   UNL A   1      43.232  31.197  32.243  1.00  0.00    -0.354 N 
ATOM     54  N   UNL A   1      40.623  32.439  31.681  1.00  0.00    -0.248 NA
ATOM     55  C   UNL A   1      39.130  34.223  31.915  1.00  0.00     0.031 C 
ATOM     56  C   UNL A   1      44.711  32.359  33.423  1.00  0.00     0.029 A 
ATOM     57  C   UNL A   1      43.433  32.405  32.887  1.00  0.00     0.049 A 
ATOM     58  H   UNL A   1      42.407  30.940  31.770  1.00  0.00     0.167 HD
ATOM     59  C   UNL A   1      41.229  33.447  32.420  1.00  0.00     0.074 A 
ATOM     60  C   UNL A   1      40.270  34.529  32.520  1.00  0.00     0.031 C 
ATOM     61  C   UNL A   1      42.469  33.473  32.964  1.00  0.00     0.037 A 
BRANCH  48  62
ATOM     62  C   UNL A   1      45.781  28.339  32.033  1.00  0.00     0.058 A 
ATOM     63  C   UNL A   1      45.944  27.499  33.144  1.00  0.00     0.135 A 
ATOM     64  C   UNL A   1      46.847  28.446  31.126  1.00  0.00     0.135 A 
ATOM     65  F   UNL A   1      44.960  27.377  34.050  1.00  0.00    -0.206 F 
ATOM     66  C   UNL A   1      47.131  26.810  33.366  1.00  0.00     0.059 A 
ATOM     67  C   UNL A   1      48.037  27.749  31.317  1.00  0.00     0.059 A 
ATOM     68  F   UNL A   1      46.742  29.241  30.048  1.00  0.00    -0.206 F 
ATOM     69  C   UNL A   1      48.174  26.945  32.448  1.00  0.00     0.060 A 
BRANCH  69  70
ATOM     70  S   UNL A   1      49.711  26.049  32.752  1.00  0.00     0.124 S 
ATOM     71  O   UNL A   1      50.374  26.929  33.709  1.00  0.00    -0.237 OA
ATOM     72  O   UNL A   1      49.234  24.777  33.285  1.00  0.00    -0.237 OA
ATOM     73  O   UNL A   1      50.329  25.979  31.431  1.00  0.00    -0.744 OA
ENDBRANCH  69  70
ENDBRANCH  48  62
BRANCH  49  74
ATOM     74  C   UNL A   1      37.062  32.903  30.300  1.00  0.00     0.058 A 
ATOM     75  C   UNL A   1      36.030  32.897  31.250  1.00  0.00     0.135 A 
ATOM     76  C   UNL A   1      36.852  33.612  29.107  1.00  0.00     0.135 A 
ATOM     77  F   UNL A   1      36.187  32.229  32.404  1.00  0.00    -0.206 F 
ATOM     78  C   UNL A   1      34.833  33.568  31.029  1.00  0.00     0.059 A 
ATOM     79  C   UNL A   1      35.668  34.303  28.869  1.00  0.00     0.059 A 
ATOM     80  F   UNL A   1      37.817  33.659  28.176  1.00  0.00    -0.206 F 
ATOM     81  C   UNL A   1      34.663  34.271  29.835  1.00  0.00     0.060 A 
BRANCH  81  82
ATOM     82  S   UNL A   1      33.131  35.197  29.587  1.00  0.00     0.124 S 
ATOM     83  O   UNL A   1      32.528  34.474  28.475  1.00  0.00    -0.237 OA
ATOM     84  O   UNL A   1      32.469  35.047  30.880  1.00  0.00    -0.237 OA
ATOM     85  O   UNL A   1      33.602  36.546  29.287  1.00  0.00    -0.744 OA
ENDBRANCH  81  82
ENDBRANCH  49  74
BRANCH  61  86
ATOM     86  C   UNL A   1      42.880  34.711  33.706  1.00  0.00     0.058 A 
ATOM     87  C   UNL A   1      42.800  34.779  35.104  1.00  0.00     0.135 A 
ATOM     88  C   UNL A   1      43.459  35.790  33.021  1.00  0.00     0.135 A 
ATOM     89  F   UNL A   1      42.247  33.773  35.800  1.00  0.00    -0.206 F 
ATOM     90  C   UNL A   1      43.291  35.877  35.802  1.00  0.00     0.059 A 
ATOM     91  C   UNL A   1      43.971  36.891  33.701  1.00  0.00     0.059 A 
ATOM     92  F   UNL A   1      43.561  35.765  31.683  1.00  0.00    -0.206 F 
ATOM     93  C   UNL A   1      43.884  36.924  35.092  1.00  0.00     0.060 A 
BRANCH  93  94
ATOM     94  S   UNL A   1      44.595  38.302  36.016  1.00  0.00     0.124 S 
ATOM     95  O   UNL A   1      46.011  37.948  36.030  1.00  0.00    -0.237 OA
ATOM     96  O   UNL A   1      44.237  39.451  35.190  1.00  0.00    -0.237 OA
ATOM     97  O   UNL A   1      43.916  38.231  37.307  1.00  0.00    -0.744 OA
ENDBRANCH  93  94
ENDBRANCH  61  86
ENDBRANCH  35  36
ENDBRANCH  27  30
ENDBRANCH  25  26
ENDBRANCH   1  25
TORSDOF 15
ENDMDL
MODEL 3
REMARK VINA RESULT:     -11.6      4.682     10.395
REMARK SMILES Cc1cc2c(c(C)c1Cl)C=C(C(=O)NCCCCNC(=O)c1ccc(-c3c4nc(c(-c5c(F)cc(S(=O)(=O)[O-])cc5F)c5ccc([nH]5)c(-c5c(F)cc(S(=O)(=O)[O-])cc5F)c5nc(c(-c6c(F)cc(S(=O)(=O)[O-])cc6F)c6ccc3[nH]6)C=C5)C=C4)cc1)[C@@H](C(F)(F)F)O2
REMARK SMILES IDX 17 1 16 2 15 3 14 4 12 5 13 6 11 8 1 9 2 10 3 11 8 12 4 13
REMARK SMILES IDX 6 14 9 15 5 16 93 17 7 18 10 19 88 20 89 21 90 22 91 23
REMARK SMILES IDX 92 24 18 25 19 26 20 27 21 29 22 30 23 31 87 32 24 33 86 34
REMARK SMILES IDX 25 35 26 36 27 37 80 38 28 39 85 40 79 41 81 42 29 43 84 44
REMARK SMILES IDX 78 45 77 46 30 48 64 49 43 50 63 51 44 52 47 53 62 54 82 55
REMARK SMILES IDX 45 56 46 57 61 59 83 60 48 61 31 62 32 63 41 64 33 65 34 66
REMARK SMILES IDX 40 67 42 68 35 69 36 70 37 71 38 72 39 73 65 74 66 75 75 76
REMARK SMILES IDX 67 77 68 78 74 79 76 80 69 81 70 82 71 83 72 84 73 85 49 86
REMARK SMILES IDX 50 87 59 88 51 89 52 90 58 91 60 92 53 93 54 94 55 95 56 96
REMARK SMILES IDX 57 97
REMARK H PARENT 14 7 19 28 81 47 47 58
REMARK Flexibility Score: inf
ROOT
ATOM      1  C   UNL A   1      37.231  23.746  25.156  1.00  0.00     0.023 C 
ENDROOT
BRANCH   1   2
ATOM      2  C   UNL A   1      37.242  22.282  24.708  1.00  0.00     0.023 C 
BRANCH   2   3
ATOM      3  C   UNL A   1      36.811  21.291  25.786  1.00  0.00     0.116 C 
BRANCH   3   4
ATOM      4  N   UNL A   1      35.929  20.264  25.260  1.00  0.00    -0.352 N 
ATOM      5  C   UNL A   1      34.619  20.155  24.938  1.00  0.00     0.251 C 
ATOM      6  O   UNL A   1      34.273  19.051  24.509  1.00  0.00    -0.270 OA
ATOM      7  H   UNL A   1      36.412  19.424  25.092  1.00  0.00     0.163 HD
BRANCH   5   8
ATOM      8  C   UNL A   1      33.603  21.245  25.059  1.00  0.00     0.067 C 
ATOM      9  C   UNL A   1      29.520  26.263  24.275  1.00  0.00     0.046 C 
ATOM     10  C   UNL A   1      30.577  25.199  24.151  1.00  0.00    -0.028 A 
ATOM     11  C   UNL A   1      30.645  24.204  25.130  1.00  0.00     0.052 A 
ATOM     12  C   UNL A   1      31.508  25.178  23.092  1.00  0.00     0.047 A 
ATOM     13  C   UNL A   1      31.613  23.207  25.060  1.00  0.00     0.128 A 
ATOM     14  C   UNL A   1      32.493  24.164  23.003  1.00  0.00    -0.021 A 
ATOM     15  Cl  UNL A   1      31.412  26.428  21.886  1.00  0.00    -0.084 Cl
ATOM     16  C   UNL A   1      32.528  23.161  24.004  1.00  0.00     0.022 A 
ATOM     17  O   UNL A   1      31.572  22.272  26.055  1.00  0.00    -0.475 OA
ATOM     18  C   UNL A   1      33.491  24.117  21.869  1.00  0.00     0.047 C 
ATOM     19  C   UNL A   1      33.462  22.031  23.975  1.00  0.00     0.026 C 
ATOM     20  C   UNL A   1      32.798  21.527  26.292  1.00  0.00     0.314 C 
BRANCH  20  21
ATOM     21  C   UNL A   1      33.618  22.227  27.392  1.00  0.00     0.429 C 
ATOM     22  F   UNL A   1      34.460  21.345  27.988  1.00  0.00    -0.167 F 
ATOM     23  F   UNL A   1      34.390  23.227  26.907  1.00  0.00    -0.167 F 
ATOM     24  F   UNL A   1      32.841  22.761  28.361  1.00  0.00    -0.167 F 
ENDBRANCH  20  21
ENDBRANCH   5   8
ENDBRANCH   3   4
ENDBRANCH   2   3
ENDBRANCH   1   2
BRANCH   1  25
ATOM     25  C   UNL A   1      38.126  24.079  26.349  1.00  0.00     0.116 C 
BRANCH  25  26
ATOM     26  N   UNL A   1      39.547  23.893  26.094  1.00  0.00    -0.352 N 
ATOM     27  C   UNL A   1      40.596  24.628  26.599  1.00  0.00     0.251 C 
ATOM     28  H   UNL A   1      39.787  23.154  25.489  1.00  0.00     0.163 HD
ATOM     29  O   UNL A   1      41.748  24.397  26.252  1.00  0.00    -0.269 OA
BRANCH  27  30
ATOM     30  C   UNL A   1      40.294  25.737  27.524  1.00  0.00     0.039 A 
ATOM     31  C   UNL A   1      39.397  25.511  28.568  1.00  0.00     0.014 A 
ATOM     32  C   UNL A   1      40.976  26.953  27.412  1.00  0.00     0.014 A 
ATOM     33  C   UNL A   1      39.247  26.480  29.560  1.00  0.00     0.010 A 
ATOM     34  C   UNL A   1      40.865  27.893  28.431  1.00  0.00     0.010 A 
ATOM     35  C   UNL A   1      40.014  27.657  29.521  1.00  0.00    -0.014 A 
BRANCH  35  36
ATOM     36  C   UNL A   1      39.965  28.629  30.638  1.00  0.00     0.031 A 
ATOM     37  C   UNL A   1      40.888  28.479  31.811  1.00  0.00     0.074 A 
ATOM     38  C   UNL A   1      39.049  29.617  30.613  1.00  0.00     0.049 A 
ATOM     39  N   UNL A   1      40.975  29.215  32.888  1.00  0.00    -0.248 NA
ATOM     40  C   UNL A   1      41.818  27.340  31.783  1.00  0.00     0.031 C 
ATOM     41  C   UNL A   1      38.063  29.829  29.550  1.00  0.00     0.029 A 
ATOM     42  N   UNL A   1      38.798  30.630  31.504  1.00  0.00    -0.354 N 
ATOM     43  C   UNL A   1      41.964  28.629  33.666  1.00  0.00     0.074 A 
ATOM     44  C   UNL A   1      42.413  27.448  32.963  1.00  0.00     0.031 C 
ATOM     45  C   UNL A   1      37.339  30.925  29.833  1.00  0.00     0.029 A 
ATOM     46  C   UNL A   1      37.792  31.478  31.106  1.00  0.00     0.049 A 
ATOM     47  H   UNL A   1      39.291  30.739  32.348  1.00  0.00     0.167 HD
ATOM     48  C   UNL A   1      42.470  29.054  34.848  1.00  0.00     0.037 A 
ATOM     49  C   UNL A   1      37.299  32.585  31.695  1.00  0.00     0.037 A 
ATOM     50  C   UNL A   1      42.040  30.246  35.528  1.00  0.00     0.049 A 
ATOM     51  C   UNL A   1      37.888  33.047  32.998  1.00  0.00     0.074 A 
ATOM     52  C   UNL A   1      42.523  30.784  36.707  1.00  0.00     0.029 A 
ATOM     53  N   UNL A   1      41.031  31.086  35.086  1.00  0.00    -0.354 N 
ATOM     54  N   UNL A   1      38.859  32.508  33.696  1.00  0.00    -0.248 NA
ATOM     55  C   UNL A   1      37.322  34.266  33.594  1.00  0.00     0.031 C 
ATOM     56  C   UNL A   1      41.792  31.943  36.988  1.00  0.00     0.029 A 
ATOM     57  C   UNL A   1      40.871  32.138  35.970  1.00  0.00     0.049 A 
ATOM     58  H   UNL A   1      40.505  30.956  34.263  1.00  0.00     0.167 HD
ATOM     59  C   UNL A   1      39.034  33.331  34.802  1.00  0.00     0.074 A 
ATOM     60  C   UNL A   1      38.071  34.407  34.680  1.00  0.00     0.031 C 
ATOM     61  C   UNL A   1      39.914  33.206  35.823  1.00  0.00     0.037 A 
BRANCH  48  62
ATOM     62  C   UNL A   1      43.564  28.232  35.463  1.00  0.00     0.058 A 
ATOM     63  C   UNL A   1      44.907  28.431  35.110  1.00  0.00     0.135 A 
ATOM     64  C   UNL A   1      43.274  27.254  36.426  1.00  0.00     0.135 A 
ATOM     65  F   UNL A   1      45.235  29.343  34.180  1.00  0.00    -0.206 F 
ATOM     66  C   UNL A   1      45.926  27.669  35.671  1.00  0.00     0.059 A 
ATOM     67  C   UNL A   1      44.279  26.494  37.017  1.00  0.00     0.059 A 
ATOM     68  F   UNL A   1      42.003  27.023  36.795  1.00  0.00    -0.206 F 
ATOM     69  C   UNL A   1      45.601  26.699  36.621  1.00  0.00     0.060 A 
BRANCH  69  70
ATOM     70  S   UNL A   1      46.933  25.713  37.337  1.00  0.00     0.124 S 
ATOM     71  O   UNL A   1      46.643  24.393  36.787  1.00  0.00    -0.237 OA
ATOM     72  O   UNL A   1      48.126  26.370  36.814  1.00  0.00    -0.237 OA
ATOM     73  O   UNL A   1      46.723  25.854  38.775  1.00  0.00    -0.744 OA
ENDBRANCH  69  70
ENDBRANCH  48  62
BRANCH  49  74
ATOM     74  C   UNL A   1      36.226  33.361  31.023  1.00  0.00     0.058 A 
ATOM     75  C   UNL A   1      34.941  33.427  31.580  1.00  0.00     0.135 A 
ATOM     76  C   UNL A   1      36.470  34.080  29.844  1.00  0.00     0.135 A 
ATOM     77  F   UNL A   1      34.662  32.752  32.706  1.00  0.00    -0.206 F 
ATOM     78  C   UNL A   1      33.930  34.179  30.990  1.00  0.00     0.059 A 
ATOM     79  C   UNL A   1      35.479  34.851  29.243  1.00  0.00     0.059 A 
ATOM     80  F   UNL A   1      37.689  34.058  29.284  1.00  0.00    -0.206 F 
ATOM     81  C   UNL A   1      34.211  34.891  29.823  1.00  0.00     0.060 A 
BRANCH  81  82
ATOM     82  S   UNL A   1      32.913  35.921  29.104  1.00  0.00     0.124 S 
ATOM     83  O   UNL A   1      32.270  34.986  28.189  1.00  0.00    -0.237 OA
ATOM     84  O   UNL A   1      32.135  36.300  30.280  1.00  0.00    -0.237 OA
ATOM     85  O   UNL A   1      33.658  37.009  28.479  1.00  0.00    -0.744 OA
ENDBRANCH  81  82
ENDBRANCH  49  74
BRANCH  61  86
ATOM     86  C   UNL A   1      39.899  34.260  36.890  1.00  0.00     0.058 A 
ATOM     87  C   UNL A   1      40.657  35.432  36.764  1.00  0.00     0.135 A 
ATOM     88  C   UNL A   1      39.036  34.144  37.991  1.00  0.00     0.135 A 
ATOM     89  F   UNL A   1      41.502  35.583  35.731  1.00  0.00    -0.206 F 
ATOM     90  C   UNL A   1      40.554  36.463  37.691  1.00  0.00     0.059 A 
ATOM     91  C   UNL A   1      38.905  35.169  38.922  1.00  0.00     0.059 A 
ATOM     92  F   UNL A   1      38.288  33.041  38.150  1.00  0.00    -0.206 F 
ATOM     93  C   UNL A   1      39.667  36.326  38.763  1.00  0.00     0.060 A 
BRANCH  93  94
ATOM     94  S   UNL A   1      39.478  37.706  39.911  1.00  0.00     0.124 S 
ATOM     95  O   UNL A   1      39.468  37.020  41.198  1.00  0.00    -0.237 OA
ATOM     96  O   UNL A   1      40.663  38.512  39.630  1.00  0.00    -0.237 OA
ATOM     97  O   UNL A   1      38.210  38.310  39.510  1.00  0.00    -0.744 OA
ENDBRANCH  93  94
ENDBRANCH  61  86
ENDBRANCH  35  36
ENDBRANCH  27  30
ENDBRANCH  25  26
ENDBRANCH   1  25
TORSDOF 15
ENDMDL
