MODEL 1
REMARK VINA RESULT:     -11.0      0.000      0.000
REMARK SMILES N#C[C@@H]1CN(C(=O)NCCCC(=O)NCCCCNC(=O)c2ccc(-c3c4nc(c(-c5c(F)cc(S(=O)(=O)[O-])cc5F)c5ccc([nH]5)c(-c5c(F)cc(S(=O)(=O)[O-])cc5F)c5nc(c(-c6c(F)cc(S(=O)(=O)[O-])cc6F)c6ccc3[nH]6)C=C5)C=C4)cc2)CCO1
REMARK SMILES IDX 15 1 14 2 12 3 13 4 11 6 10 7 9 8 8 9 6 10 7 11 5 13 3 14
REMARK SMILES IDX 4 15 90 16 89 17 88 18 2 19 1 20 16 21 17 22 18 23 19 24
REMARK SMILES IDX 20 25 21 27 22 28 23 29 87 30 24 31 86 32 25 33 26 34 27 35
REMARK SMILES IDX 80 36 28 37 85 38 79 39 81 40 29 41 84 42 78 43 77 44 30 46
REMARK SMILES IDX 64 47 43 48 63 49 44 50 47 51 62 52 82 53 45 54 46 55 61 57
REMARK SMILES IDX 83 58 48 59 31 60 32 61 41 62 33 63 34 64 40 65 42 66 35 67
REMARK SMILES IDX 36 68 37 69 38 70 39 71 65 72 66 73 75 74 67 75 68 76 74 77
REMARK SMILES IDX 76 78 69 79 70 80 71 81 72 82 73 83 49 84 50 85 59 86 51 87
REMARK SMILES IDX 52 88 58 89 60 90 53 91 54 92 55 93 56 94 57 95
REMARK H PARENT 14 5 8 12 19 26 81 45 47 56
REMARK Flexibility Score: inf
ROOT
ATOM      1  C   UNL A   1      39.315  21.002  26.051  1.00  0.00     0.116 C 
ENDROOT
BRANCH   1   2
ATOM      2  N   UNL A   1      38.663  22.260  26.369  1.00  0.00    -0.356 N 
ATOM      3  C   UNL A   1      37.721  22.957  25.678  1.00  0.00     0.220 C 
ATOM      4  O   UNL A   1      37.430  24.093  26.054  1.00  0.00    -0.275 OA
ATOM      5  H   UNL A   1      38.946  22.672  27.217  1.00  0.00     0.163 HD
BRANCH   3   6
ATOM      6  C   UNL A   1      37.039  22.348  24.469  1.00  0.00     0.102 C 
BRANCH   6   7
ATOM      7  C   UNL A   1      35.554  22.061  24.702  1.00  0.00     0.031 C 
BRANCH   7   8
ATOM      8  C   UNL A   1      35.259  21.119  25.868  1.00  0.00     0.118 C 
BRANCH   8   9
ATOM      9  N   UNL A   1      33.845  20.817  26.006  1.00  0.00    -0.338 N 
ATOM     10  C   UNL A   1      32.964  20.063  25.323  1.00  0.00     0.317 C 
ATOM     11  O   UNL A   1      31.781  20.235  25.626  1.00  0.00    -0.249 OA
ATOM     12  H   UNL A   1      33.436  21.270  26.778  1.00  0.00     0.165 HD
BRANCH  10  13
ATOM     13  N   UNL A   1      33.338  19.190  24.344  1.00  0.00    -0.319 N 
ATOM     14  C   UNL A   1      34.069  16.872  23.754  1.00  0.00     0.240 C 
ATOM     15  C   UNL A   1      34.449  18.234  24.352  1.00  0.00     0.169 C 
ATOM     16  O   UNL A   1      33.483  17.038  22.443  1.00  0.00    -0.360 OA
ATOM     17  C   UNL A   1      32.304  17.858  22.494  1.00  0.00     0.183 C 
ATOM     18  C   UNL A   1      32.608  19.244  23.066  1.00  0.00     0.150 C 
BRANCH  14  19
ATOM     19  C   UNL A   1      33.145  16.107  24.687  1.00  0.00     0.096 C 
ATOM     20  N   UNL A   1      32.378  15.473  25.461  1.00  0.00    -0.195 NA
ENDBRANCH  14  19
ENDBRANCH  10  13
ENDBRANCH   8   9
ENDBRANCH   7   8
ENDBRANCH   6   7
ENDBRANCH   3   6
ENDBRANCH   1   2
BRANCH   1  21
ATOM     21  C   UNL A   1      40.703  20.946  26.681  1.00  0.00     0.023 C 
BRANCH  21  22
ATOM     22  C   UNL A   1      40.946  21.998  27.763  1.00  0.00     0.023 C 
BRANCH  22  23
ATOM     23  C   UNL A   1      42.024  23.021  27.426  1.00  0.00     0.116 C 
BRANCH  23  24
ATOM     24  N   UNL A   1      41.735  23.834  26.253  1.00  0.00    -0.352 N 
ATOM     25  C   UNL A   1      41.468  25.181  26.172  1.00  0.00     0.251 C 
ATOM     26  H   UNL A   1      41.729  23.352  25.395  1.00  0.00     0.163 HD
ATOM     27  O   UNL A   1      41.196  25.711  25.101  1.00  0.00    -0.269 OA
BRANCH  25  28
ATOM     28  C   UNL A   1      41.425  25.971  27.418  1.00  0.00     0.039 A 
ATOM     29  C   UNL A   1      42.455  26.883  27.662  1.00  0.00     0.014 A 
ATOM     30  C   UNL A   1      40.331  25.888  28.280  1.00  0.00     0.014 A 
ATOM     31  C   UNL A   1      42.349  27.771  28.731  1.00  0.00     0.010 A 
ATOM     32  C   UNL A   1      40.184  26.831  29.288  1.00  0.00     0.010 A 
ATOM     33  C   UNL A   1      41.192  27.780  29.524  1.00  0.00    -0.014 A 
BRANCH  33  34
ATOM     34  C   UNL A   1      41.011  28.763  30.621  1.00  0.00     0.031 A 
ATOM     35  C   UNL A   1      41.870  28.662  31.851  1.00  0.00     0.074 A 
ATOM     36  C   UNL A   1      40.029  29.682  30.545  1.00  0.00     0.049 A 
ATOM     37  N   UNL A   1      41.797  29.338  32.966  1.00  0.00    -0.248 NA
ATOM     38  C   UNL A   1      42.925  27.634  31.839  1.00  0.00     0.031 C 
ATOM     39  C   UNL A   1      39.095  29.839  29.427  1.00  0.00     0.029 A 
ATOM     40  N   UNL A   1      39.642  30.651  31.435  1.00  0.00    -0.354 N 
ATOM     41  C   UNL A   1      42.772  28.800  33.797  1.00  0.00     0.074 A 
ATOM     42  C   UNL A   1      43.386  27.707  33.077  1.00  0.00     0.031 C 
ATOM     43  C   UNL A   1      38.260  30.859  29.689  1.00  0.00     0.029 A 
ATOM     44  C   UNL A   1      38.575  31.404  31.005  1.00  0.00     0.049 A 
ATOM     45  H   UNL A   1      40.087  30.795  32.302  1.00  0.00     0.167 HD
ATOM     46  C   UNL A   1      43.140  29.197  35.037  1.00  0.00     0.037 A 
ATOM     47  C   UNL A   1      37.923  32.418  31.607  1.00  0.00     0.037 A 
ATOM     48  C   UNL A   1      42.558  30.319  35.724  1.00  0.00     0.049 A 
ATOM     49  C   UNL A   1      38.378  32.870  32.968  1.00  0.00     0.074 A 
ATOM     50  C   UNL A   1      42.903  30.849  36.954  1.00  0.00     0.029 A 
ATOM     51  N   UNL A   1      41.514  31.089  35.233  1.00  0.00    -0.354 N 
ATOM     52  N   UNL A   1      39.338  32.384  33.718  1.00  0.00    -0.248 NA
ATOM     53  C   UNL A   1      37.668  34.011  33.561  1.00  0.00     0.031 C 
ATOM     54  C   UNL A   1      42.050  31.926  37.219  1.00  0.00     0.029 A 
ATOM     55  C   UNL A   1      41.197  32.087  36.138  1.00  0.00     0.049 A 
ATOM     56  H   UNL A   1      41.065  30.946  34.369  1.00  0.00     0.167 HD
ATOM     57  C   UNL A   1      39.364  33.175  34.862  1.00  0.00     0.074 A 
ATOM     58  C   UNL A   1      38.331  34.177  34.699  1.00  0.00     0.031 C 
ATOM     59  C   UNL A   1      40.170  33.080  35.949  1.00  0.00     0.037 A 
BRANCH  46  60
ATOM     60  C   UNL A   1      44.233  28.420  35.717  1.00  0.00     0.058 A 
ATOM     61  C   UNL A   1      43.947  27.342  36.569  1.00  0.00     0.135 A 
ATOM     62  C   UNL A   1      45.580  28.751  35.506  1.00  0.00     0.135 A 
ATOM     63  F   UNL A   1      42.674  26.997  36.820  1.00  0.00    -0.206 F 
ATOM     64  C   UNL A   1      44.957  26.639  37.217  1.00  0.00     0.059 A 
ATOM     65  C   UNL A   1      46.609  28.043  36.123  1.00  0.00     0.059 A 
ATOM     66  F   UNL A   1      45.910  29.774  34.703  1.00  0.00    -0.206 F 
ATOM     67  C   UNL A   1      46.286  27.000  36.991  1.00  0.00     0.060 A 
BRANCH  67  68
ATOM     68  S   UNL A   1      47.586  26.080  37.838  1.00  0.00     0.124 S 
ATOM     69  O   UNL A   1      47.061  26.023  39.199  1.00  0.00    -0.237 OA
ATOM     70  O   UNL A   1      47.602  24.814  37.113  1.00  0.00    -0.237 OA
ATOM     71  O   UNL A   1      48.768  26.918  37.656  1.00  0.00    -0.744 OA
ENDBRANCH  67  68
ENDBRANCH  46  60
BRANCH  47  72
ATOM     72  C   UNL A   1      36.796  33.094  30.914  1.00  0.00     0.058 A 
ATOM     73  C   UNL A   1      35.471  32.877  31.320  1.00  0.00     0.135 A 
ATOM     74  C   UNL A   1      37.016  33.980  29.849  1.00  0.00     0.135 A 
ATOM     75  F   UNL A   1      35.209  32.034  32.331  1.00  0.00    -0.206 F 
ATOM     76  C   UNL A   1      34.401  33.500  30.685  1.00  0.00     0.059 A 
ATOM     77  C   UNL A   1      35.965  34.632  29.212  1.00  0.00     0.059 A 
ATOM     78  F   UNL A   1      38.266  34.235  29.434  1.00  0.00    -0.206 F 
ATOM     79  C   UNL A   1      34.659  34.378  29.631  1.00  0.00     0.060 A 
BRANCH  79  80
ATOM     80  S   UNL A   1      33.268  35.222  28.845  1.00  0.00     0.124 S 
ATOM     81  O   UNL A   1      32.716  34.162  28.009  1.00  0.00    -0.237 OA
ATOM     82  O   UNL A   1      32.458  35.617  29.993  1.00  0.00    -0.237 OA
ATOM     83  O   UNL A   1      33.907  36.324  28.130  1.00  0.00    -0.744 OA
ENDBRANCH  79  80
ENDBRANCH  47  72
BRANCH  59  84
ATOM     84  C   UNL A   1      39.987  34.105  37.031  1.00  0.00     0.058 A 
ATOM     85  C   UNL A   1      40.750  35.282  37.066  1.00  0.00     0.135 A 
ATOM     86  C   UNL A   1      38.998  33.931  38.012  1.00  0.00     0.135 A 
ATOM     87  F   UNL A   1      41.712  35.490  36.153  1.00  0.00    -0.206 F 
ATOM     88  C   UNL A   1      40.553  36.244  38.049  1.00  0.00     0.059 A 
ATOM     89  C   UNL A   1      38.767  34.891  38.992  1.00  0.00     0.059 A 
ATOM     90  F   UNL A   1      38.235  32.826  38.015  1.00  0.00    -0.206 F 
ATOM     91  C   UNL A   1      39.558  36.040  39.009  1.00  0.00     0.060 A 
BRANCH  91  92
ATOM     92  S   UNL A   1      39.285  37.312  40.260  1.00  0.00     0.124 S 
ATOM     93  O   UNL A   1      38.370  38.213  39.568  1.00  0.00    -0.237 OA
ATOM     94  O   UNL A   1      38.711  36.550  41.364  1.00  0.00    -0.237 OA
ATOM     95  O   UNL A   1      40.625  37.841  40.501  1.00  0.00    -0.744 OA
ENDBRANCH  91  92
ENDBRANCH  59  84
ENDBRANCH  33  34
ENDBRANCH  25  28
ENDBRANCH  23  24
ENDBRANCH  22  23
ENDBRANCH  21  22
ENDBRANCH   1  21
TORSDOF 19
ENDMDL
MODEL 2
REMARK VINA RESULT:     -10.7      5.576     10.866
REMARK SMILES N#C[C@@H]1CN(C(=O)NCCCC(=O)NCCCCNC(=O)c2ccc(-c3c4nc(c(-c5c(F)cc(S(=O)(=O)[O-])cc5F)c5ccc([nH]5)c(-c5c(F)cc(S(=O)(=O)[O-])cc5F)c5nc(c(-c6c(F)cc(S(=O)(=O)[O-])cc6F)c6ccc3[nH]6)C=C5)C=C4)cc2)CCO1
REMARK SMILES IDX 15 1 14 2 12 3 13 4 11 6 10 7 9 8 8 9 6 10 7 11 5 13 3 14
REMARK SMILES IDX 4 15 90 16 89 17 88 18 2 19 1 20 16 21 17 22 18 23 19 24
REMARK SMILES IDX 20 25 21 27 22 28 23 29 87 30 24 31 86 32 25 33 26 34 27 35
REMARK SMILES IDX 80 36 28 37 85 38 79 39 81 40 29 41 84 42 78 43 77 44 30 46
REMARK SMILES IDX 64 47 43 48 63 49 44 50 47 51 62 52 82 53 45 54 46 55 61 57
REMARK SMILES IDX 83 58 48 59 31 60 32 61 41 62 33 63 34 64 40 65 42 66 35 67
REMARK SMILES IDX 36 68 37 69 38 70 39 71 65 72 66 73 75 74 67 75 68 76 74 77
REMARK SMILES IDX 76 78 69 79 70 80 71 81 72 82 73 83 49 84 50 85 59 86 51 87
REMARK SMILES IDX 52 88 58 89 60 90 53 91 54 92 55 93 56 94 57 95
REMARK H PARENT 14 5 8 12 19 26 81 45 47 56
REMARK Flexibility Score: inf
ROOT
ATOM      1  C   UNL A   1      32.136  29.357  24.629  1.00  0.00     0.116 C 
ENDROOT
BRANCH   1   2
ATOM      2  N   UNL A   1      31.115  29.389  23.597  1.00  0.00    -0.356 N 
ATOM      3  C   UNL A   1      30.783  28.455  22.666  1.00  0.00     0.220 C 
ATOM      4  O   UNL A   1      29.991  28.762  21.773  1.00  0.00    -0.275 OA
ATOM      5  H   UNL A   1      30.580  30.214  23.566  1.00  0.00     0.163 HD
BRANCH   3   6
ATOM      6  C   UNL A   1      31.372  27.059  22.724  1.00  0.00     0.102 C 
BRANCH   6   7
ATOM      7  C   UNL A   1      30.781  26.207  23.850  1.00  0.00     0.031 C 
BRANCH   7   8
ATOM      8  C   UNL A   1      30.521  24.748  23.479  1.00  0.00     0.118 C 
BRANCH   8   9
ATOM      9  N   UNL A   1      30.266  23.908  24.637  1.00  0.00    -0.338 N 
ATOM     10  C   UNL A   1      31.028  23.150  25.446  1.00  0.00     0.317 C 
ATOM     11  O   UNL A   1      30.405  22.399  26.200  1.00  0.00    -0.249 OA
ATOM     12  H   UNL A   1      29.314  23.889  24.887  1.00  0.00     0.165 HD
BRANCH  10  13
ATOM     13  N   UNL A   1      32.391  23.179  25.420  1.00  0.00    -0.319 N 
ATOM     14  C   UNL A   1      34.483  22.785  24.107  1.00  0.00     0.240 C 
ATOM     15  C   UNL A   1      33.315  22.171  24.891  1.00  0.00     0.169 C 
ATOM     16  O   UNL A   1      35.150  23.795  24.897  1.00  0.00    -0.360 OA
ATOM     17  C   UNL A   1      34.249  24.850  25.271  1.00  0.00     0.183 C 
ATOM     18  C   UNL A   1      33.061  24.316  26.074  1.00  0.00     0.150 C 
BRANCH  14  19
ATOM     19  C   UNL A   1      34.011  23.339  22.773  1.00  0.00     0.096 C 
ATOM     20  N   UNL A   1      33.620  23.799  21.666  1.00  0.00    -0.195 NA
ENDBRANCH  14  19
ENDBRANCH  10  13
ENDBRANCH   8   9
ENDBRANCH   7   8
ENDBRANCH   6   7
ENDBRANCH   3   6
ENDBRANCH   1   2
BRANCH   1  21
ATOM     21  C   UNL A   1      31.508  29.076  25.991  1.00  0.00     0.023 C 
BRANCH  21  22
ATOM     22  C   UNL A   1      32.350  28.179  26.899  1.00  0.00     0.023 C 
BRANCH  22  23
ATOM     23  C   UNL A   1      33.705  28.759  27.286  1.00  0.00     0.116 C 
BRANCH  23  24
ATOM     24  N   UNL A   1      33.641  30.068  27.922  1.00  0.00    -0.352 N 
ATOM     25  C   UNL A   1      34.636  30.778  28.553  1.00  0.00     0.251 C 
ATOM     26  H   UNL A   1      32.761  30.507  27.897  1.00  0.00     0.163 HD
ATOM     27  O   UNL A   1      34.404  31.858  29.084  1.00  0.00    -0.269 OA
BRANCH  25  28
ATOM     28  C   UNL A   1      35.978  30.173  28.664  1.00  0.00     0.039 A 
ATOM     29  C   UNL A   1      36.819  30.219  27.549  1.00  0.00     0.014 A 
ATOM     30  C   UNL A   1      36.435  29.664  29.879  1.00  0.00     0.014 A 
ATOM     31  C   UNL A   1      38.150  29.825  27.676  1.00  0.00     0.010 A 
ATOM     32  C   UNL A   1      37.781  29.358  30.027  1.00  0.00     0.010 A 
ATOM     33  C   UNL A   1      38.651  29.434  28.927  1.00  0.00    -0.014 A 
BRANCH  33  34
ATOM     34  C   UNL A   1      40.080  29.084  29.115  1.00  0.00     0.031 A 
ATOM     35  C   UNL A   1      41.036  30.130  29.617  1.00  0.00     0.074 A 
ATOM     36  C   UNL A   1      40.526  27.864  28.756  1.00  0.00     0.049 A 
ATOM     37  N   UNL A   1      42.336  30.070  29.739  1.00  0.00    -0.248 NA
ATOM     38  C   UNL A   1      40.456  31.430  29.995  1.00  0.00     0.031 C 
ATOM     39  C   UNL A   1      39.703  26.787  28.201  1.00  0.00     0.029 A 
ATOM     40  N   UNL A   1      41.788  27.329  28.791  1.00  0.00    -0.354 N 
ATOM     41  C   UNL A   1      42.731  31.329  30.176  1.00  0.00     0.074 A 
ATOM     42  C   UNL A   1      41.541  32.146  30.248  1.00  0.00     0.031 C 
ATOM     43  C   UNL A   1      40.477  25.713  27.971  1.00  0.00     0.029 A 
ATOM     44  C   UNL A   1      41.855  26.036  28.327  1.00  0.00     0.049 A 
ATOM     45  H   UNL A   1      42.574  27.824  29.118  1.00  0.00     0.167 HD
ATOM     46  C   UNL A   1      43.970  31.756  30.513  1.00  0.00     0.037 A 
ATOM     47  C   UNL A   1      42.910  25.208  28.200  1.00  0.00     0.037 A 
ATOM     48  C   UNL A   1      45.140  30.920  30.488  1.00  0.00     0.049 A 
ATOM     49  C   UNL A   1      44.271  25.692  28.621  1.00  0.00     0.074 A 
ATOM     50  C   UNL A   1      46.430  31.233  30.874  1.00  0.00     0.029 A 
ATOM     51  N   UNL A   1      45.157  29.600  30.061  1.00  0.00    -0.354 N 
ATOM     52  N   UNL A   1      44.619  26.869  29.084  1.00  0.00    -0.248 NA
ATOM     53  C   UNL A   1      45.380  24.736  28.511  1.00  0.00     0.031 C 
ATOM     54  C   UNL A   1      47.235  30.109  30.657  1.00  0.00     0.029 A 
ATOM     55  C   UNL A   1      46.438  29.086  30.167  1.00  0.00     0.049 A 
ATOM     56  H   UNL A   1      44.374  29.104  29.730  1.00  0.00     0.167 HD
ATOM     57  C   UNL A   1      45.983  26.787  29.343  1.00  0.00     0.074 A 
ATOM     58  C   UNL A   1      46.393  25.442  28.995  1.00  0.00     0.031 C 
ATOM     59  C   UNL A   1      46.820  27.740  29.825  1.00  0.00     0.037 A 
BRANCH  46  60
ATOM     60  C   UNL A   1      44.112  33.187  30.951  1.00  0.00     0.058 A 
ATOM     61  C   UNL A   1      44.396  34.212  30.034  1.00  0.00     0.135 A 
ATOM     62  C   UNL A   1      43.953  33.540  32.300  1.00  0.00     0.135 A 
ATOM     63  F   UNL A   1      44.578  33.926  28.735  1.00  0.00    -0.206 F 
ATOM     64  C   UNL A   1      44.552  35.531  30.444  1.00  0.00     0.059 A 
ATOM     65  C   UNL A   1      44.077  34.859  32.728  1.00  0.00     0.059 A 
ATOM     66  F   UNL A   1      43.683  32.600  33.219  1.00  0.00    -0.206 F 
ATOM     67  C   UNL A   1      44.395  35.845  31.795  1.00  0.00     0.060 A 
BRANCH  67  68
ATOM     68  S   UNL A   1      44.601  37.561  32.312  1.00  0.00     0.124 S 
ATOM     69  O   UNL A   1      43.786  37.598  33.523  1.00  0.00    -0.237 OA
ATOM     70  O   UNL A   1      46.043  37.659  32.516  1.00  0.00    -0.237 OA
ATOM     71  O   UNL A   1      44.078  38.321  31.180  1.00  0.00    -0.744 OA
ENDBRANCH  67  68
ENDBRANCH  46  60
BRANCH  47  72
ATOM     72  C   UNL A   1      42.715  23.828  27.683  1.00  0.00     0.058 A 
ATOM     73  C   UNL A   1      42.699  23.575  26.303  1.00  0.00     0.135 A 
ATOM     74  C   UNL A   1      42.559  22.736  28.550  1.00  0.00     0.135 A 
ATOM     75  F   UNL A   1      42.840  24.588  25.435  1.00  0.00    -0.206 F 
ATOM     76  C   UNL A   1      42.519  22.291  25.799  1.00  0.00     0.059 A 
ATOM     77  C   UNL A   1      42.398  21.440  28.070  1.00  0.00     0.059 A 
ATOM     78  F   UNL A   1      42.584  22.924  29.878  1.00  0.00    -0.206 F 
ATOM     79  C   UNL A   1      42.369  21.229  26.692  1.00  0.00     0.060 A 
BRANCH  79  80
ATOM     80  S   UNL A   1      42.186  19.558  26.029  1.00  0.00     0.124 S 
ATOM     81  O   UNL A   1      42.564  18.743  27.179  1.00  0.00    -0.237 OA
ATOM     82  O   UNL A   1      40.775  19.525  25.659  1.00  0.00    -0.237 OA
ATOM     83  O   UNL A   1      43.121  19.539  24.906  1.00  0.00    -0.744 OA
ENDBRANCH  79  80
ENDBRANCH  47  72
BRANCH  59  84
ATOM     84  C   UNL A   1      48.255  27.351  30.034  1.00  0.00     0.058 A 
ATOM     85  C   UNL A   1      49.257  27.724  29.126  1.00  0.00     0.135 A 
ATOM     86  C   UNL A   1      48.638  26.645  31.186  1.00  0.00     0.135 A 
ATOM     87  F   UNL A   1      48.940  28.395  28.007  1.00  0.00    -0.206 F 
ATOM     88  C   UNL A   1      50.590  27.392  29.342  1.00  0.00     0.059 A 
ATOM     89  C   UNL A   1      49.968  26.323  31.433  1.00  0.00     0.059 A 
ATOM     90  F   UNL A   1      47.717  26.274  32.089  1.00  0.00    -0.206 F 
ATOM     91  C   UNL A   1      50.936  26.691  30.500  1.00  0.00     0.060 A 
BRANCH  91  92
ATOM     92  S   UNL A   1      52.674  26.298  30.789  1.00  0.00     0.124 S 
ATOM     93  O   UNL A   1      53.162  27.539  31.380  1.00  0.00    -0.237 OA
ATOM     94  O   UNL A   1      52.592  25.154  31.692  1.00  0.00    -0.237 OA
ATOM     95  O   UNL A   1      53.179  25.997  29.452  1.00  0.00    -0.744 OA
ENDBRANCH  91  92
ENDBRANCH  59  84
ENDBRANCH  33  34
ENDBRANCH  25  28
ENDBRANCH  23  24
ENDBRANCH  22  23
ENDBRANCH  21  22
ENDBRANCH   1  21
TORSDOF 19
ENDMDL
MODEL 3
REMARK VINA RESULT:     -10.7      6.774     14.229
REMARK SMILES N#C[C@@H]1CN(C(=O)NCCCC(=O)NCCCCNC(=O)c2ccc(-c3c4nc(c(-c5c(F)cc(S(=O)(=O)[O-])cc5F)c5ccc([nH]5)c(-c5c(F)cc(S(=O)(=O)[O-])cc5F)c5nc(c(-c6c(F)cc(S(=O)(=O)[O-])cc6F)c6ccc3[nH]6)C=C5)C=C4)cc2)CCO1
REMARK SMILES IDX 15 1 14 2 12 3 13 4 11 6 10 7 9 8 8 9 6 10 7 11 5 13 3 14
REMARK SMILES IDX 4 15 90 16 89 17 88 18 2 19 1 20 16 21 17 22 18 23 19 24
REMARK SMILES IDX 20 25 21 27 22 28 23 29 87 30 24 31 86 32 25 33 26 34 27 35
REMARK SMILES IDX 80 36 28 37 85 38 79 39 81 40 29 41 84 42 78 43 77 44 30 46
REMARK SMILES IDX 64 47 43 48 63 49 44 50 47 51 62 52 82 53 45 54 46 55 61 57
REMARK SMILES IDX 83 58 48 59 31 60 32 61 41 62 33 63 34 64 40 65 42 66 35 67
REMARK SMILES IDX 36 68 37 69 38 70 39 71 65 72 66 73 75 74 67 75 68 76 74 77
REMARK SMILES IDX 76 78 69 79 70 80 71 81 72 82 73 83 49 84 50 85 59 86 51 87
REMARK SMILES IDX 52 88 58 89 60 90 53 91 54 92 55 93 56 94 57 95
REMARK H PARENT 14 5 8 12 19 26 81 45 47 56
REMARK Flexibility Score: inf
ROOT
ATOM      1  C   UNL A   1      40.576  33.653  32.231  1.00  0.00     0.116 C 
ENDROOT
BRANCH   1   2
ATOM      2  N   UNL A   1      40.243  34.649  33.234  1.00  0.00    -0.356 N 
ATOM      3  C   UNL A   1      39.502  34.534  34.369  1.00  0.00     0.220 C 
ATOM      4  O   UNL A   1      39.205  35.556  34.989  1.00  0.00    -0.275 OA
ATOM      5  H   UNL A   1      40.610  35.547  33.067  1.00  0.00     0.163 HD
BRANCH   3   6
ATOM      6  C   UNL A   1      39.052  33.174  34.865  1.00  0.00     0.102 C 
BRANCH   6   7
ATOM      7  C   UNL A   1      37.781  32.676  34.173  1.00  0.00     0.031 C 
BRANCH   7   8
ATOM      8  C   UNL A   1      36.654  33.703  34.086  1.00  0.00     0.118 C 
BRANCH   8   9
ATOM      9  N   UNL A   1      35.371  33.108  33.755  1.00  0.00    -0.338 N 
ATOM     10  C   UNL A   1      34.236  33.555  33.186  1.00  0.00     0.317 C 
ATOM     11  O   UNL A   1      33.270  32.793  33.275  1.00  0.00    -0.249 OA
ATOM     12  H   UNL A   1      35.320  32.157  34.005  1.00  0.00     0.165 HD
BRANCH  10  13
ATOM     13  N   UNL A   1      34.141  34.772  32.579  1.00  0.00    -0.319 N 
ATOM     14  C   UNL A   1      32.689  36.429  31.395  1.00  0.00     0.240 C 
ATOM     15  C   UNL A   1      33.474  35.112  31.318  1.00  0.00     0.169 C 
ATOM     16  O   UNL A   1      33.530  37.495  31.888  1.00  0.00    -0.360 OA
ATOM     17  C   UNL A   1      34.046  37.196  33.196  1.00  0.00     0.183 C 
ATOM     18  C   UNL A   1      34.859  35.900  33.197  1.00  0.00     0.150 C 
BRANCH  14  19
ATOM     19  C   UNL A   1      31.437  36.267  32.242  1.00  0.00     0.096 C 
ATOM     20  N   UNL A   1      30.398  36.133  32.944  1.00  0.00    -0.195 NA
ENDBRANCH  14  19
ENDBRANCH  10  13
ENDBRANCH   8   9
ENDBRANCH   7   8
ENDBRANCH   6   7
ENDBRANCH   3   6
ENDBRANCH   1   2
BRANCH   1  21
ATOM     21  C   UNL A   1      40.028  34.066  30.868  1.00  0.00     0.023 C 
BRANCH  21  22
ATOM     22  C   UNL A   1      38.564  34.503  30.883  1.00  0.00     0.023 C 
BRANCH  22  23
ATOM     23  C   UNL A   1      37.661  33.738  29.922  1.00  0.00     0.116 C 
BRANCH  23  24
ATOM     24  N   UNL A   1      36.703  32.854  30.571  1.00  0.00    -0.352 N 
ATOM     25  C   UNL A   1      36.805  31.509  30.841  1.00  0.00     0.251 C 
ATOM     26  H   UNL A   1      35.863  33.279  30.856  1.00  0.00     0.163 HD
ATOM     27  O   UNL A   1      35.879  30.894  31.358  1.00  0.00    -0.269 OA
BRANCH  25  28
ATOM     28  C   UNL A   1      38.021  30.790  30.415  1.00  0.00     0.039 A 
ATOM     29  C   UNL A   1      38.194  30.530  29.053  1.00  0.00     0.014 A 
ATOM     30  C   UNL A   1      39.023  30.471  31.332  1.00  0.00     0.014 A 
ATOM     31  C   UNL A   1      39.410  30.021  28.599  1.00  0.00     0.010 A 
ATOM     32  C   UNL A   1      40.262  30.051  30.869  1.00  0.00     0.010 A 
ATOM     33  C   UNL A   1      40.467  29.820  29.500  1.00  0.00    -0.014 A 
BRANCH  33  34
ATOM     34  C   UNL A   1      41.799  29.354  29.040  1.00  0.00     0.031 A 
ATOM     35  C   UNL A   1      42.930  30.339  28.936  1.00  0.00     0.074 A 
ATOM     36  C   UNL A   1      41.963  28.078  28.641  1.00  0.00     0.049 A 
ATOM     37  N   UNL A   1      44.130  30.169  28.449  1.00  0.00    -0.248 NA
ATOM     38  C   UNL A   1      42.660  31.708  29.406  1.00  0.00     0.031 C 
ATOM     39  C   UNL A   1      40.923  27.045  28.641  1.00  0.00     0.029 A 
ATOM     40  N   UNL A   1      43.066  27.433  28.143  1.00  0.00    -0.354 N 
ATOM     41  C   UNL A   1      44.746  31.412  28.525  1.00  0.00     0.074 A 
ATOM     42  C   UNL A   1      43.771  32.338  29.055  1.00  0.00     0.031 C 
ATOM     43  C   UNL A   1      41.445  25.893  28.188  1.00  0.00     0.029 A 
ATOM     44  C   UNL A   1      42.843  26.111  27.833  1.00  0.00     0.049 A 
ATOM     45  H   UNL A   1      43.938  27.874  28.018  1.00  0.00     0.167 HD
ATOM     46  C   UNL A   1      46.018  31.745  28.206  1.00  0.00     0.037 A 
ATOM     47  C   UNL A   1      43.673  25.184  27.317  1.00  0.00     0.037 A 
ATOM     48  C   UNL A   1      46.997  30.807  27.728  1.00  0.00     0.049 A 
ATOM     49  C   UNL A   1      45.095  25.568  27.011  1.00  0.00     0.074 A 
ATOM     50  C   UNL A   1      48.332  31.025  27.441  1.00  0.00     0.029 A 
ATOM     51  N   UNL A   1      46.746  29.465  27.476  1.00  0.00    -0.354 N 
ATOM     52  N   UNL A   1      45.677  26.736  27.140  1.00  0.00    -0.248 NA
ATOM     53  C   UNL A   1      45.973  24.510  26.498  1.00  0.00     0.031 C 
ATOM     54  C   UNL A   1      48.884  29.821  26.990  1.00  0.00     0.029 A 
ATOM     55  C   UNL A   1      47.900  28.845  27.030  1.00  0.00     0.049 A 
ATOM     56  H   UNL A   1      45.876  29.022  27.597  1.00  0.00     0.167 HD
ATOM     57  C   UNL A   1      46.998  26.548  26.746  1.00  0.00     0.074 A 
ATOM     58  C   UNL A   1      47.129  25.151  26.385  1.00  0.00     0.031 C 
ATOM     59  C   UNL A   1      48.009  27.449  26.688  1.00  0.00     0.037 A 
BRANCH  46  60
ATOM     60  C   UNL A   1      46.421  33.183  28.382  1.00  0.00     0.058 A 
ATOM     61  C   UNL A   1      46.956  33.654  29.592  1.00  0.00     0.135 A 
ATOM     62  C   UNL A   1      46.279  34.099  27.327  1.00  0.00     0.135 A 
ATOM     63  F   UNL A   1      47.094  32.825  30.639  1.00  0.00    -0.206 F 
ATOM     64  C   UNL A   1      47.305  34.989  29.762  1.00  0.00     0.059 A 
ATOM     65  C   UNL A   1      46.648  35.434  27.467  1.00  0.00     0.059 A 
ATOM     66  F   UNL A   1      45.770  33.703  26.150  1.00  0.00    -0.206 F 
ATOM     67  C   UNL A   1      47.143  35.873  28.694  1.00  0.00     0.060 A 
BRANCH  67  68
ATOM     68  S   UNL A   1      47.600  37.603  28.929  1.00  0.00     0.124 S 
ATOM     69  O   UNL A   1      46.360  38.160  29.462  1.00  0.00    -0.237 OA
ATOM     70  O   UNL A   1      48.709  37.511  29.873  1.00  0.00    -0.237 OA
ATOM     71  O   UNL A   1      47.960  38.045  27.585  1.00  0.00    -0.744 OA
ENDBRANCH  67  68
ENDBRANCH  46  60
BRANCH  47  72
ATOM     72  C   UNL A   1      43.190  23.797  27.091  1.00  0.00     0.058 A 
ATOM     73  C   UNL A   1      42.936  23.329  25.793  1.00  0.00     0.135 A 
ATOM     74  C   UNL A   1      42.989  22.907  28.157  1.00  0.00     0.135 A 
ATOM     75  F   UNL A   1      43.109  24.144  24.741  1.00  0.00    -0.206 F 
ATOM     76  C   UNL A   1      42.484  22.034  25.559  1.00  0.00     0.059 A 
ATOM     77  C   UNL A   1      42.558  21.601  27.948  1.00  0.00     0.059 A 
ATOM     78  F   UNL A   1      43.234  23.301  29.416  1.00  0.00    -0.206 F 
ATOM     79  C   UNL A   1      42.298  21.176  26.645  1.00  0.00     0.060 A 
BRANCH  79  80
ATOM     80  S   UNL A   1      41.760  19.481  26.329  1.00  0.00     0.124 S 
ATOM     81  O   UNL A   1      42.522  19.150  25.130  1.00  0.00    -0.237 OA
ATOM     82  O   UNL A   1      42.164  18.795  27.552  1.00  0.00    -0.237 OA
ATOM     83  O   UNL A   1      40.317  19.617  26.144  1.00  0.00    -0.744 OA
ENDBRANCH  79  80
ENDBRANCH  47  72
BRANCH  59  84
ATOM     84  C   UNL A   1      49.354  26.946  26.248  1.00  0.00     0.058 A 
ATOM     85  C   UNL A   1      49.751  26.989  24.903  1.00  0.00     0.135 A 
ATOM     86  C   UNL A   1      50.275  26.466  27.193  1.00  0.00     0.135 A 
ATOM     87  F   UNL A   1      48.903  27.434  23.962  1.00  0.00    -0.206 F 
ATOM     88  C   UNL A   1      51.011  26.555  24.507  1.00  0.00     0.059 A 
ATOM     89  C   UNL A   1      51.548  26.049  26.822  1.00  0.00     0.059 A 
ATOM     90  F   UNL A   1      49.945  26.415  28.493  1.00  0.00    -0.206 F 
ATOM     91  C   UNL A   1      51.903  26.086  25.473  1.00  0.00     0.060 A 
BRANCH  91  92
ATOM     92  S   UNL A   1      53.549  25.559  24.951  1.00  0.00     0.124 S 
ATOM     93  O   UNL A   1      53.448  25.674  23.501  1.00  0.00    -0.237 OA
ATOM     94  O   UNL A   1      54.415  26.534  25.607  1.00  0.00    -0.237 OA
ATOM     95  O   UNL A   1      53.647  24.196  25.469  1.00  0.00    -0.744 OA
ENDBRANCH  91  92
ENDBRANCH  59  84
ENDBRANCH  33  34
ENDBRANCH  25  28
ENDBRANCH  23  24
ENDBRANCH  22  23
ENDBRANCH  21  22
ENDBRANCH   1  21
TORSDOF 19
ENDMDL
