MODEL 1
REMARK VINA RESULT:     -13.0      0.000      0.000
REMARK SMILES CC1=Nc2nc(NC(=O)CCC(=O)NCCCCNC(=O)c3ccc(-c4c5nc(c(-c6c(F)cc(S(=O)(=O)[O-])cc6F)c6ccc([nH]6)c(-c6c(F)cc(S(=O)(=O)[O-])cc6F)c6nc(c(-c7c(F)cc(S(=O)(=O)[O-])cc7F)c7ccc4[nH]7)C=C6)C=C5)cc3)nn2[C@@H](c2ccc(Cl)cc2)C1
REMARK SMILES IDX 16 1 15 2 14 3 12 4 13 5 11 7 10 8 8 9 7 10 9 12 6 13 1 14
REMARK SMILES IDX 2 15 3 16 98 17 4 18 90 19 5 20 89 21 88 22 91 23 92 24
REMARK SMILES IDX 97 25 93 26 96 27 94 28 95 29 17 30 18 31 19 32 20 33 21 35
REMARK SMILES IDX 22 36 23 37 87 38 24 39 86 40 25 41 26 42 27 43 80 44 28 45
REMARK SMILES IDX 85 46 79 47 81 48 29 49 84 50 78 51 77 52 30 54 64 55 43 56
REMARK SMILES IDX 63 57 44 58 47 59 62 60 82 61 45 62 46 63 61 65 83 66 48 67
REMARK SMILES IDX 31 68 32 69 41 70 33 71 34 72 40 73 42 74 35 75 36 76 37 77
REMARK SMILES IDX 38 78 39 79 65 80 66 81 75 82 67 83 68 84 74 85 76 86 69 87
REMARK SMILES IDX 70 88 71 89 72 90 73 91 49 92 50 93 59 94 51 95 52 96 58 97
REMARK SMILES IDX 60 98 53 99 54 100 55 101 56 102 57 103
REMARK H PARENT 14 6 7 11 19 34 81 53 47 64
REMARK Flexibility Score: inf
ROOT
ATOM      1  C   UNL A   1      33.124  28.066  26.793  1.00  0.00     0.023 C 
ENDROOT
BRANCH   1   2
ATOM      2  C   UNL A   1      31.595  27.968  26.835  1.00  0.00     0.116 C 
BRANCH   2   3
ATOM      3  N   UNL A   1      31.030  26.681  26.478  1.00  0.00    -0.356 N 
ATOM      4  C   UNL A   1      31.034  26.053  25.266  1.00  0.00     0.220 C 
ATOM      5  O   UNL A   1      30.950  24.827  25.238  1.00  0.00    -0.275 OA
ATOM      6  H   UNL A   1      30.584  26.194  27.209  1.00  0.00     0.163 HD
BRANCH   4   7
ATOM      7  C   UNL A   1      31.082  26.833  23.976  1.00  0.00     0.110 C 
BRANCH   7   8
ATOM      8  C   UNL A   1      32.371  26.588  23.196  1.00  0.00     0.110 C 
BRANCH   8   9
ATOM      9  C   UNL A   1      32.152  25.719  21.986  1.00  0.00     0.227 C 
ATOM     10  N   UNL A   1      32.641  24.459  21.897  1.00  0.00    -0.293 N 
ATOM     11  H   UNL A   1      32.447  24.008  21.044  1.00  0.00     0.173 HD
ATOM     12  O   UNL A   1      31.423  26.126  21.070  1.00  0.00    -0.275 OA
BRANCH  10  13
ATOM     13  C   UNL A   1      33.354  23.704  22.780  1.00  0.00     0.250 A 
ATOM     14  C   UNL A   1      38.173  21.686  25.195  1.00  0.00     0.062 C 
ATOM     15  C   UNL A   1      36.734  22.002  24.877  1.00  0.00     0.021 C 
ATOM     16  N   UNL A   1      36.483  22.745  23.845  1.00  0.00    -0.221 NA
ATOM     17  C   UNL A   1      35.679  21.498  25.837  1.00  0.00     0.083 C 
ATOM     18  C   UNL A   1      35.188  23.018  23.576  1.00  0.00     0.250 A 
ATOM     19  C   UNL A   1      34.284  21.384  25.210  1.00  0.00     0.147 C 
ATOM     20  N   UNL A   1      34.687  23.986  22.845  1.00  0.00    -0.174 NA
ATOM     21  N   UNL A   1      34.142  22.271  24.059  1.00  0.00    -0.220 N 
ATOM     22  N   UNL A   1      32.954  22.711  23.575  1.00  0.00    -0.130 NA
BRANCH  19  23
ATOM     23  C   UNL A   1      33.888  19.934  24.990  1.00  0.00    -0.023 A 
ATOM     24  C   UNL A   1      32.582  19.454  25.121  1.00  0.00     0.007 A 
ATOM     25  C   UNL A   1      34.893  19.020  24.615  1.00  0.00     0.007 A 
ATOM     26  C   UNL A   1      32.312  18.082  25.033  1.00  0.00     0.021 A 
ATOM     27  C   UNL A   1      34.619  17.657  24.487  1.00  0.00     0.021 A 
ATOM     28  C   UNL A   1      33.336  17.187  24.743  1.00  0.00     0.041 A 
ATOM     29  Cl  UNL A   1      33.039  15.495  24.746  1.00  0.00    -0.084 Cl
ENDBRANCH  19  23
ENDBRANCH  10  13
ENDBRANCH   8   9
ENDBRANCH   7   8
ENDBRANCH   4   7
ENDBRANCH   2   3
ENDBRANCH   1   2
BRANCH   1  30
ATOM     30  C   UNL A   1      33.749  29.449  26.567  1.00  0.00     0.023 C 
BRANCH  30  31
ATOM     31  C   UNL A   1      34.782  29.829  27.607  1.00  0.00     0.116 C 
BRANCH  31  32
ATOM     32  N   UNL A   1      34.589  31.177  28.162  1.00  0.00    -0.352 N 
ATOM     33  C   UNL A   1      35.127  31.707  29.334  1.00  0.00     0.251 C 
ATOM     34  H   UNL A   1      34.009  31.780  27.643  1.00  0.00     0.163 HD
ATOM     35  O   UNL A   1      34.668  32.697  29.865  1.00  0.00    -0.269 OA
BRANCH  33  36
ATOM     36  C   UNL A   1      36.304  31.014  29.888  1.00  0.00     0.039 A 
ATOM     37  C   UNL A   1      36.220  29.882  30.698  1.00  0.00     0.014 A 
ATOM     38  C   UNL A   1      37.517  31.455  29.388  1.00  0.00     0.014 A 
ATOM     39  C   UNL A   1      37.382  29.137  30.902  1.00  0.00     0.010 A 
ATOM     40  C   UNL A   1      38.538  30.558  29.322  1.00  0.00     0.010 A 
ATOM     41  C   UNL A   1      38.537  29.468  30.173  1.00  0.00    -0.014 A 
BRANCH  41  42
ATOM     42  C   UNL A   1      39.758  28.675  30.205  1.00  0.00     0.031 A 
ATOM     43  C   UNL A   1      40.329  28.468  31.560  1.00  0.00     0.074 A 
ATOM     44  C   UNL A   1      40.218  28.018  29.112  1.00  0.00     0.049 A 
ATOM     45  N   UNL A   1      41.370  29.045  32.060  1.00  0.00    -0.248 NA
ATOM     46  C   UNL A   1      39.567  27.678  32.540  1.00  0.00     0.031 C 
ATOM     47  C   UNL A   1      39.615  27.877  27.774  1.00  0.00     0.029 A 
ATOM     48  N   UNL A   1      41.327  27.244  29.000  1.00  0.00    -0.354 N 
ATOM     49  C   UNL A   1      41.542  28.501  33.329  1.00  0.00     0.074 A 
ATOM     50  C   UNL A   1      40.304  27.835  33.643  1.00  0.00     0.031 C 
ATOM     51  C   UNL A   1      40.223  26.883  27.092  1.00  0.00     0.029 A 
ATOM     52  C   UNL A   1      41.388  26.471  27.844  1.00  0.00     0.049 A 
ATOM     53  H   UNL A   1      42.035  27.231  29.683  1.00  0.00     0.167 HD
ATOM     54  C   UNL A   1      42.776  28.444  33.905  1.00  0.00     0.037 A 
ATOM     55  C   UNL A   1      42.348  25.568  27.524  1.00  0.00     0.037 A 
ATOM     56  C   UNL A   1      43.715  29.268  33.181  1.00  0.00     0.049 A 
ATOM     57  C   UNL A   1      43.541  25.932  28.336  1.00  0.00     0.074 A 
ATOM     58  C   UNL A   1      43.798  30.617  32.898  1.00  0.00     0.029 A 
ATOM     59  N   UNL A   1      44.532  28.641  32.269  1.00  0.00    -0.354 N 
ATOM     60  N   UNL A   1      44.192  27.058  28.189  1.00  0.00    -0.248 NA
ATOM     61  C   UNL A   1      43.679  25.298  29.638  1.00  0.00     0.031 C 
ATOM     62  C   UNL A   1      44.244  30.678  31.544  1.00  0.00     0.029 A 
ATOM     63  C   UNL A   1      44.498  29.375  31.110  1.00  0.00     0.049 A 
ATOM     64  H   UNL A   1      45.047  27.815  32.420  1.00  0.00     0.167 HD
ATOM     65  C   UNL A   1      44.473  27.483  29.481  1.00  0.00     0.074 A 
ATOM     66  C   UNL A   1      44.180  26.326  30.330  1.00  0.00     0.031 C 
ATOM     67  C   UNL A   1      44.630  28.807  29.782  1.00  0.00     0.037 A 
BRANCH  54  68
ATOM     68  C   UNL A   1      43.237  27.383  34.872  1.00  0.00     0.058 A 
ATOM     69  C   UNL A   1      43.506  27.743  36.210  1.00  0.00     0.135 A 
ATOM     70  C   UNL A   1      43.695  26.106  34.482  1.00  0.00     0.135 A 
ATOM     71  F   UNL A   1      43.114  28.934  36.690  1.00  0.00    -0.206 F 
ATOM     72  C   UNL A   1      44.248  26.931  37.068  1.00  0.00     0.059 A 
ATOM     73  C   UNL A   1      44.390  25.259  35.336  1.00  0.00     0.059 A 
ATOM     74  F   UNL A   1      43.577  25.656  33.227  1.00  0.00    -0.206 F 
ATOM     75  C   UNL A   1      44.700  25.696  36.614  1.00  0.00     0.060 A 
BRANCH  75  76
ATOM     76  S   UNL A   1      45.745  24.691  37.681  1.00  0.00     0.124 S 
ATOM     77  O   UNL A   1      45.208  25.010  38.998  1.00  0.00    -0.237 OA
ATOM     78  O   UNL A   1      45.475  23.346  37.186  1.00  0.00    -0.237 OA
ATOM     79  O   UNL A   1      47.088  25.196  37.407  1.00  0.00    -0.744 OA
ENDBRANCH  75  76
ENDBRANCH  54  68
BRANCH  55  80
ATOM     80  C   UNL A   1      42.141  24.222  26.921  1.00  0.00     0.058 A 
ATOM     81  C   UNL A   1      43.050  23.690  25.991  1.00  0.00     0.135 A 
ATOM     82  C   UNL A   1      41.201  23.315  27.458  1.00  0.00     0.135 A 
ATOM     83  F   UNL A   1      43.991  24.476  25.445  1.00  0.00    -0.206 F 
ATOM     84  C   UNL A   1      43.061  22.331  25.648  1.00  0.00     0.059 A 
ATOM     85  C   UNL A   1      41.190  21.959  27.129  1.00  0.00     0.059 A 
ATOM     86  F   UNL A   1      40.322  23.707  28.392  1.00  0.00    -0.206 F 
ATOM     87  C   UNL A   1      42.139  21.468  26.240  1.00  0.00     0.060 A 
BRANCH  87  88
ATOM     88  S   UNL A   1      42.271  19.686  25.945  1.00  0.00     0.124 S 
ATOM     89  O   UNL A   1      40.949  19.370  25.416  1.00  0.00    -0.237 OA
ATOM     90  O   UNL A   1      43.373  19.610  24.992  1.00  0.00    -0.237 OA
ATOM     91  O   UNL A   1      42.564  19.147  27.270  1.00  0.00    -0.744 OA
ENDBRANCH  87  88
ENDBRANCH  55  80
BRANCH  67  92
ATOM     92  C   UNL A   1      44.757  29.803  28.652  1.00  0.00     0.058 A 
ATOM     93  C   UNL A   1      43.673  30.420  28.001  1.00  0.00     0.135 A 
ATOM     94  C   UNL A   1      46.036  30.307  28.376  1.00  0.00     0.135 A 
ATOM     95  F   UNL A   1      42.412  30.059  28.270  1.00  0.00    -0.206 F 
ATOM     96  C   UNL A   1      43.856  31.484  27.111  1.00  0.00     0.059 A 
ATOM     97  C   UNL A   1      46.239  31.382  27.515  1.00  0.00     0.059 A 
ATOM     98  F   UNL A   1      47.107  29.799  29.008  1.00  0.00    -0.206 F 
ATOM     99  C   UNL A   1      45.144  31.965  26.883  1.00  0.00     0.060 A 
BRANCH  99 100
ATOM    100  S   UNL A   1      45.379  33.408  25.819  1.00  0.00     0.124 S 
ATOM    101  O   UNL A   1      44.709  34.460  26.578  1.00  0.00    -0.237 OA
ATOM    102  O   UNL A   1      46.833  33.513  25.740  1.00  0.00    -0.237 OA
ATOM    103  O   UNL A   1      44.722  33.025  24.572  1.00  0.00    -0.744 OA
ENDBRANCH  99 100
ENDBRANCH  67  92
ENDBRANCH  41  42
ENDBRANCH  33  36
ENDBRANCH  31  32
ENDBRANCH  30  31
ENDBRANCH   1  30
TORSDOF 18
ENDMDL
MODEL 2
REMARK VINA RESULT:     -12.5      3.254      9.408
REMARK SMILES CC1=Nc2nc(NC(=O)CCC(=O)NCCCCNC(=O)c3ccc(-c4c5nc(c(-c6c(F)cc(S(=O)(=O)[O-])cc6F)c6ccc([nH]6)c(-c6c(F)cc(S(=O)(=O)[O-])cc6F)c6nc(c(-c7c(F)cc(S(=O)(=O)[O-])cc7F)c7ccc4[nH]7)C=C6)C=C5)cc3)nn2[C@@H](c2ccc(Cl)cc2)C1
REMARK SMILES IDX 16 1 15 2 14 3 12 4 13 5 11 7 10 8 8 9 7 10 9 12 6 13 1 14
REMARK SMILES IDX 2 15 3 16 98 17 4 18 90 19 5 20 89 21 88 22 91 23 92 24
REMARK SMILES IDX 97 25 93 26 96 27 94 28 95 29 17 30 18 31 19 32 20 33 21 35
REMARK SMILES IDX 22 36 23 37 87 38 24 39 86 40 25 41 26 42 27 43 80 44 28 45
REMARK SMILES IDX 85 46 79 47 81 48 29 49 84 50 78 51 77 52 30 54 64 55 43 56
REMARK SMILES IDX 63 57 44 58 47 59 62 60 82 61 45 62 46 63 61 65 83 66 48 67
REMARK SMILES IDX 31 68 32 69 41 70 33 71 34 72 40 73 42 74 35 75 36 76 37 77
REMARK SMILES IDX 38 78 39 79 65 80 66 81 75 82 67 83 68 84 74 85 76 86 69 87
REMARK SMILES IDX 70 88 71 89 72 90 73 91 49 92 50 93 59 94 51 95 52 96 58 97
REMARK SMILES IDX 60 98 53 99 54 100 55 101 56 102 57 103
REMARK H PARENT 14 6 7 11 19 34 81 53 47 64
REMARK Flexibility Score: inf
ROOT
ATOM      1  C   UNL A   1      41.014  21.083  27.543  1.00  0.00     0.023 C 
ENDROOT
BRANCH   1   2
ATOM      2  C   UNL A   1      39.904  21.262  26.501  1.00  0.00     0.116 C 
BRANCH   2   3
ATOM      3  N   UNL A   1      39.666  22.620  26.054  1.00  0.00    -0.356 N 
ATOM      4  C   UNL A   1      38.508  23.341  26.093  1.00  0.00     0.220 C 
ATOM      5  O   UNL A   1      38.578  24.568  26.125  1.00  0.00    -0.275 OA
ATOM      6  H   UNL A   1      40.445  23.086  25.671  1.00  0.00     0.163 HD
BRANCH   4   7
ATOM      7  C   UNL A   1      37.159  22.668  26.041  1.00  0.00     0.110 C 
BRANCH   7   8
ATOM      8  C   UNL A   1      36.947  21.892  24.744  1.00  0.00     0.110 C 
BRANCH   8   9
ATOM      9  C   UNL A   1      35.989  20.742  24.914  1.00  0.00     0.227 C 
ATOM     10  N   UNL A   1      34.659  20.864  24.686  1.00  0.00    -0.293 N 
ATOM     11  H   UNL A   1      34.142  20.045  24.857  1.00  0.00     0.173 HD
ATOM     12  O   UNL A   1      36.432  19.617  25.183  1.00  0.00    -0.275 OA
BRANCH  10  13
ATOM     13  C   UNL A   1      33.910  21.921  24.261  1.00  0.00     0.250 A 
ATOM     14  C   UNL A   1      32.255  25.945  20.494  1.00  0.00     0.062 C 
ATOM     15  C   UNL A   1      32.361  25.040  21.694  1.00  0.00     0.021 C 
ATOM     16  N   UNL A   1      33.321  24.170  21.723  1.00  0.00    -0.221 NA
ATOM     17  C   UNL A   1      31.283  25.151  22.751  1.00  0.00     0.083 C 
ATOM     18  C   UNL A   1      33.399  23.367  22.807  1.00  0.00     0.250 A 
ATOM     19  C   UNL A   1      31.717  24.626  24.125  1.00  0.00     0.147 C 
ATOM     20  N   UNL A   1      34.019  22.217  22.934  1.00  0.00    -0.174 NA
ATOM     21  N   UNL A   1      32.804  23.660  24.009  1.00  0.00    -0.220 N 
ATOM     22  N   UNL A   1      33.104  22.730  24.949  1.00  0.00    -0.130 NA
BRANCH  19  23
ATOM     23  C   UNL A   1      31.932  25.761  25.112  1.00  0.00    -0.023 A 
ATOM     24  C   UNL A   1      30.982  26.165  26.054  1.00  0.00     0.007 A 
ATOM     25  C   UNL A   1      33.169  26.436  25.090  1.00  0.00     0.007 A 
ATOM     26  C   UNL A   1      31.197  27.303  26.844  1.00  0.00     0.021 A 
ATOM     27  C   UNL A   1      33.400  27.546  25.905  1.00  0.00     0.021 A 
ATOM     28  C   UNL A   1      32.394  28.003  26.746  1.00  0.00     0.041 A 
ATOM     29  Cl  UNL A   1      32.621  29.463  27.624  1.00  0.00    -0.084 Cl
ENDBRANCH  19  23
ENDBRANCH  10  13
ENDBRANCH   8   9
ENDBRANCH   7   8
ENDBRANCH   4   7
ENDBRANCH   2   3
ENDBRANCH   1   2
BRANCH   1  30
ATOM     30  C   UNL A   1      42.150  20.103  27.220  1.00  0.00     0.023 C 
BRANCH  30  31
ATOM     31  C   UNL A   1      42.245  19.743  25.751  1.00  0.00     0.116 C 
BRANCH  31  32
ATOM     32  N   UNL A   1      43.574  19.257  25.351  1.00  0.00    -0.352 N 
ATOM     33  C   UNL A   1      44.642  20.000  24.849  1.00  0.00     0.251 C 
ATOM     34  H   UNL A   1      43.729  18.290  25.449  1.00  0.00     0.163 HD
ATOM     35  O   UNL A   1      45.567  19.482  24.260  1.00  0.00    -0.269 OA
BRANCH  33  36
ATOM     36  C   UNL A   1      44.603  21.453  25.092  1.00  0.00     0.039 A 
ATOM     37  C   UNL A   1      43.626  22.296  24.561  1.00  0.00     0.014 A 
ATOM     38  C   UNL A   1      45.499  21.900  26.047  1.00  0.00     0.014 A 
ATOM     39  C   UNL A   1      43.504  23.577  25.101  1.00  0.00     0.010 A 
ATOM     40  C   UNL A   1      45.156  22.999  26.772  1.00  0.00     0.010 A 
ATOM     41  C   UNL A   1      44.257  23.907  26.241  1.00  0.00    -0.014 A 
BRANCH  41  42
ATOM     42  C   UNL A   1      44.104  25.161  26.965  1.00  0.00     0.031 A 
ATOM     43  C   UNL A   1      45.154  26.173  26.682  1.00  0.00     0.074 A 
ATOM     44  C   UNL A   1      42.990  25.447  27.681  1.00  0.00     0.049 A 
ATOM     45  N   UNL A   1      46.135  26.510  27.451  1.00  0.00    -0.248 NA
ATOM     46  C   UNL A   1      45.242  26.748  25.330  1.00  0.00     0.031 C 
ATOM     47  C   UNL A   1      41.738  24.682  27.822  1.00  0.00     0.029 A 
ATOM     48  N   UNL A   1      42.712  26.568  28.394  1.00  0.00    -0.354 N 
ATOM     49  C   UNL A   1      46.819  27.522  26.785  1.00  0.00     0.074 A 
ATOM     50  C   UNL A   1      46.358  27.477  25.421  1.00  0.00     0.031 C 
ATOM     51  C   UNL A   1      40.771  25.463  28.347  1.00  0.00     0.029 A 
ATOM     52  C   UNL A   1      41.382  26.700  28.783  1.00  0.00     0.049 A 
ATOM     53  H   UNL A   1      43.399  27.236  28.618  1.00  0.00     0.167 HD
ATOM     54  C   UNL A   1      47.525  28.461  27.475  1.00  0.00     0.037 A 
ATOM     55  C   UNL A   1      40.831  27.751  29.439  1.00  0.00     0.037 A 
ATOM     56  C   UNL A   1      47.696  28.062  28.852  1.00  0.00     0.049 A 
ATOM     57  C   UNL A   1      41.960  28.455  30.108  1.00  0.00     0.074 A 
ATOM     58  C   UNL A   1      48.308  26.994  29.479  1.00  0.00     0.029 A 
ATOM     59  N   UNL A   1      46.824  28.590  29.775  1.00  0.00    -0.354 N 
ATOM     60  N   UNL A   1      42.681  27.912  31.056  1.00  0.00    -0.248 NA
ATOM     61  C   UNL A   1      42.607  29.528  29.369  1.00  0.00     0.031 C 
ATOM     62  C   UNL A   1      47.421  26.637  30.537  1.00  0.00     0.029 A 
ATOM     63  C   UNL A   1      46.371  27.557  30.556  1.00  0.00     0.049 A 
ATOM     64  H   UNL A   1      46.570  29.538  29.859  1.00  0.00     0.167 HD
ATOM     65  C   UNL A   1      43.990  28.276  30.766  1.00  0.00     0.074 A 
ATOM     66  C   UNL A   1      43.873  29.320  29.746  1.00  0.00     0.031 C 
ATOM     67  C   UNL A   1      45.050  27.506  31.153  1.00  0.00     0.037 A 
BRANCH  54  68
ATOM     68  C   UNL A   1      47.740  29.887  27.033  1.00  0.00     0.058 A 
ATOM     69  C   UNL A   1      49.031  30.449  27.130  1.00  0.00     0.135 A 
ATOM     70  C   UNL A   1      46.694  30.804  26.791  1.00  0.00     0.135 A 
ATOM     71  F   UNL A   1      50.101  29.671  27.356  1.00  0.00    -0.206 F 
ATOM     72  C   UNL A   1      49.253  31.825  27.075  1.00  0.00     0.059 A 
ATOM     73  C   UNL A   1      46.899  32.173  26.681  1.00  0.00     0.059 A 
ATOM     74  F   UNL A   1      45.410  30.429  26.747  1.00  0.00    -0.206 F 
ATOM     75  C   UNL A   1      48.175  32.680  26.868  1.00  0.00     0.060 A 
BRANCH  75  76
ATOM     76  S   UNL A   1      48.441  34.460  26.901  1.00  0.00     0.124 S 
ATOM     77  O   UNL A   1      49.874  34.546  26.646  1.00  0.00    -0.237 OA
ATOM     78  O   UNL A   1      47.569  34.915  25.823  1.00  0.00    -0.237 OA
ATOM     79  O   UNL A   1      48.015  34.838  28.246  1.00  0.00    -0.744 OA
ENDBRANCH  75  76
ENDBRANCH  54  68
BRANCH  55  80
ATOM     80  C   UNL A   1      39.515  28.389  29.157  1.00  0.00     0.058 A 
ATOM     81  C   UNL A   1      38.558  28.569  30.170  1.00  0.00     0.135 A 
ATOM     82  C   UNL A   1      39.282  29.088  27.953  1.00  0.00     0.135 A 
ATOM     83  F   UNL A   1      38.709  27.956  31.355  1.00  0.00    -0.206 F 
ATOM     84  C   UNL A   1      37.461  29.428  30.020  1.00  0.00     0.059 A 
ATOM     85  C   UNL A   1      38.195  29.947  27.778  1.00  0.00     0.059 A 
ATOM     86  F   UNL A   1      40.160  29.028  26.940  1.00  0.00    -0.206 F 
ATOM     87  C   UNL A   1      37.301  30.131  28.826  1.00  0.00     0.060 A 
BRANCH  87  88
ATOM     88  S   UNL A   1      35.997  31.381  28.697  1.00  0.00     0.124 S 
ATOM     89  O   UNL A   1      36.763  32.587  28.405  1.00  0.00    -0.237 OA
ATOM     90  O   UNL A   1      35.178  30.865  27.605  1.00  0.00    -0.237 OA
ATOM     91  O   UNL A   1      35.363  31.342  30.012  1.00  0.00    -0.744 OA
ENDBRANCH  87  88
ENDBRANCH  55  80
BRANCH  67  92
ATOM     92  C   UNL A   1      44.816  26.378  32.130  1.00  0.00     0.058 A 
ATOM     93  C   UNL A   1      44.556  25.044  31.769  1.00  0.00     0.135 A 
ATOM     94  C   UNL A   1      45.085  26.629  33.484  1.00  0.00     0.135 A 
ATOM     95  F   UNL A   1      44.373  24.700  30.487  1.00  0.00    -0.206 F 
ATOM     96  C   UNL A   1      44.557  24.009  32.712  1.00  0.00     0.059 A 
ATOM     97  C   UNL A   1      45.117  25.613  34.435  1.00  0.00     0.059 A 
ATOM     98  F   UNL A   1      45.397  27.873  33.885  1.00  0.00    -0.206 F 
ATOM     99  C   UNL A   1      44.849  24.304  34.043  1.00  0.00     0.060 A 
BRANCH  99 100
ATOM    100  S   UNL A   1      44.958  22.960  35.248  1.00  0.00     0.124 S 
ATOM    101  O   UNL A   1      44.530  23.617  36.479  1.00  0.00    -0.237 OA
ATOM    102  O   UNL A   1      44.035  21.969  34.704  1.00  0.00    -0.237 OA
ATOM    103  O   UNL A   1      46.367  22.576  35.204  1.00  0.00    -0.744 OA
ENDBRANCH  99 100
ENDBRANCH  67  92
ENDBRANCH  41  42
ENDBRANCH  33  36
ENDBRANCH  31  32
ENDBRANCH  30  31
ENDBRANCH   1  30
TORSDOF 18
ENDMDL
MODEL 3
REMARK VINA RESULT:     -12.5      3.518      8.135
REMARK SMILES CC1=Nc2nc(NC(=O)CCC(=O)NCCCCNC(=O)c3ccc(-c4c5nc(c(-c6c(F)cc(S(=O)(=O)[O-])cc6F)c6ccc([nH]6)c(-c6c(F)cc(S(=O)(=O)[O-])cc6F)c6nc(c(-c7c(F)cc(S(=O)(=O)[O-])cc7F)c7ccc4[nH]7)C=C6)C=C5)cc3)nn2[C@@H](c2ccc(Cl)cc2)C1
REMARK SMILES IDX 16 1 15 2 14 3 12 4 13 5 11 7 10 8 8 9 7 10 9 12 6 13 1 14
REMARK SMILES IDX 2 15 3 16 98 17 4 18 90 19 5 20 89 21 88 22 91 23 92 24
REMARK SMILES IDX 97 25 93 26 96 27 94 28 95 29 17 30 18 31 19 32 20 33 21 35
REMARK SMILES IDX 22 36 23 37 87 38 24 39 86 40 25 41 26 42 27 43 80 44 28 45
REMARK SMILES IDX 85 46 79 47 81 48 29 49 84 50 78 51 77 52 30 54 64 55 43 56
REMARK SMILES IDX 63 57 44 58 47 59 62 60 82 61 45 62 46 63 61 65 83 66 48 67
REMARK SMILES IDX 31 68 32 69 41 70 33 71 34 72 40 73 42 74 35 75 36 76 37 77
REMARK SMILES IDX 38 78 39 79 65 80 66 81 75 82 67 83 68 84 74 85 76 86 69 87
REMARK SMILES IDX 70 88 71 89 72 90 73 91 49 92 50 93 59 94 51 95 52 96 58 97
REMARK SMILES IDX 60 98 53 99 54 100 55 101 56 102 57 103
REMARK H PARENT 14 6 7 11 19 34 81 53 47 64
REMARK Flexibility Score: inf
ROOT
ATOM      1  C   UNL A   1      32.283  28.264  27.081  1.00  0.00     0.023 C 
ENDROOT
BRANCH   1   2
ATOM      2  C   UNL A   1      32.151  27.617  25.697  1.00  0.00     0.116 C 
BRANCH   2   3
ATOM      3  N   UNL A   1      31.779  28.505  24.614  1.00  0.00    -0.356 N 
ATOM      4  C   UNL A   1      31.070  28.222  23.482  1.00  0.00     0.220 C 
ATOM      5  O   UNL A   1      30.453  29.132  22.931  1.00  0.00    -0.275 OA
ATOM      6  H   UNL A   1      32.077  29.439  24.707  1.00  0.00     0.163 HD
BRANCH   4   7
ATOM      7  C   UNL A   1      31.076  26.842  22.875  1.00  0.00     0.110 C 
BRANCH   7   8
ATOM      8  C   UNL A   1      32.456  26.439  22.361  1.00  0.00     0.110 C 
BRANCH   8   9
ATOM      9  C   UNL A   1      32.379  25.453  21.225  1.00  0.00     0.227 C 
ATOM     10  N   UNL A   1      32.869  24.194  21.322  1.00  0.00    -0.293 N 
ATOM     11  H   UNL A   1      32.776  23.659  20.501  1.00  0.00     0.173 HD
ATOM     12  O   UNL A   1      31.768  25.762  20.193  1.00  0.00    -0.275 OA
BRANCH  10  13
ATOM     13  C   UNL A   1      33.467  23.536  22.354  1.00  0.00     0.250 A 
ATOM     14  C   UNL A   1      37.935  21.909  25.596  1.00  0.00     0.062 C 
ATOM     15  C   UNL A   1      36.551  22.137  25.047  1.00  0.00     0.021 C 
ATOM     16  N   UNL A   1      36.432  22.794  23.937  1.00  0.00    -0.221 NA
ATOM     17  C   UNL A   1      35.381  21.655  25.878  1.00  0.00     0.083 C 
ATOM     18  C   UNL A   1      35.183  22.990  23.460  1.00  0.00     0.250 A 
ATOM     19  C   UNL A   1      34.101  21.436  25.063  1.00  0.00     0.147 C 
ATOM     20  N   UNL A   1      34.765  23.881  22.593  1.00  0.00    -0.174 NA
ATOM     21  N   UNL A   1      34.102  22.232  23.840  1.00  0.00    -0.220 N 
ATOM     22  N   UNL A   1      32.987  22.584  23.155  1.00  0.00    -0.130 NA
BRANCH  19  23
ATOM     23  C   UNL A   1      33.791  19.957  24.898  1.00  0.00    -0.023 A 
ATOM     24  C   UNL A   1      32.511  19.411  25.021  1.00  0.00     0.007 A 
ATOM     25  C   UNL A   1      34.854  19.086  24.587  1.00  0.00     0.007 A 
ATOM     26  C   UNL A   1      32.320  18.022  24.987  1.00  0.00     0.021 A 
ATOM     27  C   UNL A   1      34.659  17.705  24.513  1.00  0.00     0.021 A 
ATOM     28  C   UNL A   1      33.398  17.176  24.760  1.00  0.00     0.041 A 
ATOM     29  Cl  UNL A   1      33.195  15.471  24.831  1.00  0.00    -0.084 Cl
ENDBRANCH  19  23
ENDBRANCH  10  13
ENDBRANCH   8   9
ENDBRANCH   7   8
ENDBRANCH   4   7
ENDBRANCH   2   3
ENDBRANCH   1   2
BRANCH   1  30
ATOM     30  C   UNL A   1      31.775  29.701  27.251  1.00  0.00     0.023 C 
BRANCH  30  31
ATOM     31  C   UNL A   1      32.870  30.747  27.192  1.00  0.00     0.116 C 
BRANCH  31  32
ATOM     32  N   UNL A   1      32.365  32.117  27.012  1.00  0.00    -0.352 N 
ATOM     33  C   UNL A   1      32.744  33.267  27.703  1.00  0.00     0.251 C 
ATOM     34  H   UNL A   1      31.676  32.236  26.320  1.00  0.00     0.163 HD
ATOM     35  O   UNL A   1      32.062  34.270  27.708  1.00  0.00    -0.269 OA
BRANCH  33  36
ATOM     36  C   UNL A   1      34.035  33.211  28.412  1.00  0.00     0.039 A 
ATOM     37  C   UNL A   1      34.187  32.680  29.694  1.00  0.00     0.014 A 
ATOM     38  C   UNL A   1      35.130  33.551  27.638  1.00  0.00     0.014 A 
ATOM     39  C   UNL A   1      35.480  32.395  30.134  1.00  0.00     0.010 A 
ATOM     40  C   UNL A   1      36.323  32.970  27.940  1.00  0.00     0.010 A 
ATOM     41  C   UNL A   1      36.547  32.512  29.226  1.00  0.00    -0.014 A 
BRANCH  41  42
ATOM     42  C   UNL A   1      37.910  32.108  29.538  1.00  0.00     0.031 A 
ATOM     43  C   UNL A   1      38.228  30.694  29.215  1.00  0.00     0.074 A 
ATOM     44  C   UNL A   1      38.859  33.003  29.906  1.00  0.00     0.049 A 
ATOM     45  N   UNL A   1      38.356  29.716  30.049  1.00  0.00    -0.248 NA
ATOM     46  C   UNL A   1      38.226  30.268  27.806  1.00  0.00     0.031 C 
ATOM     47  C   UNL A   1      38.787  34.473  29.988  1.00  0.00     0.029 A 
ATOM     48  N   UNL A   1      40.160  32.770  30.218  1.00  0.00    -0.354 N 
ATOM     49  C   UNL A   1      38.700  28.602  29.290  1.00  0.00     0.074 A 
ATOM     50  C   UNL A   1      38.402  28.949  27.924  1.00  0.00     0.031 C 
ATOM     51  C   UNL A   1      40.029  34.996  30.073  1.00  0.00     0.029 A 
ATOM     52  C   UNL A   1      40.960  33.908  30.276  1.00  0.00     0.049 A 
ATOM     53  H   UNL A   1      40.510  31.867  30.390  1.00  0.00     0.167 HD
ATOM     54  C   UNL A   1      39.425  27.583  29.831  1.00  0.00     0.037 A 
ATOM     55  C   UNL A   1      42.298  33.945  30.497  1.00  0.00     0.037 A 
ATOM     56  C   UNL A   1      39.475  27.700  31.269  1.00  0.00     0.049 A 
ATOM     57  C   UNL A   1      42.640  32.662  31.169  1.00  0.00     0.074 A 
ATOM     58  C   UNL A   1      38.525  27.693  32.273  1.00  0.00     0.029 A 
ATOM     59  N   UNL A   1      40.596  28.281  31.817  1.00  0.00    -0.354 N 
ATOM     60  N   UNL A   1      42.194  32.333  32.355  1.00  0.00    -0.248 NA
ATOM     61  C   UNL A   1      43.026  31.547  30.318  1.00  0.00     0.031 C 
ATOM     62  C   UNL A   1      38.950  28.706  33.182  1.00  0.00     0.029 A 
ATOM     63  C   UNL A   1      40.175  29.207  32.737  1.00  0.00     0.049 A 
ATOM     64  H   UNL A   1      41.530  28.070  31.589  1.00  0.00     0.167 HD
ATOM     65  C   UNL A   1      41.854  30.990  32.253  1.00  0.00     0.074 A 
ATOM     66  C   UNL A   1      42.444  30.547  30.988  1.00  0.00     0.031 C 
ATOM     67  C   UNL A   1      40.886  30.434  33.042  1.00  0.00     0.037 A 
BRANCH  54  68
ATOM     68  C   UNL A   1      40.390  26.705  29.076  1.00  0.00     0.058 A 
ATOM     69  C   UNL A   1      41.610  27.253  28.624  1.00  0.00     0.135 A 
ATOM     70  C   UNL A   1      40.051  25.446  28.533  1.00  0.00     0.135 A 
ATOM     71  F   UNL A   1      42.033  28.445  29.075  1.00  0.00    -0.206 F 
ATOM     72  C   UNL A   1      42.390  26.636  27.646  1.00  0.00     0.059 A 
ATOM     73  C   UNL A   1      40.840  24.789  27.596  1.00  0.00     0.059 A 
ATOM     74  F   UNL A   1      38.893  24.835  28.811  1.00  0.00    -0.206 F 
ATOM     75  C   UNL A   1      41.985  25.411  27.126  1.00  0.00     0.060 A 
BRANCH  75  76
ATOM     76  S   UNL A   1      42.931  24.663  25.789  1.00  0.00     0.124 S 
ATOM     77  O   UNL A   1      44.272  24.638  26.360  1.00  0.00    -0.237 OA
ATOM     78  O   UNL A   1      42.273  23.369  25.642  1.00  0.00    -0.237 OA
ATOM     79  O   UNL A   1      42.734  25.590  24.678  1.00  0.00    -0.744 OA
ENDBRANCH  75  76
ENDBRANCH  54  68
BRANCH  55  80
ATOM     80  C   UNL A   1      43.296  34.795  29.791  1.00  0.00     0.058 A 
ATOM     81  C   UNL A   1      43.574  34.615  28.425  1.00  0.00     0.135 A 
ATOM     82  C   UNL A   1      43.788  35.985  30.372  1.00  0.00     0.135 A 
ATOM     83  F   UNL A   1      43.128  33.522  27.786  1.00  0.00    -0.206 F 
ATOM     84  C   UNL A   1      44.255  35.577  27.666  1.00  0.00     0.059 A 
ATOM     85  C   UNL A   1      44.473  36.955  29.638  1.00  0.00     0.059 A 
ATOM     86  F   UNL A   1      43.534  36.280  31.656  1.00  0.00    -0.206 F 
ATOM     87  C   UNL A   1      44.682  36.755  28.278  1.00  0.00     0.060 A 
BRANCH  87  88
ATOM     88  S   UNL A   1      45.393  38.077  27.266  1.00  0.00     0.124 S 
ATOM     89  O   UNL A   1      46.167  37.323  26.286  1.00  0.00    -0.237 OA
ATOM     90  O   UNL A   1      44.204  38.752  26.755  1.00  0.00    -0.237 OA
ATOM     91  O   UNL A   1      46.176  38.851  28.225  1.00  0.00    -0.744 OA
ENDBRANCH  87  88
ENDBRANCH  55  80
BRANCH  67  92
ATOM     92  C   UNL A   1      40.359  31.223  34.217  1.00  0.00     0.058 A 
ATOM     93  C   UNL A   1      39.222  32.051  34.183  1.00  0.00     0.135 A 
ATOM     94  C   UNL A   1      40.908  30.950  35.478  1.00  0.00     0.135 A 
ATOM     95  F   UNL A   1      38.582  32.296  33.032  1.00  0.00    -0.206 F 
ATOM     96  C   UNL A   1      38.663  32.587  35.348  1.00  0.00     0.059 A 
ATOM     97  C   UNL A   1      40.354  31.450  36.653  1.00  0.00     0.059 A 
ATOM     98  F   UNL A   1      41.960  30.120  35.585  1.00  0.00    -0.206 F 
ATOM     99  C   UNL A   1      39.232  32.272  36.581  1.00  0.00     0.060 A 
BRANCH  99 100
ATOM    100  S   UNL A   1      38.454  32.871  38.099  1.00  0.00     0.124 S 
ATOM    101  O   UNL A   1      39.406  32.445  39.121  1.00  0.00    -0.237 OA
ATOM    102  O   UNL A   1      38.373  34.310  37.869  1.00  0.00    -0.237 OA
ATOM    103  O   UNL A   1      37.168  32.179  38.120  1.00  0.00    -0.744 OA
ENDBRANCH  99 100
ENDBRANCH  67  92
ENDBRANCH  41  42
ENDBRANCH  33  36
ENDBRANCH  31  32
ENDBRANCH  30  31
ENDBRANCH   1  30
TORSDOF 18
ENDMDL
