MODEL 1
REMARK VINA RESULT:     -12.5      0.000      0.000
REMARK SMILES CCc1nc(N2CCC[C@@H](C(=O)NCCCCNC(=O)c3ccc(-c4c5nc(c(-c6c(F)cc(S(=O)(=O)[O-])cc6F)c6ccc([nH]6)c(-c6c(F)cc(S(=O)(=O)[O-])cc6F)c6nc(c(-c7c(F)cc(S(=O)(=O)[O-])cc7F)c7ccc4[nH]7)C=C6)C=C5)cc3)C2)c2c(C)c(C)oc2n1
REMARK SMILES IDX 16 1 15 2 14 3 13 4 11 5 12 6 10 8 6 9 7 10 87 11 8 12 9 13
REMARK SMILES IDX 5 14 3 15 4 16 95 17 94 18 88 19 93 20 89 21 91 22 90 23
REMARK SMILES IDX 92 24 2 25 1 26 17 27 18 28 19 29 20 31 21 32 22 33 86 34
REMARK SMILES IDX 23 35 85 36 24 37 25 38 26 39 79 40 27 41 84 42 78 43 80 44
REMARK SMILES IDX 28 45 83 46 77 47 76 48 29 50 63 51 42 52 62 53 43 54 46 55
REMARK SMILES IDX 61 56 81 57 44 58 45 59 60 61 82 62 47 63 30 64 31 65 40 66
REMARK SMILES IDX 32 67 33 68 39 69 41 70 34 71 35 72 36 73 37 74 38 75 64 76
REMARK SMILES IDX 65 77 74 78 66 79 67 80 73 81 75 82 68 83 69 84 70 85 71 86
REMARK SMILES IDX 72 87 48 88 49 89 58 90 50 91 51 92 57 93 59 94 52 95 53 96
REMARK SMILES IDX 54 97 55 98 56 99
REMARK H PARENT 13 7 18 30 80 49 46 60
REMARK Flexibility Score: inf
ROOT
ATOM      1  C   UNL A   1      36.577  21.961  24.533  1.00  0.00     0.023 C 
ENDROOT
BRANCH   1   2
ATOM      2  C   UNL A   1      36.340  22.855  23.300  1.00  0.00     0.023 C 
BRANCH   2   3
ATOM      3  C   UNL A   1      34.934  23.440  23.145  1.00  0.00     0.116 C 
BRANCH   3   4
ATOM      4  N   UNL A   1      33.907  22.425  22.952  1.00  0.00    -0.356 N 
ATOM      5  C   UNL A   1      32.593  22.402  23.334  1.00  0.00     0.224 C 
ATOM      6  O   UNL A   1      31.878  21.490  22.917  1.00  0.00    -0.275 OA
ATOM      7  H   UNL A   1      34.208  21.622  22.467  1.00  0.00     0.163 HD
BRANCH   5   8
ATOM      8  C   UNL A   1      32.068  23.430  24.315  1.00  0.00     0.098 C 
ATOM      9  N   UNL A   1      30.559  25.217  24.741  1.00  0.00    -0.355 N 
ATOM     10  C   UNL A   1      29.922  24.681  25.931  1.00  0.00     0.118 C 
ATOM     11  C   UNL A   1      30.923  24.253  23.710  1.00  0.00     0.131 C 
ATOM     12  C   UNL A   1      30.854  23.653  26.585  1.00  0.00     0.022 C 
ATOM     13  C   UNL A   1      31.583  22.726  25.598  1.00  0.00     0.017 C 
BRANCH   9  14
ATOM     14  C   UNL A   1      30.415  26.548  24.426  1.00  0.00     0.143 A 
ATOM     15  C   UNL A   1      29.160  28.295  23.490  1.00  0.00     0.134 A 
ATOM     16  N   UNL A   1      29.309  26.977  23.770  1.00  0.00    -0.215 NA
ATOM     17  N   UNL A   1      30.012  29.278  23.813  1.00  0.00    -0.197 NA
ATOM     18  C   UNL A   1      31.114  28.812  24.409  1.00  0.00     0.231 A 
ATOM     19  C   UNL A   1      31.404  27.498  24.736  1.00  0.00     0.086 A 
ATOM     20  O   UNL A   1      32.138  29.625  24.789  1.00  0.00    -0.443 OA
ATOM     21  C   UNL A   1      32.727  27.509  25.293  1.00  0.00     0.004 A 
ATOM     22  C   UNL A   1      33.107  28.837  25.325  1.00  0.00     0.107 A 
ATOM     23  C   UNL A   1      33.557  26.364  25.731  1.00  0.00     0.049 C 
ATOM     24  C   UNL A   1      34.330  29.525  25.787  1.00  0.00     0.088 C 
BRANCH  15  25
ATOM     25  C   UNL A   1      27.882  28.714  22.807  1.00  0.00     0.074 C 
ATOM     26  C   UNL A   1      27.673  30.222  22.816  1.00  0.00     0.012 C 
ENDBRANCH  15  25
ENDBRANCH   9  14
ENDBRANCH   5   8
ENDBRANCH   3   4
ENDBRANCH   2   3
ENDBRANCH   1   2
BRANCH   1  27
ATOM     27  C   UNL A   1      37.169  22.645  25.782  1.00  0.00     0.116 C 
BRANCH  27  28
ATOM     28  N   UNL A   1      38.255  21.862  26.351  1.00  0.00    -0.352 N 
ATOM     29  C   UNL A   1      39.514  22.193  26.783  1.00  0.00     0.251 C 
ATOM     30  H   UNL A   1      38.045  20.905  26.443  1.00  0.00     0.163 HD
ATOM     31  O   UNL A   1      40.303  21.262  26.962  1.00  0.00    -0.269 OA
BRANCH  29  32
ATOM     32  C   UNL A   1      39.978  23.580  27.050  1.00  0.00     0.039 A 
ATOM     33  C   UNL A   1      41.235  23.948  26.540  1.00  0.00     0.014 A 
ATOM     34  C   UNL A   1      39.317  24.462  27.906  1.00  0.00     0.014 A 
ATOM     35  C   UNL A   1      41.809  25.190  26.849  1.00  0.00     0.010 A 
ATOM     36  C   UNL A   1      39.896  25.707  28.216  1.00  0.00     0.010 A 
ATOM     37  C   UNL A   1      41.140  26.093  27.682  1.00  0.00    -0.014 A 
BRANCH  37  38
ATOM     38  C   UNL A   1      41.682  27.472  27.824  1.00  0.00     0.031 A 
ATOM     39  C   UNL A   1      40.659  28.556  27.804  1.00  0.00     0.074 A 
ATOM     40  C   UNL A   1      42.893  27.785  28.342  1.00  0.00     0.049 A 
ATOM     41  N   UNL A   1      39.971  28.870  28.861  1.00  0.00    -0.248 NA
ATOM     42  C   UNL A   1      40.176  29.183  26.575  1.00  0.00     0.031 C 
ATOM     43  C   UNL A   1      43.603  26.960  29.324  1.00  0.00     0.029 A 
ATOM     44  N   UNL A   1      43.623  28.958  28.304  1.00  0.00    -0.354 N 
ATOM     45  C   UNL A   1      38.940  29.692  28.453  1.00  0.00     0.074 A 
ATOM     46  C   UNL A   1      39.114  29.870  27.027  1.00  0.00     0.031 C 
ATOM     47  C   UNL A   1      44.560  27.710  29.911  1.00  0.00     0.029 A 
ATOM     48  C   UNL A   1      44.653  29.014  29.248  1.00  0.00     0.049 A 
ATOM     49  H   UNL A   1      43.435  29.689  27.671  1.00  0.00     0.167 HD
ATOM     50  C   UNL A   1      38.004  30.168  29.314  1.00  0.00     0.037 A 
ATOM     51  C   UNL A   1      45.098  30.136  29.887  1.00  0.00     0.037 A 
ATOM     52  C   UNL A   1      38.179  29.793  30.686  1.00  0.00     0.049 A 
ATOM     53  C   UNL A   1      43.862  30.592  30.614  1.00  0.00     0.074 A 
ATOM     54  C   UNL A   1      37.738  28.798  31.533  1.00  0.00     0.029 A 
ATOM     55  N   UNL A   1      39.072  30.519  31.439  1.00  0.00    -0.354 N 
ATOM     56  N   UNL A   1      43.406  30.105  31.735  1.00  0.00    -0.248 NA
ATOM     57  C   UNL A   1      42.912  31.426  29.874  1.00  0.00     0.031 C 
ATOM     58  C   UNL A   1      38.730  28.708  32.562  1.00  0.00     0.029 A 
ATOM     59  C   UNL A   1      39.730  29.625  32.245  1.00  0.00     0.049 A 
ATOM     60  H   UNL A   1      39.213  31.492  31.405  1.00  0.00     0.167 HD
ATOM     61  C   UNL A   1      42.033  30.347  31.710  1.00  0.00     0.074 A 
ATOM     62  C   UNL A   1      41.798  31.180  30.548  1.00  0.00     0.031 C 
ATOM     63  C   UNL A   1      41.145  29.713  32.528  1.00  0.00     0.037 A 
BRANCH  50  64
ATOM     64  C   UNL A   1      36.963  31.150  28.960  1.00  0.00     0.058 A 
ATOM     65  C   UNL A   1      37.299  32.511  29.005  1.00  0.00     0.135 A 
ATOM     66  C   UNL A   1      35.618  30.800  28.804  1.00  0.00     0.135 A 
ATOM     67  F   UNL A   1      38.582  32.879  29.164  1.00  0.00    -0.206 F 
ATOM     68  C   UNL A   1      36.329  33.499  28.956  1.00  0.00     0.059 A 
ATOM     69  C   UNL A   1      34.625  31.775  28.744  1.00  0.00     0.059 A 
ATOM     70  F   UNL A   1      35.255  29.508  28.762  1.00  0.00    -0.206 F 
ATOM     71  C   UNL A   1      34.991  33.120  28.848  1.00  0.00     0.060 A 
BRANCH  71  72
ATOM     72  S   UNL A   1      33.742  34.423  28.901  1.00  0.00     0.124 S 
ATOM     73  O   UNL A   1      32.705  33.878  28.031  1.00  0.00    -0.237 OA
ATOM     74  O   UNL A   1      33.421  34.471  30.323  1.00  0.00    -0.237 OA
ATOM     75  O   UNL A   1      34.448  35.590  28.381  1.00  0.00    -0.744 OA
ENDBRANCH  71  72
ENDBRANCH  50  64
BRANCH  51  76
ATOM     76  C   UNL A   1      45.965  31.099  29.124  1.00  0.00     0.058 A 
ATOM     77  C   UNL A   1      46.470  30.732  27.861  1.00  0.00     0.135 A 
ATOM     78  C   UNL A   1      46.363  32.366  29.593  1.00  0.00     0.135 A 
ATOM     79  F   UNL A   1      46.270  29.492  27.385  1.00  0.00    -0.206 F 
ATOM     80  C   UNL A   1      47.188  31.615  27.054  1.00  0.00     0.059 A 
ATOM     81  C   UNL A   1      47.056  33.279  28.795  1.00  0.00     0.059 A 
ATOM     82  F   UNL A   1      46.077  32.762  30.841  1.00  0.00    -0.206 F 
ATOM     83  C   UNL A   1      47.435  32.906  27.511  1.00  0.00     0.060 A 
BRANCH  83  84
ATOM     84  S   UNL A   1      48.190  34.100  26.386  1.00  0.00     0.124 S 
ATOM     85  O   UNL A   1      47.197  34.178  25.317  1.00  0.00    -0.237 OA
ATOM     86  O   UNL A   1      48.297  35.284  27.237  1.00  0.00    -0.237 OA
ATOM     87  O   UNL A   1      49.455  33.479  26.028  1.00  0.00    -0.744 OA
ENDBRANCH  83  84
ENDBRANCH  51  76
BRANCH  63  88
ATOM     88  C   UNL A   1      41.735  28.885  33.620  1.00  0.00     0.058 A 
ATOM     89  C   UNL A   1      41.669  29.322  34.949  1.00  0.00     0.135 A 
ATOM     90  C   UNL A   1      42.296  27.621  33.371  1.00  0.00     0.135 A 
ATOM     91  F   UNL A   1      41.139  30.522  35.242  1.00  0.00    -0.206 F 
ATOM     92  C   UNL A   1      42.096  28.517  36.000  1.00  0.00     0.059 A 
ATOM     93  C   UNL A   1      42.711  26.791  34.408  1.00  0.00     0.059 A 
ATOM     94  F   UNL A   1      42.406  27.156  32.115  1.00  0.00    -0.206 F 
ATOM     95  C   UNL A   1      42.593  27.242  35.723  1.00  0.00     0.060 A 
BRANCH  95  96
ATOM     96  S   UNL A   1      42.992  26.154  37.105  1.00  0.00     0.124 S 
ATOM     97  O   UNL A   1      44.255  26.710  37.581  1.00  0.00    -0.237 OA
ATOM     98  O   UNL A   1      41.845  26.343  37.988  1.00  0.00    -0.237 OA
ATOM     99  O   UNL A   1      43.083  24.834  36.489  1.00  0.00    -0.744 OA
ENDBRANCH  95  96
ENDBRANCH  63  88
ENDBRANCH  37  38
ENDBRANCH  29  32
ENDBRANCH  27  28
ENDBRANCH   1  27
TORSDOF 16
ENDMDL
MODEL 2
REMARK VINA RESULT:     -12.2      1.792      2.829
REMARK SMILES CCc1nc(N2CCC[C@@H](C(=O)NCCCCNC(=O)c3ccc(-c4c5nc(c(-c6c(F)cc(S(=O)(=O)[O-])cc6F)c6ccc([nH]6)c(-c6c(F)cc(S(=O)(=O)[O-])cc6F)c6nc(c(-c7c(F)cc(S(=O)(=O)[O-])cc7F)c7ccc4[nH]7)C=C6)C=C5)cc3)C2)c2c(C)c(C)oc2n1
REMARK SMILES IDX 16 1 15 2 14 3 13 4 11 5 12 6 10 8 6 9 7 10 87 11 8 12 9 13
REMARK SMILES IDX 5 14 3 15 4 16 95 17 94 18 88 19 93 20 89 21 91 22 90 23
REMARK SMILES IDX 92 24 2 25 1 26 17 27 18 28 19 29 20 31 21 32 22 33 86 34
REMARK SMILES IDX 23 35 85 36 24 37 25 38 26 39 79 40 27 41 84 42 78 43 80 44
REMARK SMILES IDX 28 45 83 46 77 47 76 48 29 50 63 51 42 52 62 53 43 54 46 55
REMARK SMILES IDX 61 56 81 57 44 58 45 59 60 61 82 62 47 63 30 64 31 65 40 66
REMARK SMILES IDX 32 67 33 68 39 69 41 70 34 71 35 72 36 73 37 74 38 75 64 76
REMARK SMILES IDX 65 77 74 78 66 79 67 80 73 81 75 82 68 83 69 84 70 85 71 86
REMARK SMILES IDX 72 87 48 88 49 89 58 90 50 91 51 92 57 93 59 94 52 95 53 96
REMARK SMILES IDX 54 97 55 98 56 99
REMARK H PARENT 13 7 18 30 80 49 46 60
REMARK Flexibility Score: inf
ROOT
ATOM      1  C   UNL A   1      35.647  23.310  26.066  1.00  0.00     0.023 C 
ENDROOT
BRANCH   1   2
ATOM      2  C   UNL A   1      34.914  22.115  26.705  1.00  0.00     0.023 C 
BRANCH   2   3
ATOM      3  C   UNL A   1      33.579  21.716  26.069  1.00  0.00     0.116 C 
BRANCH   3   4
ATOM      4  N   UNL A   1      32.425  22.080  26.880  1.00  0.00    -0.356 N 
ATOM      5  C   UNL A   1      31.503  23.079  26.723  1.00  0.00     0.224 C 
ATOM      6  O   UNL A   1      30.519  23.090  27.463  1.00  0.00    -0.275 OA
ATOM      7  H   UNL A   1      32.283  21.512  27.672  1.00  0.00     0.163 HD
BRANCH   5   8
ATOM      8  C   UNL A   1      31.748  24.188  25.719  1.00  0.00     0.098 C 
ATOM      9  N   UNL A   1      32.955  26.154  25.148  1.00  0.00    -0.355 N 
ATOM     10  C   UNL A   1      33.458  25.728  23.854  1.00  0.00     0.118 C 
ATOM     11  C   UNL A   1      32.869  25.128  26.179  1.00  0.00     0.131 C 
ATOM     12  C   UNL A   1      32.562  24.612  23.304  1.00  0.00     0.022 C 
ATOM     13  C   UNL A   1      32.107  23.579  24.348  1.00  0.00     0.017 C 
BRANCH   9  14
ATOM     14  C   UNL A   1      32.991  27.484  25.494  1.00  0.00     0.143 A 
ATOM     15  C   UNL A   1      33.998  29.263  26.647  1.00  0.00     0.134 A 
ATOM     16  N   UNL A   1      33.951  27.945  26.334  1.00  0.00    -0.215 NA
ATOM     17  N   UNL A   1      33.175  30.218  26.192  1.00  0.00    -0.197 NA
ATOM     18  C   UNL A   1      32.210  29.721  25.412  1.00  0.00     0.231 A 
ATOM     19  C   UNL A   1      32.032  28.401  25.028  1.00  0.00     0.086 A 
ATOM     20  O   UNL A   1      31.235  30.500  24.869  1.00  0.00    -0.443 OA
ATOM     21  C   UNL A   1      30.825  28.372  24.253  1.00  0.00     0.004 A 
ATOM     22  C   UNL A   1      30.403  29.685  24.168  1.00  0.00     0.107 A 
ATOM     23  C   UNL A   1      30.127  27.204  23.670  1.00  0.00     0.049 C 
ATOM     24  C   UNL A   1      29.251  30.334  23.510  1.00  0.00     0.088 C 
BRANCH  15  25
ATOM     25  C   UNL A   1      35.123  29.718  27.543  1.00  0.00     0.074 C 
ATOM     26  C   UNL A   1      35.140  31.227  27.749  1.00  0.00     0.012 C 
ENDBRANCH  15  25
ENDBRANCH   9  14
ENDBRANCH   5   8
ENDBRANCH   3   4
ENDBRANCH   2   3
ENDBRANCH   1   2
BRANCH   1  27
ATOM     27  C   UNL A   1      36.903  22.988  25.231  1.00  0.00     0.116 C 
BRANCH  27  28
ATOM     28  N   UNL A   1      37.822  22.133  25.964  1.00  0.00    -0.352 N 
ATOM     29  C   UNL A   1      39.037  22.363  26.557  1.00  0.00     0.251 C 
ATOM     30  H   UNL A   1      37.510  21.203  26.052  1.00  0.00     0.163 HD
ATOM     31  O   UNL A   1      39.702  21.371  26.868  1.00  0.00    -0.269 OA
BRANCH  29  32
ATOM     32  C   UNL A   1      39.593  23.712  26.847  1.00  0.00     0.039 A 
ATOM     33  C   UNL A   1      40.817  24.048  26.244  1.00  0.00     0.014 A 
ATOM     34  C   UNL A   1      39.056  24.576  27.802  1.00  0.00     0.014 A 
ATOM     35  C   UNL A   1      41.477  25.244  26.559  1.00  0.00     0.010 A 
ATOM     36  C   UNL A   1      39.721  25.775  28.119  1.00  0.00     0.010 A 
ATOM     37  C   UNL A   1      40.931  26.132  27.493  1.00  0.00    -0.014 A 
BRANCH  37  38
ATOM     38  C   UNL A   1      41.553  27.474  27.653  1.00  0.00     0.031 A 
ATOM     39  C   UNL A   1      40.620  28.552  28.089  1.00  0.00     0.074 A 
ATOM     40  C   UNL A   1      42.876  27.707  27.820  1.00  0.00     0.049 A 
ATOM     41  N   UNL A   1      40.292  28.713  29.336  1.00  0.00    -0.248 NA
ATOM     42  C   UNL A   1      39.822  29.350  27.159  1.00  0.00     0.031 C 
ATOM     43  C   UNL A   1      43.807  26.748  28.421  1.00  0.00     0.029 A 
ATOM     44  N   UNL A   1      43.613  28.873  27.725  1.00  0.00    -0.354 N 
ATOM     45  C   UNL A   1      39.225  29.587  29.373  1.00  0.00     0.074 A 
ATOM     46  C   UNL A   1      38.975  29.967  27.999  1.00  0.00     0.031 C 
ATOM     47  C   UNL A   1      44.929  27.404  28.790  1.00  0.00     0.029 A 
ATOM     48  C   UNL A   1      44.879  28.790  28.315  1.00  0.00     0.049 A 
ATOM     49  H   UNL A   1      43.279  29.686  27.284  1.00  0.00     0.167 HD
ATOM     50  C   UNL A   1      38.609  29.936  30.532  1.00  0.00     0.037 A 
ATOM     51  C   UNL A   1      45.544  29.807  28.937  1.00  0.00     0.037 A 
ATOM     52  C   UNL A   1      39.166  29.367  31.723  1.00  0.00     0.049 A 
ATOM     53  C   UNL A   1      44.601  30.157  30.057  1.00  0.00     0.074 A 
ATOM     54  C   UNL A   1      38.953  28.262  32.520  1.00  0.00     0.029 A 
ATOM     55  N   UNL A   1      40.274  29.975  32.265  1.00  0.00    -0.354 N 
ATOM     56  N   UNL A   1      44.478  29.514  31.186  1.00  0.00    -0.248 NA
ATOM     57  C   UNL A   1      43.513  31.091  29.758  1.00  0.00     0.031 C 
ATOM     58  C   UNL A   1      40.200  28.023  33.181  1.00  0.00     0.029 A 
ATOM     59  C   UNL A   1      41.101  28.973  32.706  1.00  0.00     0.049 A 
ATOM     60  H   UNL A   1      40.443  30.943  32.323  1.00  0.00     0.167 HD
ATOM     61  C   UNL A   1      43.171  29.760  31.608  1.00  0.00     0.074 A 
ATOM     62  C   UNL A   1      42.639  30.752  30.695  1.00  0.00     0.031 C 
ATOM     63  C   UNL A   1      42.539  29.017  32.560  1.00  0.00     0.037 A 
BRANCH  50  64
ATOM     64  C   UNL A   1      37.555  30.960  30.645  1.00  0.00     0.058 A 
ATOM     65  C   UNL A   1      37.921  32.302  30.466  1.00  0.00     0.135 A 
ATOM     66  C   UNL A   1      36.277  30.677  31.136  1.00  0.00     0.135 A 
ATOM     67  F   UNL A   1      39.146  32.608  30.003  1.00  0.00    -0.206 F 
ATOM     68  C   UNL A   1      37.069  33.339  30.816  1.00  0.00     0.059 A 
ATOM     69  C   UNL A   1      35.400  31.701  31.488  1.00  0.00     0.059 A 
ATOM     70  F   UNL A   1      35.891  29.405  31.327  1.00  0.00    -0.206 F 
ATOM     71  C   UNL A   1      35.818  33.027  31.348  1.00  0.00     0.060 A 
BRANCH  71  72
ATOM     72  S   UNL A   1      34.777  34.394  31.903  1.00  0.00     0.124 S 
ATOM     73  O   UNL A   1      35.718  35.189  32.685  1.00  0.00    -0.237 OA
ATOM     74  O   UNL A   1      34.349  34.977  30.636  1.00  0.00    -0.237 OA
ATOM     75  O   UNL A   1      33.728  33.730  32.670  1.00  0.00    -0.744 OA
ENDBRANCH  71  72
ENDBRANCH  50  64
BRANCH  51  76
ATOM     76  C   UNL A   1      46.187  30.868  28.088  1.00  0.00     0.058 A 
ATOM     77  C   UNL A   1      45.386  31.682  27.263  1.00  0.00     0.135 A 
ATOM     78  C   UNL A   1      47.574  31.103  28.011  1.00  0.00     0.135 A 
ATOM     79  F   UNL A   1      44.068  31.446  27.152  1.00  0.00    -0.206 F 
ATOM     80  C   UNL A   1      45.904  32.754  26.535  1.00  0.00     0.059 A 
ATOM     81  C   UNL A   1      48.115  32.186  27.314  1.00  0.00     0.059 A 
ATOM     82  F   UNL A   1      48.448  30.294  28.626  1.00  0.00    -0.206 F 
ATOM     83  C   UNL A   1      47.267  33.028  26.604  1.00  0.00     0.060 A 
BRANCH  83  84
ATOM     84  S   UNL A   1      47.896  34.527  25.819  1.00  0.00     0.124 S 
ATOM     85  O   UNL A   1      47.846  35.488  26.919  1.00  0.00    -0.237 OA
ATOM     86  O   UNL A   1      49.235  34.108  25.407  1.00  0.00    -0.237 OA
ATOM     87  O   UNL A   1      46.959  34.763  24.733  1.00  0.00    -0.744 OA
ENDBRANCH  83  84
ENDBRANCH  51  76
BRANCH  63  88
ATOM     88  C   UNL A   1      43.389  28.040  33.301  1.00  0.00     0.058 A 
ATOM     89  C   UNL A   1      43.824  28.328  34.600  1.00  0.00     0.135 A 
ATOM     90  C   UNL A   1      43.710  26.782  32.764  1.00  0.00     0.135 A 
ATOM     91  F   UNL A   1      43.541  29.516  35.162  1.00  0.00    -0.206 F 
ATOM     92  C   UNL A   1      44.510  27.387  35.362  1.00  0.00     0.059 A 
ATOM     93  C   UNL A   1      44.378  25.819  33.515  1.00  0.00     0.059 A 
ATOM     94  F   UNL A   1      43.339  26.455  31.515  1.00  0.00    -0.206 F 
ATOM     95  C   UNL A   1      44.761  26.126  34.820  1.00  0.00     0.060 A 
BRANCH  95  96
ATOM     96  S   UNL A   1      45.508  24.868  35.877  1.00  0.00     0.124 S 
ATOM     97  O   UNL A   1      44.417  24.549  36.794  1.00  0.00    -0.237 OA
ATOM     98  O   UNL A   1      45.853  23.824  34.917  1.00  0.00    -0.237 OA
ATOM     99  O   UNL A   1      46.648  25.555  36.476  1.00  0.00    -0.744 OA
ENDBRANCH  95  96
ENDBRANCH  63  88
ENDBRANCH  37  38
ENDBRANCH  29  32
ENDBRANCH  27  28
ENDBRANCH   1  27
TORSDOF 16
ENDMDL
MODEL 3
REMARK VINA RESULT:     -12.2      5.564     13.491
REMARK SMILES CCc1nc(N2CCC[C@@H](C(=O)NCCCCNC(=O)c3ccc(-c4c5nc(c(-c6c(F)cc(S(=O)(=O)[O-])cc6F)c6ccc([nH]6)c(-c6c(F)cc(S(=O)(=O)[O-])cc6F)c6nc(c(-c7c(F)cc(S(=O)(=O)[O-])cc7F)c7ccc4[nH]7)C=C6)C=C5)cc3)C2)c2c(C)c(C)oc2n1
REMARK SMILES IDX 16 1 15 2 14 3 13 4 11 5 12 6 10 8 6 9 7 10 87 11 8 12 9 13
REMARK SMILES IDX 5 14 3 15 4 16 95 17 94 18 88 19 93 20 89 21 91 22 90 23
REMARK SMILES IDX 92 24 2 25 1 26 17 27 18 28 19 29 20 31 21 32 22 33 86 34
REMARK SMILES IDX 23 35 85 36 24 37 25 38 26 39 79 40 27 41 84 42 78 43 80 44
REMARK SMILES IDX 28 45 83 46 77 47 76 48 29 50 63 51 42 52 62 53 43 54 46 55
REMARK SMILES IDX 61 56 81 57 44 58 45 59 60 61 82 62 47 63 30 64 31 65 40 66
REMARK SMILES IDX 32 67 33 68 39 69 41 70 34 71 35 72 36 73 37 74 38 75 64 76
REMARK SMILES IDX 65 77 74 78 66 79 67 80 73 81 75 82 68 83 69 84 70 85 71 86
REMARK SMILES IDX 72 87 48 88 49 89 58 90 50 91 51 92 57 93 59 94 52 95 53 96
REMARK SMILES IDX 54 97 55 98 56 99
REMARK H PARENT 13 7 18 30 80 49 46 60
REMARK Flexibility Score: inf
ROOT
ATOM      1  C   UNL A   1      45.200  24.849  38.582  1.00  0.00     0.023 C 
ENDROOT
BRANCH   1   2
ATOM      2  C   UNL A   1      45.624  23.839  39.667  1.00  0.00     0.023 C 
BRANCH   2   3
ATOM      3  C   UNL A   1      47.044  23.278  39.556  1.00  0.00     0.116 C 
BRANCH   3   4
ATOM      4  N   UNL A   1      47.110  21.836  39.759  1.00  0.00    -0.356 N 
ATOM      5  C   UNL A   1      47.387  20.824  38.882  1.00  0.00     0.224 C 
ATOM      6  O   UNL A   1      47.536  19.686  39.329  1.00  0.00    -0.275 OA
ATOM      7  H   UNL A   1      46.925  21.542  40.681  1.00  0.00     0.163 HD
BRANCH   5   8
ATOM      8  C   UNL A   1      47.419  21.096  37.392  1.00  0.00     0.098 C 
ATOM      9  N   UNL A   1      48.476  20.706  35.298  1.00  0.00    -0.355 N 
ATOM     10  C   UNL A   1      47.314  20.255  34.553  1.00  0.00     0.118 C 
ATOM     11  C   UNL A   1      48.540  20.311  36.700  1.00  0.00     0.131 C 
ATOM     12  C   UNL A   1      46.042  20.781  35.228  1.00  0.00     0.022 C 
ATOM     13  C   UNL A   1      46.060  20.726  36.765  1.00  0.00     0.017 C 
BRANCH   9  14
ATOM     14  C   UNL A   1      49.617  21.080  34.630  1.00  0.00     0.143 A 
ATOM     15  C   UNL A   1      51.774  20.587  33.849  1.00  0.00     0.134 A 
ATOM     16  N   UNL A   1      50.664  20.223  34.536  1.00  0.00    -0.215 NA
ATOM     17  N   UNL A   1      51.967  21.747  33.206  1.00  0.00    -0.197 NA
ATOM     18  C   UNL A   1      50.939  22.586  33.364  1.00  0.00     0.231 A 
ATOM     19  C   UNL A   1      49.759  22.354  34.052  1.00  0.00     0.086 A 
ATOM     20  O   UNL A   1      50.932  23.841  32.835  1.00  0.00    -0.443 OA
ATOM     21  C   UNL A   1      49.014  23.579  33.989  1.00  0.00     0.004 A 
ATOM     22  C   UNL A   1      49.769  24.435  33.210  1.00  0.00     0.107 A 
ATOM     23  C   UNL A   1      47.721  23.911  34.629  1.00  0.00     0.049 C 
ATOM     24  C   UNL A   1      49.566  25.825  32.753  1.00  0.00     0.088 C 
BRANCH  15  25
ATOM     25  C   UNL A   1      52.880  19.566  33.738  1.00  0.00     0.074 C 
ATOM     26  C   UNL A   1      53.580  19.306  35.065  1.00  0.00     0.012 C 
ENDBRANCH  15  25
ENDBRANCH   9  14
ENDBRANCH   5   8
ENDBRANCH   3   4
ENDBRANCH   2   3
ENDBRANCH   1   2
BRANCH   1  27
ATOM     27  C   UNL A   1      45.269  24.366  37.119  1.00  0.00     0.116 C 
BRANCH  27  28
ATOM     28  N   UNL A   1      44.015  23.760  36.702  1.00  0.00    -0.352 N 
ATOM     29  C   UNL A   1      43.184  23.980  35.633  1.00  0.00     0.251 C 
ATOM     30  H   UNL A   1      43.699  23.051  37.307  1.00  0.00     0.163 HD
ATOM     31  O   UNL A   1      42.052  23.494  35.697  1.00  0.00    -0.269 OA
BRANCH  29  32
ATOM     32  C   UNL A   1      43.559  24.753  34.418  1.00  0.00     0.039 A 
ATOM     33  C   UNL A   1      44.282  24.075  33.421  1.00  0.00     0.014 A 
ATOM     34  C   UNL A   1      43.378  26.131  34.296  1.00  0.00     0.014 A 
ATOM     35  C   UNL A   1      44.787  24.753  32.303  1.00  0.00     0.010 A 
ATOM     36  C   UNL A   1      43.887  26.810  33.173  1.00  0.00     0.010 A 
ATOM     37  C   UNL A   1      44.584  26.130  32.156  1.00  0.00    -0.014 A 
BRANCH  37  38
ATOM     38  C   UNL A   1      44.956  26.775  30.868  1.00  0.00     0.031 A 
ATOM     39  C   UNL A   1      44.943  25.869  29.683  1.00  0.00     0.074 A 
ATOM     40  C   UNL A   1      44.914  28.105  30.619  1.00  0.00     0.049 A 
ATOM     41  N   UNL A   1      43.843  25.575  29.056  1.00  0.00    -0.248 NA
ATOM     42  C   UNL A   1      46.091  25.058  29.279  1.00  0.00     0.031 C 
ATOM     43  C   UNL A   1      44.012  29.038  31.301  1.00  0.00     0.029 A 
ATOM     44  N   UNL A   1      45.457  28.856  29.593  1.00  0.00    -0.354 N 
ATOM     45  C   UNL A   1      44.120  24.522  28.209  1.00  0.00     0.074 A 
ATOM     46  C   UNL A   1      45.531  24.242  28.370  1.00  0.00     0.031 C 
ATOM     47  C   UNL A   1      43.940  30.178  30.580  1.00  0.00     0.029 A 
ATOM     48  C   UNL A   1      44.904  30.135  29.476  1.00  0.00     0.049 A 
ATOM     49  H   UNL A   1      46.167  28.522  29.000  1.00  0.00     0.167 HD
ATOM     50  C   UNL A   1      43.168  23.941  27.433  1.00  0.00     0.037 A 
ATOM     51  C   UNL A   1      44.725  30.830  28.314  1.00  0.00     0.037 A 
ATOM     52  C   UNL A   1      41.861  24.521  27.522  1.00  0.00     0.049 A 
ATOM     53  C   UNL A   1      43.804  29.922  27.546  1.00  0.00     0.074 A 
ATOM     54  C   UNL A   1      40.702  24.313  28.239  1.00  0.00     0.029 A 
ATOM     55  N   UNL A   1      41.611  25.652  26.780  1.00  0.00    -0.354 N 
ATOM     56  N   UNL A   1      42.514  29.819  27.711  1.00  0.00    -0.248 NA
ATOM     57  C   UNL A   1      44.414  28.840  26.770  1.00  0.00     0.031 C 
ATOM     58  C   UNL A   1      40.023  25.574  28.238  1.00  0.00     0.029 A 
ATOM     59  C   UNL A   1      40.839  26.476  27.559  1.00  0.00     0.049 A 
ATOM     60  H   UNL A   1      41.927  25.835  25.866  1.00  0.00     0.167 HD
ATOM     61  C   UNL A   1      42.192  28.527  27.294  1.00  0.00     0.074 A 
ATOM     62  C   UNL A   1      43.402  27.986  26.708  1.00  0.00     0.031 C 
ATOM     63  C   UNL A   1      41.017  27.909  27.606  1.00  0.00     0.037 A 
BRANCH  50  64
ATOM     64  C   UNL A   1      43.432  22.906  26.418  1.00  0.00     0.058 A 
ATOM     65  C   UNL A   1      43.019  21.594  26.694  1.00  0.00     0.135 A 
ATOM     66  C   UNL A   1      44.262  23.125  25.315  1.00  0.00     0.135 A 
ATOM     67  F   UNL A   1      42.229  21.349  27.753  1.00  0.00    -0.206 F 
ATOM     68  C   UNL A   1      43.459  20.521  25.935  1.00  0.00     0.059 A 
ATOM     69  C   UNL A   1      44.712  22.064  24.532  1.00  0.00     0.059 A 
ATOM     70  F   UNL A   1      44.684  24.366  25.021  1.00  0.00    -0.206 F 
ATOM     71  C   UNL A   1      44.325  20.764  24.869  1.00  0.00     0.060 A 
BRANCH  71  72
ATOM     72  S   UNL A   1      44.972  19.338  23.970  1.00  0.00     0.124 S 
ATOM     73  O   UNL A   1      46.413  19.528  24.108  1.00  0.00    -0.237 OA
ATOM     74  O   UNL A   1      44.401  18.226  24.721  1.00  0.00    -0.237 OA
ATOM     75  O   UNL A   1      44.442  19.519  22.622  1.00  0.00    -0.744 OA
ENDBRANCH  71  72
ENDBRANCH  50  64
BRANCH  51  76
ATOM     76  C   UNL A   1      45.925  31.467  27.668  1.00  0.00     0.058 A 
ATOM     77  C   UNL A   1      45.797  32.725  27.049  1.00  0.00     0.135 A 
ATOM     78  C   UNL A   1      47.202  30.877  27.591  1.00  0.00     0.135 A 
ATOM     79  F   UNL A   1      44.592  33.308  26.939  1.00  0.00    -0.206 F 
ATOM     80  C   UNL A   1      46.890  33.420  26.528  1.00  0.00     0.059 A 
ATOM     81  C   UNL A   1      48.317  31.562  27.102  1.00  0.00     0.059 A 
ATOM     82  F   UNL A   1      47.410  29.619  28.004  1.00  0.00    -0.206 F 
ATOM     83  C   UNL A   1      48.157  32.849  26.602  1.00  0.00     0.060 A 
BRANCH  83  84
ATOM     84  S   UNL A   1      49.587  33.833  26.106  1.00  0.00     0.124 S 
ATOM     85  O   UNL A   1      49.014  34.706  25.084  1.00  0.00    -0.237 OA
ATOM     86  O   UNL A   1      49.949  34.487  27.364  1.00  0.00    -0.237 OA
ATOM     87  O   UNL A   1      50.536  32.841  25.628  1.00  0.00    -0.744 OA
ENDBRANCH  83  84
ENDBRANCH  51  76
BRANCH  63  88
ATOM     88  C   UNL A   1      39.978  28.764  28.251  1.00  0.00     0.058 A 
ATOM     89  C   UNL A   1      39.074  29.487  27.462  1.00  0.00     0.135 A 
ATOM     90  C   UNL A   1      39.817  28.811  29.645  1.00  0.00     0.135 A 
ATOM     91  F   UNL A   1      39.182  29.474  26.123  1.00  0.00    -0.206 F 
ATOM     92  C   UNL A   1      38.017  30.192  28.030  1.00  0.00     0.059 A 
ATOM     93  C   UNL A   1      38.756  29.493  30.234  1.00  0.00     0.059 A 
ATOM     94  F   UNL A   1      40.666  28.155  30.455  1.00  0.00    -0.206 F 
ATOM     95  C   UNL A   1      37.851  30.169  29.416  1.00  0.00     0.060 A 
BRANCH  95  96
ATOM     96  S   UNL A   1      36.387  30.953  30.121  1.00  0.00     0.124 S 
ATOM     97  O   UNL A   1      35.418  30.830  29.036  1.00  0.00    -0.237 OA
ATOM     98  O   UNL A   1      36.129  30.126  31.296  1.00  0.00    -0.237 OA
ATOM     99  O   UNL A   1      36.831  32.313  30.411  1.00  0.00    -0.744 OA
ENDBRANCH  95  96
ENDBRANCH  63  88
ENDBRANCH  37  38
ENDBRANCH  29  32
ENDBRANCH  27  28
ENDBRANCH   1  27
TORSDOF 16
ENDMDL
