MODEL 1
REMARK VINA RESULT:     -11.3      0.000      0.000
REMARK SMILES Cc1cc(C)cc(CSc2cc(C(=O)NCCCCNC(=O)c3ccc(-c4c5nc(c(-c6c(F)cc(S(=O)(=O)[O-])cc6F)c6ccc([nH]6)c(-c6c(F)cc(S(=O)(=O)[O-])cc6F)c6nc(c(-c7c(F)cc(S(=O)(=O)[O-])cc7F)c7ccc4[nH]7)C=C6)C=C5)cc3)cc(Cl)n2)c1
REMARK SMILES IDX 17 1 16 2 15 3 13 4 14 5 12 7 10 8 11 9 92 10 90 11 89 12
REMARK SMILES IDX 91 13 9 14 8 15 7 16 1 17 2 18 3 19 93 20 4 21 5 22 6 23
REMARK SMILES IDX 18 24 19 25 20 26 21 27 22 29 23 30 24 31 88 32 25 33 87 34
REMARK SMILES IDX 26 35 27 36 28 37 81 38 29 39 86 40 80 41 82 42 30 43 85 44
REMARK SMILES IDX 79 45 78 46 31 48 65 49 44 50 64 51 45 52 48 53 63 54 83 55
REMARK SMILES IDX 46 56 47 57 62 59 84 60 49 61 32 62 33 63 42 64 34 65 35 66
REMARK SMILES IDX 41 67 43 68 36 69 37 70 38 71 39 72 40 73 66 74 67 75 76 76
REMARK SMILES IDX 68 77 69 78 75 79 77 80 70 81 71 82 72 83 73 84 74 85 50 86
REMARK SMILES IDX 51 87 60 88 52 89 53 90 59 91 61 92 54 93 55 94 56 95 57 96
REMARK SMILES IDX 58 97
REMARK H PARENT 15 6 20 28 82 47 48 58
REMARK Flexibility Score: inf
ROOT
ATOM      1  C   UNL A   1      33.358  29.229  24.591  1.00  0.00     0.023 C 
ENDROOT
BRANCH   1   2
ATOM      2  C   UNL A   1      33.386  28.980  23.083  1.00  0.00     0.116 C 
BRANCH   2   3
ATOM      3  N   UNL A   1      32.042  28.968  22.540  1.00  0.00    -0.352 N 
ATOM      4  C   UNL A   1      30.994  28.090  22.602  1.00  0.00     0.251 C 
ATOM      5  O   UNL A   1      29.966  28.419  22.006  1.00  0.00    -0.269 OA
ATOM      6  H   UNL A   1      31.837  29.770  22.006  1.00  0.00     0.163 HD
BRANCH   4   7
ATOM      7  C   UNL A   1      30.992  26.800  23.350  1.00  0.00     0.045 A 
ATOM      8  C   UNL A   1      31.836  24.542  23.446  1.00  0.00     0.099 A 
ATOM      9  C   UNL A   1      31.778  25.769  22.806  1.00  0.00     0.049 A 
ATOM     10  N   UNL A   1      31.161  24.290  24.579  1.00  0.00    -0.230 NA
ATOM     11  C   UNL A   1      30.413  25.283  25.080  1.00  0.00     0.131 A 
ATOM     12  C   UNL A   1      30.319  26.550  24.538  1.00  0.00     0.055 A 
ATOM     13  Cl  UNL A   1      29.540  24.865  26.498  1.00  0.00    -0.062 Cl
BRANCH   8  14
ATOM     14  S   UNL A   1      32.928  23.267  22.861  1.00  0.00    -0.102 SA
BRANCH  14  15
ATOM     15  C   UNL A   1      33.263  22.362  24.406  1.00  0.00     0.112 C 
BRANCH  15  16
ATOM     16  C   UNL A   1      34.716  22.136  24.748  1.00  0.00    -0.037 A 
ATOM     17  C   UNL A   1      37.157  19.208  24.944  1.00  0.00     0.044 C 
ATOM     18  C   UNL A   1      36.591  20.595  25.007  1.00  0.00    -0.051 A 
ATOM     19  C   UNL A   1      37.394  21.659  25.434  1.00  0.00     0.006 A 
ATOM     20  C   UNL A   1      35.256  20.843  24.666  1.00  0.00     0.008 A 
ATOM     21  C   UNL A   1      36.880  22.960  25.513  1.00  0.00    -0.051 A 
ATOM     22  C   UNL A   1      37.749  24.075  26.012  1.00  0.00     0.044 C 
ATOM     23  C   UNL A   1      35.548  23.192  25.148  1.00  0.00     0.008 A 
ENDBRANCH  15  16
ENDBRANCH  14  15
ENDBRANCH   8  14
ENDBRANCH   4   7
ENDBRANCH   2   3
ENDBRANCH   1   2
BRANCH   1  24
ATOM     24  C   UNL A   1      33.768  28.010  25.432  1.00  0.00     0.023 C 
BRANCH  24  25
ATOM     25  C   UNL A   1      33.646  28.189  26.945  1.00  0.00     0.116 C 
BRANCH  25  26
ATOM     26  N   UNL A   1      33.445  29.574  27.342  1.00  0.00    -0.352 N 
ATOM     27  C   UNL A   1      34.318  30.434  27.963  1.00  0.00     0.251 C 
ATOM     28  H   UNL A   1      32.556  29.946  27.140  1.00  0.00     0.163 HD
ATOM     29  O   UNL A   1      33.926  31.534  28.329  1.00  0.00    -0.269 OA
BRANCH  27  30
ATOM     30  C   UNL A   1      35.713  30.012  28.217  1.00  0.00     0.039 A 
ATOM     31  C   UNL A   1      36.621  30.047  27.157  1.00  0.00     0.014 A 
ATOM     32  C   UNL A   1      36.127  29.590  29.484  1.00  0.00     0.014 A 
ATOM     33  C   UNL A   1      37.957  29.714  27.383  1.00  0.00     0.010 A 
ATOM     34  C   UNL A   1      37.474  29.331  29.724  1.00  0.00     0.010 A 
ATOM     35  C   UNL A   1      38.404  29.388  28.675  1.00  0.00    -0.014 A 
BRANCH  35  36
ATOM     36  C   UNL A   1      39.845  29.133  28.930  1.00  0.00     0.031 A 
ATOM     37  C   UNL A   1      40.461  27.801  28.599  1.00  0.00     0.074 A 
ATOM     38  C   UNL A   1      40.594  30.105  29.489  1.00  0.00     0.049 A 
ATOM     39  N   UNL A   1      41.707  27.418  28.718  1.00  0.00    -0.248 NA
ATOM     40  C   UNL A   1      39.560  26.754  28.090  1.00  0.00     0.031 C 
ATOM     41  C   UNL A   1      40.092  31.413  29.921  1.00  0.00     0.029 A 
ATOM     42  N   UNL A   1      41.932  30.150  29.786  1.00  0.00    -0.354 N 
ATOM     43  C   UNL A   1      41.739  26.091  28.302  1.00  0.00     0.074 A 
ATOM     44  C   UNL A   1      40.379  25.717  27.986  1.00  0.00     0.031 C 
ATOM     45  C   UNL A   1      41.116  32.145  30.388  1.00  0.00     0.029 A 
ATOM     46  C   UNL A   1      42.338  31.350  30.320  1.00  0.00     0.049 A 
ATOM     47  H   UNL A   1      42.544  29.395  29.631  1.00  0.00     0.167 HD
ATOM     48  C   UNL A   1      42.809  25.271  28.170  1.00  0.00     0.037 A 
ATOM     49  C   UNL A   1      43.559  31.768  30.706  1.00  0.00     0.037 A 
ATOM     50  C   UNL A   1      44.164  25.658  28.474  1.00  0.00     0.049 A 
ATOM     51  C   UNL A   1      44.733  30.843  30.533  1.00  0.00     0.074 A 
ATOM     52  C   UNL A   1      45.325  24.921  28.318  1.00  0.00     0.029 A 
ATOM     53  N   UNL A   1      44.539  26.886  29.001  1.00  0.00    -0.354 N 
ATOM     54  N   UNL A   1      44.757  29.620  30.059  1.00  0.00    -0.248 NA
ATOM     55  C   UNL A   1      46.048  31.362  30.932  1.00  0.00     0.031 C 
ATOM     56  C   UNL A   1      46.396  25.685  28.798  1.00  0.00     0.029 A 
ATOM     57  C   UNL A   1      45.911  26.918  29.199  1.00  0.00     0.049 A 
ATOM     58  H   UNL A   1      43.922  27.625  29.204  1.00  0.00     0.167 HD
ATOM     59  C   UNL A   1      46.092  29.230  30.083  1.00  0.00     0.074 A 
ATOM     60  C   UNL A   1      46.845  30.358  30.594  1.00  0.00     0.031 C 
ATOM     61  C   UNL A   1      46.645  28.046  29.719  1.00  0.00     0.037 A 
BRANCH  48  62
ATOM     62  C   UNL A   1      42.561  23.873  27.668  1.00  0.00     0.058 A 
ATOM     63  C   UNL A   1      42.385  23.599  26.301  1.00  0.00     0.135 A 
ATOM     64  C   UNL A   1      42.542  22.786  28.557  1.00  0.00     0.135 A 
ATOM     65  F   UNL A   1      42.378  24.600  25.406  1.00  0.00    -0.206 F 
ATOM     66  C   UNL A   1      42.171  22.305  25.838  1.00  0.00     0.059 A 
ATOM     67  C   UNL A   1      42.360  21.479  28.113  1.00  0.00     0.059 A 
ATOM     68  F   UNL A   1      42.704  22.988  29.874  1.00  0.00    -0.206 F 
ATOM     69  C   UNL A   1      42.161  21.250  26.752  1.00  0.00     0.060 A 
BRANCH  69  70
ATOM     70  S   UNL A   1      41.896  19.576  26.132  1.00  0.00     0.124 S 
ATOM     71  O   UNL A   1      42.252  18.774  27.299  1.00  0.00    -0.237 OA
ATOM     72  O   UNL A   1      40.479  19.594  25.784  1.00  0.00    -0.237 OA
ATOM     73  O   UNL A   1      42.815  19.481  25.002  1.00  0.00    -0.744 OA
ENDBRANCH  69  70
ENDBRANCH  48  62
BRANCH  49  74
ATOM     74  C   UNL A   1      43.736  33.136  31.263  1.00  0.00     0.058 A 
ATOM     75  C   UNL A   1      43.860  34.253  30.422  1.00  0.00     0.135 A 
ATOM     76  C   UNL A   1      43.775  33.357  32.649  1.00  0.00     0.135 A 
ATOM     77  F   UNL A   1      43.833  34.094  29.091  1.00  0.00    -0.206 F 
ATOM     78  C   UNL A   1      44.038  35.535  30.932  1.00  0.00     0.059 A 
ATOM     79  C   UNL A   1      43.923  34.632  33.184  1.00  0.00     0.059 A 
ATOM     80  F   UNL A   1      43.643  32.325  33.498  1.00  0.00    -0.206 F 
ATOM     81  C   UNL A   1      44.066  35.714  32.316  1.00  0.00     0.060 A 
BRANCH  81  82
ATOM     82  S   UNL A   1      44.251  37.388  32.969  1.00  0.00     0.124 S 
ATOM     83  O   UNL A   1      43.009  37.551  33.713  1.00  0.00    -0.237 OA
ATOM     84  O   UNL A   1      45.467  37.271  33.769  1.00  0.00    -0.237 OA
ATOM     85  O   UNL A   1      44.379  38.205  31.765  1.00  0.00    -0.744 OA
ENDBRANCH  81  82
ENDBRANCH  49  74
BRANCH  61  86
ATOM     86  C   UNL A   1      48.141  27.924  29.840  1.00  0.00     0.058 A 
ATOM     87  C   UNL A   1      49.000  28.254  28.779  1.00  0.00     0.135 A 
ATOM     88  C   UNL A   1      48.723  27.480  31.038  1.00  0.00     0.135 A 
ATOM     89  F   UNL A   1      48.496  28.682  27.611  1.00  0.00    -0.206 F 
ATOM     90  C   UNL A   1      50.378  28.099  28.883  1.00  0.00     0.059 A 
ATOM     91  C   UNL A   1      50.101  27.349  31.177  1.00  0.00     0.059 A 
ATOM     92  F   UNL A   1      47.951  27.166  32.092  1.00  0.00    -0.206 F 
ATOM     93  C   UNL A   1      50.919  27.639  30.085  1.00  0.00     0.060 A 
BRANCH  93  94
ATOM     94  S   UNL A   1      52.707  27.430  30.205  1.00  0.00     0.124 S 
ATOM     95  O   UNL A   1      53.178  28.322  29.150  1.00  0.00    -0.237 OA
ATOM     96  O   UNL A   1      52.984  27.863  31.572  1.00  0.00    -0.237 OA
ATOM     97  O   UNL A   1      52.900  26.005  29.955  1.00  0.00    -0.744 OA
ENDBRANCH  93  94
ENDBRANCH  61  86
ENDBRANCH  35  36
ENDBRANCH  27  30
ENDBRANCH  25  26
ENDBRANCH  24  25
ENDBRANCH   1  24
TORSDOF 17
ENDMDL
MODEL 2
REMARK VINA RESULT:     -11.2      2.972      9.373
REMARK SMILES Cc1cc(C)cc(CSc2cc(C(=O)NCCCCNC(=O)c3ccc(-c4c5nc(c(-c6c(F)cc(S(=O)(=O)[O-])cc6F)c6ccc([nH]6)c(-c6c(F)cc(S(=O)(=O)[O-])cc6F)c6nc(c(-c7c(F)cc(S(=O)(=O)[O-])cc7F)c7ccc4[nH]7)C=C6)C=C5)cc3)cc(Cl)n2)c1
REMARK SMILES IDX 17 1 16 2 15 3 13 4 14 5 12 7 10 8 11 9 92 10 90 11 89 12
REMARK SMILES IDX 91 13 9 14 8 15 7 16 1 17 2 18 3 19 93 20 4 21 5 22 6 23
REMARK SMILES IDX 18 24 19 25 20 26 21 27 22 29 23 30 24 31 88 32 25 33 87 34
REMARK SMILES IDX 26 35 27 36 28 37 81 38 29 39 86 40 80 41 82 42 30 43 85 44
REMARK SMILES IDX 79 45 78 46 31 48 65 49 44 50 64 51 45 52 48 53 63 54 83 55
REMARK SMILES IDX 46 56 47 57 62 59 84 60 49 61 32 62 33 63 42 64 34 65 35 66
REMARK SMILES IDX 41 67 43 68 36 69 37 70 38 71 39 72 40 73 66 74 67 75 76 76
REMARK SMILES IDX 68 77 69 78 75 79 77 80 70 81 71 82 72 83 73 84 74 85 50 86
REMARK SMILES IDX 51 87 60 88 52 89 53 90 59 91 61 92 54 93 55 94 56 95 57 96
REMARK SMILES IDX 58 97
REMARK H PARENT 15 6 20 28 82 47 48 58
REMARK Flexibility Score: inf
ROOT
ATOM      1  C   UNL A   1      34.761  30.500  27.719  1.00  0.00     0.023 C 
ENDROOT
BRANCH   1   2
ATOM      2  C   UNL A   1      33.523  30.320  26.840  1.00  0.00     0.116 C 
BRANCH   2   3
ATOM      3  N   UNL A   1      32.545  29.477  27.498  1.00  0.00    -0.352 N 
ATOM      4  C   UNL A   1      32.082  28.207  27.286  1.00  0.00     0.251 C 
ATOM      5  O   UNL A   1      31.224  27.797  28.071  1.00  0.00    -0.269 OA
ATOM      6  H   UNL A   1      32.117  29.917  28.268  1.00  0.00     0.163 HD
BRANCH   4   7
ATOM      7  C   UNL A   1      32.551  27.284  26.213  1.00  0.00     0.045 A 
ATOM      8  C   UNL A   1      32.262  26.559  23.930  1.00  0.00     0.099 A 
ATOM      9  C   UNL A   1      31.879  27.376  24.982  1.00  0.00     0.049 A 
ATOM     10  N   UNL A   1      33.260  25.667  24.039  1.00  0.00    -0.230 NA
ATOM     11  C   UNL A   1      33.885  25.591  25.222  1.00  0.00     0.131 A 
ATOM     12  C   UNL A   1      33.604  26.385  26.316  1.00  0.00     0.055 A 
ATOM     13  Cl  UNL A   1      35.111  24.392  25.296  1.00  0.00    -0.062 Cl
BRANCH   8  14
ATOM     14  S   UNL A   1      31.524  26.748  22.323  1.00  0.00    -0.102 SA
BRANCH  14  15
ATOM     15  C   UNL A   1      31.410  28.562  22.206  1.00  0.00     0.112 C 
BRANCH  15  16
ATOM     16  C   UNL A   1      30.028  29.155  22.330  1.00  0.00    -0.037 A 
ATOM     17  C   UNL A   1      26.611  28.117  23.679  1.00  0.00     0.044 C 
ATOM     18  C   UNL A   1      27.706  28.923  23.046  1.00  0.00    -0.051 A 
ATOM     19  C   UNL A   1      27.428  30.192  22.526  1.00  0.00     0.006 A 
ATOM     20  C   UNL A   1      29.006  28.414  22.944  1.00  0.00     0.008 A 
ATOM     21  C   UNL A   1      28.434  30.955  21.918  1.00  0.00    -0.051 A 
ATOM     22  C   UNL A   1      28.102  32.295  21.332  1.00  0.00     0.044 C 
ATOM     23  C   UNL A   1      29.733  30.438  21.844  1.00  0.00     0.008 A 
ENDBRANCH  15  16
ENDBRANCH  14  15
ENDBRANCH   8  14
ENDBRANCH   4   7
ENDBRANCH   2   3
ENDBRANCH   1   2
BRANCH   1  24
ATOM     24  C   UNL A   1      35.127  31.968  27.986  1.00  0.00     0.023 C 
BRANCH  24  25
ATOM     25  C   UNL A   1      36.229  32.188  29.022  1.00  0.00     0.116 C 
BRANCH  25  26
ATOM     26  N   UNL A   1      35.918  31.612  30.320  1.00  0.00    -0.352 N 
ATOM     27  C   UNL A   1      36.597  30.650  31.028  1.00  0.00     0.251 C 
ATOM     28  H   UNL A   1      35.104  31.959  30.752  1.00  0.00     0.163 HD
ATOM     29  O   UNL A   1      36.112  30.202  32.059  1.00  0.00    -0.269 OA
BRANCH  27  30
ATOM     30  C   UNL A   1      37.888  30.136  30.522  1.00  0.00     0.039 A 
ATOM     31  C   UNL A   1      38.063  30.023  29.142  1.00  0.00     0.014 A 
ATOM     32  C   UNL A   1      38.919  29.771  31.394  1.00  0.00     0.014 A 
ATOM     33  C   UNL A   1      39.293  29.601  28.636  1.00  0.00     0.010 A 
ATOM     34  C   UNL A   1      40.167  29.422  30.885  1.00  0.00     0.010 A 
ATOM     35  C   UNL A   1      40.368  29.331  29.500  1.00  0.00    -0.014 A 
BRANCH  35  36
ATOM     36  C   UNL A   1      41.703  28.978  28.952  1.00  0.00     0.031 A 
ATOM     37  C   UNL A   1      42.796  30.008  28.866  1.00  0.00     0.074 A 
ATOM     38  C   UNL A   1      41.918  27.723  28.507  1.00  0.00     0.049 A 
ATOM     39  N   UNL A   1      44.029  29.866  28.453  1.00  0.00    -0.248 NA
ATOM     40  C   UNL A   1      42.456  31.381  29.272  1.00  0.00     0.031 C 
ATOM     41  C   UNL A   1      40.913  26.657  28.473  1.00  0.00     0.029 A 
ATOM     42  N   UNL A   1      43.046  27.129  28.005  1.00  0.00    -0.354 N 
ATOM     43  C   UNL A   1      44.611  31.126  28.548  1.00  0.00     0.074 A 
ATOM     44  C   UNL A   1      43.578  32.032  28.998  1.00  0.00     0.031 C 
ATOM     45  C   UNL A   1      41.481  25.530  28.015  1.00  0.00     0.029 A 
ATOM     46  C   UNL A   1      42.879  25.801  27.693  1.00  0.00     0.049 A 
ATOM     47  H   UNL A   1      43.897  27.609  27.879  1.00  0.00     0.167 HD
ATOM     48  C   UNL A   1      45.894  31.487  28.308  1.00  0.00     0.037 A 
ATOM     49  C   UNL A   1      43.753  24.898  27.209  1.00  0.00     0.037 A 
ATOM     50  C   UNL A   1      46.921  30.573  27.872  1.00  0.00     0.049 A 
ATOM     51  C   UNL A   1      45.176  25.320  26.966  1.00  0.00     0.074 A 
ATOM     52  C   UNL A   1      48.264  30.826  27.658  1.00  0.00     0.029 A 
ATOM     53  N   UNL A   1      46.716  29.232  27.578  1.00  0.00    -0.354 N 
ATOM     54  N   UNL A   1      45.729  26.497  27.141  1.00  0.00    -0.248 NA
ATOM     55  C   UNL A   1      46.099  24.288  26.475  1.00  0.00     0.031 C 
ATOM     56  C   UNL A   1      48.861  29.652  27.186  1.00  0.00     0.029 A 
ATOM     57  C   UNL A   1      47.904  28.652  27.161  1.00  0.00     0.049 A 
ATOM     58  H   UNL A   1      45.855  28.762  27.655  1.00  0.00     0.167 HD
ATOM     59  C   UNL A   1      47.069  26.342  26.802  1.00  0.00     0.074 A 
ATOM     60  C   UNL A   1      47.246  24.951  26.438  1.00  0.00     0.031 C 
ATOM     61  C   UNL A   1      48.062  27.266  26.792  1.00  0.00     0.037 A 
BRANCH  48  62
ATOM     62  C   UNL A   1      46.266  32.932  28.517  1.00  0.00     0.058 A 
ATOM     63  C   UNL A   1      46.203  33.868  27.472  1.00  0.00     0.135 A 
ATOM     64  C   UNL A   1      46.648  33.396  29.785  1.00  0.00     0.135 A 
ATOM     65  F   UNL A   1      45.859  33.479  26.234  1.00  0.00    -0.206 F 
ATOM     66  C   UNL A   1      46.533  35.205  27.670  1.00  0.00     0.059 A 
ATOM     67  C   UNL A   1      46.953  34.735  30.015  1.00  0.00     0.059 A 
ATOM     68  F   UNL A   1      46.726  32.546  30.821  1.00  0.00    -0.206 F 
ATOM     69  C   UNL A   1      46.905  35.630  28.947  1.00  0.00     0.060 A 
BRANCH  69  70
ATOM     70  S   UNL A   1      47.316  37.371  29.189  1.00  0.00     0.124 S 
ATOM     71  O   UNL A   1      45.990  37.983  29.202  1.00  0.00    -0.237 OA
ATOM     72  O   UNL A   1      48.017  37.351  30.468  1.00  0.00    -0.237 OA
ATOM     73  O   UNL A   1      48.142  37.691  28.029  1.00  0.00    -0.744 OA
ENDBRANCH  69  70
ENDBRANCH  48  62
BRANCH  49  74
ATOM     74  C   UNL A   1      43.314  23.500  26.952  1.00  0.00     0.058 A 
ATOM     75  C   UNL A   1      43.046  23.051  25.649  1.00  0.00     0.135 A 
ATOM     76  C   UNL A   1      43.164  22.580  28.002  1.00  0.00     0.135 A 
ATOM     77  F   UNL A   1      43.170  23.892  24.612  1.00  0.00    -0.206 F 
ATOM     78  C   UNL A   1      42.623  21.749  25.398  1.00  0.00     0.059 A 
ATOM     79  C   UNL A   1      42.772  21.265  27.773  1.00  0.00     0.059 A 
ATOM     80  F   UNL A   1      43.427  22.953  29.264  1.00  0.00    -0.206 F 
ATOM     81  C   UNL A   1      42.492  20.863  26.468  1.00  0.00     0.060 A 
BRANCH  81  82
ATOM     82  S   UNL A   1      41.988  19.162  26.127  1.00  0.00     0.124 S 
ATOM     83  O   UNL A   1      42.890  18.802  25.040  1.00  0.00    -0.237 OA
ATOM     84  O   UNL A   1      42.234  18.508  27.408  1.00  0.00    -0.237 OA
ATOM     85  O   UNL A   1      40.580  19.298  25.761  1.00  0.00    -0.744 OA
ENDBRANCH  81  82
ENDBRANCH  49  74
BRANCH  61  86
ATOM     86  C   UNL A   1      49.434  26.790  26.392  1.00  0.00     0.058 A 
ATOM     87  C   UNL A   1      49.896  26.888  25.070  1.00  0.00     0.135 A 
ATOM     88  C   UNL A   1      50.300  26.235  27.348  1.00  0.00     0.135 A 
ATOM     89  F   UNL A   1      49.108  27.408  24.116  1.00  0.00    -0.206 F 
ATOM     90  C   UNL A   1      51.147  26.407  24.699  1.00  0.00     0.059 A 
ATOM     91  C   UNL A   1      51.569  25.778  27.007  1.00  0.00     0.059 A 
ATOM     92  F   UNL A   1      49.917  26.131  28.631  1.00  0.00    -0.206 F 
ATOM     93  C   UNL A   1      51.975  25.847  25.675  1.00  0.00     0.060 A 
BRANCH  93  94
ATOM     94  S   UNL A   1      53.591  25.215  25.180  1.00  0.00     0.124 S 
ATOM     95  O   UNL A   1      54.444  25.724  26.248  1.00  0.00    -0.237 OA
ATOM     96  O   UNL A   1      53.375  23.771  25.174  1.00  0.00    -0.237 OA
ATOM     97  O   UNL A   1      53.802  25.816  23.866  1.00  0.00    -0.744 OA
ENDBRANCH  93  94
ENDBRANCH  61  86
ENDBRANCH  35  36
ENDBRANCH  27  30
ENDBRANCH  25  26
ENDBRANCH  24  25
ENDBRANCH   1  24
TORSDOF 17
ENDMDL
MODEL 3
REMARK VINA RESULT:     -11.2      5.006      9.969
REMARK SMILES Cc1cc(C)cc(CSc2cc(C(=O)NCCCCNC(=O)c3ccc(-c4c5nc(c(-c6c(F)cc(S(=O)(=O)[O-])cc6F)c6ccc([nH]6)c(-c6c(F)cc(S(=O)(=O)[O-])cc6F)c6nc(c(-c7c(F)cc(S(=O)(=O)[O-])cc7F)c7ccc4[nH]7)C=C6)C=C5)cc3)cc(Cl)n2)c1
REMARK SMILES IDX 17 1 16 2 15 3 13 4 14 5 12 7 10 8 11 9 92 10 90 11 89 12
REMARK SMILES IDX 91 13 9 14 8 15 7 16 1 17 2 18 3 19 93 20 4 21 5 22 6 23
REMARK SMILES IDX 18 24 19 25 20 26 21 27 22 29 23 30 24 31 88 32 25 33 87 34
REMARK SMILES IDX 26 35 27 36 28 37 81 38 29 39 86 40 80 41 82 42 30 43 85 44
REMARK SMILES IDX 79 45 78 46 31 48 65 49 44 50 64 51 45 52 48 53 63 54 83 55
REMARK SMILES IDX 46 56 47 57 62 59 84 60 49 61 32 62 33 63 42 64 34 65 35 66
REMARK SMILES IDX 41 67 43 68 36 69 37 70 38 71 39 72 40 73 66 74 67 75 76 76
REMARK SMILES IDX 68 77 69 78 75 79 77 80 70 81 71 82 72 83 73 84 74 85 50 86
REMARK SMILES IDX 51 87 60 88 52 89 53 90 59 91 61 92 54 93 55 94 56 95 57 96
REMARK SMILES IDX 58 97
REMARK H PARENT 15 6 20 28 82 47 48 58
REMARK Flexibility Score: inf
ROOT
ATOM      1  C   UNL A   1      39.629  21.998  26.117  1.00  0.00     0.023 C 
ENDROOT
BRANCH   1   2
ATOM      2  C   UNL A   1      38.125  22.273  26.084  1.00  0.00     0.116 C 
BRANCH   2   3
ATOM      3  N   UNL A   1      37.694  22.609  24.741  1.00  0.00    -0.352 N 
ATOM      4  C   UNL A   1      36.495  22.560  24.083  1.00  0.00     0.251 C 
ATOM      5  O   UNL A   1      36.497  22.941  22.910  1.00  0.00    -0.269 OA
ATOM      6  H   UNL A   1      38.427  22.946  24.177  1.00  0.00     0.163 HD
BRANCH   4   7
ATOM      7  C   UNL A   1      35.201  22.114  24.676  1.00  0.00     0.045 A 
ATOM      8  C   UNL A   1      33.176  22.792  25.798  1.00  0.00     0.099 A 
ATOM      9  C   UNL A   1      34.398  23.124  25.235  1.00  0.00     0.049 A 
ATOM     10  N   UNL A   1      32.721  21.530  25.837  1.00  0.00    -0.230 NA
ATOM     11  C   UNL A   1      33.504  20.581  25.304  1.00  0.00     0.131 A 
ATOM     12  C   UNL A   1      34.718  20.814  24.688  1.00  0.00     0.055 A 
ATOM     13  Cl  UNL A   1      32.877  18.989  25.441  1.00  0.00    -0.062 Cl
BRANCH   8  14
ATOM     14  S   UNL A   1      32.078  24.061  26.386  1.00  0.00    -0.102 SA
BRANCH  14  15
ATOM     15  C   UNL A   1      32.861  25.549  25.686  1.00  0.00     0.112 C 
BRANCH  15  16
ATOM     16  C   UNL A   1      32.262  26.083  24.407  1.00  0.00    -0.037 A 
ATOM     17  C   UNL A   1      29.484  28.486  23.369  1.00  0.00     0.044 C 
ATOM     18  C   UNL A   1      30.618  27.507  23.300  1.00  0.00    -0.051 A 
ATOM     19  C   UNL A   1      31.075  27.053  22.058  1.00  0.00     0.006 A 
ATOM     20  C   UNL A   1      31.217  27.018  24.467  1.00  0.00     0.008 A 
ATOM     21  C   UNL A   1      32.124  26.128  21.973  1.00  0.00    -0.051 A 
ATOM     22  C   UNL A   1      32.567  25.625  20.631  1.00  0.00     0.044 C 
ATOM     23  C   UNL A   1      32.724  25.666  23.150  1.00  0.00     0.008 A 
ENDBRANCH  15  16
ENDBRANCH  14  15
ENDBRANCH   8  14
ENDBRANCH   4   7
ENDBRANCH   2   3
ENDBRANCH   1   2
BRANCH   1  24
ATOM     24  C   UNL A   1      40.311  22.418  27.428  1.00  0.00     0.023 C 
BRANCH  24  25
ATOM     25  C   UNL A   1      41.646  23.145  27.266  1.00  0.00     0.116 C 
BRANCH  25  26
ATOM     26  N   UNL A   1      41.676  24.035  26.116  1.00  0.00    -0.352 N 
ATOM     27  C   UNL A   1      41.486  25.395  26.065  1.00  0.00     0.251 C 
ATOM     28  H   UNL A   1      41.858  23.601  25.251  1.00  0.00     0.163 HD
ATOM     29  O   UNL A   1      41.431  25.958  24.980  1.00  0.00    -0.269 OA
BRANCH  27  30
ATOM     30  C   UNL A   1      41.313  26.162  27.318  1.00  0.00     0.039 A 
ATOM     31  C   UNL A   1      42.318  27.055  27.694  1.00  0.00     0.014 A 
ATOM     32  C   UNL A   1      40.173  26.010  28.113  1.00  0.00     0.014 A 
ATOM     33  C   UNL A   1      42.152  27.837  28.837  1.00  0.00     0.010 A 
ATOM     34  C   UNL A   1      39.977  26.844  29.211  1.00  0.00     0.010 A 
ATOM     35  C   UNL A   1      40.965  27.766  29.587  1.00  0.00    -0.014 A 
BRANCH  35  36
ATOM     36  C   UNL A   1      40.751  28.671  30.745  1.00  0.00     0.031 A 
ATOM     37  C   UNL A   1      41.589  28.543  31.988  1.00  0.00     0.074 A 
ATOM     38  C   UNL A   1      39.774  29.598  30.680  1.00  0.00     0.049 A 
ATOM     39  N   UNL A   1      41.566  29.271  33.074  1.00  0.00    -0.248 NA
ATOM     40  C   UNL A   1      42.564  27.441  32.027  1.00  0.00     0.031 C 
ATOM     41  C   UNL A   1      38.849  29.771  29.556  1.00  0.00     0.029 A 
ATOM     42  N   UNL A   1      39.398  30.572  31.569  1.00  0.00    -0.354 N 
ATOM     43  C   UNL A   1      42.517  28.718  33.925  1.00  0.00     0.074 A 
ATOM     44  C   UNL A   1      43.055  27.556  33.253  1.00  0.00     0.031 C 
ATOM     45  C   UNL A   1      38.041  30.813  29.807  1.00  0.00     0.029 A 
ATOM     46  C   UNL A   1      38.367  31.362  31.119  1.00  0.00     0.049 A 
ATOM     47  H   UNL A   1      39.826  30.694  32.447  1.00  0.00     0.167 HD
ATOM     48  C   UNL A   1      42.922  29.154  35.141  1.00  0.00     0.037 A 
ATOM     49  C   UNL A   1      37.757  32.416  31.694  1.00  0.00     0.037 A 
ATOM     50  C   UNL A   1      42.389  30.322  35.798  1.00  0.00     0.049 A 
ATOM     51  C   UNL A   1      38.237  32.891  33.038  1.00  0.00     0.074 A 
ATOM     52  C   UNL A   1      42.773  30.883  37.003  1.00  0.00     0.029 A 
ATOM     53  N   UNL A   1      41.354  31.105  35.305  1.00  0.00    -0.354 N 
ATOM     54  N   UNL A   1      39.195  32.405  33.791  1.00  0.00    -0.248 NA
ATOM     55  C   UNL A   1      37.563  34.067  33.604  1.00  0.00     0.031 C 
ATOM     56  C   UNL A   1      41.936  31.974  37.264  1.00  0.00     0.029 A 
ATOM     57  C   UNL A   1      41.070  32.129  36.196  1.00  0.00     0.049 A 
ATOM     58  H   UNL A   1      40.890  30.955  34.451  1.00  0.00     0.167 HD
ATOM     59  C   UNL A   1      39.254  33.229  34.910  1.00  0.00     0.074 A 
ATOM     60  C   UNL A   1      38.252  34.258  34.720  1.00  0.00     0.031 C 
ATOM     61  C   UNL A   1      40.061  33.141  35.997  1.00  0.00     0.037 A 
BRANCH  48  62
ATOM     62  C   UNL A   1      44.000  28.371  35.843  1.00  0.00     0.058 A 
ATOM     63  C   UNL A   1      43.696  27.295  36.694  1.00  0.00     0.135 A 
ATOM     64  C   UNL A   1      45.356  28.669  35.630  1.00  0.00     0.135 A 
ATOM     65  F   UNL A   1      42.418  26.974  36.947  1.00  0.00    -0.206 F 
ATOM     66  C   UNL A   1      44.693  26.564  37.330  1.00  0.00     0.059 A 
ATOM     67  C   UNL A   1      46.372  27.931  36.231  1.00  0.00     0.059 A 
ATOM     68  F   UNL A   1      45.706  29.686  34.828  1.00  0.00    -0.206 F 
ATOM     69  C   UNL A   1      46.030  26.888  37.091  1.00  0.00     0.060 A 
BRANCH  69  70
ATOM     70  S   UNL A   1      47.312  25.919  37.913  1.00  0.00     0.124 S 
ATOM     71  O   UNL A   1      46.547  24.768  38.386  1.00  0.00    -0.237 OA
ATOM     72  O   UNL A   1      48.248  25.654  36.826  1.00  0.00    -0.237 OA
ATOM     73  O   UNL A   1      47.802  26.816  38.955  1.00  0.00    -0.744 OA
ENDBRANCH  69  70
ENDBRANCH  48  62
BRANCH  49  74
ATOM     74  C   UNL A   1      36.647  33.110  30.988  1.00  0.00     0.058 A 
ATOM     75  C   UNL A   1      36.883  33.865  29.829  1.00  0.00     0.135 A 
ATOM     76  C   UNL A   1      35.323  33.024  31.450  1.00  0.00     0.135 A 
ATOM     77  F   UNL A   1      38.130  33.982  29.349  1.00  0.00    -0.206 F 
ATOM     78  C   UNL A   1      35.855  34.529  29.167  1.00  0.00     0.059 A 
ATOM     79  C   UNL A   1      34.274  33.653  30.789  1.00  0.00     0.059 A 
ATOM     80  F   UNL A   1      35.040  32.298  32.543  1.00  0.00    -0.206 F 
ATOM     81  C   UNL A   1      34.552  34.414  29.654  1.00  0.00     0.060 A 
BRANCH  81  82
ATOM     82  S   UNL A   1      33.218  35.241  28.762  1.00  0.00     0.124 S 
ATOM     83  O   UNL A   1      33.953  36.240  27.995  1.00  0.00    -0.237 OA
ATOM     84  O   UNL A   1      32.638  34.143  27.993  1.00  0.00    -0.237 OA
ATOM     85  O   UNL A   1      32.372  35.762  29.832  1.00  0.00    -0.744 OA
ENDBRANCH  81  82
ENDBRANCH  49  74
BRANCH  61  86
ATOM     86  C   UNL A   1      39.905  34.205  37.052  1.00  0.00     0.058 A 
ATOM     87  C   UNL A   1      40.524  35.459  36.937  1.00  0.00     0.135 A 
ATOM     88  C   UNL A   1      39.116  33.967  38.189  1.00  0.00     0.135 A 
ATOM     89  F   UNL A   1      41.291  35.738  35.870  1.00  0.00    -0.206 F 
ATOM     90  C   UNL A   1      40.410  36.422  37.934  1.00  0.00     0.059 A 
ATOM     91  C   UNL A   1      38.961  34.927  39.184  1.00  0.00     0.059 A 
ATOM     92  F   UNL A   1      38.487  32.790  38.345  1.00  0.00    -0.206 F 
ATOM     93  C   UNL A   1      39.631  36.143  39.059  1.00  0.00     0.060 A 
BRANCH  93  94
ATOM     94  S   UNL A   1      39.500  37.394  40.352  1.00  0.00     0.124 S 
ATOM     95  O   UNL A   1      40.905  37.650  40.655  1.00  0.00    -0.237 OA
ATOM     96  O   UNL A   1      38.790  38.474  39.674  1.00  0.00    -0.237 OA
ATOM     97  O   UNL A   1      38.744  36.719  41.403  1.00  0.00    -0.744 OA
ENDBRANCH  93  94
ENDBRANCH  61  86
ENDBRANCH  35  36
ENDBRANCH  27  30
ENDBRANCH  25  26
ENDBRANCH  24  25
ENDBRANCH   1  24
TORSDOF 17
ENDMDL
