MODEL 1
REMARK VINA RESULT:     -10.9      0.000      0.000
REMARK SMILES CCC(CC)(NC(=O)N[C@@H](C)[C@@H]1CCCO1)C(=O)NCCCCNC(=O)c1ccc(-c2c3nc(c(-c4c(F)cc(S(=O)(=O)[O-])cc4F)c4ccc([nH]4)c(-c4c(F)cc(S(=O)(=O)[O-])cc4F)c4nc(c(-c5c(F)cc(S(=O)(=O)[O-])cc5F)c5ccc2[nH]5)C=C4)C=C3)cc1
REMARK SMILES IDX 21 1 20 2 19 3 17 4 18 5 3 7 2 8 1 9 4 10 5 11 6 12 7 13
REMARK SMILES IDX 8 15 9 16 10 18 11 19 12 20 13 21 16 22 14 23 15 24 22 25
REMARK SMILES IDX 23 26 24 27 25 28 26 30 27 31 28 32 92 33 29 34 91 35 30 36
REMARK SMILES IDX 31 37 32 38 85 39 33 40 90 41 84 42 86 43 34 44 89 45 83 46
REMARK SMILES IDX 82 47 35 49 69 50 48 51 68 52 49 53 52 54 67 55 87 56 50 57
REMARK SMILES IDX 51 58 66 60 88 61 53 62 36 63 37 64 46 65 38 66 39 67 45 68
REMARK SMILES IDX 47 69 40 70 41 71 42 72 43 73 44 74 70 75 71 76 80 77 72 78
REMARK SMILES IDX 73 79 79 80 81 81 74 82 75 83 76 84 77 85 78 86 54 87 55 88
REMARK SMILES IDX 64 89 56 90 57 91 63 92 65 93 58 94 59 95 60 96 61 97 62 98
REMARK H PARENT 19 6 6 14 9 17 24 29 86 48 52 59
REMARK Flexibility Score: inf
ROOT
ATOM      1  C   UNL A   1      37.180  21.269  24.684  1.00  0.00     0.023 C 
ENDROOT
BRANCH   1   2
ATOM      2  C   UNL A   1      35.705  21.075  25.055  1.00  0.00     0.116 C 
BRANCH   2   3
ATOM      3  N   UNL A   1      35.276  21.368  26.416  1.00  0.00    -0.354 N 
ATOM      4  C   UNL A   1      34.129  21.923  26.934  1.00  0.00     0.245 C 
ATOM      5  O   UNL A   1      33.915  21.706  28.132  1.00  0.00    -0.272 OA
ATOM      6  H   UNL A   1      35.937  21.119  27.101  1.00  0.00     0.163 HD
BRANCH   4   7
ATOM      7  C   UNL A   1      33.073  22.638  26.036  1.00  0.00     0.120 C 
BRANCH   7   8
ATOM      8  C   UNL A   1      32.895  22.122  24.578  1.00  0.00     0.035 C 
ATOM      9  C   UNL A   1      32.264  20.755  24.364  1.00  0.00     0.007 C 
ENDBRANCH   7   8
BRANCH   7  10
ATOM     10  C   UNL A   1      33.567  24.126  25.999  1.00  0.00     0.035 C 
ATOM     11  C   UNL A   1      34.436  24.546  24.822  1.00  0.00     0.007 C 
ENDBRANCH   7  10
BRANCH   7  12
ATOM     12  N   UNL A   1      31.762  22.496  26.690  1.00  0.00    -0.324 N 
ATOM     13  C   UNL A   1      30.648  23.241  26.694  1.00  0.00     0.315 C 
ATOM     14  H   UNL A   1      31.689  21.681  27.238  1.00  0.00     0.166 HD
ATOM     15  O   UNL A   1      29.825  22.974  27.577  1.00  0.00    -0.249 OA
ATOM     16  N   UNL A   1      30.335  24.207  25.829  1.00  0.00    -0.333 N 
ATOM     17  H   UNL A   1      29.436  24.554  26.031  1.00  0.00     0.165 HD
BRANCH  16  18
ATOM     18  C   UNL A   1      30.897  24.926  24.669  1.00  0.00     0.109 C 
ATOM     19  C   UNL A   1      30.342  24.410  23.340  1.00  0.00     0.034 C 
BRANCH  18  20
ATOM     20  C   UNL A   1      30.596  26.447  24.752  1.00  0.00     0.140 C 
ATOM     21  C   UNL A   1      31.389  27.266  23.743  1.00  0.00     0.036 C 
ATOM     22  O   UNL A   1      30.904  26.982  26.056  1.00  0.00    -0.376 OA
ATOM     23  C   UNL A   1      31.501  28.596  24.438  1.00  0.00     0.031 C 
ATOM     24  C   UNL A   1      31.669  28.179  25.882  1.00  0.00     0.160 C 
ENDBRANCH  18  20
ENDBRANCH  16  18
ENDBRANCH   7  12
ENDBRANCH   4   7
ENDBRANCH   2   3
ENDBRANCH   1   2
BRANCH   1  25
ATOM     25  C   UNL A   1      38.178  20.151  24.963  1.00  0.00     0.023 C 
BRANCH  25  26
ATOM     26  C   UNL A   1      39.250  20.454  25.996  1.00  0.00     0.116 C 
BRANCH  26  27
ATOM     27  N   UNL A   1      40.273  19.426  26.028  1.00  0.00    -0.352 N 
ATOM     28  C   UNL A   1      41.635  19.560  26.124  1.00  0.00     0.251 C 
ATOM     29  H   UNL A   1      39.944  18.499  25.976  1.00  0.00     0.163 HD
ATOM     30  O   UNL A   1      42.354  18.583  25.943  1.00  0.00    -0.269 OA
BRANCH  28  31
ATOM     31  C   UNL A   1      42.234  20.880  26.423  1.00  0.00     0.039 A 
ATOM     32  C   UNL A   1      42.600  21.706  25.357  1.00  0.00     0.014 A 
ATOM     33  C   UNL A   1      42.460  21.293  27.739  1.00  0.00     0.014 A 
ATOM     34  C   UNL A   1      43.159  22.961  25.611  1.00  0.00     0.010 A 
ATOM     35  C   UNL A   1      42.958  22.569  27.992  1.00  0.00     0.010 A 
ATOM     36  C   UNL A   1      43.324  23.411  26.931  1.00  0.00    -0.014 A 
BRANCH  36  37
ATOM     37  C   UNL A   1      43.897  24.751  27.217  1.00  0.00     0.031 A 
ATOM     38  C   UNL A   1      43.001  25.874  27.666  1.00  0.00     0.074 A 
ATOM     39  C   UNL A   1      45.213  24.968  27.027  1.00  0.00     0.049 A 
ATOM     40  N   UNL A   1      43.302  27.123  27.909  1.00  0.00    -0.248 NA
ATOM     41  C   UNL A   1      41.575  25.554  27.840  1.00  0.00     0.031 C 
ATOM     42  C   UNL A   1      46.175  23.971  26.552  1.00  0.00     0.029 A 
ATOM     43  N   UNL A   1      45.968  26.101  27.200  1.00  0.00    -0.354 N 
ATOM     44  C   UNL A   1      42.105  27.741  28.254  1.00  0.00     0.074 A 
ATOM     45  C   UNL A   1      41.066  26.741  28.137  1.00  0.00     0.031 C 
ATOM     46  C   UNL A   1      47.393  24.532  26.485  1.00  0.00     0.029 A 
ATOM     47  C   UNL A   1      47.294  25.935  26.881  1.00  0.00     0.049 A 
ATOM     48  H   UNL A   1      45.594  26.953  27.521  1.00  0.00     0.167 HD
ATOM     49  C   UNL A   1      41.895  29.018  28.653  1.00  0.00     0.037 A 
ATOM     50  C   UNL A   1      48.316  26.813  26.898  1.00  0.00     0.037 A 
ATOM     51  C   UNL A   1      42.938  30.002  28.789  1.00  0.00     0.049 A 
ATOM     52  C   UNL A   1      48.060  28.225  27.351  1.00  0.00     0.074 A 
ATOM     53  C   UNL A   1      42.837  31.308  29.233  1.00  0.00     0.029 A 
ATOM     54  N   UNL A   1      44.274  29.787  28.483  1.00  0.00    -0.354 N 
ATOM     55  N   UNL A   1      46.931  28.777  27.727  1.00  0.00    -0.248 NA
ATOM     56  C   UNL A   1      49.216  29.130  27.392  1.00  0.00     0.031 C 
ATOM     57  C   UNL A   1      44.105  31.895  29.160  1.00  0.00     0.029 A 
ATOM     58  C   UNL A   1      45.004  30.940  28.714  1.00  0.00     0.049 A 
ATOM     59  H   UNL A   1      44.648  28.939  28.150  1.00  0.00     0.167 HD
ATOM     60  C   UNL A   1      47.245  30.087  28.071  1.00  0.00     0.074 A 
ATOM     61  C   UNL A   1      48.672  30.241  27.871  1.00  0.00     0.031 C 
ATOM     62  C   UNL A   1      46.427  31.074  28.513  1.00  0.00     0.037 A 
BRANCH  49  63
ATOM     63  C   UNL A   1      40.483  29.420  28.978  1.00  0.00     0.058 A 
ATOM     64  C   UNL A   1      39.521  29.606  27.971  1.00  0.00     0.135 A 
ATOM     65  C   UNL A   1      40.076  29.597  30.310  1.00  0.00     0.135 A 
ATOM     66  F   UNL A   1      39.858  29.464  26.680  1.00  0.00    -0.206 F 
ATOM     67  C   UNL A   1      38.217  29.986  28.272  1.00  0.00     0.059 A 
ATOM     68  C   UNL A   1      38.769  29.950  30.635  1.00  0.00     0.059 A 
ATOM     69  F   UNL A   1      40.953  29.432  31.313  1.00  0.00    -0.206 F 
ATOM     70  C   UNL A   1      37.851  30.159  29.607  1.00  0.00     0.060 A 
BRANCH  70  71
ATOM     71  S   UNL A   1      36.156  30.656  29.980  1.00  0.00     0.124 S 
ATOM     72  O   UNL A   1      35.878  29.862  31.173  1.00  0.00    -0.237 OA
ATOM     73  O   UNL A   1      36.290  32.094  30.193  1.00  0.00    -0.237 OA
ATOM     74  O   UNL A   1      35.418  30.268  28.782  1.00  0.00    -0.744 OA
ENDBRANCH  70  71
ENDBRANCH  49  63
BRANCH  50  75
ATOM     75  C   UNL A   1      49.677  26.374  26.491  1.00  0.00     0.058 A 
ATOM     76  C   UNL A   1      50.532  25.736  27.402  1.00  0.00     0.135 A 
ATOM     77  C   UNL A   1      50.140  26.563  25.180  1.00  0.00     0.135 A 
ATOM     78  F   UNL A   1      50.135  25.539  28.668  1.00  0.00    -0.206 F 
ATOM     79  C   UNL A   1      51.804  25.312  27.032  1.00  0.00     0.059 A 
ATOM     80  C   UNL A   1      51.399  26.126  24.780  1.00  0.00     0.059 A 
ATOM     81  F   UNL A   1      49.353  27.152  24.266  1.00  0.00    -0.206 F 
ATOM     82  C   UNL A   1      52.228  25.510  25.717  1.00  0.00     0.060 A 
BRANCH  82  83
ATOM     83  S   UNL A   1      53.861  24.909  25.234  1.00  0.00     0.124 S 
ATOM     84  O   UNL A   1      54.672  25.317  26.374  1.00  0.00    -0.237 OA
ATOM     85  O   UNL A   1      53.632  23.475  25.092  1.00  0.00    -0.237 OA
ATOM     86  O   UNL A   1      54.122  25.619  23.985  1.00  0.00    -0.744 OA
ENDBRANCH  82  83
ENDBRANCH  50  75
BRANCH  62  87
ATOM     87  C   UNL A   1      47.056  32.400  28.839  1.00  0.00     0.058 A 
ATOM     88  C   UNL A   1      47.161  33.420  27.882  1.00  0.00     0.135 A 
ATOM     89  C   UNL A   1      47.510  32.670  30.140  1.00  0.00     0.135 A 
ATOM     90  F   UNL A   1      46.746  33.211  26.623  1.00  0.00    -0.206 F 
ATOM     91  C   UNL A   1      47.715  34.657  28.198  1.00  0.00     0.059 A 
ATOM     92  C   UNL A   1      48.045  33.907  30.484  1.00  0.00     0.059 A 
ATOM     93  F   UNL A   1      47.424  31.730  31.095  1.00  0.00    -0.206 F 
ATOM     94  C   UNL A   1      48.153  34.891  29.503  1.00  0.00     0.060 A 
BRANCH  94  95
ATOM     95  S   UNL A   1      48.836  36.513  29.909  1.00  0.00     0.124 S 
ATOM     96  O   UNL A   1      48.526  36.613  31.331  1.00  0.00    -0.237 OA
ATOM     97  O   UNL A   1      50.248  36.349  29.578  1.00  0.00    -0.237 OA
ATOM     98  O   UNL A   1      48.096  37.421  29.039  1.00  0.00    -0.744 OA
ENDBRANCH  94  95
ENDBRANCH  62  87
ENDBRANCH  36  37
ENDBRANCH  28  31
ENDBRANCH  26  27
ENDBRANCH  25  26
ENDBRANCH   1  25
TORSDOF 19
ENDMDL
MODEL 2
REMARK VINA RESULT:     -10.8      6.257     10.245
REMARK SMILES CCC(CC)(NC(=O)N[C@@H](C)[C@@H]1CCCO1)C(=O)NCCCCNC(=O)c1ccc(-c2c3nc(c(-c4c(F)cc(S(=O)(=O)[O-])cc4F)c4ccc([nH]4)c(-c4c(F)cc(S(=O)(=O)[O-])cc4F)c4nc(c(-c5c(F)cc(S(=O)(=O)[O-])cc5F)c5ccc2[nH]5)C=C4)C=C3)cc1
REMARK SMILES IDX 21 1 20 2 19 3 17 4 18 5 3 7 2 8 1 9 4 10 5 11 6 12 7 13
REMARK SMILES IDX 8 15 9 16 10 18 11 19 12 20 13 21 16 22 14 23 15 24 22 25
REMARK SMILES IDX 23 26 24 27 25 28 26 30 27 31 28 32 92 33 29 34 91 35 30 36
REMARK SMILES IDX 31 37 32 38 85 39 33 40 90 41 84 42 86 43 34 44 89 45 83 46
REMARK SMILES IDX 82 47 35 49 69 50 48 51 68 52 49 53 52 54 67 55 87 56 50 57
REMARK SMILES IDX 51 58 66 60 88 61 53 62 36 63 37 64 46 65 38 66 39 67 45 68
REMARK SMILES IDX 47 69 40 70 41 71 42 72 43 73 44 74 70 75 71 76 80 77 72 78
REMARK SMILES IDX 73 79 79 80 81 81 74 82 75 83 76 84 77 85 78 86 54 87 55 88
REMARK SMILES IDX 64 89 56 90 57 91 63 92 65 93 58 94 59 95 60 96 61 97 62 98
REMARK H PARENT 19 6 6 14 9 17 24 29 86 48 52 59
REMARK Flexibility Score: inf
ROOT
ATOM      1  C   UNL A   1      31.908  30.458  26.769  1.00  0.00     0.023 C 
ENDROOT
BRANCH   1   2
ATOM      2  C   UNL A   1      31.758  29.778  25.403  1.00  0.00     0.116 C 
BRANCH   2   3
ATOM      3  N   UNL A   1      32.911  29.721  24.513  1.00  0.00    -0.354 N 
ATOM      4  C   UNL A   1      33.327  28.797  23.583  1.00  0.00     0.245 C 
ATOM      5  O   UNL A   1      34.137  29.203  22.742  1.00  0.00    -0.272 OA
ATOM      6  H   UNL A   1      33.510  30.498  24.593  1.00  0.00     0.163 HD
BRANCH   4   7
ATOM      7  C   UNL A   1      32.694  27.375  23.483  1.00  0.00     0.120 C 
BRANCH   7   8
ATOM      8  C   UNL A   1      31.231  27.199  23.984  1.00  0.00     0.035 C 
ATOM      9  C   UNL A   1      30.094  27.455  23.009  1.00  0.00     0.007 C 
ENDBRANCH   7   8
BRANCH   7  10
ATOM     10  C   UNL A   1      33.648  26.485  24.353  1.00  0.00     0.035 C 
ATOM     11  C   UNL A   1      33.218  26.187  25.783  1.00  0.00     0.007 C 
ENDBRANCH   7  10
BRANCH   7  12
ATOM     12  N   UNL A   1      32.697  26.985  22.064  1.00  0.00    -0.324 N 
ATOM     13  C   UNL A   1      32.761  25.804  21.433  1.00  0.00     0.315 C 
ATOM     14  H   UNL A   1      32.639  27.753  21.450  1.00  0.00     0.166 HD
ATOM     15  O   UNL A   1      33.026  25.852  20.227  1.00  0.00    -0.249 OA
ATOM     16  N   UNL A   1      32.539  24.603  21.969  1.00  0.00    -0.333 N 
ATOM     17  H   UNL A   1      32.600  23.911  21.271  1.00  0.00     0.165 HD
BRANCH  16  18
ATOM     18  C   UNL A   1      32.231  23.972  23.268  1.00  0.00     0.109 C 
ATOM     19  C   UNL A   1      30.740  23.664  23.427  1.00  0.00     0.034 C 
BRANCH  18  20
ATOM     20  C   UNL A   1      33.014  22.644  23.446  1.00  0.00     0.140 C 
ATOM     21  C   UNL A   1      32.877  22.055  24.844  1.00  0.00     0.036 C 
ATOM     22  O   UNL A   1      34.425  22.819  23.205  1.00  0.00    -0.376 OA
ATOM     23  C   UNL A   1      34.166  21.295  24.991  1.00  0.00     0.031 C 
ATOM     24  C   UNL A   1      35.145  22.201  24.276  1.00  0.00     0.160 C 
ENDBRANCH  18  20
ENDBRANCH  16  18
ENDBRANCH   7  12
ENDBRANCH   4   7
ENDBRANCH   2   3
ENDBRANCH   1   2
BRANCH   1  25
ATOM     25  C   UNL A   1      31.771  31.973  26.872  1.00  0.00     0.023 C 
BRANCH  25  26
ATOM     26  C   UNL A   1      33.033  32.736  27.236  1.00  0.00     0.116 C 
BRANCH  26  27
ATOM     27  N   UNL A   1      32.732  34.047  27.781  1.00  0.00    -0.352 N 
ATOM     28  C   UNL A   1      33.253  34.666  28.889  1.00  0.00     0.251 C 
ATOM     29  H   UNL A   1      32.058  34.567  27.285  1.00  0.00     0.163 HD
ATOM     30  O   UNL A   1      32.737  35.698  29.304  1.00  0.00    -0.269 OA
BRANCH  28  31
ATOM     31  C   UNL A   1      34.419  34.082  29.589  1.00  0.00     0.039 A 
ATOM     32  C   UNL A   1      34.191  33.249  30.686  1.00  0.00     0.014 A 
ATOM     33  C   UNL A   1      35.726  34.372  29.187  1.00  0.00     0.014 A 
ATOM     34  C   UNL A   1      35.273  32.677  31.360  1.00  0.00     0.010 A 
ATOM     35  C   UNL A   1      36.801  33.752  29.820  1.00  0.00     0.010 A 
ATOM     36  C   UNL A   1      36.586  32.907  30.920  1.00  0.00    -0.014 A 
BRANCH  36  37
ATOM     37  C   UNL A   1      37.746  32.290  31.612  1.00  0.00     0.031 A 
ATOM     38  C   UNL A   1      38.210  32.833  32.937  1.00  0.00     0.074 A 
ATOM     39  C   UNL A   1      38.408  31.273  31.028  1.00  0.00     0.049 A 
ATOM     40  N   UNL A   1      39.232  32.469  33.667  1.00  0.00    -0.248 NA
ATOM     41  C   UNL A   1      37.437  33.950  33.503  1.00  0.00     0.031 C 
ATOM     42  C   UNL A   1      38.081  30.689  29.724  1.00  0.00     0.029 A 
ATOM     43  N   UNL A   1      39.501  30.557  31.446  1.00  0.00    -0.354 N 
ATOM     44  C   UNL A   1      39.232  33.315  34.770  1.00  0.00     0.074 A 
ATOM     45  C   UNL A   1      38.140  34.245  34.586  1.00  0.00     0.031 C 
ATOM     46  C   UNL A   1      38.945  29.697  29.458  1.00  0.00     0.029 A 
ATOM     47  C   UNL A   1      39.905  29.593  30.554  1.00  0.00     0.049 A 
ATOM     48  H   UNL A   1      39.954  30.719  32.306  1.00  0.00     0.167 HD
ATOM     49  C   UNL A   1      40.053  33.302  35.847  1.00  0.00     0.037 A 
ATOM     50  C   UNL A   1      40.937  28.729  30.607  1.00  0.00     0.037 A 
ATOM     51  C   UNL A   1      41.125  32.359  36.034  1.00  0.00     0.049 A 
ATOM     52  C   UNL A   1      41.832  28.729  31.816  1.00  0.00     0.074 A 
ATOM     53  C   UNL A   1      41.982  32.231  37.112  1.00  0.00     0.029 A 
ATOM     54  N   UNL A   1      41.486  31.379  35.119  1.00  0.00    -0.354 N 
ATOM     55  N   UNL A   1      41.783  29.501  32.877  1.00  0.00    -0.248 NA
ATOM     56  C   UNL A   1      42.915  27.737  31.843  1.00  0.00     0.031 C 
ATOM     57  C   UNL A   1      42.885  31.199  36.834  1.00  0.00     0.029 A 
ATOM     58  C   UNL A   1      42.561  30.654  35.602  1.00  0.00     0.049 A 
ATOM     59  H   UNL A   1      41.041  31.224  34.254  1.00  0.00     0.167 HD
ATOM     60  C   UNL A   1      42.814  29.073  33.705  1.00  0.00     0.074 A 
ATOM     61  C   UNL A   1      43.461  27.966  33.030  1.00  0.00     0.031 C 
ATOM     62  C   UNL A   1      43.191  29.551  34.917  1.00  0.00     0.037 A 
BRANCH  49  63
ATOM     63  C   UNL A   1      39.818  34.340  36.911  1.00  0.00     0.058 A 
ATOM     64  C   UNL A   1      39.058  34.057  38.059  1.00  0.00     0.135 A 
ATOM     65  C   UNL A   1      40.378  35.622  36.798  1.00  0.00     0.135 A 
ATOM     66  F   UNL A   1      38.488  32.852  38.211  1.00  0.00    -0.206 F 
ATOM     67  C   UNL A   1      38.834  35.019  39.038  1.00  0.00     0.059 A 
ATOM     68  C   UNL A   1      40.190  36.591  37.780  1.00  0.00     0.059 A 
ATOM     69  F   UNL A   1      41.114  35.946  35.724  1.00  0.00    -0.206 F 
ATOM     70  C   UNL A   1      39.401  36.285  38.888  1.00  0.00     0.060 A 
BRANCH  70  71
ATOM     71  S   UNL A   1      39.097  37.523  40.167  1.00  0.00     0.124 S 
ATOM     72  O   UNL A   1      38.563  36.697  41.247  1.00  0.00    -0.237 OA
ATOM     73  O   UNL A   1      40.429  38.075  40.392  1.00  0.00    -0.237 OA
ATOM     74  O   UNL A   1      38.141  38.431  39.540  1.00  0.00    -0.744 OA
ENDBRANCH  70  71
ENDBRANCH  49  63
BRANCH  50  75
ATOM     75  C   UNL A   1      41.164  27.777  29.487  1.00  0.00     0.058 A 
ATOM     76  C   UNL A   1      42.241  27.945  28.604  1.00  0.00     0.135 A 
ATOM     77  C   UNL A   1      40.323  26.672  29.291  1.00  0.00     0.135 A 
ATOM     78  F   UNL A   1      43.070  28.990  28.749  1.00  0.00    -0.206 F 
ATOM     79  C   UNL A   1      42.470  27.058  27.557  1.00  0.00     0.059 A 
ATOM     80  C   UNL A   1      40.545  25.757  28.266  1.00  0.00     0.059 A 
ATOM     81  F   UNL A   1      39.289  26.457  30.119  1.00  0.00    -0.206 F 
ATOM     82  C   UNL A   1      41.617  25.964  27.398  1.00  0.00     0.060 A 
BRANCH  82  83
ATOM     83  S   UNL A   1      41.953  24.790  26.068  1.00  0.00     0.124 S 
ATOM     84  O   UNL A   1      40.755  23.959  26.101  1.00  0.00    -0.237 OA
ATOM     85  O   UNL A   1      42.091  25.667  24.910  1.00  0.00    -0.237 OA
ATOM     86  O   UNL A   1      43.187  24.139  26.502  1.00  0.00    -0.744 OA
ENDBRANCH  82  83
ENDBRANCH  50  75
BRANCH  62  87
ATOM     87  C   UNL A   1      44.337  28.865  35.606  1.00  0.00     0.058 A 
ATOM     88  C   UNL A   1      44.132  27.790  36.484  1.00  0.00     0.135 A 
ATOM     89  C   UNL A   1      45.660  29.255  35.343  1.00  0.00     0.135 A 
ATOM     90  F   UNL A   1      42.886  27.383  36.773  1.00  0.00    -0.206 F 
ATOM     91  C   UNL A   1      45.198  27.138  37.094  1.00  0.00     0.059 A 
ATOM     92  C   UNL A   1      46.743  28.601  35.923  1.00  0.00     0.059 A 
ATOM     93  F   UNL A   1      45.911  30.272  34.503  1.00  0.00    -0.206 F 
ATOM     94  C   UNL A   1      46.501  27.550  36.806  1.00  0.00     0.060 A 
BRANCH  94  95
ATOM     95  S   UNL A   1      47.878  26.672  37.576  1.00  0.00     0.124 S 
ATOM     96  O   UNL A   1      47.231  25.440  38.015  1.00  0.00    -0.237 OA
ATOM     97  O   UNL A   1      48.820  26.535  36.470  1.00  0.00    -0.237 OA
ATOM     98  O   UNL A   1      48.301  27.574  38.643  1.00  0.00    -0.744 OA
ENDBRANCH  94  95
ENDBRANCH  62  87
ENDBRANCH  36  37
ENDBRANCH  28  31
ENDBRANCH  26  27
ENDBRANCH  25  26
ENDBRANCH   1  25
TORSDOF 19
ENDMDL
MODEL 3
REMARK VINA RESULT:     -10.8      0.523      8.195
REMARK SMILES CCC(CC)(NC(=O)N[C@@H](C)[C@@H]1CCCO1)C(=O)NCCCCNC(=O)c1ccc(-c2c3nc(c(-c4c(F)cc(S(=O)(=O)[O-])cc4F)c4ccc([nH]4)c(-c4c(F)cc(S(=O)(=O)[O-])cc4F)c4nc(c(-c5c(F)cc(S(=O)(=O)[O-])cc5F)c5ccc2[nH]5)C=C4)C=C3)cc1
REMARK SMILES IDX 21 1 20 2 19 3 17 4 18 5 3 7 2 8 1 9 4 10 5 11 6 12 7 13
REMARK SMILES IDX 8 15 9 16 10 18 11 19 12 20 13 21 16 22 14 23 15 24 22 25
REMARK SMILES IDX 23 26 24 27 25 28 26 30 27 31 28 32 92 33 29 34 91 35 30 36
REMARK SMILES IDX 31 37 32 38 85 39 33 40 90 41 84 42 86 43 34 44 89 45 83 46
REMARK SMILES IDX 82 47 35 49 69 50 48 51 68 52 49 53 52 54 67 55 87 56 50 57
REMARK SMILES IDX 51 58 66 60 88 61 53 62 36 63 37 64 46 65 38 66 39 67 45 68
REMARK SMILES IDX 47 69 40 70 41 71 42 72 43 73 44 74 70 75 71 76 80 77 72 78
REMARK SMILES IDX 73 79 79 80 81 81 74 82 75 83 76 84 77 85 78 86 54 87 55 88
REMARK SMILES IDX 64 89 56 90 57 91 63 92 65 93 58 94 59 95 60 96 61 97 62 98
REMARK H PARENT 19 6 6 14 9 17 24 29 86 48 52 59
REMARK Flexibility Score: inf
ROOT
ATOM      1  C   UNL A   1      37.396  21.088  24.577  1.00  0.00     0.023 C 
ENDROOT
BRANCH   1   2
ATOM      2  C   UNL A   1      35.897  21.182  24.887  1.00  0.00     0.116 C 
BRANCH   2   3
ATOM      3  N   UNL A   1      35.471  21.311  26.275  1.00  0.00    -0.354 N 
ATOM      4  C   UNL A   1      34.322  21.793  26.857  1.00  0.00     0.245 C 
ATOM      5  O   UNL A   1      34.115  21.436  28.022  1.00  0.00    -0.272 OA
ATOM      6  H   UNL A   1      36.137  20.989  26.924  1.00  0.00     0.163 HD
BRANCH   4   7
ATOM      7  C   UNL A   1      33.258  22.600  26.050  1.00  0.00     0.120 C 
BRANCH   7   8
ATOM      8  C   UNL A   1      33.055  22.232  24.552  1.00  0.00     0.035 C 
ATOM      9  C   UNL A   1      32.392  20.907  24.213  1.00  0.00     0.007 C 
ENDBRANCH   7   8
BRANCH   7  10
ATOM     10  C   UNL A   1      33.761  24.081  26.155  1.00  0.00     0.035 C 
ATOM     11  C   UNL A   1      34.662  24.595  25.040  1.00  0.00     0.007 C 
ENDBRANCH   7  10
BRANCH   7  12
ATOM     12  N   UNL A   1      31.956  22.399  26.707  1.00  0.00    -0.324 N 
ATOM     13  C   UNL A   1      30.837  23.133  26.780  1.00  0.00     0.315 C 
ATOM     14  H   UNL A   1      31.894  21.546  27.195  1.00  0.00     0.166 HD
ATOM     15  O   UNL A   1      30.027  22.796  27.650  1.00  0.00    -0.249 OA
ATOM     16  N   UNL A   1      30.507  24.159  25.993  1.00  0.00    -0.333 N 
ATOM     17  H   UNL A   1      29.608  24.483  26.230  1.00  0.00     0.165 HD
BRANCH  16  18
ATOM     18  C   UNL A   1      31.050  24.966  24.882  1.00  0.00     0.109 C 
ATOM     19  C   UNL A   1      30.340  24.685  23.556  1.00  0.00     0.034 C 
BRANCH  18  20
ATOM     20  C   UNL A   1      30.922  26.485  25.178  1.00  0.00     0.140 C 
ATOM     21  C   UNL A   1      32.156  27.277  24.767  1.00  0.00     0.036 C 
ATOM     22  O   UNL A   1      30.712  26.740  26.583  1.00  0.00    -0.376 OA
ATOM     23  C   UNL A   1      32.119  28.434  25.728  1.00  0.00     0.031 C 
ATOM     24  C   UNL A   1      31.614  27.773  26.991  1.00  0.00     0.160 C 
ENDBRANCH  18  20
ENDBRANCH  16  18
ENDBRANCH   7  12
ENDBRANCH   4   7
ENDBRANCH   2   3
ENDBRANCH   1   2
BRANCH   1  25
ATOM     25  C   UNL A   1      38.209  19.930  25.145  1.00  0.00     0.023 C 
BRANCH  25  26
ATOM     26  C   UNL A   1      39.282  20.298  26.155  1.00  0.00     0.116 C 
BRANCH  26  27
ATOM     27  N   UNL A   1      40.404  19.379  26.108  1.00  0.00    -0.352 N 
ATOM     28  C   UNL A   1      41.749  19.650  26.117  1.00  0.00     0.251 C 
ATOM     29  H   UNL A   1      40.168  18.424  26.065  1.00  0.00     0.163 HD
ATOM     30  O   UNL A   1      42.550  18.753  25.878  1.00  0.00    -0.269 OA
BRANCH  28  31
ATOM     31  C   UNL A   1      42.230  21.023  26.393  1.00  0.00     0.039 A 
ATOM     32  C   UNL A   1      42.499  21.384  27.715  1.00  0.00     0.014 A 
ATOM     33  C   UNL A   1      42.388  21.957  25.365  1.00  0.00     0.014 A 
ATOM     34  C   UNL A   1      42.962  22.670  28.004  1.00  0.00     0.010 A 
ATOM     35  C   UNL A   1      42.910  23.218  25.645  1.00  0.00     0.010 A 
ATOM     36  C   UNL A   1      43.190  23.591  26.969  1.00  0.00    -0.014 A 
BRANCH  36  37
ATOM     37  C   UNL A   1      43.702  24.955  27.257  1.00  0.00     0.031 A 
ATOM     38  C   UNL A   1      45.162  25.268  27.067  1.00  0.00     0.074 A 
ATOM     39  C   UNL A   1      42.864  25.896  27.734  1.00  0.00     0.049 A 
ATOM     40  N   UNL A   1      45.809  26.377  27.317  1.00  0.00    -0.248 NA
ATOM     41  C   UNL A   1      46.011  24.182  26.551  1.00  0.00     0.031 C 
ATOM     42  C   UNL A   1      41.438  25.699  28.002  1.00  0.00     0.029 A 
ATOM     43  N   UNL A   1      43.092  27.202  28.088  1.00  0.00    -0.354 N 
ATOM     44  C   UNL A   1      47.138  26.121  27.000  1.00  0.00     0.074 A 
ATOM     45  C   UNL A   1      47.214  24.736  26.590  1.00  0.00     0.031 C 
ATOM     46  C   UNL A   1      40.916  26.847  28.465  1.00  0.00     0.029 A 
ATOM     47  C   UNL A   1      41.974  27.850  28.556  1.00  0.00     0.049 A 
ATOM     48  H   UNL A   1      43.973  27.634  28.014  1.00  0.00     0.167 HD
ATOM     49  C   UNL A   1      48.194  26.969  27.027  1.00  0.00     0.037 A 
ATOM     50  C   UNL A   1      41.819  29.107  29.014  1.00  0.00     0.037 A 
ATOM     51  C   UNL A   1      48.106  28.353  27.414  1.00  0.00     0.049 A 
ATOM     52  C   UNL A   1      43.004  30.034  29.028  1.00  0.00     0.074 A 
ATOM     53  C   UNL A   1      49.107  29.308  27.428  1.00  0.00     0.029 A 
ATOM     54  N   UNL A   1      46.950  28.981  27.856  1.00  0.00    -0.354 N 
ATOM     55  N   UNL A   1      44.243  29.790  28.672  1.00  0.00    -0.248 NA
ATOM     56  C   UNL A   1      42.770  31.406  29.497  1.00  0.00     0.031 C 
ATOM     57  C   UNL A   1      48.565  30.504  27.914  1.00  0.00     0.029 A 
ATOM     58  C   UNL A   1      47.216  30.305  28.159  1.00  0.00     0.049 A 
ATOM     59  H   UNL A   1      46.070  28.547  27.941  1.00  0.00     0.167 HD
ATOM     60  C   UNL A   1      44.931  30.985  28.853  1.00  0.00     0.074 A 
ATOM     61  C   UNL A   1      43.968  31.953  29.336  1.00  0.00     0.031 C 
ATOM     62  C   UNL A   1      46.242  31.257  28.636  1.00  0.00     0.037 A 
BRANCH  49  63
ATOM     63  C   UNL A   1      49.534  26.422  26.618  1.00  0.00     0.058 A 
ATOM     64  C   UNL A   1      49.925  26.365  25.270  1.00  0.00     0.135 A 
ATOM     65  C   UNL A   1      50.450  25.974  27.583  1.00  0.00     0.135 A 
ATOM     66  F   UNL A   1      49.084  26.768  24.304  1.00  0.00    -0.206 F 
ATOM     67  C   UNL A   1      51.162  25.852  24.892  1.00  0.00     0.059 A 
ATOM     68  C   UNL A   1      51.703  25.482  27.229  1.00  0.00     0.059 A 
ATOM     69  F   UNL A   1      50.129  26.006  28.886  1.00  0.00    -0.206 F 
ATOM     70  C   UNL A   1      52.043  25.409  25.879  1.00  0.00     0.060 A 
BRANCH  70  71
ATOM     71  S   UNL A   1      53.642  24.742  25.371  1.00  0.00     0.124 S 
ATOM     72  O   UNL A   1      54.420  24.893  26.597  1.00  0.00    -0.237 OA
ATOM     73  O   UNL A   1      53.306  23.371  24.999  1.00  0.00    -0.237 OA
ATOM     74  O   UNL A   1      54.036  25.610  24.266  1.00  0.00    -0.744 OA
ENDBRANCH  70  71
ENDBRANCH  49  63
BRANCH  50  75
ATOM     75  C   UNL A   1      40.482  29.567  29.477  1.00  0.00     0.058 A 
ATOM     76  C   UNL A   1      40.221  29.772  30.839  1.00  0.00     0.135 A 
ATOM     77  C   UNL A   1      39.449  29.830  28.565  1.00  0.00     0.135 A 
ATOM     78  F   UNL A   1      41.177  29.528  31.749  1.00  0.00    -0.206 F 
ATOM     79  C   UNL A   1      38.978  30.210  31.286  1.00  0.00     0.059 A 
ATOM     80  C   UNL A   1      38.205  30.292  28.985  1.00  0.00     0.059 A 
ATOM     81  F   UNL A   1      39.654  29.666  27.249  1.00  0.00    -0.206 F 
ATOM     82  C   UNL A   1      37.976  30.470  30.349  1.00  0.00     0.060 A 
BRANCH  82  83
ATOM     83  S   UNL A   1      36.384  31.087  30.933  1.00  0.00     0.124 S 
ATOM     84  O   UNL A   1      36.759  32.379  31.497  1.00  0.00    -0.237 OA
ATOM     85  O   UNL A   1      35.599  31.130  29.704  1.00  0.00    -0.237 OA
ATOM     86  O   UNL A   1      35.966  30.074  31.898  1.00  0.00    -0.744 OA
ENDBRANCH  82  83
ENDBRANCH  50  75
BRANCH  62  87
ATOM     87  C   UNL A   1      46.709  32.663  28.892  1.00  0.00     0.058 A 
ATOM     88  C   UNL A   1      46.649  33.651  27.899  1.00  0.00     0.135 A 
ATOM     89  C   UNL A   1      47.173  33.037  30.164  1.00  0.00     0.135 A 
ATOM     90  F   UNL A   1      46.218  33.343  26.665  1.00  0.00    -0.206 F 
ATOM     91  C   UNL A   1      47.052  34.959  28.151  1.00  0.00     0.059 A 
ATOM     92  C   UNL A   1      47.557  34.344  30.445  1.00  0.00     0.059 A 
ATOM     93  F   UNL A   1      47.241  32.130  31.152  1.00  0.00    -0.206 F 
ATOM     94  C   UNL A   1      47.503  35.296  29.428  1.00  0.00     0.060 A 
BRANCH  94  95
ATOM     95  S   UNL A   1      47.989  37.004  29.753  1.00  0.00     0.124 S 
ATOM     96  O   UNL A   1      47.770  37.103  31.192  1.00  0.00    -0.237 OA
ATOM     97  O   UNL A   1      49.383  37.021  29.321  1.00  0.00    -0.237 OA
ATOM     98  O   UNL A   1      47.074  37.781  28.923  1.00  0.00    -0.744 OA
ENDBRANCH  94  95
ENDBRANCH  62  87
ENDBRANCH  36  37
ENDBRANCH  28  31
ENDBRANCH  26  27
ENDBRANCH  25  26
ENDBRANCH   1  25
TORSDOF 19
ENDMDL
