MODEL 1
REMARK VINA RESULT:     -10.1      0.000      0.000
REMARK SMILES CCN(CC)C(=O)[C@H](C)SCC(=O)NCCCCNC(=O)c1ccc(-c2c3nc(c(-c4c(F)cc(S(=O)(=O)[O-])cc4F)c4ccc([nH]4)c(-c4c(F)cc(S(=O)(=O)[O-])cc4F)c4nc(c(-c5c(F)cc(S(=O)(=O)[O-])cc5F)c5ccc2[nH]5)C=C4)C=C3)cc1
REMARK SMILES IDX 16 1 15 2 14 3 12 4 13 5 11 7 10 8 8 9 9 10 6 11 3 12 7 13
REMARK SMILES IDX 2 14 1 15 4 16 5 17 17 18 18 19 19 20 20 21 21 23 22 24
REMARK SMILES IDX 23 25 87 26 24 27 86 28 25 29 26 30 27 31 80 32 28 33 85 34
REMARK SMILES IDX 79 35 81 36 29 37 84 38 78 39 77 40 30 42 64 43 43 44 63 45
REMARK SMILES IDX 44 46 47 47 62 48 82 49 45 50 46 51 61 53 83 54 48 55 31 56
REMARK SMILES IDX 32 57 41 58 33 59 34 60 40 61 42 62 35 63 36 64 37 65 38 66
REMARK SMILES IDX 39 67 65 68 66 69 75 70 67 71 68 72 74 73 76 74 69 75 70 76
REMARK SMILES IDX 71 77 72 78 73 79 49 80 50 81 59 82 51 83 52 84 58 85 60 86
REMARK SMILES IDX 53 87 54 88 55 89 56 90 57 91
REMARK H PARENT 14 6 19 22 81 41 47 52
REMARK Flexibility Score: inf
ROOT
ATOM      1  C   UNL A   1      35.006  34.301  29.070  1.00  0.00     0.023 C 
ENDROOT
BRANCH   1   2
ATOM      2  C   UNL A   1      33.524  34.464  29.418  1.00  0.00     0.116 C 
BRANCH   2   3
ATOM      3  N   UNL A   1      33.139  35.826  29.736  1.00  0.00    -0.355 N 
ATOM      4  C   UNL A   1      32.981  36.477  30.922  1.00  0.00     0.230 C 
ATOM      5  O   UNL A   1      32.934  37.709  30.871  1.00  0.00    -0.274 OA
ATOM      6  H   UNL A   1      32.958  36.385  28.946  1.00  0.00     0.163 HD
BRANCH   4   7
ATOM      7  C   UNL A   1      32.961  35.773  32.256  1.00  0.00     0.170 C 
BRANCH   7   8
ATOM      8  S   UNL A   1      34.478  35.718  33.256  1.00  0.00    -0.139 SA
BRANCH   8   9
ATOM      9  C   UNL A   1      34.792  33.979  33.804  1.00  0.00     0.133 C 
ATOM     10  C   UNL A   1      34.614  33.003  32.641  1.00  0.00     0.030 C 
BRANCH   9  11
ATOM     11  C   UNL A   1      36.090  33.722  34.553  1.00  0.00     0.235 C 
ATOM     12  N   UNL A   1      37.312  33.756  33.875  1.00  0.00    -0.342 N 
ATOM     13  O   UNL A   1      36.050  33.525  35.774  1.00  0.00    -0.274 OA
BRANCH  12  14
ATOM     14  C   UNL A   1      38.480  33.356  34.676  1.00  0.00     0.116 C 
ATOM     15  C   UNL A   1      38.800  31.873  34.567  1.00  0.00     0.027 C 
ENDBRANCH  12  14
BRANCH  12  16
ATOM     16  C   UNL A   1      37.618  34.501  32.641  1.00  0.00     0.116 C 
ATOM     17  C   UNL A   1      38.246  33.778  31.462  1.00  0.00     0.027 C 
ENDBRANCH  12  16
ENDBRANCH   9  11
ENDBRANCH   8   9
ENDBRANCH   7   8
ENDBRANCH   4   7
ENDBRANCH   2   3
ENDBRANCH   1   2
BRANCH   1  18
ATOM     18  C   UNL A   1      35.363  33.165  28.117  1.00  0.00     0.023 C 
BRANCH  18  19
ATOM     19  C   UNL A   1      36.462  32.263  28.630  1.00  0.00     0.116 C 
BRANCH  19  20
ATOM     20  N   UNL A   1      36.069  31.547  29.836  1.00  0.00    -0.352 N 
ATOM     21  C   UNL A   1      36.679  30.479  30.450  1.00  0.00     0.251 C 
ATOM     22  H   UNL A   1      35.251  31.876  30.275  1.00  0.00     0.163 HD
ATOM     23  O   UNL A   1      36.116  29.900  31.367  1.00  0.00    -0.269 OA
BRANCH  21  24
ATOM     24  C   UNL A   1      38.001  30.024  29.967  1.00  0.00     0.039 A 
ATOM     25  C   UNL A   1      38.188  29.812  28.601  1.00  0.00     0.014 A 
ATOM     26  C   UNL A   1      39.057  29.830  30.861  1.00  0.00     0.014 A 
ATOM     27  C   UNL A   1      39.448  29.439  28.132  1.00  0.00     0.010 A 
ATOM     28  C   UNL A   1      40.335  29.595  30.380  1.00  0.00     0.010 A 
ATOM     29  C   UNL A   1      40.535  29.351  29.017  1.00  0.00    -0.014 A 
BRANCH  29  30
ATOM     30  C   UNL A   1      41.877  28.931  28.551  1.00  0.00     0.031 A 
ATOM     31  C   UNL A   1      42.977  29.955  28.449  1.00  0.00     0.074 A 
ATOM     32  C   UNL A   1      42.083  27.652  28.184  1.00  0.00     0.049 A 
ATOM     33  N   UNL A   1      44.209  29.806  28.035  1.00  0.00    -0.248 NA
ATOM     34  C   UNL A   1      42.643  31.342  28.822  1.00  0.00     0.031 C 
ATOM     35  C   UNL A   1      41.065  26.598  28.171  1.00  0.00     0.029 A 
ATOM     36  N   UNL A   1      43.218  27.018  27.749  1.00  0.00    -0.354 N 
ATOM     37  C   UNL A   1      44.777  31.074  28.075  1.00  0.00     0.074 A 
ATOM     38  C   UNL A   1      43.742  31.994  28.481  1.00  0.00     0.031 C 
ATOM     39  C   UNL A   1      41.631  25.442  27.788  1.00  0.00     0.029 A 
ATOM     40  C   UNL A   1      43.039  25.679  27.494  1.00  0.00     0.049 A 
ATOM     41  H   UNL A   1      44.080  27.479  27.631  1.00  0.00     0.167 HD
ATOM     42  C   UNL A   1      46.059  31.433  27.832  1.00  0.00     0.037 A 
ATOM     43  C   UNL A   1      43.918  24.751  27.072  1.00  0.00     0.037 A 
ATOM     44  C   UNL A   1      47.088  30.494  27.479  1.00  0.00     0.049 A 
ATOM     45  C   UNL A   1      45.350  25.165  26.857  1.00  0.00     0.074 A 
ATOM     46  C   UNL A   1      48.436  30.727  27.282  1.00  0.00     0.029 A 
ATOM     47  N   UNL A   1      46.880  29.136  27.276  1.00  0.00    -0.354 N 
ATOM     48  N   UNL A   1      45.889  26.357  26.976  1.00  0.00    -0.248 NA
ATOM     49  C   UNL A   1      46.294  24.111  26.469  1.00  0.00     0.031 C 
ATOM     50  C   UNL A   1      49.035  29.519  26.910  1.00  0.00     0.029 A 
ATOM     51  C   UNL A   1      48.072  28.522  26.937  1.00  0.00     0.049 A 
ATOM     52  H   UNL A   1      46.012  28.679  27.359  1.00  0.00     0.167 HD
ATOM     53  C   UNL A   1      47.244  26.188  26.707  1.00  0.00     0.074 A 
ATOM     54  C   UNL A   1      47.440  24.777  26.439  1.00  0.00     0.031 C 
ATOM     55  C   UNL A   1      48.237  27.113  26.683  1.00  0.00     0.037 A 
BRANCH  42  56
ATOM     56  C   UNL A   1      46.418  32.890  27.952  1.00  0.00     0.058 A 
ATOM     57  C   UNL A   1      46.192  33.800  26.906  1.00  0.00     0.135 A 
ATOM     58  C   UNL A   1      46.959  33.392  29.147  1.00  0.00     0.135 A 
ATOM     59  F   UNL A   1      45.699  33.374  25.733  1.00  0.00    -0.206 F 
ATOM     60  C   UNL A   1      46.511  35.148  27.031  1.00  0.00     0.059 A 
ATOM     61  C   UNL A   1      47.256  34.743  29.306  1.00  0.00     0.059 A 
ATOM     62  F   UNL A   1      47.204  32.567  30.177  1.00  0.00    -0.206 F 
ATOM     63  C   UNL A   1      47.037  35.611  28.239  1.00  0.00     0.060 A 
BRANCH  63  64
ATOM     64  S   UNL A   1      47.413  37.370  28.394  1.00  0.00     0.124 S 
ATOM     65  O   UNL A   1      46.779  37.693  29.669  1.00  0.00    -0.237 OA
ATOM     66  O   UNL A   1      48.873  37.377  28.394  1.00  0.00    -0.237 OA
ATOM     67  O   UNL A   1      46.785  37.959  27.216  1.00  0.00    -0.744 OA
ENDBRANCH  63  64
ENDBRANCH  42  56
BRANCH  43  68
ATOM     68  C   UNL A   1      43.480  23.345  26.860  1.00  0.00     0.058 A 
ATOM     69  C   UNL A   1      43.177  22.505  27.943  1.00  0.00     0.135 A 
ATOM     70  C   UNL A   1      43.345  22.813  25.568  1.00  0.00     0.135 A 
ATOM     71  F   UNL A   1      43.286  22.965  29.199  1.00  0.00    -0.206 F 
ATOM     72  C   UNL A   1      42.787  21.182  27.756  1.00  0.00     0.059 A 
ATOM     73  C   UNL A   1      42.929  21.503  25.354  1.00  0.00     0.059 A 
ATOM     74  F   UNL A   1      43.598  23.580  24.496  1.00  0.00    -0.206 F 
ATOM     75  C   UNL A   1      42.666  20.690  26.455  1.00  0.00     0.060 A 
BRANCH  75  76
ATOM     76  S   UNL A   1      42.130  18.981  26.222  1.00  0.00     0.124 S 
ATOM     77  O   UNL A   1      40.737  19.162  25.829  1.00  0.00    -0.237 OA
ATOM     78  O   UNL A   1      43.034  18.516  25.175  1.00  0.00    -0.237 OA
ATOM     79  O   UNL A   1      42.342  18.382  27.536  1.00  0.00    -0.744 OA
ENDBRANCH  75  76
ENDBRANCH  43  68
BRANCH  55  80
ATOM     80  C   UNL A   1      49.627  26.615  26.403  1.00  0.00     0.058 A 
ATOM     81  C   UNL A   1      50.202  26.699  25.126  1.00  0.00     0.135 A 
ATOM     82  C   UNL A   1      50.405  26.075  27.441  1.00  0.00     0.135 A 
ATOM     83  F   UNL A   1      49.501  27.208  24.100  1.00  0.00    -0.206 F 
ATOM     84  C   UNL A   1      51.483  26.220  24.876  1.00  0.00     0.059 A 
ATOM     85  C   UNL A   1      51.700  25.624  27.222  1.00  0.00     0.059 A 
ATOM     86  F   UNL A   1      49.908  25.990  28.686  1.00  0.00    -0.206 F 
ATOM     87  C   UNL A   1      52.223  25.681  25.931  1.00  0.00     0.060 A 
BRANCH  87  88
ATOM     88  S   UNL A   1      53.883  25.062  25.594  1.00  0.00     0.124 S 
ATOM     89  O   UNL A   1      53.641  23.629  25.469  1.00  0.00    -0.237 OA
ATOM     90  O   UNL A   1      54.232  25.758  24.359  1.00  0.00    -0.237 OA
ATOM     91  O   UNL A   1      54.644  25.471  26.772  1.00  0.00    -0.744 OA
ENDBRANCH  87  88
ENDBRANCH  55  80
ENDBRANCH  29  30
ENDBRANCH  21  24
ENDBRANCH  19  20
ENDBRANCH  18  19
ENDBRANCH   1  18
TORSDOF 19
ENDMDL
MODEL 2
REMARK VINA RESULT:     -10.0      5.899      8.810
REMARK SMILES CCN(CC)C(=O)[C@H](C)SCC(=O)NCCCCNC(=O)c1ccc(-c2c3nc(c(-c4c(F)cc(S(=O)(=O)[O-])cc4F)c4ccc([nH]4)c(-c4c(F)cc(S(=O)(=O)[O-])cc4F)c4nc(c(-c5c(F)cc(S(=O)(=O)[O-])cc5F)c5ccc2[nH]5)C=C4)C=C3)cc1
REMARK SMILES IDX 16 1 15 2 14 3 12 4 13 5 11 7 10 8 8 9 9 10 6 11 3 12 7 13
REMARK SMILES IDX 2 14 1 15 4 16 5 17 17 18 18 19 19 20 20 21 21 23 22 24
REMARK SMILES IDX 23 25 87 26 24 27 86 28 25 29 26 30 27 31 80 32 28 33 85 34
REMARK SMILES IDX 79 35 81 36 29 37 84 38 78 39 77 40 30 42 64 43 43 44 63 45
REMARK SMILES IDX 44 46 47 47 62 48 82 49 45 50 46 51 61 53 83 54 48 55 31 56
REMARK SMILES IDX 32 57 41 58 33 59 34 60 40 61 42 62 35 63 36 64 37 65 38 66
REMARK SMILES IDX 39 67 65 68 66 69 75 70 67 71 68 72 74 73 76 74 69 75 70 76
REMARK SMILES IDX 71 77 72 78 73 79 49 80 50 81 59 82 51 83 52 84 58 85 60 86
REMARK SMILES IDX 53 87 54 88 55 89 56 90 57 91
REMARK H PARENT 14 6 19 22 81 41 47 52
REMARK Flexibility Score: inf
ROOT
ATOM      1  C   UNL A   1      33.137  28.937  23.973  1.00  0.00     0.023 C 
ENDROOT
BRANCH   1   2
ATOM      2  C   UNL A   1      32.286  28.356  22.841  1.00  0.00     0.116 C 
BRANCH   2   3
ATOM      3  N   UNL A   1      32.984  27.387  22.016  1.00  0.00    -0.355 N 
ATOM      4  C   UNL A   1      32.752  26.069  21.763  1.00  0.00     0.230 C 
ATOM      5  O   UNL A   1      33.341  25.584  20.792  1.00  0.00    -0.274 OA
ATOM      6  H   UNL A   1      33.773  27.751  21.553  1.00  0.00     0.163 HD
BRANCH   4   7
ATOM      7  C   UNL A   1      31.763  25.238  22.541  1.00  0.00     0.170 C 
BRANCH   7   8
ATOM      8  S   UNL A   1      32.244  24.563  24.159  1.00  0.00    -0.139 SA
BRANCH   8   9
ATOM      9  C   UNL A   1      33.066  22.923  23.923  1.00  0.00     0.133 C 
ATOM     10  C   UNL A   1      32.413  22.149  22.777  1.00  0.00     0.030 C 
BRANCH   9  11
ATOM     11  C   UNL A   1      34.582  22.929  23.798  1.00  0.00     0.235 C 
ATOM     12  N   UNL A   1      35.375  22.428  24.833  1.00  0.00    -0.342 N 
ATOM     13  O   UNL A   1      35.095  23.344  22.751  1.00  0.00    -0.274 OA
BRANCH  12  14
ATOM     14  C   UNL A   1      36.824  22.614  24.654  1.00  0.00     0.116 C 
ATOM     15  C   UNL A   1      37.410  23.668  25.582  1.00  0.00     0.027 C 
ENDBRANCH  12  14
BRANCH  12  16
ATOM     16  C   UNL A   1      34.987  21.418  25.834  1.00  0.00     0.116 C 
ATOM     17  C   UNL A   1      34.231  21.847  27.080  1.00  0.00     0.027 C 
ENDBRANCH  12  16
ENDBRANCH   9  11
ENDBRANCH   8   9
ENDBRANCH   7   8
ENDBRANCH   4   7
ENDBRANCH   2   3
ENDBRANCH   1   2
BRANCH   1  18
ATOM     18  C   UNL A   1      34.012  27.954  24.743  1.00  0.00     0.023 C 
BRANCH  18  19
ATOM     19  C   UNL A   1      34.225  28.334  26.191  1.00  0.00     0.116 C 
BRANCH  19  20
ATOM     20  N   UNL A   1      33.817  29.705  26.466  1.00  0.00    -0.352 N 
ATOM     21  C   UNL A   1      34.357  30.612  27.347  1.00  0.00     0.251 C 
ATOM     22  H   UNL A   1      33.045  30.028  25.947  1.00  0.00     0.163 HD
ATOM     23  O   UNL A   1      33.781  31.667  27.565  1.00  0.00    -0.269 OA
BRANCH  21  24
ATOM     24  C   UNL A   1      35.619  30.281  28.044  1.00  0.00     0.039 A 
ATOM     25  C   UNL A   1      35.562  29.657  29.291  1.00  0.00     0.014 A 
ATOM     26  C   UNL A   1      36.854  30.567  27.456  1.00  0.00     0.014 A 
ATOM     27  C   UNL A   1      36.748  29.290  29.928  1.00  0.00     0.010 A 
ATOM     28  C   UNL A   1      38.020  30.081  28.024  1.00  0.00     0.010 A 
ATOM     29  C   UNL A   1      37.983  29.479  29.286  1.00  0.00    -0.014 A 
BRANCH  29  30
ATOM     30  C   UNL A   1      39.258  29.123  29.951  1.00  0.00     0.031 A 
ATOM     31  C   UNL A   1      39.677  29.869  31.192  1.00  0.00     0.074 A 
ATOM     32  C   UNL A   1      40.045  28.170  29.415  1.00  0.00     0.049 A 
ATOM     33  N   UNL A   1      40.765  29.738  31.906  1.00  0.00    -0.248 NA
ATOM     34  C   UNL A   1      38.777  30.932  31.674  1.00  0.00     0.031 C 
ATOM     35  C   UNL A   1      39.770  27.441  28.175  1.00  0.00     0.029 A 
ATOM     36  N   UNL A   1      41.239  27.651  29.844  1.00  0.00    -0.354 N 
ATOM     37  C   UNL A   1      40.686  30.712  32.896  1.00  0.00     0.074 A 
ATOM     38  C   UNL A   1      39.486  31.475  32.650  1.00  0.00     0.031 C 
ATOM     39  C   UNL A   1      40.745  26.543  27.965  1.00  0.00     0.029 A 
ATOM     40  C   UNL A   1      41.731  26.655  29.033  1.00  0.00     0.049 A 
ATOM     41  H   UNL A   1      41.700  27.960  30.657  1.00  0.00     0.167 HD
ATOM     42  C   UNL A   1      41.521  30.926  33.938  1.00  0.00     0.037 A 
ATOM     43  C   UNL A   1      42.852  25.919  29.145  1.00  0.00     0.037 A 
ATOM     44  C   UNL A   1      42.684  30.121  34.195  1.00  0.00     0.049 A 
ATOM     45  C   UNL A   1      43.739  26.142  30.341  1.00  0.00     0.074 A 
ATOM     46  C   UNL A   1      43.563  30.194  35.260  1.00  0.00     0.029 A 
ATOM     47  N   UNL A   1      43.126  29.091  33.378  1.00  0.00    -0.354 N 
ATOM     48  N   UNL A   1      43.608  27.017  31.312  1.00  0.00    -0.248 NA
ATOM     49  C   UNL A   1      44.912  25.271  30.468  1.00  0.00     0.031 C 
ATOM     50  C   UNL A   1      44.566  29.240  35.060  1.00  0.00     0.029 A 
ATOM     51  C   UNL A   1      44.276  28.532  33.904  1.00  0.00     0.049 A 
ATOM     52  H   UNL A   1      42.687  28.802  32.545  1.00  0.00     0.167 HD
ATOM     53  C   UNL A   1      44.667  26.779  32.182  1.00  0.00     0.074 A 
ATOM     54  C   UNL A   1      45.415  25.667  31.629  1.00  0.00     0.031 C 
ATOM     55  C   UNL A   1      44.994  27.419  33.334  1.00  0.00     0.037 A 
BRANCH  42  56
ATOM     56  C   UNL A   1      41.201  32.057  34.878  1.00  0.00     0.058 A 
ATOM     57  C   UNL A   1      41.755  33.338  34.716  1.00  0.00     0.135 A 
ATOM     58  C   UNL A   1      40.293  31.869  35.932  1.00  0.00     0.135 A 
ATOM     59  F   UNL A   1      42.646  33.571  33.740  1.00  0.00    -0.206 F 
ATOM     60  C   UNL A   1      41.441  34.383  35.579  1.00  0.00     0.059 A 
ATOM     61  C   UNL A   1      39.938  32.909  36.788  1.00  0.00     0.059 A 
ATOM     62  F   UNL A   1      39.738  30.664  36.140  1.00  0.00    -0.206 F 
ATOM     63  C   UNL A   1      40.525  34.160  36.608  1.00  0.00     0.060 A 
BRANCH  63  64
ATOM     64  S   UNL A   1      40.103  35.536  37.697  1.00  0.00     0.124 S 
ATOM     65  O   UNL A   1      41.280  35.599  38.558  1.00  0.00    -0.237 OA
ATOM     66  O   UNL A   1      39.947  36.641  36.756  1.00  0.00    -0.237 OA
ATOM     67  O   UNL A   1      38.874  35.091  38.348  1.00  0.00    -0.744 OA
ENDBRANCH  63  64
ENDBRANCH  42  56
BRANCH  43  68
ATOM     68  C   UNL A   1      43.178  24.889  28.122  1.00  0.00     0.058 A 
ATOM     69  C   UNL A   1      42.885  23.533  28.334  1.00  0.00     0.135 A 
ATOM     70  C   UNL A   1      43.782  25.240  26.905  1.00  0.00     0.135 A 
ATOM     71  F   UNL A   1      42.303  23.144  29.479  1.00  0.00    -0.206 F 
ATOM     72  C   UNL A   1      43.205  22.559  27.392  1.00  0.00     0.059 A 
ATOM     73  C   UNL A   1      44.086  24.290  25.935  1.00  0.00     0.059 A 
ATOM     74  F   UNL A   1      44.063  26.526  26.640  1.00  0.00    -0.206 F 
ATOM     75  C   UNL A   1      43.806  22.949  26.194  1.00  0.00     0.060 A 
BRANCH  75  76
ATOM     76  S   UNL A   1      44.191  21.682  24.966  1.00  0.00     0.124 S 
ATOM     77  O   UNL A   1      43.097  20.739  25.165  1.00  0.00    -0.237 OA
ATOM     78  O   UNL A   1      44.160  22.443  23.721  1.00  0.00    -0.237 OA
ATOM     79  O   UNL A   1      45.512  21.212  25.372  1.00  0.00    -0.744 OA
ENDBRANCH  75  76
ENDBRANCH  43  68
BRANCH  55  80
ATOM     80  C   UNL A   1      46.184  26.898  34.091  1.00  0.00     0.058 A 
ATOM     81  C   UNL A   1      47.477  27.397  33.874  1.00  0.00     0.135 A 
ATOM     82  C   UNL A   1      46.016  25.905  35.070  1.00  0.00     0.135 A 
ATOM     83  F   UNL A   1      47.691  28.347  32.950  1.00  0.00    -0.206 F 
ATOM     84  C   UNL A   1      48.572  26.895  34.570  1.00  0.00     0.059 A 
ATOM     85  C   UNL A   1      47.090  25.415  35.803  1.00  0.00     0.059 A 
ATOM     86  F   UNL A   1      44.795  25.408  35.329  1.00  0.00    -0.206 F 
ATOM     87  C   UNL A   1      48.368  25.901  35.530  1.00  0.00     0.060 A 
BRANCH  87  88
ATOM     88  S   UNL A   1      49.795  25.258  36.425  1.00  0.00     0.124 S 
ATOM     89  O   UNL A   1      50.310  26.467  37.060  1.00  0.00    -0.237 OA
ATOM     90  O   UNL A   1      49.187  24.280  37.321  1.00  0.00    -0.237 OA
ATOM     91  O   UNL A   1      50.634  24.696  35.370  1.00  0.00    -0.744 OA
ENDBRANCH  87  88
ENDBRANCH  55  80
ENDBRANCH  29  30
ENDBRANCH  21  24
ENDBRANCH  19  20
ENDBRANCH  18  19
ENDBRANCH   1  18
TORSDOF 19
ENDMDL
MODEL 3
REMARK VINA RESULT:     -10.0      4.907      7.297
REMARK SMILES CCN(CC)C(=O)[C@H](C)SCC(=O)NCCCCNC(=O)c1ccc(-c2c3nc(c(-c4c(F)cc(S(=O)(=O)[O-])cc4F)c4ccc([nH]4)c(-c4c(F)cc(S(=O)(=O)[O-])cc4F)c4nc(c(-c5c(F)cc(S(=O)(=O)[O-])cc5F)c5ccc2[nH]5)C=C4)C=C3)cc1
REMARK SMILES IDX 16 1 15 2 14 3 12 4 13 5 11 7 10 8 8 9 9 10 6 11 3 12 7 13
REMARK SMILES IDX 2 14 1 15 4 16 5 17 17 18 18 19 19 20 20 21 21 23 22 24
REMARK SMILES IDX 23 25 87 26 24 27 86 28 25 29 26 30 27 31 80 32 28 33 85 34
REMARK SMILES IDX 79 35 81 36 29 37 84 38 78 39 77 40 30 42 64 43 43 44 63 45
REMARK SMILES IDX 44 46 47 47 62 48 82 49 45 50 46 51 61 53 83 54 48 55 31 56
REMARK SMILES IDX 32 57 41 58 33 59 34 60 40 61 42 62 35 63 36 64 37 65 38 66
REMARK SMILES IDX 39 67 65 68 66 69 75 70 67 71 68 72 74 73 76 74 69 75 70 76
REMARK SMILES IDX 71 77 72 78 73 79 49 80 50 81 59 82 51 83 52 84 58 85 60 86
REMARK SMILES IDX 53 87 54 88 55 89 56 90 57 91
REMARK H PARENT 14 6 19 22 81 41 47 52
REMARK Flexibility Score: inf
ROOT
ATOM      1  C   UNL A   1      33.731  28.473  24.370  1.00  0.00     0.023 C 
ENDROOT
BRANCH   1   2
ATOM      2  C   UNL A   1      32.802  28.346  23.159  1.00  0.00     0.116 C 
BRANCH   2   3
ATOM      3  N   UNL A   1      33.270  27.413  22.152  1.00  0.00    -0.355 N 
ATOM      4  C   UNL A   1      33.280  26.052  22.103  1.00  0.00     0.230 C 
ATOM      5  O   UNL A   1      33.470  25.542  20.995  1.00  0.00    -0.274 OA
ATOM      6  H   UNL A   1      33.652  27.845  21.353  1.00  0.00     0.163 HD
BRANCH   4   7
ATOM      7  C   UNL A   1      32.981  25.179  23.297  1.00  0.00     0.170 C 
BRANCH   7   8
ATOM      8  S   UNL A   1      34.357  24.534  24.294  1.00  0.00    -0.139 SA
BRANCH   8   9
ATOM      9  C   UNL A   1      34.914  22.911  23.602  1.00  0.00     0.133 C 
ATOM     10  C   UNL A   1      36.384  22.975  23.186  1.00  0.00     0.030 C 
BRANCH   9  11
ATOM     11  C   UNL A   1      34.625  21.675  24.439  1.00  0.00     0.235 C 
ATOM     12  N   UNL A   1      33.306  21.296  24.703  1.00  0.00    -0.342 N 
ATOM     13  O   UNL A   1      35.573  20.991  24.844  1.00  0.00    -0.274 OA
BRANCH  12  14
ATOM     14  C   UNL A   1      33.156  20.167  25.635  1.00  0.00     0.116 C 
ATOM     15  C   UNL A   1      32.824  18.857  24.938  1.00  0.00     0.027 C 
ENDBRANCH  12  14
BRANCH  12  16
ATOM     16  C   UNL A   1      32.118  21.601  23.884  1.00  0.00     0.116 C 
ATOM     17  C   UNL A   1      32.124  21.273  22.401  1.00  0.00     0.027 C 
ENDBRANCH  12  16
ENDBRANCH   9  11
ENDBRANCH   8   9
ENDBRANCH   7   8
ENDBRANCH   4   7
ENDBRANCH   2   3
ENDBRANCH   1   2
BRANCH   1  18
ATOM     18  C   UNL A   1      33.285  27.772  25.649  1.00  0.00     0.023 C 
BRANCH  18  19
ATOM     19  C   UNL A   1      34.076  28.176  26.872  1.00  0.00     0.116 C 
BRANCH  19  20
ATOM     20  N   UNL A   1      33.747  29.521  27.321  1.00  0.00    -0.352 N 
ATOM     21  C   UNL A   1      34.514  30.411  28.036  1.00  0.00     0.251 C 
ATOM     22  H   UNL A   1      32.847  29.841  27.077  1.00  0.00     0.163 HD
ATOM     23  O   UNL A   1      34.013  31.438  28.468  1.00  0.00    -0.269 OA
BRANCH  21  24
ATOM     24  C   UNL A   1      35.934  30.093  28.301  1.00  0.00     0.039 A 
ATOM     25  C   UNL A   1      36.299  29.607  29.557  1.00  0.00     0.014 A 
ATOM     26  C   UNL A   1      36.898  30.255  27.302  1.00  0.00     0.014 A 
ATOM     27  C   UNL A   1      37.626  29.250  29.795  1.00  0.00     0.010 A 
ATOM     28  C   UNL A   1      38.182  29.774  27.496  1.00  0.00     0.010 A 
ATOM     29  C   UNL A   1      38.572  29.310  28.757  1.00  0.00    -0.014 A 
BRANCH  29  30
ATOM     30  C   UNL A   1      39.993  28.964  28.989  1.00  0.00     0.031 A 
ATOM     31  C   UNL A   1      40.919  29.999  29.574  1.00  0.00     0.074 A 
ATOM     32  C   UNL A   1      40.447  27.746  28.636  1.00  0.00     0.049 A 
ATOM     33  N   UNL A   1      42.199  29.914  29.825  1.00  0.00    -0.248 NA
ATOM     34  C   UNL A   1      40.343  31.321  29.878  1.00  0.00     0.031 C 
ATOM     35  C   UNL A   1      39.652  26.697  27.993  1.00  0.00     0.029 A 
ATOM     36  N   UNL A   1      41.690  27.183  28.767  1.00  0.00    -0.354 N 
ATOM     37  C   UNL A   1      42.577  31.169  30.289  1.00  0.00     0.074 A 
ATOM     38  C   UNL A   1      41.415  32.020  30.216  1.00  0.00     0.031 C 
ATOM     39  C   UNL A   1      40.415  25.606  27.822  1.00  0.00     0.029 A 
ATOM     40  C   UNL A   1      41.760  25.888  28.309  1.00  0.00     0.049 A 
ATOM     41  H   UNL A   1      42.459  27.660  29.154  1.00  0.00     0.167 HD
ATOM     42  C   UNL A   1      43.779  31.564  30.769  1.00  0.00     0.037 A 
ATOM     43  C   UNL A   1      42.798  25.030  28.289  1.00  0.00     0.037 A 
ATOM     44  C   UNL A   1      44.911  30.686  30.883  1.00  0.00     0.049 A 
ATOM     45  C   UNL A   1      44.110  25.478  28.875  1.00  0.00     0.074 A 
ATOM     46  C   UNL A   1      46.156  30.952  31.423  1.00  0.00     0.029 A 
ATOM     47  N   UNL A   1      44.932  29.367  30.452  1.00  0.00    -0.354 N 
ATOM     48  N   UNL A   1      44.430  26.646  29.383  1.00  0.00    -0.248 NA
ATOM     49  C   UNL A   1      45.195  24.491  28.903  1.00  0.00     0.031 C 
ATOM     50  C   UNL A   1      46.946  29.808  31.272  1.00  0.00     0.029 A 
ATOM     51  C   UNL A   1      46.174  28.811  30.697  1.00  0.00     0.049 A 
ATOM     52  H   UNL A   1      44.175  28.898  30.033  1.00  0.00     0.167 HD
ATOM     53  C   UNL A   1      45.745  26.523  29.819  1.00  0.00     0.074 A 
ATOM     54  C   UNL A   1      46.150  25.162  29.531  1.00  0.00     0.031 C 
ATOM     55  C   UNL A   1      46.546  27.449  30.405  1.00  0.00     0.037 A 
BRANCH  42  56
ATOM     56  C   UNL A   1      43.923  32.994  31.217  1.00  0.00     0.058 A 
ATOM     57  C   UNL A   1      44.315  34.014  30.334  1.00  0.00     0.135 A 
ATOM     58  C   UNL A   1      43.624  33.357  32.540  1.00  0.00     0.135 A 
ATOM     59  F   UNL A   1      44.635  33.723  29.063  1.00  0.00    -0.206 F 
ATOM     60  C   UNL A   1      44.429  35.336  30.752  1.00  0.00     0.059 A 
ATOM     61  C   UNL A   1      43.700  34.679  32.972  1.00  0.00     0.059 A 
ATOM     62  F   UNL A   1      43.253  32.424  33.430  1.00  0.00    -0.206 F 
ATOM     63  C   UNL A   1      44.113  35.660  32.072  1.00  0.00     0.060 A 
BRANCH  63  64
ATOM     64  S   UNL A   1      44.234  37.385  32.587  1.00  0.00     0.124 S 
ATOM     65  O   UNL A   1      44.036  38.083  31.320  1.00  0.00    -0.237 OA
ATOM     66  O   UNL A   1      43.143  37.500  33.550  1.00  0.00    -0.237 OA
ATOM     67  O   UNL A   1      45.578  37.479  33.150  1.00  0.00    -0.744 OA
ENDBRANCH  63  64
ENDBRANCH  42  56
BRANCH  43  68
ATOM     68  C   UNL A   1      42.627  23.662  27.728  1.00  0.00     0.058 A 
ATOM     69  C   UNL A   1      42.672  23.430  26.345  1.00  0.00     0.135 A 
ATOM     70  C   UNL A   1      42.424  22.554  28.566  1.00  0.00     0.135 A 
ATOM     71  F   UNL A   1      42.867  24.454  25.499  1.00  0.00    -0.206 F 
ATOM     72  C   UNL A   1      42.492  22.158  25.810  1.00  0.00     0.059 A 
ATOM     73  C   UNL A   1      42.271  21.268  28.058  1.00  0.00     0.059 A 
ATOM     74  F   UNL A   1      42.397  22.715  29.899  1.00  0.00    -0.206 F 
ATOM     75  C   UNL A   1      42.292  21.082  26.677  1.00  0.00     0.060 A 
BRANCH  75  76
ATOM     76  S   UNL A   1      42.090  19.431  25.975  1.00  0.00     0.124 S 
ATOM     77  O   UNL A   1      42.610  18.590  27.048  1.00  0.00    -0.237 OA
ATOM     78  O   UNL A   1      40.649  19.366  25.753  1.00  0.00    -0.237 OA
ATOM     79  O   UNL A   1      42.901  19.481  24.763  1.00  0.00    -0.744 OA
ENDBRANCH  75  76
ENDBRANCH  43  68
BRANCH  55  80
ATOM     80  C   UNL A   1      47.922  27.002  30.813  1.00  0.00     0.058 A 
ATOM     81  C   UNL A   1      49.017  27.082  29.940  1.00  0.00     0.135 A 
ATOM     82  C   UNL A   1      48.148  26.514  32.111  1.00  0.00     0.135 A 
ATOM     83  F   UNL A   1      48.854  27.541  28.689  1.00  0.00    -0.206 F 
ATOM     84  C   UNL A   1      50.282  26.649  30.324  1.00  0.00     0.059 A 
ATOM     85  C   UNL A   1      49.411  26.110  32.527  1.00  0.00     0.059 A 
ATOM     86  F   UNL A   1      47.137  26.435  32.991  1.00  0.00    -0.206 F 
ATOM     87  C   UNL A   1      50.467  26.162  31.620  1.00  0.00     0.060 A 
BRANCH  87  88
ATOM     88  S   UNL A   1      52.112  25.603  32.106  1.00  0.00     0.124 S 
ATOM     89  O   UNL A   1      52.923  26.079  30.990  1.00  0.00    -0.237 OA
ATOM     90  O   UNL A   1      52.313  26.293  33.376  1.00  0.00    -0.237 OA
ATOM     91  O   UNL A   1      51.964  24.154  32.204  1.00  0.00    -0.744 OA
ENDBRANCH  87  88
ENDBRANCH  55  80
ENDBRANCH  29  30
ENDBRANCH  21  24
ENDBRANCH  19  20
ENDBRANCH  18  19
ENDBRANCH   1  18
TORSDOF 19
ENDMDL
