MODEL 1
REMARK VINA RESULT:     -12.1      0.000      0.000
REMARK SMILES O=C(NCCCCNC(=O)c1ccc(-c2c3nc(c(-c4c(F)cc(S(=O)(=O)[O-])cc4F)c4ccc([nH]4)c(-c4c(F)cc(S(=O)(=O)[O-])cc4F)c4nc(c(-c5c(F)cc(S(=O)(=O)[O-])cc5F)c5ccc2[nH]5)C=C4)C=C3)cc1)c1ccc(Cn2cc(Cl)c(=O)[nH]c2=O)cc1
REMARK SMILES IDX 6 1 5 2 4 3 3 4 1 5 2 6 77 8 78 9 92 10 79 11 91 12 80 13
REMARK SMILES IDX 81 14 82 15 83 16 89 17 84 18 88 19 90 20 85 21 86 22 87 24
REMARK SMILES IDX 7 25 8 26 9 27 10 29 11 30 12 31 76 32 13 33 75 34 14 35
REMARK SMILES IDX 15 36 16 37 69 38 17 39 74 40 68 41 70 42 18 43 73 44 67 45
REMARK SMILES IDX 66 46 19 48 53 49 32 50 52 51 33 52 36 53 51 54 71 55 34 56
REMARK SMILES IDX 35 57 50 59 72 60 37 61 20 62 21 63 30 64 22 65 23 66 29 67
REMARK SMILES IDX 31 68 24 69 25 70 26 71 27 72 28 73 54 74 55 75 64 76 56 77
REMARK SMILES IDX 57 78 63 79 65 80 58 81 59 82 60 83 61 84 62 85 38 86 39 87
REMARK SMILES IDX 48 88 40 89 41 90 47 91 49 92 42 93 43 94 44 95 45 96 46 97
REMARK H PARENT 3 7 88 23 8 28 70 47 36 58
REMARK Flexibility Score: inf
ROOT
ATOM      1  C   UNL A   1      32.123  27.689  26.903  1.00  0.00     0.023 C 
ENDROOT
BRANCH   1   2
ATOM      2  C   UNL A   1      31.395  28.030  25.602  1.00  0.00     0.023 C 
BRANCH   2   3
ATOM      3  C   UNL A   1      31.378  26.918  24.556  1.00  0.00     0.116 C 
BRANCH   3   4
ATOM      4  N   UNL A   1      32.173  27.246  23.381  1.00  0.00    -0.352 N 
ATOM      5  O   UNL A   1      33.951  27.097  21.981  1.00  0.00    -0.269 OA
ATOM      6  C   UNL A   1      33.314  26.635  22.921  1.00  0.00     0.251 C 
ATOM      7  H   UNL A   1      31.850  28.007  22.847  1.00  0.00     0.163 HD
BRANCH   6   8
ATOM      8  C   UNL A   1      33.778  25.405  23.586  1.00  0.00     0.039 A 
ATOM      9  C   UNL A   1      34.377  25.477  24.845  1.00  0.00     0.014 A 
ATOM     10  C   UNL A   1      33.642  24.182  22.928  1.00  0.00     0.014 A 
ATOM     11  C   UNL A   1      34.912  24.325  25.417  1.00  0.00     0.006 A 
ATOM     12  C   UNL A   1      34.193  23.031  23.497  1.00  0.00     0.006 A 
ATOM     13  C   UNL A   1      34.854  23.098  24.735  1.00  0.00    -0.028 A 
BRANCH  13  14
ATOM     14  C   UNL A   1      35.542  21.875  25.303  1.00  0.00     0.162 C 
BRANCH  14  15
ATOM     15  N   UNL A   1      34.642  20.718  25.409  1.00  0.00    -0.295 N 
ATOM     16  C   UNL A   1      34.754  19.677  24.500  1.00  0.00     0.117 A 
ATOM     17  C   UNL A   1      33.697  20.691  26.428  1.00  0.00     0.328 A 
ATOM     18  C   UNL A   1      33.969  18.598  24.539  1.00  0.00     0.122 A 
ATOM     19  N   UNL A   1      32.901  19.572  26.465  1.00  0.00    -0.273 N 
ATOM     20  O   UNL A   1      33.556  21.574  27.268  1.00  0.00    -0.248 OA
ATOM     21  Cl  UNL A   1      34.113  17.324  23.399  1.00  0.00    -0.077 Cl
ATOM     22  C   UNL A   1      32.953  18.502  25.613  1.00  0.00     0.272 A 
ATOM     23  H   UNL A   1      32.223  19.537  27.178  1.00  0.00     0.175 HD
ATOM     24  O   UNL A   1      32.212  17.534  25.754  1.00  0.00    -0.268 OA
ENDBRANCH  14  15
ENDBRANCH  13  14
ENDBRANCH   6   8
ENDBRANCH   3   4
ENDBRANCH   2   3
ENDBRANCH   1   2
BRANCH   1  25
ATOM     25  C   UNL A   1      33.482  28.355  27.093  1.00  0.00     0.116 C 
BRANCH  25  26
ATOM     26  N   UNL A   1      33.388  29.757  27.471  1.00  0.00    -0.352 N 
ATOM     27  C   UNL A   1      34.329  30.563  28.066  1.00  0.00     0.251 C 
ATOM     28  H   UNL A   1      32.526  30.190  27.273  1.00  0.00     0.163 HD
ATOM     29  O   UNL A   1      34.023  31.700  28.416  1.00  0.00    -0.269 OA
BRANCH  27  30
ATOM     30  C   UNL A   1      35.696  30.052  28.315  1.00  0.00     0.039 A 
ATOM     31  C   UNL A   1      36.627  30.079  27.272  1.00  0.00     0.014 A 
ATOM     32  C   UNL A   1      36.064  29.562  29.571  1.00  0.00     0.014 A 
ATOM     33  C   UNL A   1      37.948  29.686  27.510  1.00  0.00     0.010 A 
ATOM     34  C   UNL A   1      37.395  29.237  29.823  1.00  0.00     0.010 A 
ATOM     35  C   UNL A   1      38.352  29.299  28.798  1.00  0.00    -0.014 A 
BRANCH  35  36
ATOM     36  C   UNL A   1      39.768  28.965  29.099  1.00  0.00     0.031 A 
ATOM     37  C   UNL A   1      40.679  30.004  29.695  1.00  0.00     0.074 A 
ATOM     38  C   UNL A   1      40.256  27.752  28.767  1.00  0.00     0.049 A 
ATOM     39  N   UNL A   1      41.964  29.939  29.932  1.00  0.00    -0.248 NA
ATOM     40  C   UNL A   1      40.069  31.298  30.041  1.00  0.00     0.031 C 
ATOM     41  C   UNL A   1      39.487  26.673  28.141  1.00  0.00     0.029 A 
ATOM     42  N   UNL A   1      41.518  27.229  28.892  1.00  0.00    -0.354 N 
ATOM     43  C   UNL A   1      42.321  31.184  30.436  1.00  0.00     0.074 A 
ATOM     44  C   UNL A   1      41.125  32.001  30.427  1.00  0.00     0.031 C 
ATOM     45  C   UNL A   1      40.291  25.613  27.952  1.00  0.00     0.029 A 
ATOM     46  C   UNL A   1      41.637  25.947  28.407  1.00  0.00     0.049 A 
ATOM     47  H   UNL A   1      42.269  27.724  29.292  1.00  0.00     0.167 HD
ATOM     48  C   UNL A   1      43.528  31.603  30.884  1.00  0.00     0.037 A 
ATOM     49  C   UNL A   1      42.710  25.135  28.328  1.00  0.00     0.037 A 
ATOM     50  C   UNL A   1      44.707  30.778  30.922  1.00  0.00     0.049 A 
ATOM     51  C   UNL A   1      44.038  25.618  28.846  1.00  0.00     0.074 A 
ATOM     52  C   UNL A   1      45.962  31.094  31.412  1.00  0.00     0.029 A 
ATOM     53  N   UNL A   1      44.776  29.473  30.456  1.00  0.00    -0.354 N 
ATOM     54  N   UNL A   1      44.344  26.782  29.369  1.00  0.00    -0.248 NA
ATOM     55  C   UNL A   1      45.165  24.679  28.768  1.00  0.00     0.031 C 
ATOM     56  C   UNL A   1      46.800  29.991  31.212  1.00  0.00     0.029 A 
ATOM     57  C   UNL A   1      46.056  28.974  30.636  1.00  0.00     0.049 A 
ATOM     58  H   UNL A   1      44.026  28.976  30.057  1.00  0.00     0.167 HD
ATOM     59  C   UNL A   1      45.690  26.704  29.708  1.00  0.00     0.074 A 
ATOM     60  C   UNL A   1      46.138  25.377  29.338  1.00  0.00     0.031 C 
ATOM     61  C   UNL A   1      46.483  27.646  30.276  1.00  0.00     0.037 A 
BRANCH  48  62
ATOM     62  C   UNL A   1      43.633  33.020  31.376  1.00  0.00     0.058 A 
ATOM     63  C   UNL A   1      43.426  33.346  32.727  1.00  0.00     0.135 A 
ATOM     64  C   UNL A   1      43.976  34.060  30.497  1.00  0.00     0.135 A 
ATOM     65  F   UNL A   1      43.082  32.393  33.607  1.00  0.00    -0.206 F 
ATOM     66  C   UNL A   1      43.523  34.656  33.181  1.00  0.00     0.059 A 
ATOM     67  C   UNL A   1      44.103  35.375  30.935  1.00  0.00     0.059 A 
ATOM     68  F   UNL A   1      44.184  33.804  29.196  1.00  0.00    -0.206 F 
ATOM     69  C   UNL A   1      43.860  35.665  32.277  1.00  0.00     0.060 A 
BRANCH  69  70
ATOM     70  S   UNL A   1      43.982  37.362  32.882  1.00  0.00     0.124 S 
ATOM     71  O   UNL A   1      45.303  37.353  33.503  1.00  0.00    -0.237 OA
ATOM     72  O   UNL A   1      43.865  38.142  31.653  1.00  0.00    -0.237 OA
ATOM     73  O   UNL A   1      42.856  37.476  33.803  1.00  0.00    -0.744 OA
ENDBRANCH  69  70
ENDBRANCH  48  62
BRANCH  49  74
ATOM     74  C   UNL A   1      42.568  23.770  27.756  1.00  0.00     0.058 A 
ATOM     75  C   UNL A   1      42.454  22.650  28.591  1.00  0.00     0.135 A 
ATOM     76  C   UNL A   1      42.535  23.560  26.370  1.00  0.00     0.135 A 
ATOM     77  F   UNL A   1      42.486  22.801  29.924  1.00  0.00    -0.206 F 
ATOM     78  C   UNL A   1      42.327  21.365  28.074  1.00  0.00     0.059 A 
ATOM     79  C   UNL A   1      42.387  22.286  25.828  1.00  0.00     0.059 A 
ATOM     80  F   UNL A   1      42.625  24.601  25.528  1.00  0.00    -0.206 F 
ATOM     81  C   UNL A   1      42.294  21.193  26.689  1.00  0.00     0.060 A 
BRANCH  81  82
ATOM     82  S   UNL A   1      42.082  19.527  26.027  1.00  0.00     0.124 S 
ATOM     83  O   UNL A   1      40.644  19.489  25.783  1.00  0.00    -0.237 OA
ATOM     84  O   UNL A   1      42.930  19.557  24.840  1.00  0.00    -0.237 OA
ATOM     85  O   UNL A   1      42.563  18.673  27.108  1.00  0.00    -0.744 OA
ENDBRANCH  81  82
ENDBRANCH  49  74
BRANCH  61  86
ATOM     86  C   UNL A   1      47.906  27.266  30.572  1.00  0.00     0.058 A 
ATOM     87  C   UNL A   1      48.270  26.647  31.777  1.00  0.00     0.135 A 
ATOM     88  C   UNL A   1      48.909  27.472  29.609  1.00  0.00     0.135 A 
ATOM     89  F   UNL A   1      47.350  26.434  32.731  1.00  0.00    -0.206 F 
ATOM     90  C   UNL A   1      49.582  26.261  32.027  1.00  0.00     0.059 A 
ATOM     91  C   UNL A   1      50.223  27.073  29.829  1.00  0.00     0.059 A 
ATOM     92  F   UNL A   1      48.611  28.052  28.436  1.00  0.00    -0.206 F 
ATOM     93  C   UNL A   1      50.553  26.477  31.045  1.00  0.00     0.060 A 
BRANCH  93  94
ATOM     94  S   UNL A   1      52.245  25.935  31.363  1.00  0.00     0.124 S 
ATOM     95  O   UNL A   1      52.837  26.021  30.033  1.00  0.00    -0.237 OA
ATOM     96  O   UNL A   1      52.715  26.922  32.330  1.00  0.00    -0.237 OA
ATOM     97  O   UNL A   1      52.075  24.584  31.889  1.00  0.00    -0.744 OA
ENDBRANCH  93  94
ENDBRANCH  61  86
ENDBRANCH  35  36
ENDBRANCH  27  30
ENDBRANCH  25  26
ENDBRANCH   1  25
TORSDOF 16
ENDMDL
MODEL 2
REMARK VINA RESULT:     -12.0      1.308      2.065
REMARK SMILES O=C(NCCCCNC(=O)c1ccc(-c2c3nc(c(-c4c(F)cc(S(=O)(=O)[O-])cc4F)c4ccc([nH]4)c(-c4c(F)cc(S(=O)(=O)[O-])cc4F)c4nc(c(-c5c(F)cc(S(=O)(=O)[O-])cc5F)c5ccc2[nH]5)C=C4)C=C3)cc1)c1ccc(Cn2cc(Cl)c(=O)[nH]c2=O)cc1
REMARK SMILES IDX 6 1 5 2 4 3 3 4 1 5 2 6 77 8 78 9 92 10 79 11 91 12 80 13
REMARK SMILES IDX 81 14 82 15 83 16 89 17 84 18 88 19 90 20 85 21 86 22 87 24
REMARK SMILES IDX 7 25 8 26 9 27 10 29 11 30 12 31 76 32 13 33 75 34 14 35
REMARK SMILES IDX 15 36 16 37 69 38 17 39 74 40 68 41 70 42 18 43 73 44 67 45
REMARK SMILES IDX 66 46 19 48 53 49 32 50 52 51 33 52 36 53 51 54 71 55 34 56
REMARK SMILES IDX 35 57 50 59 72 60 37 61 20 62 21 63 30 64 22 65 23 66 29 67
REMARK SMILES IDX 31 68 24 69 25 70 26 71 27 72 28 73 54 74 55 75 64 76 56 77
REMARK SMILES IDX 57 78 63 79 65 80 58 81 59 82 60 83 61 84 62 85 38 86 39 87
REMARK SMILES IDX 48 88 40 89 41 90 47 91 49 92 42 93 43 94 44 95 45 96 46 97
REMARK H PARENT 3 7 88 23 8 28 70 47 36 58
REMARK Flexibility Score: inf
ROOT
ATOM      1  C   UNL A   1      33.953  27.983  25.849  1.00  0.00     0.023 C 
ENDROOT
BRANCH   1   2
ATOM      2  C   UNL A   1      33.536  28.927  24.721  1.00  0.00     0.023 C 
BRANCH   2   3
ATOM      3  C   UNL A   1      33.420  28.283  23.341  1.00  0.00     0.116 C 
BRANCH   3   4
ATOM      4  N   UNL A   1      32.148  28.573  22.696  1.00  0.00    -0.352 N 
ATOM      5  O   UNL A   1      30.053  28.116  21.959  1.00  0.00    -0.269 OA
ATOM      6  C   UNL A   1      31.016  27.798  22.647  1.00  0.00     0.251 C 
ATOM      7  H   UNL A   1      32.094  29.439  22.233  1.00  0.00     0.163 HD
BRANCH   6   8
ATOM      8  C   UNL A   1      30.974  26.553  23.433  1.00  0.00     0.039 A 
ATOM      9  C   UNL A   1      30.669  26.598  24.795  1.00  0.00     0.014 A 
ATOM     10  C   UNL A   1      31.275  25.342  22.808  1.00  0.00     0.014 A 
ATOM     11  C   UNL A   1      30.739  25.431  25.553  1.00  0.00     0.006 A 
ATOM     12  C   UNL A   1      31.361  24.176  23.574  1.00  0.00     0.006 A 
ATOM     13  C   UNL A   1      31.118  24.216  24.957  1.00  0.00    -0.028 A 
BRANCH  13  14
ATOM     14  C   UNL A   1      31.311  22.977  25.805  1.00  0.00     0.162 C 
BRANCH  14  15
ATOM     15  N   UNL A   1      32.652  22.394  25.658  1.00  0.00    -0.295 N 
ATOM     16  C   UNL A   1      33.771  23.183  25.876  1.00  0.00     0.117 A 
ATOM     17  C   UNL A   1      32.769  21.054  25.307  1.00  0.00     0.328 A 
ATOM     18  C   UNL A   1      35.016  22.718  25.760  1.00  0.00     0.122 A 
ATOM     19  N   UNL A   1      34.054  20.582  25.199  1.00  0.00    -0.273 N 
ATOM     20  O   UNL A   1      31.819  20.302  25.111  1.00  0.00    -0.248 OA
ATOM     21  Cl  UNL A   1      36.389  23.711  26.021  1.00  0.00    -0.077 Cl
ATOM     22  C   UNL A   1      35.207  21.292  25.405  1.00  0.00     0.272 A 
ATOM     23  H   UNL A   1      34.156  19.636  24.948  1.00  0.00     0.175 HD
ATOM     24  O   UNL A   1      36.309  20.763  25.312  1.00  0.00    -0.268 OA
ENDBRANCH  14  15
ENDBRANCH  13  14
ENDBRANCH   6   8
ENDBRANCH   3   4
ENDBRANCH   2   3
ENDBRANCH   1   2
BRANCH   1  25
ATOM     25  C   UNL A   1      33.425  28.338  27.235  1.00  0.00     0.116 C 
BRANCH  25  26
ATOM     26  N   UNL A   1      33.369  29.772  27.479  1.00  0.00    -0.352 N 
ATOM     27  C   UNL A   1      34.341  30.610  27.972  1.00  0.00     0.251 C 
ATOM     28  H   UNL A   1      32.512  30.204  27.259  1.00  0.00     0.163 HD
ATOM     29  O   UNL A   1      34.067  31.781  28.218  1.00  0.00    -0.269 OA
BRANCH  27  30
ATOM     30  C   UNL A   1      35.703  30.093  28.240  1.00  0.00     0.039 A 
ATOM     31  C   UNL A   1      36.647  30.112  27.208  1.00  0.00     0.014 A 
ATOM     32  C   UNL A   1      36.054  29.607  29.502  1.00  0.00     0.014 A 
ATOM     33  C   UNL A   1      37.962  29.714  27.464  1.00  0.00     0.010 A 
ATOM     34  C   UNL A   1      37.380  29.277  29.772  1.00  0.00     0.010 A 
ATOM     35  C   UNL A   1      38.349  29.331  28.758  1.00  0.00    -0.014 A 
BRANCH  35  36
ATOM     36  C   UNL A   1      39.760  28.991  29.078  1.00  0.00     0.031 A 
ATOM     37  C   UNL A   1      40.669  30.029  29.678  1.00  0.00     0.074 A 
ATOM     38  C   UNL A   1      40.246  27.774  28.757  1.00  0.00     0.049 A 
ATOM     39  N   UNL A   1      41.950  29.959  29.931  1.00  0.00    -0.248 NA
ATOM     40  C   UNL A   1      40.062  31.328  30.010  1.00  0.00     0.031 C 
ATOM     41  C   UNL A   1      39.479  26.695  28.129  1.00  0.00     0.029 A 
ATOM     42  N   UNL A   1      41.504  27.245  28.900  1.00  0.00    -0.354 N 
ATOM     43  C   UNL A   1      42.308  31.205  30.432  1.00  0.00     0.074 A 
ATOM     44  C   UNL A   1      41.117  32.027  30.405  1.00  0.00     0.031 C 
ATOM     45  C   UNL A   1      40.280  25.630  27.955  1.00  0.00     0.029 A 
ATOM     46  C   UNL A   1      41.622  25.960  28.424  1.00  0.00     0.049 A 
ATOM     47  H   UNL A   1      42.253  27.739  29.306  1.00  0.00     0.167 HD
ATOM     48  C   UNL A   1      43.512  31.621  30.892  1.00  0.00     0.037 A 
ATOM     49  C   UNL A   1      42.692  25.143  28.362  1.00  0.00     0.037 A 
ATOM     50  C   UNL A   1      44.687  30.791  30.948  1.00  0.00     0.049 A 
ATOM     51  C   UNL A   1      44.016  25.623  28.892  1.00  0.00     0.074 A 
ATOM     52  C   UNL A   1      45.937  31.103  31.451  1.00  0.00     0.029 A 
ATOM     53  N   UNL A   1      44.754  29.483  30.490  1.00  0.00    -0.354 N 
ATOM     54  N   UNL A   1      44.322  26.788  29.412  1.00  0.00    -0.248 NA
ATOM     55  C   UNL A   1      45.139  24.678  28.832  1.00  0.00     0.031 C 
ATOM     56  C   UNL A   1      46.772  29.994  31.267  1.00  0.00     0.029 A 
ATOM     57  C   UNL A   1      46.029  28.978  30.688  1.00  0.00     0.049 A 
ATOM     58  H   UNL A   1      44.007  28.987  30.085  1.00  0.00     0.167 HD
ATOM     59  C   UNL A   1      45.663  26.705  29.767  1.00  0.00     0.074 A 
ATOM     60  C   UNL A   1      46.109  25.374  29.410  1.00  0.00     0.031 C 
ATOM     61  C   UNL A   1      46.454  27.646  30.340  1.00  0.00     0.037 A 
BRANCH  48  62
ATOM     62  C   UNL A   1      43.618  33.040  31.377  1.00  0.00     0.058 A 
ATOM     63  C   UNL A   1      43.331  33.384  32.709  1.00  0.00     0.135 A 
ATOM     64  C   UNL A   1      44.042  34.063  30.513  1.00  0.00     0.135 A 
ATOM     65  F   UNL A   1      42.908  32.449  33.573  1.00  0.00    -0.206 F 
ATOM     66  C   UNL A   1      43.429  34.697  33.157  1.00  0.00     0.059 A 
ATOM     67  C   UNL A   1      44.172  35.379  30.948  1.00  0.00     0.059 A 
ATOM     68  F   UNL A   1      44.329  33.789  29.231  1.00  0.00    -0.206 F 
ATOM     69  C   UNL A   1      43.848  35.689  32.268  1.00  0.00     0.060 A 
BRANCH  69  70
ATOM     70  S   UNL A   1      43.970  37.388  32.865  1.00  0.00     0.124 S 
ATOM     71  O   UNL A   1      42.892  37.427  33.849  1.00  0.00    -0.237 OA
ATOM     72  O   UNL A   1      45.325  37.433  33.408  1.00  0.00    -0.237 OA
ATOM     73  O   UNL A   1      43.753  38.186  31.664  1.00  0.00    -0.744 OA
ENDBRANCH  69  70
ENDBRANCH  48  62
BRANCH  49  74
ATOM     74  C   UNL A   1      42.550  23.776  27.795  1.00  0.00     0.058 A 
ATOM     75  C   UNL A   1      42.593  23.565  26.410  1.00  0.00     0.135 A 
ATOM     76  C   UNL A   1      42.381  22.656  28.623  1.00  0.00     0.135 A 
ATOM     77  F   UNL A   1      42.748  24.606  25.577  1.00  0.00    -0.206 F 
ATOM     78  C   UNL A   1      42.457  22.294  25.862  1.00  0.00     0.059 A 
ATOM     79  C   UNL A   1      42.264  21.372  28.100  1.00  0.00     0.059 A 
ATOM     80  F   UNL A   1      42.350  22.804  29.957  1.00  0.00    -0.206 F 
ATOM     81  C   UNL A   1      42.293  21.202  26.716  1.00  0.00     0.060 A 
BRANCH  81  82
ATOM     82  S   UNL A   1      42.164  19.551  25.998  1.00  0.00     0.124 S 
ATOM     83  O   UNL A   1      42.625  18.714  27.100  1.00  0.00    -0.237 OA
ATOM     84  O   UNL A   1      40.742  19.462  25.681  1.00  0.00    -0.237 OA
ATOM     85  O   UNL A   1      43.051  19.618  24.841  1.00  0.00    -0.744 OA
ENDBRANCH  81  82
ENDBRANCH  49  74
BRANCH  61  86
ATOM     86  C   UNL A   1      47.872  27.261  30.654  1.00  0.00     0.058 A 
ATOM     87  C   UNL A   1      48.245  26.785  31.921  1.00  0.00     0.135 A 
ATOM     88  C   UNL A   1      48.858  27.314  29.655  1.00  0.00     0.135 A 
ATOM     89  F   UNL A   1      47.341  26.721  32.911  1.00  0.00    -0.206 F 
ATOM     90  C   UNL A   1      49.550  26.392  32.192  1.00  0.00     0.059 A 
ATOM     91  C   UNL A   1      50.165  26.904  29.898  1.00  0.00     0.059 A 
ATOM     92  F   UNL A   1      48.551  27.754  28.425  1.00  0.00    -0.206 F 
ATOM     93  C   UNL A   1      50.504  26.453  31.173  1.00  0.00     0.060 A 
BRANCH  93  94
ATOM     94  S   UNL A   1      52.187  25.902  31.525  1.00  0.00     0.124 S 
ATOM     95  O   UNL A   1      52.831  26.074  30.228  1.00  0.00    -0.237 OA
ATOM     96  O   UNL A   1      52.609  26.830  32.570  1.00  0.00    -0.237 OA
ATOM     97  O   UNL A   1      52.007  24.519  31.959  1.00  0.00    -0.744 OA
ENDBRANCH  93  94
ENDBRANCH  61  86
ENDBRANCH  35  36
ENDBRANCH  27  30
ENDBRANCH  25  26
ENDBRANCH   1  25
TORSDOF 16
ENDMDL
MODEL 3
REMARK VINA RESULT:     -11.8      3.099      9.456
REMARK SMILES O=C(NCCCCNC(=O)c1ccc(-c2c3nc(c(-c4c(F)cc(S(=O)(=O)[O-])cc4F)c4ccc([nH]4)c(-c4c(F)cc(S(=O)(=O)[O-])cc4F)c4nc(c(-c5c(F)cc(S(=O)(=O)[O-])cc5F)c5ccc2[nH]5)C=C4)C=C3)cc1)c1ccc(Cn2cc(Cl)c(=O)[nH]c2=O)cc1
REMARK SMILES IDX 6 1 5 2 4 3 3 4 1 5 2 6 77 8 78 9 92 10 79 11 91 12 80 13
REMARK SMILES IDX 81 14 82 15 83 16 89 17 84 18 88 19 90 20 85 21 86 22 87 24
REMARK SMILES IDX 7 25 8 26 9 27 10 29 11 30 12 31 76 32 13 33 75 34 14 35
REMARK SMILES IDX 15 36 16 37 69 38 17 39 74 40 68 41 70 42 18 43 73 44 67 45
REMARK SMILES IDX 66 46 19 48 53 49 32 50 52 51 33 52 36 53 51 54 71 55 34 56
REMARK SMILES IDX 35 57 50 59 72 60 37 61 20 62 21 63 30 64 22 65 23 66 29 67
REMARK SMILES IDX 31 68 24 69 25 70 26 71 27 72 28 73 54 74 55 75 64 76 56 77
REMARK SMILES IDX 57 78 63 79 65 80 58 81 59 82 60 83 61 84 62 85 38 86 39 87
REMARK SMILES IDX 48 88 40 89 41 90 47 91 49 92 42 93 43 94 44 95 45 96 46 97
REMARK H PARENT 3 7 88 23 8 28 70 47 36 58
REMARK Flexibility Score: inf
ROOT
ATOM      1  C   UNL A   1      35.668  23.594  26.081  1.00  0.00     0.023 C 
ENDROOT
BRANCH   1   2
ATOM      2  C   UNL A   1      35.354  22.164  26.523  1.00  0.00     0.023 C 
BRANCH   2   3
ATOM      3  C   UNL A   1      33.962  21.957  27.115  1.00  0.00     0.116 C 
BRANCH   3   4
ATOM      4  N   UNL A   1      33.254  20.844  26.499  1.00  0.00    -0.352 N 
ATOM      5  O   UNL A   1      31.888  19.844  24.990  1.00  0.00    -0.269 OA
ATOM      6  C   UNL A   1      32.539  20.827  25.327  1.00  0.00     0.251 C 
ATOM      7  H   UNL A   1      33.294  19.991  26.988  1.00  0.00     0.163 HD
BRANCH   6   8
ATOM      8  C   UNL A   1      32.550  22.025  24.471  1.00  0.00     0.039 A 
ATOM      9  C   UNL A   1      33.529  22.169  23.486  1.00  0.00     0.014 A 
ATOM     10  C   UNL A   1      31.597  23.023  24.682  1.00  0.00     0.014 A 
ATOM     11  C   UNL A   1      33.600  23.354  22.756  1.00  0.00     0.006 A 
ATOM     12  C   UNL A   1      31.681  24.216  23.960  1.00  0.00     0.006 A 
ATOM     13  C   UNL A   1      32.697  24.401  23.008  1.00  0.00    -0.028 A 
BRANCH  13  14
ATOM     14  C   UNL A   1      32.852  25.730  22.300  1.00  0.00     0.162 C 
BRANCH  14  15
ATOM     15  N   UNL A   1      32.568  26.874  23.177  1.00  0.00    -0.295 N 
ATOM     16  C   UNL A   1      33.423  27.162  24.229  1.00  0.00     0.117 A 
ATOM     17  C   UNL A   1      31.443  27.651  22.925  1.00  0.00     0.328 A 
ATOM     18  C   UNL A   1      33.223  28.185  25.063  1.00  0.00     0.122 A 
ATOM     19  N   UNL A   1      31.251  28.708  23.782  1.00  0.00    -0.273 N 
ATOM     20  O   UNL A   1      30.655  27.455  22.005  1.00  0.00    -0.248 OA
ATOM     21  Cl  UNL A   1      34.285  28.519  26.368  1.00  0.00    -0.077 Cl
ATOM     22  C   UNL A   1      32.050  29.062  24.836  1.00  0.00     0.272 A 
ATOM     23  H   UNL A   1      30.458  29.267  23.621  1.00  0.00     0.175 HD
ATOM     24  O   UNL A   1      31.803  30.047  25.523  1.00  0.00    -0.268 OA
ENDBRANCH  14  15
ENDBRANCH  13  14
ENDBRANCH   6   8
ENDBRANCH   3   4
ENDBRANCH   2   3
ENDBRANCH   1   2
BRANCH   1  25
ATOM     25  C   UNL A   1      36.826  23.742  25.100  1.00  0.00     0.116 C 
BRANCH  25  26
ATOM     26  N   UNL A   1      37.898  22.783  25.328  1.00  0.00    -0.352 N 
ATOM     27  C   UNL A   1      39.078  22.943  26.014  1.00  0.00     0.251 C 
ATOM     28  H   UNL A   1      37.757  21.892  24.933  1.00  0.00     0.163 HD
ATOM     29  O   UNL A   1      39.917  22.047  26.000  1.00  0.00    -0.269 OA
BRANCH  27  30
ATOM     30  C   UNL A   1      39.352  24.206  26.738  1.00  0.00     0.039 A 
ATOM     31  C   UNL A   1      38.802  24.388  28.010  1.00  0.00     0.014 A 
ATOM     32  C   UNL A   1      40.157  25.199  26.174  1.00  0.00     0.014 A 
ATOM     33  C   UNL A   1      39.121  25.531  28.748  1.00  0.00     0.010 A 
ATOM     34  C   UNL A   1      40.529  26.303  26.937  1.00  0.00     0.010 A 
ATOM     35  C   UNL A   1      40.019  26.480  28.233  1.00  0.00    -0.014 A 
BRANCH  35  36
ATOM     36  C   UNL A   1      40.447  27.658  29.032  1.00  0.00     0.031 A 
ATOM     37  C   UNL A   1      41.754  27.630  29.777  1.00  0.00     0.074 A 
ATOM     38  C   UNL A   1      39.626  28.721  29.151  1.00  0.00     0.049 A 
ATOM     39  N   UNL A   1      42.251  28.511  30.607  1.00  0.00    -0.248 NA
ATOM     40  C   UNL A   1      42.599  26.440  29.588  1.00  0.00     0.031 C 
ATOM     41  C   UNL A   1      38.312  28.852  28.515  1.00  0.00     0.029 A 
ATOM     42  N   UNL A   1      39.767  29.888  29.859  1.00  0.00    -0.354 N 
ATOM     43  C   UNL A   1      43.454  27.976  31.053  1.00  0.00     0.074 A 
ATOM     44  C   UNL A   1      43.590  26.673  30.437  1.00  0.00     0.031 C 
ATOM     45  C   UNL A   1      37.776  30.037  28.852  1.00  0.00     0.029 A 
ATOM     46  C   UNL A   1      38.688  30.735  29.754  1.00  0.00     0.049 A 
ATOM     47  H   UNL A   1      40.566  30.100  30.394  1.00  0.00     0.167 HD
ATOM     48  C   UNL A   1      44.372  28.528  31.883  1.00  0.00     0.037 A 
ATOM     49  C   UNL A   1      38.454  31.932  30.325  1.00  0.00     0.037 A 
ATOM     50  C   UNL A   1      44.249  29.838  32.467  1.00  0.00     0.049 A 
ATOM     51  C   UNL A   1      39.495  32.531  31.232  1.00  0.00     0.074 A 
ATOM     52  C   UNL A   1      45.152  30.507  33.274  1.00  0.00     0.029 A 
ATOM     53  N   UNL A   1      43.158  30.678  32.305  1.00  0.00    -0.354 N 
ATOM     54  N   UNL A   1      40.651  32.033  31.600  1.00  0.00    -0.248 NA
ATOM     55  C   UNL A   1      39.202  33.854  31.799  1.00  0.00     0.031 C 
ATOM     56  C   UNL A   1      44.593  31.741  33.627  1.00  0.00     0.029 A 
ATOM     57  C   UNL A   1      43.359  31.856  33.006  1.00  0.00     0.049 A 
ATOM     58  H   UNL A   1      42.358  30.469  31.770  1.00  0.00     0.167 HD
ATOM     59  C   UNL A   1      41.236  32.994  32.416  1.00  0.00     0.074 A 
ATOM     60  C   UNL A   1      40.310  34.105  32.483  1.00  0.00     0.031 C 
ATOM     61  C   UNL A   1      42.434  32.959  33.052  1.00  0.00     0.037 A 
BRANCH  48  62
ATOM     62  C   UNL A   1      45.596  27.715  32.204  1.00  0.00     0.058 A 
ATOM     63  C   UNL A   1      45.631  26.843  33.304  1.00  0.00     0.135 A 
ATOM     64  C   UNL A   1      46.735  27.784  31.385  1.00  0.00     0.135 A 
ATOM     65  F   UNL A   1      44.575  26.749  34.127  1.00  0.00    -0.206 F 
ATOM     66  C   UNL A   1      46.763  26.092  33.599  1.00  0.00     0.059 A 
ATOM     67  C   UNL A   1      47.870  27.022  31.648  1.00  0.00     0.059 A 
ATOM     68  F   UNL A   1      46.755  28.601  30.321  1.00  0.00    -0.206 F 
ATOM     69  C   UNL A   1      47.880  26.190  32.767  1.00  0.00     0.060 A 
BRANCH  69  70
ATOM     70  S   UNL A   1      49.342  25.209  33.164  1.00  0.00     0.124 S 
ATOM     71  O   UNL A   1      49.810  24.836  31.833  1.00  0.00    -0.237 OA
ATOM     72  O   UNL A   1      50.177  26.168  33.883  1.00  0.00    -0.237 OA
ATOM     73  O   UNL A   1      48.810  24.117  33.972  1.00  0.00    -0.744 OA
ENDBRANCH  69  70
ENDBRANCH  48  62
BRANCH  49  74
ATOM     74  C   UNL A   1      37.188  32.658  30.038  1.00  0.00     0.058 A 
ATOM     75  C   UNL A   1      36.015  32.364  30.748  1.00  0.00     0.135 A 
ATOM     76  C   UNL A   1      37.127  33.661  29.060  1.00  0.00     0.135 A 
ATOM     77  F   UNL A   1      36.023  31.407  31.689  1.00  0.00    -0.206 F 
ATOM     78  C   UNL A   1      34.821  33.028  30.489  1.00  0.00     0.059 A 
ATOM     79  C   UNL A   1      35.949  34.355  28.798  1.00  0.00     0.059 A 
ATOM     80  F   UNL A   1      38.227  33.991  28.364  1.00  0.00    -0.206 F 
ATOM     81  C   UNL A   1      34.798  34.023  29.512  1.00  0.00     0.060 A 
BRANCH  81  82
ATOM     82  S   UNL A   1      33.255  34.913  29.214  1.00  0.00     0.124 S 
ATOM     83  O   UNL A   1      33.745  36.190  28.710  1.00  0.00    -0.237 OA
ATOM     84  O   UNL A   1      32.588  34.055  28.240  1.00  0.00    -0.237 OA
ATOM     85  O   UNL A   1      32.631  34.951  30.534  1.00  0.00    -0.744 OA
ENDBRANCH  81  82
ENDBRANCH  49  74
BRANCH  61  86
ATOM     86  C   UNL A   1      42.833  34.173  33.843  1.00  0.00     0.058 A 
ATOM     87  C   UNL A   1      42.583  34.271  35.220  1.00  0.00     0.135 A 
ATOM     88  C   UNL A   1      43.528  35.225  33.223  1.00  0.00     0.135 A 
ATOM     89  F   UNL A   1      41.917  33.295  35.857  1.00  0.00    -0.206 F 
ATOM     90  C   UNL A   1      42.992  35.380  35.954  1.00  0.00     0.059 A 
ATOM     91  C   UNL A   1      43.966  36.333  33.943  1.00  0.00     0.059 A 
ATOM     92  F   UNL A   1      43.799  35.176  31.910  1.00  0.00    -0.206 F 
ATOM     93  C   UNL A   1      43.685  36.405  35.306  1.00  0.00     0.060 A 
BRANCH  93  94
ATOM     94  S   UNL A   1      44.246  37.820  36.277  1.00  0.00     0.124 S 
ATOM     95  O   UNL A   1      45.648  37.486  36.500  1.00  0.00    -0.237 OA
ATOM     96  O   UNL A   1      43.998  38.940  35.373  1.00  0.00    -0.237 OA
ATOM     97  O   UNL A   1      43.393  37.779  37.461  1.00  0.00    -0.744 OA
ENDBRANCH  93  94
ENDBRANCH  61  86
ENDBRANCH  35  36
ENDBRANCH  27  30
ENDBRANCH  25  26
ENDBRANCH   1  25
TORSDOF 16
ENDMDL
