MODEL 1
REMARK VINA RESULT:     -12.5      0.000      0.000
REMARK SMILES O=C(NCCCCNC(=O)c1ccc(-c2c3nc(c(-c4c(F)cc(S(=O)(=O)[O-])cc4F)c4ccc([nH]4)c(-c4c(F)cc(S(=O)(=O)[O-])cc4F)c4nc(c(-c5c(F)cc(S(=O)(=O)[O-])cc5F)c5ccc2[nH]5)C=C4)C=C3)cc1)C1=Cc2c(ccc(Cl)c2-c2ccccc2)O[C@H]1C(F)(F)F
REMARK SMILES IDX 6 1 5 2 4 3 3 4 1 5 2 6 77 8 78 9 93 10 79 11 92 12 80 13
REMARK SMILES IDX 85 14 81 15 83 16 82 17 84 18 94 19 95 20 96 21 97 22 86 23
REMARK SMILES IDX 87 24 91 25 88 26 90 27 89 28 7 29 8 30 9 31 10 33 11 34
REMARK SMILES IDX 12 35 76 36 13 37 75 38 14 39 15 40 16 41 69 42 17 43 74 44
REMARK SMILES IDX 68 45 70 46 18 47 73 48 67 49 66 50 19 52 53 53 32 54 52 55
REMARK SMILES IDX 33 56 36 57 51 58 71 59 34 60 35 61 50 63 72 64 37 65 20 66
REMARK SMILES IDX 21 67 30 68 22 69 23 70 29 71 31 72 24 73 25 74 26 75 27 76
REMARK SMILES IDX 28 77 54 78 55 79 64 80 56 81 57 82 63 83 65 84 58 85 59 86
REMARK SMILES IDX 60 87 61 88 62 89 38 90 39 91 48 92 40 93 41 94 47 95 49 96
REMARK SMILES IDX 42 97 43 98 44 99 45 100 46 101
REMARK H PARENT 3 7 8 32 70 51 36 62
REMARK Flexibility Score: inf
ROOT
ATOM      1  C   UNL A   1      32.136  27.906  27.467  1.00  0.00     0.023 C 
ENDROOT
BRANCH   1   2
ATOM      2  C   UNL A   1      31.241  27.696  26.248  1.00  0.00     0.023 C 
BRANCH   2   3
ATOM      3  C   UNL A   1      30.701  26.285  26.045  1.00  0.00     0.116 C 
BRANCH   3   4
ATOM      4  N   UNL A   1      31.372  25.245  26.802  1.00  0.00    -0.352 N 
ATOM      5  O   UNL A   1      32.726  23.474  27.137  1.00  0.00    -0.270 OA
ATOM      6  C   UNL A   1      32.304  24.339  26.373  1.00  0.00     0.251 C 
ATOM      7  H   UNL A   1      31.123  25.184  27.753  1.00  0.00     0.163 HD
BRANCH   6   8
ATOM      8  C   UNL A   1      32.820  24.381  24.987  1.00  0.00     0.067 C 
ATOM      9  C   UNL A   1      32.935  23.216  24.337  1.00  0.00     0.026 C 
ATOM     10  C   UNL A   1      33.623  25.552  24.515  1.00  0.00     0.314 C 
ATOM     11  C   UNL A   1      34.372  22.830  24.272  1.00  0.00     0.027 A 
ATOM     12  O   UNL A   1      35.009  25.187  24.188  1.00  0.00    -0.475 OA
ATOM     13  C   UNL A   1      35.336  23.851  24.228  1.00  0.00     0.128 A 
ATOM     14  C   UNL A   1      34.728  21.468  24.442  1.00  0.00     0.011 A 
ATOM     15  C   UNL A   1      36.680  23.528  24.365  1.00  0.00     0.049 A 
ATOM     16  C   UNL A   1      36.085  21.173  24.623  1.00  0.00     0.049 A 
ATOM     17  C   UNL A   1      37.050  22.195  24.586  1.00  0.00     0.025 A 
ATOM     18  Cl  UNL A   1      36.626  19.569  24.966  1.00  0.00    -0.084 Cl
BRANCH  10  19
ATOM     19  C   UNL A   1      32.951  26.262  23.319  1.00  0.00     0.429 C 
ATOM     20  F   UNL A   1      33.578  26.039  22.139  1.00  0.00    -0.167 F 
ATOM     21  F   UNL A   1      31.667  25.851  23.166  1.00  0.00    -0.167 F 
ATOM     22  F   UNL A   1      32.915  27.608  23.481  1.00  0.00    -0.167 F 
ENDBRANCH  10  19
BRANCH  14  23
ATOM     23  C   UNL A   1      33.622  20.493  24.533  1.00  0.00    -0.016 A 
ATOM     24  C   UNL A   1      33.092  19.926  23.364  1.00  0.00     0.009 A 
ATOM     25  C   UNL A   1      33.337  19.880  25.765  1.00  0.00     0.009 A 
ATOM     26  C   UNL A   1      32.392  18.720  23.412  1.00  0.00     0.001 A 
ATOM     27  C   UNL A   1      32.644  18.669  25.812  1.00  0.00     0.001 A 
ATOM     28  C   UNL A   1      32.196  18.078  24.632  1.00  0.00     0.000 A 
ENDBRANCH  14  23
ENDBRANCH   6   8
ENDBRANCH   3   4
ENDBRANCH   2   3
ENDBRANCH   1   2
BRANCH   1  29
ATOM     29  C   UNL A   1      33.461  28.632  27.238  1.00  0.00     0.116 C 
BRANCH  29  30
ATOM     30  N   UNL A   1      33.529  29.978  27.792  1.00  0.00    -0.352 N 
ATOM     31  C   UNL A   1      34.605  30.634  28.354  1.00  0.00     0.251 C 
ATOM     32  H   UNL A   1      32.689  30.491  27.761  1.00  0.00     0.163 HD
ATOM     33  O   UNL A   1      34.466  31.769  28.804  1.00  0.00    -0.269 OA
BRANCH  31  34
ATOM     34  C   UNL A   1      35.906  29.938  28.470  1.00  0.00     0.039 A 
ATOM     35  C   UNL A   1      36.771  29.937  27.371  1.00  0.00     0.014 A 
ATOM     36  C   UNL A   1      36.306  29.366  29.678  1.00  0.00     0.014 A 
ATOM     37  C   UNL A   1      38.082  29.474  27.521  1.00  0.00     0.010 A 
ATOM     38  C   UNL A   1      37.632  28.969  29.845  1.00  0.00     0.010 A 
ATOM     39  C   UNL A   1      38.543  29.047  28.777  1.00  0.00    -0.014 A 
BRANCH  39  40
ATOM     40  C   UNL A   1      39.977  28.726  29.017  1.00  0.00     0.031 A 
ATOM     41  C   UNL A   1      40.914  29.787  29.525  1.00  0.00     0.074 A 
ATOM     42  C   UNL A   1      40.457  27.511  28.676  1.00  0.00     0.049 A 
ATOM     43  N   UNL A   1      42.215  29.748  29.650  1.00  0.00    -0.248 NA
ATOM     44  C   UNL A   1      40.310  31.071  29.915  1.00  0.00     0.031 C 
ATOM     45  C   UNL A   1      39.663  26.408  28.125  1.00  0.00     0.029 A 
ATOM     46  N   UNL A   1      41.734  27.004  28.718  1.00  0.00    -0.354 N 
ATOM     47  C   UNL A   1      42.590  31.008  30.105  1.00  0.00     0.074 A 
ATOM     48  C   UNL A   1      41.382  31.798  30.203  1.00  0.00     0.031 C 
ATOM     49  C   UNL A   1      40.468  25.358  27.890  1.00  0.00     0.029 A 
ATOM     50  C   UNL A   1      41.839  25.721  28.231  1.00  0.00     0.049 A 
ATOM     51  H   UNL A   1      42.503  27.512  29.063  1.00  0.00     0.167 HD
ATOM     52  C   UNL A   1      43.826  31.458  30.426  1.00  0.00     0.037 A 
ATOM     53  C   UNL A   1      42.918  24.930  28.062  1.00  0.00     0.037 A 
ATOM     54  C   UNL A   1      45.020  30.655  30.371  1.00  0.00     0.049 A 
ATOM     55  C   UNL A   1      44.277  25.446  28.454  1.00  0.00     0.074 A 
ATOM     56  C   UNL A   1      46.308  31.006  30.734  1.00  0.00     0.029 A 
ATOM     57  N   UNL A   1      45.071  29.341  29.934  1.00  0.00    -0.354 N 
ATOM     58  N   UNL A   1      44.602  26.624  28.933  1.00  0.00    -0.248 NA
ATOM     59  C   UNL A   1      45.415  24.530  28.290  1.00  0.00     0.031 C 
ATOM     60  C   UNL A   1      47.145  29.912  30.490  1.00  0.00     0.029 A 
ATOM     61  C   UNL A   1      46.371  28.868  30.013  1.00  0.00     0.049 A 
ATOM     62  H   UNL A   1      44.299  28.821  29.614  1.00  0.00     0.167 HD
ATOM     63  C   UNL A   1      45.972  26.574  29.162  1.00  0.00     0.074 A 
ATOM     64  C   UNL A   1      46.417  25.253  28.771  1.00  0.00     0.031 C 
ATOM     65  C   UNL A   1      46.789  27.537  29.654  1.00  0.00     0.037 A 
BRANCH  52  66
ATOM     66  C   UNL A   1      43.957  32.885  30.881  1.00  0.00     0.058 A 
ATOM     67  C   UNL A   1      44.149  33.931  29.966  1.00  0.00     0.135 A 
ATOM     68  C   UNL A   1      43.827  33.216  32.240  1.00  0.00     0.135 A 
ATOM     69  F   UNL A   1      44.295  33.668  28.658  1.00  0.00    -0.206 F 
ATOM     70  C   UNL A   1      44.226  35.256  30.384  1.00  0.00     0.059 A 
ATOM     71  C   UNL A   1      43.875  34.536  32.677  1.00  0.00     0.059 A 
ATOM     72  F   UNL A   1      43.642  32.252  33.155  1.00  0.00    -0.206 F 
ATOM     73  C   UNL A   1      44.085  35.549  31.742  1.00  0.00     0.060 A 
BRANCH  73  74
ATOM     74  S   UNL A   1      44.159  37.275  32.263  1.00  0.00     0.124 S 
ATOM     75  O   UNL A   1      45.546  37.386  32.705  1.00  0.00    -0.237 OA
ATOM     76  O   UNL A   1      43.827  37.988  31.034  1.00  0.00    -0.237 OA
ATOM     77  O   UNL A   1      43.155  37.355  33.320  1.00  0.00    -0.744 OA
ENDBRANCH  73  74
ENDBRANCH  52  66
BRANCH  53  78
ATOM     78  C   UNL A   1      42.767  23.558  27.505  1.00  0.00     0.058 A 
ATOM     79  C   UNL A   1      42.414  22.479  28.330  1.00  0.00     0.135 A 
ATOM     80  C   UNL A   1      42.992  23.292  26.145  1.00  0.00     0.135 A 
ATOM     81  F   UNL A   1      42.194  22.682  29.639  1.00  0.00    -0.206 F 
ATOM     82  C   UNL A   1      42.320  21.183  27.837  1.00  0.00     0.059 A 
ATOM     83  C   UNL A   1      42.879  22.007  25.623  1.00  0.00     0.059 A 
ATOM     84  F   UNL A   1      43.313  24.291  25.309  1.00  0.00    -0.206 F 
ATOM     85  C   UNL A   1      42.560  20.955  26.481  1.00  0.00     0.060 A 
BRANCH  85  86
ATOM     86  S   UNL A   1      42.416  19.271  25.843  1.00  0.00     0.124 S 
ATOM     87  O   UNL A   1      43.169  19.366  24.597  1.00  0.00    -0.237 OA
ATOM     88  O   UNL A   1      43.035  18.484  26.905  1.00  0.00    -0.237 OA
ATOM     89  O   UNL A   1      40.974  19.092  25.700  1.00  0.00    -0.744 OA
ENDBRANCH  85  86
ENDBRANCH  53  78
BRANCH  65  90
ATOM     90  C   UNL A   1      48.236  27.189  29.863  1.00  0.00     0.058 A 
ATOM     91  C   UNL A   1      49.229  27.583  28.957  1.00  0.00     0.135 A 
ATOM     92  C   UNL A   1      48.637  26.522  31.032  1.00  0.00     0.135 A 
ATOM     93  F   UNL A   1      48.896  28.217  27.821  1.00  0.00    -0.206 F 
ATOM     94  C   UNL A   1      50.574  27.322  29.198  1.00  0.00     0.059 A 
ATOM     95  C   UNL A   1      49.977  26.270  31.305  1.00  0.00     0.059 A 
ATOM     96  F   UNL A   1      47.723  26.131  31.935  1.00  0.00    -0.206 F 
ATOM     97  C   UNL A   1      50.939  26.670  30.378  1.00  0.00     0.060 A 
BRANCH  97  98
ATOM     98  S   UNL A   1      52.691  26.393  30.711  1.00  0.00     0.124 S 
ATOM     99  O   UNL A   1      53.201  26.099  29.376  1.00  0.00    -0.237 OA
ATOM    100  O   UNL A   1      53.109  27.670  31.282  1.00  0.00    -0.237 OA
ATOM    101  O   UNL A   1      52.687  25.269  31.643  1.00  0.00    -0.744 OA
ENDBRANCH  97  98
ENDBRANCH  65  90
ENDBRANCH  39  40
ENDBRANCH  31  34
ENDBRANCH  29  30
ENDBRANCH   1  29
TORSDOF 16
ENDMDL
MODEL 2
REMARK VINA RESULT:     -12.5      1.337      2.648
REMARK SMILES O=C(NCCCCNC(=O)c1ccc(-c2c3nc(c(-c4c(F)cc(S(=O)(=O)[O-])cc4F)c4ccc([nH]4)c(-c4c(F)cc(S(=O)(=O)[O-])cc4F)c4nc(c(-c5c(F)cc(S(=O)(=O)[O-])cc5F)c5ccc2[nH]5)C=C4)C=C3)cc1)C1=Cc2c(ccc(Cl)c2-c2ccccc2)O[C@H]1C(F)(F)F
REMARK SMILES IDX 6 1 5 2 4 3 3 4 1 5 2 6 77 8 78 9 93 10 79 11 92 12 80 13
REMARK SMILES IDX 85 14 81 15 83 16 82 17 84 18 94 19 95 20 96 21 97 22 86 23
REMARK SMILES IDX 87 24 91 25 88 26 90 27 89 28 7 29 8 30 9 31 10 33 11 34
REMARK SMILES IDX 12 35 76 36 13 37 75 38 14 39 15 40 16 41 69 42 17 43 74 44
REMARK SMILES IDX 68 45 70 46 18 47 73 48 67 49 66 50 19 52 53 53 32 54 52 55
REMARK SMILES IDX 33 56 36 57 51 58 71 59 34 60 35 61 50 63 72 64 37 65 20 66
REMARK SMILES IDX 21 67 30 68 22 69 23 70 29 71 31 72 24 73 25 74 26 75 27 76
REMARK SMILES IDX 28 77 54 78 55 79 64 80 56 81 57 82 63 83 65 84 58 85 59 86
REMARK SMILES IDX 60 87 61 88 62 89 38 90 39 91 48 92 40 93 41 94 47 95 49 96
REMARK SMILES IDX 42 97 43 98 44 99 45 100 46 101
REMARK H PARENT 3 7 8 32 70 51 36 62
REMARK Flexibility Score: inf
ROOT
ATOM      1  C   UNL A   1      33.026  29.392  25.218  1.00  0.00     0.023 C 
ENDROOT
BRANCH   1   2
ATOM      2  C   UNL A   1      33.848  28.842  24.055  1.00  0.00     0.023 C 
BRANCH   2   3
ATOM      3  C   UNL A   1      33.152  28.799  22.700  1.00  0.00     0.116 C 
BRANCH   3   4
ATOM      4  N   UNL A   1      33.444  27.633  21.886  1.00  0.00    -0.352 N 
ATOM      5  O   UNL A   1      33.538  25.441  21.368  1.00  0.00    -0.270 OA
ATOM      6  C   UNL A   1      33.159  26.318  22.140  1.00  0.00     0.251 C 
ATOM      7  H   UNL A   1      33.908  27.813  21.036  1.00  0.00     0.163 HD
BRANCH   6   8
ATOM      8  C   UNL A   1      32.392  25.928  23.344  1.00  0.00     0.067 C 
ATOM      9  C   UNL A   1      33.059  25.301  24.323  1.00  0.00     0.026 C 
ATOM     10  C   UNL A   1      30.905  25.782  23.278  1.00  0.00     0.314 C 
ATOM     11  C   UNL A   1      32.708  23.854  24.306  1.00  0.00     0.027 A 
ATOM     12  O   UNL A   1      30.466  24.398  23.507  1.00  0.00    -0.475 OA
ATOM     13  C   UNL A   1      31.427  23.482  23.869  1.00  0.00     0.128 A 
ATOM     14  C   UNL A   1      33.726  22.897  24.552  1.00  0.00     0.011 A 
ATOM     15  C   UNL A   1      31.141  22.139  23.657  1.00  0.00     0.049 A 
ATOM     16  C   UNL A   1      33.426  21.554  24.289  1.00  0.00     0.049 A 
ATOM     17  C   UNL A   1      32.145  21.182  23.843  1.00  0.00     0.025 A 
ATOM     18  Cl  UNL A   1      34.621  20.316  24.428  1.00  0.00    -0.084 Cl
BRANCH  10  19
ATOM     19  C   UNL A   1      30.191  26.747  24.250  1.00  0.00     0.429 C 
ATOM     20  F   UNL A   1      30.805  26.848  25.454  1.00  0.00    -0.167 F 
ATOM     21  F   UNL A   1      30.127  27.999  23.735  1.00  0.00    -0.167 F 
ATOM     22  F   UNL A   1      28.916  26.362  24.506  1.00  0.00    -0.167 F 
ENDBRANCH  10  19
BRANCH  14  23
ATOM     23  C   UNL A   1      35.050  23.415  24.951  1.00  0.00    -0.016 A 
ATOM     24  C   UNL A   1      35.356  23.581  26.311  1.00  0.00     0.009 A 
ATOM     25  C   UNL A   1      36.105  23.412  24.022  1.00  0.00     0.009 A 
ATOM     26  C   UNL A   1      36.682  23.630  26.741  1.00  0.00     0.001 A 
ATOM     27  C   UNL A   1      37.432  23.454  24.454  1.00  0.00     0.001 A 
ATOM     28  C   UNL A   1      37.718  23.536  25.815  1.00  0.00     0.000 A 
ENDBRANCH  14  23
ENDBRANCH   6   8
ENDBRANCH   3   4
ENDBRANCH   2   3
ENDBRANCH   1   2
BRANCH   1  29
ATOM     29  C   UNL A   1      33.600  29.207  26.622  1.00  0.00     0.116 C 
BRANCH  29  30
ATOM     30  N   UNL A   1      33.568  30.396  27.462  1.00  0.00    -0.352 N 
ATOM     31  C   UNL A   1      34.547  30.901  28.293  1.00  0.00     0.251 C 
ATOM     32  H   UNL A   1      32.731  30.913  27.432  1.00  0.00     0.163 HD
ATOM     33  O   UNL A   1      34.328  31.911  28.958  1.00  0.00    -0.269 OA
BRANCH  31  34
ATOM     34  C   UNL A   1      35.834  30.182  28.427  1.00  0.00     0.039 A 
ATOM     35  C   UNL A   1      36.726  30.187  27.350  1.00  0.00     0.014 A 
ATOM     36  C   UNL A   1      36.195  29.580  29.634  1.00  0.00     0.014 A 
ATOM     37  C   UNL A   1      38.025  29.699  27.523  1.00  0.00     0.010 A 
ATOM     38  C   UNL A   1      37.510  29.158  29.825  1.00  0.00     0.010 A 
ATOM     39  C   UNL A   1      38.448  29.241  28.781  1.00  0.00    -0.014 A 
BRANCH  39  40
ATOM     40  C   UNL A   1      39.870  28.892  29.050  1.00  0.00     0.031 A 
ATOM     41  C   UNL A   1      40.819  29.938  29.569  1.00  0.00     0.074 A 
ATOM     42  C   UNL A   1      40.331  27.666  28.725  1.00  0.00     0.049 A 
ATOM     43  N   UNL A   1      42.117  29.873  29.718  1.00  0.00    -0.248 NA
ATOM     44  C   UNL A   1      40.236  31.237  29.939  1.00  0.00     0.031 C 
ATOM     45  C   UNL A   1      39.524  26.576  28.167  1.00  0.00     0.029 A 
ATOM     46  N   UNL A   1      41.596  27.133  28.794  1.00  0.00    -0.354 N 
ATOM     47  C   UNL A   1      42.509  31.127  30.172  1.00  0.00     0.074 A 
ATOM     48  C   UNL A   1      41.317  31.942  30.242  1.00  0.00     0.031 C 
ATOM     49  C   UNL A   1      40.311  25.508  27.953  1.00  0.00     0.029 A 
ATOM     50  C   UNL A   1      41.683  25.844  28.317  1.00  0.00     0.049 A 
ATOM     51  H   UNL A   1      42.369  27.627  29.151  1.00  0.00     0.167 HD
ATOM     52  C   UNL A   1      43.749  31.554  30.513  1.00  0.00     0.037 A 
ATOM     53  C   UNL A   1      42.749  25.030  28.174  1.00  0.00     0.037 A 
ATOM     54  C   UNL A   1      44.926  30.725  30.485  1.00  0.00     0.049 A 
ATOM     55  C   UNL A   1      44.110  25.520  28.588  1.00  0.00     0.074 A 
ATOM     56  C   UNL A   1      46.215  31.052  30.869  1.00  0.00     0.029 A 
ATOM     57  N   UNL A   1      44.958  29.407  30.057  1.00  0.00    -0.354 N 
ATOM     58  N   UNL A   1      44.451  26.694  29.065  1.00  0.00    -0.248 NA
ATOM     59  C   UNL A   1      45.232  24.580  28.450  1.00  0.00     0.031 C 
ATOM     60  C   UNL A   1      47.033  29.939  30.648  1.00  0.00     0.029 A 
ATOM     61  C   UNL A   1      46.246  28.908  30.163  1.00  0.00     0.049 A 
ATOM     62  H   UNL A   1      44.181  28.901  29.727  1.00  0.00     0.167 HD
ATOM     63  C   UNL A   1      45.816  26.618  29.320  1.00  0.00     0.074 A 
ATOM     64  C   UNL A   1      46.240  25.286  28.946  1.00  0.00     0.031 C 
ATOM     65  C   UNL A   1      46.643  27.567  29.821  1.00  0.00     0.037 A 
BRANCH  52  66
ATOM     66  C   UNL A   1      43.901  32.980  30.961  1.00  0.00     0.058 A 
ATOM     67  C   UNL A   1      43.887  33.328  32.320  1.00  0.00     0.135 A 
ATOM     68  C   UNL A   1      44.127  34.002  30.024  1.00  0.00     0.135 A 
ATOM     69  F   UNL A   1      43.660  32.392  33.256  1.00  0.00    -0.206 F 
ATOM     70  C   UNL A   1      44.074  34.642  32.736  1.00  0.00     0.059 A 
ATOM     71  C   UNL A   1      44.341  35.320  30.418  1.00  0.00     0.059 A 
ATOM     72  F   UNL A   1      44.150  33.723  28.712  1.00  0.00    -0.206 F 
ATOM     73  C   UNL A   1      44.303  35.631  31.777  1.00  0.00     0.060 A 
BRANCH  73  74
ATOM     74  S   UNL A   1      44.569  37.327  32.336  1.00  0.00     0.124 S 
ATOM     75  O   UNL A   1      43.397  37.543  33.177  1.00  0.00    -0.237 OA
ATOM     76  O   UNL A   1      45.845  37.228  33.038  1.00  0.00    -0.237 OA
ATOM     77  O   UNL A   1      44.600  38.093  31.093  1.00  0.00    -0.744 OA
ENDBRANCH  73  74
ENDBRANCH  52  66
BRANCH  53  78
ATOM     78  C   UNL A   1      42.579  23.658  27.622  1.00  0.00     0.058 A 
ATOM     79  C   UNL A   1      42.385  22.558  28.472  1.00  0.00     0.135 A 
ATOM     80  C   UNL A   1      42.629  23.414  26.241  1.00  0.00     0.135 A 
ATOM     81  F   UNL A   1      42.336  22.740  29.801  1.00  0.00    -0.206 F 
ATOM     82  C   UNL A   1      42.278  21.263  27.978  1.00  0.00     0.059 A 
ATOM     83  C   UNL A   1      42.499  22.129  25.721  1.00  0.00     0.059 A 
ATOM     84  F   UNL A   1      42.793  24.432  25.383  1.00  0.00    -0.206 F 
ATOM     85  C   UNL A   1      42.341  21.058  26.599  1.00  0.00     0.060 A 
BRANCH  85  86
ATOM     86  S   UNL A   1      42.180  19.375  25.962  1.00  0.00     0.124 S 
ATOM     87  O   UNL A   1      40.740  19.276  25.760  1.00  0.00    -0.237 OA
ATOM     88  O   UNL A   1      42.993  19.424  24.750  1.00  0.00    -0.237 OA
ATOM     89  O   UNL A   1      42.727  18.557  27.040  1.00  0.00    -0.744 OA
ENDBRANCH  85  86
ENDBRANCH  53  78
BRANCH  65  90
ATOM     90  C   UNL A   1      48.078  27.190  30.059  1.00  0.00     0.058 A 
ATOM     91  C   UNL A   1      49.064  27.378  29.080  1.00  0.00     0.135 A 
ATOM     92  C   UNL A   1      48.480  26.711  31.317  1.00  0.00     0.135 A 
ATOM     93  F   UNL A   1      48.729  27.827  27.861  1.00  0.00    -0.206 F 
ATOM     94  C   UNL A   1      50.402  27.098  29.337  1.00  0.00     0.059 A 
ATOM     95  C   UNL A   1      49.815  26.445  31.603  1.00  0.00     0.059 A 
ATOM     96  F   UNL A   1      47.574  26.522  32.290  1.00  0.00    -0.206 F 
ATOM     97  C   UNL A   1      50.768  26.637  30.604  1.00  0.00     0.060 A 
BRANCH  97  98
ATOM     98  S   UNL A   1      52.515  26.336  30.946  1.00  0.00     0.124 S 
ATOM     99  O   UNL A   1      52.459  25.073  31.674  1.00  0.00    -0.237 OA
ATOM    100  O   UNL A   1      53.091  26.270  29.607  1.00  0.00    -0.237 OA
ATOM    101  O   UNL A   1      52.913  27.499  31.735  1.00  0.00    -0.744 OA
ENDBRANCH  97  98
ENDBRANCH  65  90
ENDBRANCH  39  40
ENDBRANCH  31  34
ENDBRANCH  29  30
ENDBRANCH   1  29
TORSDOF 16
ENDMDL
MODEL 3
REMARK VINA RESULT:     -12.1      5.012     10.273
REMARK SMILES O=C(NCCCCNC(=O)c1ccc(-c2c3nc(c(-c4c(F)cc(S(=O)(=O)[O-])cc4F)c4ccc([nH]4)c(-c4c(F)cc(S(=O)(=O)[O-])cc4F)c4nc(c(-c5c(F)cc(S(=O)(=O)[O-])cc5F)c5ccc2[nH]5)C=C4)C=C3)cc1)C1=Cc2c(ccc(Cl)c2-c2ccccc2)O[C@H]1C(F)(F)F
REMARK SMILES IDX 6 1 5 2 4 3 3 4 1 5 2 6 77 8 78 9 93 10 79 11 92 12 80 13
REMARK SMILES IDX 85 14 81 15 83 16 82 17 84 18 94 19 95 20 96 21 97 22 86 23
REMARK SMILES IDX 87 24 91 25 88 26 90 27 89 28 7 29 8 30 9 31 10 33 11 34
REMARK SMILES IDX 12 35 76 36 13 37 75 38 14 39 15 40 16 41 69 42 17 43 74 44
REMARK SMILES IDX 68 45 70 46 18 47 73 48 67 49 66 50 19 52 53 53 32 54 52 55
REMARK SMILES IDX 33 56 36 57 51 58 71 59 34 60 35 61 50 63 72 64 37 65 20 66
REMARK SMILES IDX 21 67 30 68 22 69 23 70 29 71 31 72 24 73 25 74 26 75 27 76
REMARK SMILES IDX 28 77 54 78 55 79 64 80 56 81 57 82 63 83 65 84 58 85 59 86
REMARK SMILES IDX 60 87 61 88 62 89 38 90 39 91 48 92 40 93 41 94 47 95 49 96
REMARK SMILES IDX 42 97 43 98 44 99 45 100 46 101
REMARK H PARENT 3 7 8 32 70 51 36 62
REMARK Flexibility Score: inf
ROOT
ATOM      1  C   UNL A   1      39.500  23.042  26.901  1.00  0.00     0.023 C 
ENDROOT
BRANCH   1   2
ATOM      2  C   UNL A   1      38.501  24.123  26.498  1.00  0.00     0.023 C 
BRANCH   2   3
ATOM      3  C   UNL A   1      37.490  23.740  25.423  1.00  0.00     0.116 C 
BRANCH   3   4
ATOM      4  N   UNL A   1      37.552  22.362  24.972  1.00  0.00    -0.352 N 
ATOM      5  O   UNL A   1      36.796  20.273  24.589  1.00  0.00    -0.270 OA
ATOM      6  C   UNL A   1      36.556  21.424  24.944  1.00  0.00     0.251 C 
ATOM      7  H   UNL A   1      38.430  22.062  24.640  1.00  0.00     0.163 HD
BRANCH   6   8
ATOM      8  C   UNL A   1      35.173  21.775  25.339  1.00  0.00     0.067 C 
ATOM      9  C   UNL A   1      34.314  20.767  25.537  1.00  0.00     0.026 C 
ATOM     10  C   UNL A   1      34.630  23.140  25.055  1.00  0.00     0.314 C 
ATOM     11  C   UNL A   1      33.375  20.691  24.383  1.00  0.00     0.027 A 
ATOM     12  O   UNL A   1      33.515  23.112  24.098  1.00  0.00    -0.475 OA
ATOM     13  C   UNL A   1      33.048  21.877  23.708  1.00  0.00     0.128 A 
ATOM     14  C   UNL A   1      32.990  19.417  23.892  1.00  0.00     0.011 A 
ATOM     15  C   UNL A   1      32.337  21.812  22.516  1.00  0.00     0.049 A 
ATOM     16  C   UNL A   1      32.313  19.375  22.667  1.00  0.00     0.049 A 
ATOM     17  C   UNL A   1      31.992  20.563  21.986  1.00  0.00     0.025 A 
ATOM     18  Cl  UNL A   1      31.907  17.878  21.908  1.00  0.00    -0.084 Cl
BRANCH  10  19
ATOM     19  C   UNL A   1      34.217  23.873  26.351  1.00  0.00     0.429 C 
ATOM     20  F   UNL A   1      32.907  23.718  26.662  1.00  0.00    -0.167 F 
ATOM     21  F   UNL A   1      34.929  23.424  27.413  1.00  0.00    -0.167 F 
ATOM     22  F   UNL A   1      34.432  25.210  26.270  1.00  0.00    -0.167 F 
ENDBRANCH  10  19
BRANCH  14  23
ATOM     23  C   UNL A   1      33.444  18.239  24.659  1.00  0.00    -0.016 A 
ATOM     24  C   UNL A   1      32.543  17.557  25.493  1.00  0.00     0.009 A 
ATOM     25  C   UNL A   1      34.643  17.599  24.303  1.00  0.00     0.009 A 
ATOM     26  C   UNL A   1      32.781  16.235  25.867  1.00  0.00     0.001 A 
ATOM     27  C   UNL A   1      34.878  16.273  24.673  1.00  0.00     0.001 A 
ATOM     28  C   UNL A   1      33.933  15.585  25.432  1.00  0.00     0.000 A 
ENDBRANCH  14  23
ENDBRANCH   6   8
ENDBRANCH   3   4
ENDBRANCH   2   3
ENDBRANCH   1   2
BRANCH   1  29
ATOM     29  C   UNL A   1      40.971  23.449  26.975  1.00  0.00     0.116 C 
BRANCH  29  30
ATOM     30  N   UNL A   1      41.419  24.332  25.908  1.00  0.00    -0.352 N 
ATOM     31  C   UNL A   1      41.832  25.646  25.982  1.00  0.00     0.251 C 
ATOM     32  H   UNL A   1      41.429  23.936  25.007  1.00  0.00     0.163 HD
ATOM     33  O   UNL A   1      42.147  26.251  24.959  1.00  0.00    -0.269 OA
BRANCH  31  34
ATOM     34  C   UNL A   1      41.828  26.341  27.289  1.00  0.00     0.039 A 
ATOM     35  C   UNL A   1      42.825  27.285  27.555  1.00  0.00     0.014 A 
ATOM     36  C   UNL A   1      40.802  26.126  28.211  1.00  0.00     0.014 A 
ATOM     37  C   UNL A   1      42.723  28.100  28.686  1.00  0.00     0.010 A 
ATOM     38  C   UNL A   1      40.665  26.985  29.299  1.00  0.00     0.010 A 
ATOM     39  C   UNL A   1      41.608  28.002  29.533  1.00  0.00    -0.014 A 
BRANCH  39  40
ATOM     40  C   UNL A   1      41.373  28.975  30.635  1.00  0.00     0.031 A 
ATOM     41  C   UNL A   1      42.188  28.899  31.897  1.00  0.00     0.074 A 
ATOM     42  C   UNL A   1      40.355  29.857  30.543  1.00  0.00     0.049 A 
ATOM     43  N   UNL A   1      42.032  29.550  33.020  1.00  0.00    -0.248 NA
ATOM     44  C   UNL A   1      43.306  27.942  31.906  1.00  0.00     0.031 C 
ATOM     45  C   UNL A   1      39.456  30.000  29.393  1.00  0.00     0.029 A 
ATOM     46  N   UNL A   1      39.885  30.786  31.441  1.00  0.00    -0.354 N 
ATOM     47  C   UNL A   1      43.012  29.064  33.879  1.00  0.00     0.074 A 
ATOM     48  C   UNL A   1      43.735  28.040  33.157  1.00  0.00     0.031 C 
ATOM     49  C   UNL A   1      38.554  30.961  29.653  1.00  0.00     0.029 A 
ATOM     50  C   UNL A   1      38.778  31.476  30.999  1.00  0.00     0.049 A 
ATOM     51  H   UNL A   1      40.301  30.943  32.319  1.00  0.00     0.167 HD
ATOM     52  C   UNL A   1      43.291  29.447  35.148  1.00  0.00     0.037 A 
ATOM     53  C   UNL A   1      38.020  32.406  31.614  1.00  0.00     0.037 A 
ATOM     54  C   UNL A   1      42.598  30.498  35.847  1.00  0.00     0.049 A 
ATOM     55  C   UNL A   1      38.371  32.834  33.014  1.00  0.00     0.074 A 
ATOM     56  C   UNL A   1      42.850  30.998  37.113  1.00  0.00     0.029 A 
ATOM     57  N   UNL A   1      41.526  31.215  35.339  1.00  0.00    -0.354 N 
ATOM     58  N   UNL A   1      39.336  32.399  33.789  1.00  0.00    -0.248 NA
ATOM     59  C   UNL A   1      37.538  33.881  33.624  1.00  0.00     0.031 C 
ATOM     60  C   UNL A   1      41.911  31.999  37.382  1.00  0.00     0.029 A 
ATOM     61  C   UNL A   1      41.101  32.150  36.269  1.00  0.00     0.049 A 
ATOM     62  H   UNL A   1      41.126  31.080  34.450  1.00  0.00     0.167 HD
ATOM     63  C   UNL A   1      39.247  33.144  34.959  1.00  0.00     0.074 A 
ATOM     64  C   UNL A   1      38.138  34.059  34.793  1.00  0.00     0.031 C 
ATOM     65  C   UNL A   1      40.018  33.078  36.071  1.00  0.00     0.037 A 
BRANCH  52  66
ATOM     66  C   UNL A   1      44.404  28.738  35.866  1.00  0.00     0.058 A 
ATOM     67  C   UNL A   1      44.161  27.608  36.662  1.00  0.00     0.135 A 
ATOM     68  C   UNL A   1      45.736  29.154  35.708  1.00  0.00     0.135 A 
ATOM     69  F   UNL A   1      42.904  27.177  36.859  1.00  0.00    -0.206 F 
ATOM     70  C   UNL A   1      45.197  26.925  37.291  1.00  0.00     0.059 A 
ATOM     71  C   UNL A   1      46.791  28.471  36.306  1.00  0.00     0.059 A 
ATOM     72  F   UNL A   1      46.023  30.228  34.957  1.00  0.00    -0.206 F 
ATOM     73  C   UNL A   1      46.510  27.363  37.104  1.00  0.00     0.060 A 
BRANCH  73  74
ATOM     74  S   UNL A   1      47.844  26.449  37.905  1.00  0.00     0.124 S 
ATOM     75  O   UNL A   1      47.145  25.842  39.033  1.00  0.00    -0.237 OA
ATOM     76  O   UNL A   1      48.270  25.531  36.854  1.00  0.00    -0.237 OA
ATOM     77  O   UNL A   1      48.808  27.490  38.251  1.00  0.00    -0.744 OA
ENDBRANCH  73  74
ENDBRANCH  52  66
BRANCH  53  78
ATOM     78  C   UNL A   1      36.855  33.011  30.912  1.00  0.00     0.058 A 
ATOM     79  C   UNL A   1      37.038  33.983  29.916  1.00  0.00     0.135 A 
ATOM     80  C   UNL A   1      35.538  32.649  31.235  1.00  0.00     0.135 A 
ATOM     81  F   UNL A   1      38.279  34.366  29.575  1.00  0.00    -0.206 F 
ATOM     82  C   UNL A   1      35.960  34.597  29.288  1.00  0.00     0.059 A 
ATOM     83  C   UNL A   1      34.443  33.232  30.603  1.00  0.00     0.059 A 
ATOM     84  F   UNL A   1      35.307  31.712  32.167  1.00  0.00    -0.206 F 
ATOM     85  C   UNL A   1      34.665  34.218  29.642  1.00  0.00     0.060 A 
BRANCH  85  86
ATOM     86  S   UNL A   1      33.269  35.005  28.807  1.00  0.00     0.124 S 
ATOM     87  O   UNL A   1      33.933  36.082  28.082  1.00  0.00    -0.237 OA
ATOM     88  O   UNL A   1      32.743  33.915  27.991  1.00  0.00    -0.237 OA
ATOM     89  O   UNL A   1      32.411  35.419  29.912  1.00  0.00    -0.744 OA
ENDBRANCH  85  86
ENDBRANCH  53  78
BRANCH  65  90
ATOM     90  C   UNL A   1      39.740  34.059  37.175  1.00  0.00     0.058 A 
ATOM     91  C   UNL A   1      38.981  33.710  38.301  1.00  0.00     0.135 A 
ATOM     92  C   UNL A   1      40.315  35.340  37.139  1.00  0.00     0.135 A 
ATOM     93  F   UNL A   1      38.406  32.499  38.379  1.00  0.00    -0.206 F 
ATOM     94  C   UNL A   1      38.794  34.600  39.353  1.00  0.00     0.059 A 
ATOM     95  C   UNL A   1      40.159  36.239  38.189  1.00  0.00     0.059 A 
ATOM     96  F   UNL A   1      41.057  35.719  36.086  1.00  0.00    -0.206 F 
ATOM     97  C   UNL A   1      39.392  35.861  39.290  1.00  0.00     0.060 A 
BRANCH  97  98
ATOM     98  S   UNL A   1      39.195  36.986  40.688  1.00  0.00     0.124 S 
ATOM     99  O   UNL A   1      38.574  36.115  41.681  1.00  0.00    -0.237 OA
ATOM    100  O   UNL A   1      40.571  37.385  40.968  1.00  0.00    -0.237 OA
ATOM    101  O   UNL A   1      38.339  38.043  40.157  1.00  0.00    -0.744 OA
ENDBRANCH  97  98
ENDBRANCH  65  90
ENDBRANCH  39  40
ENDBRANCH  31  34
ENDBRANCH  29  30
ENDBRANCH   1  29
TORSDOF 16
ENDMDL
