MODEL 1
REMARK VINA RESULT:     -13.2      0.000      0.000
REMARK SMILES O=C1OC(c2ccc(Cl)cc2)=N/C1=C/Nc1ccc(O)c(C(=O)NCCCCNC(=O)c2ccc(-c3c4nc(c(-c5c(F)cc(S(=O)(=O)[O-])cc5F)c5ccc([nH]5)c(-c5c(F)cc(S(=O)(=O)[O-])cc5F)c5nc(c(-c6c(F)cc(S(=O)(=O)[O-])cc6F)c6ccc3[nH]6)C=C5)C=C4)cc2)c1
REMARK SMILES IDX 26 1 25 2 24 3 22 4 23 5 21 7 16 8 17 9 98 10 18 11 19 12
REMARK SMILES IDX 15 13 14 15 1 16 2 17 3 18 13 19 4 20 12 21 5 22 6 23 11 24
REMARK SMILES IDX 7 25 10 26 8 27 9 28 20 29 27 31 28 32 29 33 30 34 31 36
REMARK SMILES IDX 32 37 33 38 97 39 34 40 96 41 35 42 36 43 37 44 90 45 38 46
REMARK SMILES IDX 95 47 89 48 91 49 39 50 94 51 88 52 87 53 40 55 74 56 53 57
REMARK SMILES IDX 73 58 54 59 57 60 72 61 92 62 55 63 56 64 71 66 93 67 58 68
REMARK SMILES IDX 41 69 42 70 51 71 43 72 44 73 50 74 52 75 45 76 46 77 47 78
REMARK SMILES IDX 48 79 49 80 75 81 76 82 85 83 77 84 78 85 84 86 86 87 79 88
REMARK SMILES IDX 80 89 81 90 82 91 83 92 59 93 60 94 69 95 61 96 62 97 68 98
REMARK SMILES IDX 70 99 63 100 64 101 65 102 66 103 67 104
REMARK H PARENT 24 6 15 14 20 30 29 35 91 54 57 65
REMARK Flexibility Score: inf
ROOT
ATOM      1  C   UNL A   1      38.480  24.078  26.734  1.00  0.00     0.023 C 
ENDROOT
BRANCH   1   2
ATOM      2  C   UNL A   1      37.105  23.708  26.169  1.00  0.00     0.116 C 
BRANCH   2   3
ATOM      3  N   UNL A   1      37.178  23.623  24.730  1.00  0.00    -0.352 N 
ATOM      4  C   UNL A   1      36.465  22.894  23.816  1.00  0.00     0.255 C 
ATOM      5  O   UNL A   1      36.871  22.959  22.650  1.00  0.00    -0.269 OA
ATOM      6  H   UNL A   1      37.871  24.196  24.331  1.00  0.00     0.163 HD
BRANCH   4   7
ATOM      7  C   UNL A   1      35.206  22.127  24.090  1.00  0.00     0.083 A 
ATOM      8  C   UNL A   1      32.801  22.091  23.556  1.00  0.00     0.039 A 
ATOM      9  C   UNL A   1      32.627  21.040  24.454  1.00  0.00     0.030 A 
ATOM     10  C   UNL A   1      34.079  22.636  23.408  1.00  0.00     0.043 A 
ATOM     11  C   UNL A   1      33.723  20.480  25.100  1.00  0.00     0.049 A 
ATOM     12  C   UNL A   1      35.007  20.998  24.893  1.00  0.00     0.128 A 
BRANCH   8  13
ATOM     13  N   UNL A   1      31.731  22.653  22.850  1.00  0.00    -0.360 N 
ATOM     14  H   UNL A   1      31.579  22.320  21.936  1.00  0.00     0.166 HD
BRANCH  13  15
ATOM     15  C   UNL A   1      30.879  23.620  23.305  1.00  0.00     0.119 C 
ATOM     16  O   UNL A   1      32.566  25.114  21.288  1.00  0.00    -0.244 OA
ATOM     17  C   UNL A   1      31.675  25.575  21.968  1.00  0.00     0.365 C 
ATOM     18  O   UNL A   1      31.193  26.852  21.954  1.00  0.00    -0.402 OA
ATOM     19  C   UNL A   1      30.828  24.918  23.000  1.00  0.00     0.168 C 
ATOM     20  C   UNL A   1      30.233  26.895  22.906  1.00  0.00     0.231 C 
ATOM     21  N   UNL A   1      29.965  25.816  23.563  1.00  0.00    -0.204 NA
BRANCH  20  22
ATOM     22  C   UNL A   1      29.639  28.205  23.129  1.00  0.00     0.037 A 
ATOM     23  C   UNL A   1      30.405  29.255  23.643  1.00  0.00     0.015 A 
ATOM     24  C   UNL A   1      28.300  28.397  22.775  1.00  0.00     0.015 A 
ATOM     25  C   UNL A   1      29.819  30.512  23.798  1.00  0.00     0.021 A 
ATOM     26  C   UNL A   1      27.715  29.650  22.950  1.00  0.00     0.021 A 
ATOM     27  C   UNL A   1      28.478  30.704  23.456  1.00  0.00     0.041 A 
ATOM     28  Cl  UNL A   1      27.760  32.254  23.652  1.00  0.00    -0.084 Cl
ENDBRANCH  20  22
ENDBRANCH  13  15
ENDBRANCH   8  13
BRANCH  12  29
ATOM     29  O   UNL A   1      36.028  20.297  25.459  1.00  0.00    -0.507 OA
ATOM     30  H   UNL A   1      35.912  19.892  26.295  1.00  0.00     0.293 HD
ENDBRANCH  12  29
ENDBRANCH   4   7
ENDBRANCH   2   3
ENDBRANCH   1   2
BRANCH   1  31
ATOM     31  C   UNL A   1      39.541  22.993  26.561  1.00  0.00     0.023 C 
BRANCH  31  32
ATOM     32  C   UNL A   1      40.959  23.450  26.867  1.00  0.00     0.116 C 
BRANCH  32  33
ATOM     33  N   UNL A   1      41.525  24.297  25.826  1.00  0.00    -0.352 N 
ATOM     34  C   UNL A   1      41.846  25.629  25.888  1.00  0.00     0.251 C 
ATOM     35  H   UNL A   1      41.700  23.855  24.964  1.00  0.00     0.163 HD
ATOM     36  O   UNL A   1      42.201  26.226  24.877  1.00  0.00    -0.269 OA
BRANCH  34  37
ATOM     37  C   UNL A   1      41.713  26.340  27.175  1.00  0.00     0.039 A 
ATOM     38  C   UNL A   1      42.566  27.412  27.439  1.00  0.00     0.014 A 
ATOM     39  C   UNL A   1      40.721  25.980  28.093  1.00  0.00     0.014 A 
ATOM     40  C   UNL A   1      42.382  28.161  28.599  1.00  0.00     0.010 A 
ATOM     41  C   UNL A   1      40.484  26.783  29.204  1.00  0.00     0.010 A 
ATOM     42  C   UNL A   1      41.315  27.879  29.472  1.00  0.00    -0.014 A 
BRANCH  42  43
ATOM     43  C   UNL A   1      41.059  28.746  30.649  1.00  0.00     0.031 A 
ATOM     44  C   UNL A   1      41.896  28.617  31.892  1.00  0.00     0.074 A 
ATOM     45  C   UNL A   1      40.050  29.637  30.598  1.00  0.00     0.049 A 
ATOM     46  N   UNL A   1      41.846  29.324  32.993  1.00  0.00    -0.248 NA
ATOM     47  C   UNL A   1      42.902  27.544  31.916  1.00  0.00     0.031 C 
ATOM     48  C   UNL A   1      39.122  29.801  29.474  1.00  0.00     0.029 A 
ATOM     49  N   UNL A   1      39.636  30.580  31.505  1.00  0.00    -0.354 N 
ATOM     50  C   UNL A   1      42.811  28.783  33.834  1.00  0.00     0.074 A 
ATOM     51  C   UNL A   1      43.383  27.647  33.145  1.00  0.00     0.031 C 
ATOM     52  C   UNL A   1      38.284  30.814  29.738  1.00  0.00     0.029 A 
ATOM     53  C   UNL A   1      38.584  31.348  31.063  1.00  0.00     0.049 A 
ATOM     54  H   UNL A   1      40.053  30.695  32.390  1.00  0.00     0.167 HD
ATOM     55  C   UNL A   1      43.204  29.212  35.057  1.00  0.00     0.037 A 
ATOM     56  C   UNL A   1      37.938  32.370  31.656  1.00  0.00     0.037 A 
ATOM     57  C   UNL A   1      42.632  30.350  35.732  1.00  0.00     0.049 A 
ATOM     58  C   UNL A   1      38.395  32.829  33.013  1.00  0.00     0.074 A 
ATOM     59  C   UNL A   1      42.996  30.902  36.947  1.00  0.00     0.029 A 
ATOM     60  N   UNL A   1      41.568  31.103  35.255  1.00  0.00    -0.354 N 
ATOM     61  N   UNL A   1      39.371  32.362  33.758  1.00  0.00    -0.248 NA
ATOM     62  C   UNL A   1      37.674  33.962  33.606  1.00  0.00     0.031 C 
ATOM     63  C   UNL A   1      42.115  31.952  37.233  1.00  0.00     0.029 A 
ATOM     64  C   UNL A   1      41.242  32.096  36.166  1.00  0.00     0.049 A 
ATOM     65  H   UNL A   1      41.110  30.954  34.396  1.00  0.00     0.167 HD
ATOM     66  C   UNL A   1      39.390  33.157  34.898  1.00  0.00     0.074 A 
ATOM     67  C   UNL A   1      38.351  34.153  34.728  1.00  0.00     0.031 C 
ATOM     68  C   UNL A   1      40.194  33.071  35.990  1.00  0.00     0.037 A 
BRANCH  55  69
ATOM     69  C   UNL A   1      44.307  28.450  35.746  1.00  0.00     0.058 A 
ATOM     70  C   UNL A   1      44.035  27.386  36.622  1.00  0.00     0.135 A 
ATOM     71  C   UNL A   1      45.654  28.762  35.498  1.00  0.00     0.135 A 
ATOM     72  F   UNL A   1      42.766  27.054  36.910  1.00  0.00    -0.206 F 
ATOM     73  C   UNL A   1      45.056  26.680  37.250  1.00  0.00     0.059 A 
ATOM     74  C   UNL A   1      46.692  28.046  36.090  1.00  0.00     0.059 A 
ATOM     75  F   UNL A   1      45.974  29.769  34.671  1.00  0.00    -0.206 F 
ATOM     76  C   UNL A   1      46.382  27.016  36.976  1.00  0.00     0.060 A 
BRANCH  76  77
ATOM     77  S   UNL A   1      47.693  26.081  37.792  1.00  0.00     0.124 S 
ATOM     78  O   UNL A   1      48.773  27.063  37.828  1.00  0.00    -0.237 OA
ATOM     79  O   UNL A   1      47.088  25.759  39.081  1.00  0.00    -0.237 OA
ATOM     80  O   UNL A   1      47.908  24.945  36.902  1.00  0.00    -0.744 OA
ENDBRANCH  76  77
ENDBRANCH  55  69
BRANCH  56  81
ATOM     81  C   UNL A   1      36.809  33.043  30.956  1.00  0.00     0.058 A 
ATOM     82  C   UNL A   1      37.039  33.931  29.895  1.00  0.00     0.135 A 
ATOM     83  C   UNL A   1      35.477  32.802  31.329  1.00  0.00     0.135 A 
ATOM     84  F   UNL A   1      38.293  34.199  29.503  1.00  0.00    -0.206 F 
ATOM     85  C   UNL A   1      35.992  34.571  29.240  1.00  0.00     0.059 A 
ATOM     86  C   UNL A   1      34.412  33.406  30.670  1.00  0.00     0.059 A 
ATOM     87  F   UNL A   1      35.202  31.948  32.326  1.00  0.00    -0.206 F 
ATOM     88  C   UNL A   1      34.679  34.299  29.633  1.00  0.00     0.060 A 
BRANCH  88  89
ATOM     89  S   UNL A   1      33.326  35.100  28.746  1.00  0.00     0.124 S 
ATOM     90  O   UNL A   1      32.792  33.991  27.962  1.00  0.00    -0.237 OA
ATOM     91  O   UNL A   1      32.483  35.573  29.839  1.00  0.00    -0.237 OA
ATOM     92  O   UNL A   1      33.999  36.147  27.983  1.00  0.00    -0.744 OA
ENDBRANCH  88  89
ENDBRANCH  56  81
BRANCH  68  93
ATOM     93  C   UNL A   1      39.985  34.095  37.075  1.00  0.00     0.058 A 
ATOM     94  C   UNL A   1      39.201  33.824  38.208  1.00  0.00     0.135 A 
ATOM     95  C   UNL A   1      40.582  35.363  36.983  1.00  0.00     0.135 A 
ATOM     96  F   UNL A   1      38.604  32.629  38.347  1.00  0.00    -0.206 F 
ATOM     97  C   UNL A   1      38.974  34.789  39.184  1.00  0.00     0.059 A 
ATOM     98  C   UNL A   1      40.400  36.331  37.965  1.00  0.00     0.059 A 
ATOM     99  F   UNL A   1      41.356  35.672  35.929  1.00  0.00    -0.206 F 
ATOM    100  C   UNL A   1      39.574  36.041  39.050  1.00  0.00     0.060 A 
BRANCH 100 101
ATOM    101  S   UNL A   1      39.263  37.288  40.318  1.00  0.00     0.124 S 
ATOM    102  O   UNL A   1      40.620  37.643  40.719  1.00  0.00    -0.237 OA
ATOM    103  O   UNL A   1      38.533  38.312  39.576  1.00  0.00    -0.237 OA
ATOM    104  O   UNL A   1      38.480  36.568  41.318  1.00  0.00    -0.744 OA
ENDBRANCH 100 101
ENDBRANCH  68  93
ENDBRANCH  42  43
ENDBRANCH  34  37
ENDBRANCH  32  33
ENDBRANCH  31  32
ENDBRANCH   1  31
TORSDOF 18
ENDMDL
MODEL 2
REMARK VINA RESULT:     -13.1      5.013      6.401
REMARK SMILES O=C1OC(c2ccc(Cl)cc2)=N/C1=C/Nc1ccc(O)c(C(=O)NCCCCNC(=O)c2ccc(-c3c4nc(c(-c5c(F)cc(S(=O)(=O)[O-])cc5F)c5ccc([nH]5)c(-c5c(F)cc(S(=O)(=O)[O-])cc5F)c5nc(c(-c6c(F)cc(S(=O)(=O)[O-])cc6F)c6ccc3[nH]6)C=C5)C=C4)cc2)c1
REMARK SMILES IDX 26 1 25 2 24 3 22 4 23 5 21 7 16 8 17 9 98 10 18 11 19 12
REMARK SMILES IDX 15 13 14 15 1 16 2 17 3 18 13 19 4 20 12 21 5 22 6 23 11 24
REMARK SMILES IDX 7 25 10 26 8 27 9 28 20 29 27 31 28 32 29 33 30 34 31 36
REMARK SMILES IDX 32 37 33 38 97 39 34 40 96 41 35 42 36 43 37 44 90 45 38 46
REMARK SMILES IDX 95 47 89 48 91 49 39 50 94 51 88 52 87 53 40 55 74 56 53 57
REMARK SMILES IDX 73 58 54 59 57 60 72 61 92 62 55 63 56 64 71 66 93 67 58 68
REMARK SMILES IDX 41 69 42 70 51 71 43 72 44 73 50 74 52 75 45 76 46 77 47 78
REMARK SMILES IDX 48 79 49 80 75 81 76 82 85 83 77 84 78 85 84 86 86 87 79 88
REMARK SMILES IDX 80 89 81 90 82 91 83 92 59 93 60 94 69 95 61 96 62 97 68 98
REMARK SMILES IDX 70 99 63 100 64 101 65 102 66 103 67 104
REMARK H PARENT 24 6 15 14 20 30 29 35 91 54 57 65
REMARK Flexibility Score: inf
ROOT
ATOM      1  C   UNL A   1      34.842  21.818  26.484  1.00  0.00     0.023 C 
ENDROOT
BRANCH   1   2
ATOM      2  C   UNL A   1      33.369  21.405  26.562  1.00  0.00     0.116 C 
BRANCH   2   3
ATOM      3  N   UNL A   1      33.264  19.966  26.513  1.00  0.00    -0.352 N 
ATOM      4  C   UNL A   1      32.829  19.109  25.538  1.00  0.00     0.255 C 
ATOM      5  O   UNL A   1      32.749  17.921  25.869  1.00  0.00    -0.269 OA
ATOM      6  H   UNL A   1      33.561  19.516  27.337  1.00  0.00     0.163 HD
BRANCH   4   7
ATOM      7  C   UNL A   1      32.547  19.471  24.110  1.00  0.00     0.083 A 
ATOM      8  C   UNL A   1      32.106  21.407  22.650  1.00  0.00     0.039 A 
ATOM      9  C   UNL A   1      31.879  20.539  21.584  1.00  0.00     0.030 A 
ATOM     10  C   UNL A   1      32.410  20.861  23.901  1.00  0.00     0.043 A 
ATOM     11  C   UNL A   1      32.059  19.170  21.743  1.00  0.00     0.049 A 
ATOM     12  C   UNL A   1      32.424  18.644  22.987  1.00  0.00     0.128 A 
BRANCH   8  13
ATOM     13  N   UNL A   1      31.981  22.795  22.522  1.00  0.00    -0.360 N 
ATOM     14  H   UNL A   1      31.983  23.158  21.607  1.00  0.00     0.166 HD
BRANCH  13  15
ATOM     15  C   UNL A   1      31.858  23.695  23.543  1.00  0.00     0.119 C 
ATOM     16  O   UNL A   1      33.669  25.138  21.598  1.00  0.00    -0.244 OA
ATOM     17  C   UNL A   1      33.292  25.548  22.675  1.00  0.00     0.365 C 
ATOM     18  O   UNL A   1      33.551  26.763  23.241  1.00  0.00    -0.402 OA
ATOM     19  C   UNL A   1      32.435  24.889  23.697  1.00  0.00     0.168 C 
ATOM     20  C   UNL A   1      32.951  26.742  24.452  1.00  0.00     0.231 C 
ATOM     21  N   UNL A   1      32.287  25.689  24.796  1.00  0.00    -0.204 NA
BRANCH  20  22
ATOM     22  C   UNL A   1      33.178  27.919  25.278  1.00  0.00     0.037 A 
ATOM     23  C   UNL A   1      32.386  29.059  25.125  1.00  0.00     0.015 A 
ATOM     24  C   UNL A   1      34.177  27.862  26.255  1.00  0.00     0.015 A 
ATOM     25  C   UNL A   1      32.597  30.152  25.966  1.00  0.00     0.021 A 
ATOM     26  C   UNL A   1      34.396  28.965  27.080  1.00  0.00     0.021 A 
ATOM     27  C   UNL A   1      33.601  30.103  26.936  1.00  0.00     0.041 A 
ATOM     28  Cl  UNL A   1      33.859  31.455  27.967  1.00  0.00    -0.084 Cl
ENDBRANCH  20  22
ENDBRANCH  13  15
ENDBRANCH   8  13
BRANCH  12  29
ATOM     29  O   UNL A   1      32.712  17.313  23.008  1.00  0.00    -0.507 OA
ATOM     30  H   UNL A   1      33.201  16.928  22.309  1.00  0.00     0.293 HD
ENDBRANCH  12  29
ENDBRANCH   4   7
ENDBRANCH   2   3
ENDBRANCH   1   2
BRANCH   1  31
ATOM     31  C   UNL A   1      35.061  23.299  26.180  1.00  0.00     0.023 C 
BRANCH  31  32
ATOM     32  C   UNL A   1      36.455  23.633  25.667  1.00  0.00     0.116 C 
BRANCH  32  33
ATOM     33  N   UNL A   1      37.424  22.574  25.914  1.00  0.00    -0.352 N 
ATOM     34  C   UNL A   1      38.705  22.683  26.392  1.00  0.00     0.251 C 
ATOM     35  H   UNL A   1      37.119  21.660  25.713  1.00  0.00     0.163 HD
ATOM     36  O   UNL A   1      39.437  21.699  26.426  1.00  0.00    -0.269 OA
BRANCH  34  37
ATOM     37  C   UNL A   1      39.202  24.006  26.819  1.00  0.00     0.039 A 
ATOM     38  C   UNL A   1      39.082  24.365  28.161  1.00  0.00     0.014 A 
ATOM     39  C   UNL A   1      39.825  24.865  25.908  1.00  0.00     0.014 A 
ATOM     40  C   UNL A   1      39.644  25.563  28.601  1.00  0.00     0.010 A 
ATOM     41  C   UNL A   1      40.461  26.014  26.365  1.00  0.00     0.010 A 
ATOM     42  C   UNL A   1      40.373  26.378  27.716  1.00  0.00    -0.014 A 
BRANCH  42  43
ATOM     43  C   UNL A   1      41.059  27.597  28.212  1.00  0.00     0.031 A 
ATOM     44  C   UNL A   1      42.555  27.723  28.125  1.00  0.00     0.074 A 
ATOM     45  C   UNL A   1      40.325  28.583  28.763  1.00  0.00     0.049 A 
ATOM     46  N   UNL A   1      43.316  28.734  28.462  1.00  0.00    -0.248 NA
ATOM     47  C   UNL A   1      43.299  26.559  27.618  1.00  0.00     0.031 C 
ATOM     48  C   UNL A   1      38.874  28.542  28.970  1.00  0.00     0.029 A 
ATOM     49  N   UNL A   1      40.690  29.815  29.244  1.00  0.00    -0.354 N 
ATOM     50  C   UNL A   1      44.621  28.328  28.206  1.00  0.00     0.074 A 
ATOM     51  C   UNL A   1      44.554  26.957  27.752  1.00  0.00     0.031 C 
ATOM     52  C   UNL A   1      38.468  29.711  29.488  1.00  0.00     0.029 A 
ATOM     53  C   UNL A   1      39.630  30.571  29.688  1.00  0.00     0.049 A 
ATOM     54  H   UNL A   1      41.623  30.128  29.269  1.00  0.00     0.167 HD
ATOM     55  C   UNL A   1      45.766  29.044  28.313  1.00  0.00     0.037 A 
ATOM     56  C   UNL A   1      39.598  31.818  30.193  1.00  0.00     0.037 A 
ATOM     57  C   UNL A   1      45.818  30.413  28.760  1.00  0.00     0.049 A 
ATOM     58  C   UNL A   1      40.883  32.594  30.299  1.00  0.00     0.074 A 
ATOM     59  C   UNL A   1      46.919  31.247  28.850  1.00  0.00     0.029 A 
ATOM     60  N   UNL A   1      44.726  31.146  29.203  1.00  0.00    -0.354 N 
ATOM     61  N   UNL A   1      42.099  32.226  29.968  1.00  0.00    -0.248 NA
ATOM     62  C   UNL A   1      40.790  33.958  30.835  1.00  0.00     0.031 C 
ATOM     63  C   UNL A   1      46.503  32.464  29.403  1.00  0.00     0.029 A 
ATOM     64  C   UNL A   1      45.131  32.413  29.596  1.00  0.00     0.049 A 
ATOM     65  H   UNL A   1      43.799  30.817  29.233  1.00  0.00     0.167 HD
ATOM     66  C   UNL A   1      42.913  33.320  30.239  1.00  0.00     0.074 A 
ATOM     67  C   UNL A   1      42.044  34.372  30.729  1.00  0.00     0.031 C 
ATOM     68  C   UNL A   1      44.257  33.445  30.097  1.00  0.00     0.037 A 
BRANCH  55  69
ATOM     69  C   UNL A   1      47.055  28.361  27.938  1.00  0.00     0.058 A 
ATOM     70  C   UNL A   1      47.823  27.661  28.884  1.00  0.00     0.135 A 
ATOM     71  C   UNL A   1      47.512  28.375  26.610  1.00  0.00     0.135 A 
ATOM     72  F   UNL A   1      47.444  27.627  30.172  1.00  0.00    -0.206 F 
ATOM     73  C   UNL A   1      49.010  27.025  28.533  1.00  0.00     0.059 A 
ATOM     74  C   UNL A   1      48.680  27.717  26.230  1.00  0.00     0.059 A 
ATOM     75  F   UNL A   1      46.822  29.030  25.664  1.00  0.00    -0.206 F 
ATOM     76  C   UNL A   1      49.429  27.057  27.203  1.00  0.00     0.060 A 
BRANCH  76  77
ATOM     77  S   UNL A   1      50.966  26.217  26.764  1.00  0.00     0.124 S 
ATOM     78  O   UNL A   1      50.725  24.876  27.287  1.00  0.00    -0.237 OA
ATOM     79  O   UNL A   1      50.979  26.336  25.310  1.00  0.00    -0.237 OA
ATOM     80  O   UNL A   1      51.988  26.989  27.463  1.00  0.00    -0.744 OA
ENDBRANCH  76  77
ENDBRANCH  55  69
BRANCH  56  81
ATOM     81  C   UNL A   1      38.301  32.419  30.611  1.00  0.00     0.058 A 
ATOM     82  C   UNL A   1      37.801  32.237  31.909  1.00  0.00     0.135 A 
ATOM     83  C   UNL A   1      37.541  33.197  29.723  1.00  0.00     0.135 A 
ATOM     84  F   UNL A   1      38.487  31.498  32.795  1.00  0.00    -0.206 F 
ATOM     85  C   UNL A   1      36.587  32.787  32.308  1.00  0.00     0.059 A 
ATOM     86  C   UNL A   1      36.340  33.783  30.106  1.00  0.00     0.059 A 
ATOM     87  F   UNL A   1      37.982  33.417  28.475  1.00  0.00    -0.206 F 
ATOM     88  C   UNL A   1      35.865  33.563  31.398  1.00  0.00     0.060 A 
BRANCH  88  89
ATOM     89  S   UNL A   1      34.313  34.311  31.941  1.00  0.00     0.124 S 
ATOM     90  O   UNL A   1      33.780  33.278  32.821  1.00  0.00    -0.237 OA
ATOM     91  O   UNL A   1      34.776  35.531  32.595  1.00  0.00    -0.237 OA
ATOM     92  O   UNL A   1      33.585  34.515  30.692  1.00  0.00    -0.744 OA
ENDBRANCH  88  89
ENDBRANCH  56  81
BRANCH  68  93
ATOM     93  C   UNL A   1      44.863  34.774  30.464  1.00  0.00     0.058 A 
ATOM     94  C   UNL A   1      45.341  35.038  31.758  1.00  0.00     0.135 A 
ATOM     95  C   UNL A   1      44.973  35.796  29.507  1.00  0.00     0.135 A 
ATOM     96  F   UNL A   1      45.259  34.099  32.714  1.00  0.00    -0.206 F 
ATOM     97  C   UNL A   1      45.856  36.283  32.103  1.00  0.00     0.059 A 
ATOM     98  C   UNL A   1      45.520  37.036  29.820  1.00  0.00     0.059 A 
ATOM     99  F   UNL A   1      44.548  35.594  28.249  1.00  0.00    -0.206 F 
ATOM    100  C   UNL A   1      45.937  37.277  31.128  1.00  0.00     0.060 A 
BRANCH 100 101
ATOM    101  S   UNL A   1      46.599  38.892  31.591  1.00  0.00     0.124 S 
ATOM    102  O   UNL A   1      45.506  39.439  32.387  1.00  0.00    -0.237 OA
ATOM    103  O   UNL A   1      47.805  38.534  32.331  1.00  0.00    -0.237 OA
ATOM    104  O   UNL A   1      46.829  39.546  30.307  1.00  0.00    -0.744 OA
ENDBRANCH 100 101
ENDBRANCH  68  93
ENDBRANCH  42  43
ENDBRANCH  34  37
ENDBRANCH  32  33
ENDBRANCH  31  32
ENDBRANCH   1  31
TORSDOF 18
ENDMDL
MODEL 3
REMARK VINA RESULT:     -12.9      1.775      3.543
REMARK SMILES O=C1OC(c2ccc(Cl)cc2)=N/C1=C/Nc1ccc(O)c(C(=O)NCCCCNC(=O)c2ccc(-c3c4nc(c(-c5c(F)cc(S(=O)(=O)[O-])cc5F)c5ccc([nH]5)c(-c5c(F)cc(S(=O)(=O)[O-])cc5F)c5nc(c(-c6c(F)cc(S(=O)(=O)[O-])cc6F)c6ccc3[nH]6)C=C5)C=C4)cc2)c1
REMARK SMILES IDX 26 1 25 2 24 3 22 4 23 5 21 7 16 8 17 9 98 10 18 11 19 12
REMARK SMILES IDX 15 13 14 15 1 16 2 17 3 18 13 19 4 20 12 21 5 22 6 23 11 24
REMARK SMILES IDX 7 25 10 26 8 27 9 28 20 29 27 31 28 32 29 33 30 34 31 36
REMARK SMILES IDX 32 37 33 38 97 39 34 40 96 41 35 42 36 43 37 44 90 45 38 46
REMARK SMILES IDX 95 47 89 48 91 49 39 50 94 51 88 52 87 53 40 55 74 56 53 57
REMARK SMILES IDX 73 58 54 59 57 60 72 61 92 62 55 63 56 64 71 66 93 67 58 68
REMARK SMILES IDX 41 69 42 70 51 71 43 72 44 73 50 74 52 75 45 76 46 77 47 78
REMARK SMILES IDX 48 79 49 80 75 81 76 82 85 83 77 84 78 85 84 86 86 87 79 88
REMARK SMILES IDX 80 89 81 90 82 91 83 92 59 93 60 94 69 95 61 96 62 97 68 98
REMARK SMILES IDX 70 99 63 100 64 101 65 102 66 103 67 104
REMARK H PARENT 24 6 15 14 20 30 29 35 91 54 57 65
REMARK Flexibility Score: inf
ROOT
ATOM      1  C   UNL A   1      45.199  22.219  25.957  1.00  0.00     0.023 C 
ENDROOT
BRANCH   1   2
ATOM      2  C   UNL A   1      44.462  21.744  24.701  1.00  0.00     0.116 C 
BRANCH   2   3
ATOM      3  N   UNL A   1      43.833  20.471  24.959  1.00  0.00    -0.352 N 
ATOM      4  C   UNL A   1      42.786  20.110  25.764  1.00  0.00     0.255 C 
ATOM      5  O   UNL A   1      42.577  18.895  25.853  1.00  0.00    -0.269 OA
ATOM      6  H   UNL A   1      44.233  19.720  24.463  1.00  0.00     0.163 HD
BRANCH   4   7
ATOM      7  C   UNL A   1      41.836  21.048  26.446  1.00  0.00     0.083 A 
ATOM      8  C   UNL A   1      39.627  22.108  26.177  1.00  0.00     0.039 A 
ATOM      9  C   UNL A   1      39.852  22.848  27.336  1.00  0.00     0.030 A 
ATOM     10  C   UNL A   1      40.631  21.241  25.735  1.00  0.00     0.043 A 
ATOM     11  C   UNL A   1      41.002  22.642  28.088  1.00  0.00     0.049 A 
ATOM     12  C   UNL A   1      41.970  21.724  27.665  1.00  0.00     0.128 A 
BRANCH   8  13
ATOM     13  N   UNL A   1      38.462  22.250  25.415  1.00  0.00    -0.360 N 
ATOM     14  H   UNL A   1      38.423  21.752  24.567  1.00  0.00     0.166 HD
BRANCH  13  15
ATOM     15  C   UNL A   1      37.373  23.013  25.734  1.00  0.00     0.119 C 
ATOM     16  O   UNL A   1      37.032  22.574  22.762  1.00  0.00    -0.244 OA
ATOM     17  C   UNL A   1      36.304  23.219  23.486  1.00  0.00     0.365 C 
ATOM     18  O   UNL A   1      35.144  23.854  23.148  1.00  0.00    -0.402 OA
ATOM     19  C   UNL A   1      36.422  23.508  24.940  1.00  0.00     0.168 C 
ATOM     20  C   UNL A   1      34.714  24.462  24.276  1.00  0.00     0.231 C 
ATOM     21  N   UNL A   1      35.402  24.316  25.359  1.00  0.00    -0.204 NA
BRANCH  20  22
ATOM     22  C   UNL A   1      33.523  25.286  24.122  1.00  0.00     0.037 A 
ATOM     23  C   UNL A   1      32.962  25.494  22.860  1.00  0.00     0.015 A 
ATOM     24  C   UNL A   1      32.932  25.822  25.270  1.00  0.00     0.015 A 
ATOM     25  C   UNL A   1      31.791  26.247  22.751  1.00  0.00     0.021 A 
ATOM     26  C   UNL A   1      31.774  26.589  25.153  1.00  0.00     0.021 A 
ATOM     27  C   UNL A   1      31.205  26.794  23.895  1.00  0.00     0.041 A 
ATOM     28  Cl  UNL A   1      29.765  27.723  23.755  1.00  0.00    -0.084 Cl
ENDBRANCH  20  22
ENDBRANCH  13  15
ENDBRANCH   8  13
BRANCH  12  29
ATOM     29  O   UNL A   1      42.990  21.492  28.536  1.00  0.00    -0.507 OA
ATOM     30  H   UNL A   1      42.846  20.968  29.298  1.00  0.00     0.293 HD
ENDBRANCH  12  29
ENDBRANCH   4   7
ENDBRANCH   2   3
ENDBRANCH   1   2
BRANCH   1  31
ATOM     31  C   UNL A   1      45.309  23.738  26.082  1.00  0.00     0.023 C 
BRANCH  31  32
ATOM     32  C   UNL A   1      44.092  24.404  26.709  1.00  0.00     0.116 C 
BRANCH  32  33
ATOM     33  N   UNL A   1      43.103  24.827  25.728  1.00  0.00    -0.352 N 
ATOM     34  C   UNL A   1      42.062  25.706  25.888  1.00  0.00     0.251 C 
ATOM     35  H   UNL A   1      43.193  24.431  24.831  1.00  0.00     0.163 HD
ATOM     36  O   UNL A   1      41.241  25.860  24.990  1.00  0.00    -0.269 OA
BRANCH  34  37
ATOM     37  C   UNL A   1      41.920  26.424  27.171  1.00  0.00     0.039 A 
ATOM     38  C   UNL A   1      42.696  27.562  27.389  1.00  0.00     0.014 A 
ATOM     39  C   UNL A   1      40.992  26.003  28.128  1.00  0.00     0.014 A 
ATOM     40  C   UNL A   1      42.495  28.313  28.546  1.00  0.00     0.010 A 
ATOM     41  C   UNL A   1      40.732  26.801  29.236  1.00  0.00     0.010 A 
ATOM     42  C   UNL A   1      41.484  27.962  29.460  1.00  0.00    -0.014 A 
BRANCH  42  43
ATOM     43  C   UNL A   1      41.204  28.825  30.635  1.00  0.00     0.031 A 
ATOM     44  C   UNL A   1      42.035  28.715  31.883  1.00  0.00     0.074 A 
ATOM     45  C   UNL A   1      40.175  29.694  30.578  1.00  0.00     0.049 A 
ATOM     46  N   UNL A   1      41.965  29.422  32.983  1.00  0.00    -0.248 NA
ATOM     47  C   UNL A   1      43.064  27.664  31.914  1.00  0.00     0.031 C 
ATOM     48  C   UNL A   1      39.251  29.838  29.448  1.00  0.00     0.029 A 
ATOM     49  N   UNL A   1      39.737  30.629  31.481  1.00  0.00    -0.354 N 
ATOM     50  C   UNL A   1      42.936  28.902  33.830  1.00  0.00     0.074 A 
ATOM     51  C   UNL A   1      43.536  27.779  33.145  1.00  0.00     0.031 C 
ATOM     52  C   UNL A   1      38.390  30.833  29.706  1.00  0.00     0.029 A 
ATOM     53  C   UNL A   1      38.671  31.374  31.032  1.00  0.00     0.049 A 
ATOM     54  H   UNL A   1      40.146  30.754  32.368  1.00  0.00     0.167 HD
ATOM     55  C   UNL A   1      43.314  29.341  35.055  1.00  0.00     0.037 A 
ATOM     56  C   UNL A   1      38.001  32.382  31.620  1.00  0.00     0.037 A 
ATOM     57  C   UNL A   1      42.713  30.467  35.725  1.00  0.00     0.049 A 
ATOM     58  C   UNL A   1      38.440  32.853  32.980  1.00  0.00     0.074 A 
ATOM     59  C   UNL A   1      43.058  31.029  36.941  1.00  0.00     0.029 A 
ATOM     60  N   UNL A   1      41.636  31.197  35.241  1.00  0.00    -0.354 N 
ATOM     61  N   UNL A   1      39.421  32.408  33.730  1.00  0.00    -0.248 NA
ATOM     62  C   UNL A   1      37.691  33.971  33.567  1.00  0.00     0.031 C 
ATOM     63  C   UNL A   1      42.153  32.059  37.221  1.00  0.00     0.029 A 
ATOM     64  C   UNL A   1      41.284  32.184  36.149  1.00  0.00     0.049 A 
ATOM     65  H   UNL A   1      41.187  31.038  34.380  1.00  0.00     0.167 HD
ATOM     66  C   UNL A   1      39.417  33.204  34.870  1.00  0.00     0.074 A 
ATOM     67  C   UNL A   1      38.358  34.177  34.693  1.00  0.00     0.031 C 
ATOM     68  C   UNL A   1      40.216  33.136  35.966  1.00  0.00     0.037 A 
BRANCH  55  69
ATOM     69  C   UNL A   1      44.428  28.603  35.750  1.00  0.00     0.058 A 
ATOM     70  C   UNL A   1      44.174  27.537  36.629  1.00  0.00     0.135 A 
ATOM     71  C   UNL A   1      45.769  28.941  35.507  1.00  0.00     0.135 A 
ATOM     72  F   UNL A   1      42.911  27.180  36.913  1.00  0.00    -0.206 F 
ATOM     73  C   UNL A   1      45.206  26.854  37.264  1.00  0.00     0.059 A 
ATOM     74  C   UNL A   1      46.820  28.249  36.106  1.00  0.00     0.059 A 
ATOM     75  F   UNL A   1      46.073  29.953  34.678  1.00  0.00    -0.206 F 
ATOM     76  C   UNL A   1      46.526  27.215  36.993  1.00  0.00     0.060 A 
BRANCH  76  77
ATOM     77  S   UNL A   1      47.853  26.309  37.818  1.00  0.00     0.124 S 
ATOM     78  O   UNL A   1      49.015  26.717  37.035  1.00  0.00    -0.237 OA
ATOM     79  O   UNL A   1      47.789  26.837  39.177  1.00  0.00    -0.237 OA
ATOM     80  O   UNL A   1      47.455  24.913  37.671  1.00  0.00    -0.744 OA
ENDBRANCH  76  77
ENDBRANCH  55  69
BRANCH  56  81
ATOM     81  C   UNL A   1      36.861  33.031  30.914  1.00  0.00     0.058 A 
ATOM     82  C   UNL A   1      37.078  33.992  29.915  1.00  0.00     0.135 A 
ATOM     83  C   UNL A   1      35.532  32.693  31.216  1.00  0.00     0.135 A 
ATOM     84  F   UNL A   1      38.329  34.353  29.592  1.00  0.00    -0.206 F 
ATOM     85  C   UNL A   1      36.021  34.609  29.254  1.00  0.00     0.059 A 
ATOM     86  C   UNL A   1      34.460  33.273  30.549  1.00  0.00     0.059 A 
ATOM     87  F   UNL A   1      35.270  31.767  32.151  1.00  0.00    -0.206 F 
ATOM     88  C   UNL A   1      34.713  34.240  29.577  1.00  0.00     0.060 A 
BRANCH  88  89
ATOM     89  S   UNL A   1      33.350  35.013  28.680  1.00  0.00     0.124 S 
ATOM     90  O   UNL A   1      34.051  36.017  27.887  1.00  0.00    -0.237 OA
ATOM     91  O   UNL A   1      32.795  33.886  27.938  1.00  0.00    -0.237 OA
ATOM     92  O   UNL A   1      32.499  35.533  29.747  1.00  0.00    -0.744 OA
ENDBRANCH  88  89
ENDBRANCH  56  81
BRANCH  68  93
ATOM     93  C   UNL A   1      39.979  34.156  37.048  1.00  0.00     0.058 A 
ATOM     94  C   UNL A   1      39.159  33.885  38.156  1.00  0.00     0.135 A 
ATOM     95  C   UNL A   1      40.586  35.422  36.981  1.00  0.00     0.135 A 
ATOM     96  F   UNL A   1      38.552  32.693  38.271  1.00  0.00    -0.206 F 
ATOM     97  C   UNL A   1      38.908  34.847  39.128  1.00  0.00     0.059 A 
ATOM     98  C   UNL A   1      40.379  36.386  37.961  1.00  0.00     0.059 A 
ATOM     99  F   UNL A   1      41.393  35.731  35.953  1.00  0.00    -0.206 F 
ATOM    100  C   UNL A   1      39.518  36.097  39.019  1.00  0.00     0.060 A 
BRANCH 100 101
ATOM    101  S   UNL A   1      39.175  37.340  40.282  1.00  0.00     0.124 S 
ATOM    102  O   UNL A   1      38.500  36.544  41.301  1.00  0.00    -0.237 OA
ATOM    103  O   UNL A   1      40.513  37.810  40.629  1.00  0.00    -0.237 OA
ATOM    104  O   UNL A   1      38.337  38.310  39.585  1.00  0.00    -0.744 OA
ENDBRANCH 100 101
ENDBRANCH  68  93
ENDBRANCH  42  43
ENDBRANCH  34  37
ENDBRANCH  32  33
ENDBRANCH  31  32
ENDBRANCH   1  31
TORSDOF 18
ENDMDL
