MODEL 1
REMARK VINA RESULT:     -13.7      0.000      0.000
REMARK SMILES Cc1cccc(CN(C)c2ccc(C(=O)NCCCCNC(=O)c3ccc(-c4c5nc(c(-c6c(F)cc(S(=O)(=O)[O-])cc6F)c6ccc([nH]6)c(-c6c(F)cc(S(=O)(=O)[O-])cc6F)c6nc(c(-c7c(F)cc(S(=O)(=O)[O-])cc7F)c7ccc4[nH]7)C=C6)C=C5)cc3)cc2C)n1
REMARK SMILES IDX 18 1 17 2 16 3 14 4 15 5 13 7 10 8 11 9 91 10 12 11 90 12
REMARK SMILES IDX 92 13 8 14 9 15 7 16 6 17 1 18 2 19 3 20 93 21 4 22 5 23
REMARK SMILES IDX 19 24 20 25 21 26 22 27 23 29 24 30 25 31 89 32 26 33 88 34
REMARK SMILES IDX 27 35 28 36 29 37 82 38 30 39 87 40 81 41 83 42 31 43 86 44
REMARK SMILES IDX 80 45 79 46 32 48 66 49 45 50 65 51 46 52 49 53 64 54 84 55
REMARK SMILES IDX 47 56 48 57 63 59 85 60 50 61 33 62 34 63 43 64 35 65 36 66
REMARK SMILES IDX 42 67 44 68 37 69 38 70 39 71 40 72 41 73 67 74 68 75 77 76
REMARK SMILES IDX 69 77 70 78 76 79 78 80 71 81 72 82 73 83 74 84 75 85 51 86
REMARK SMILES IDX 52 87 61 88 53 89 54 90 60 91 62 92 55 93 56 94 57 95 58 96
REMARK SMILES IDX 59 97
REMARK H PARENT 16 6 21 28 83 47 49 58
REMARK Flexibility Score: inf
ROOT
ATOM      1  C   UNL A   1      33.167  29.626  25.104  1.00  0.00     0.023 C 
ENDROOT
BRANCH   1   2
ATOM      2  C   UNL A   1      31.655  29.805  25.273  1.00  0.00     0.116 C 
BRANCH   2   3
ATOM      3  N   UNL A   1      30.883  29.665  24.039  1.00  0.00    -0.352 N 
ATOM      4  C   UNL A   1      30.504  28.574  23.283  1.00  0.00     0.251 C 
ATOM      5  O   UNL A   1      29.882  28.778  22.239  1.00  0.00    -0.269 OA
ATOM      6  H   UNL A   1      30.570  30.523  23.673  1.00  0.00     0.163 HD
BRANCH   4   7
ATOM      7  C   UNL A   1      30.852  27.174  23.643  1.00  0.00     0.040 A 
ATOM      8  C   UNL A   1      31.788  24.595  24.477  1.00  0.00     0.040 A 
ATOM      9  C   UNL A   1      30.673  25.230  25.046  1.00  0.00     0.027 A 
ATOM     10  C   UNL A   1      32.285  25.200  23.302  1.00  0.00    -0.027 A 
ATOM     11  C   UNL A   1      30.179  26.463  24.614  1.00  0.00     0.016 A 
ATOM     12  C   UNL A   1      31.856  26.502  22.933  1.00  0.00     0.019 A 
ATOM     13  C   UNL A   1      33.233  24.500  22.365  1.00  0.00     0.046 C 
BRANCH   8  14
ATOM     14  N   UNL A   1      32.366  23.463  25.062  1.00  0.00    -0.368 N 
ATOM     15  C   UNL A   1      33.533  23.692  25.916  1.00  0.00     0.144 C 
BRANCH  14  16
ATOM     16  C   UNL A   1      31.592  22.235  25.362  1.00  0.00     0.172 C 
BRANCH  16  17
ATOM     17  C   UNL A   1      32.086  20.959  24.678  1.00  0.00     0.060 A 
ATOM     18  C   UNL A   1      32.708  17.454  25.635  1.00  0.00     0.067 C 
ATOM     19  C   UNL A   1      32.524  18.675  24.784  1.00  0.00     0.038 A 
ATOM     20  C   UNL A   1      32.529  18.571  23.396  1.00  0.00     0.023 A 
ATOM     21  N   UNL A   1      32.321  19.852  25.434  1.00  0.00    -0.256 NA
ATOM     22  C   UNL A   1      32.364  19.721  22.637  1.00  0.00     0.004 A 
ATOM     23  C   UNL A   1      32.165  20.935  23.282  1.00  0.00     0.026 A 
ENDBRANCH  16  17
ENDBRANCH  14  16
ENDBRANCH   8  14
ENDBRANCH   4   7
ENDBRANCH   2   3
ENDBRANCH   1   2
BRANCH   1  24
ATOM     24  C   UNL A   1      33.900  28.871  26.210  1.00  0.00     0.023 C 
BRANCH  24  25
ATOM     25  C   UNL A   1      34.158  29.674  27.480  1.00  0.00     0.116 C 
BRANCH  25  26
ATOM     26  N   UNL A   1      35.035  30.812  27.331  1.00  0.00    -0.352 N 
ATOM     27  C   UNL A   1      36.164  31.038  28.132  1.00  0.00     0.251 C 
ATOM     28  H   UNL A   1      34.827  31.468  26.627  1.00  0.00     0.163 HD
ATOM     29  O   UNL A   1      36.456  32.141  28.568  1.00  0.00    -0.269 OA
BRANCH  27  30
ATOM     30  C   UNL A   1      37.080  29.886  28.289  1.00  0.00     0.039 A 
ATOM     31  C   UNL A   1      37.163  29.255  29.536  1.00  0.00     0.014 A 
ATOM     32  C   UNL A   1      37.995  29.591  27.288  1.00  0.00     0.014 A 
ATOM     33  C   UNL A   1      38.267  28.442  29.828  1.00  0.00     0.010 A 
ATOM     34  C   UNL A   1      39.132  28.878  27.610  1.00  0.00     0.010 A 
ATOM     35  C   UNL A   1      39.289  28.321  28.887  1.00  0.00    -0.014 A 
BRANCH  35  36
ATOM     36  C   UNL A   1      40.602  27.725  29.141  1.00  0.00     0.031 A 
ATOM     37  C   UNL A   1      40.908  26.338  28.702  1.00  0.00     0.074 A 
ATOM     38  C   UNL A   1      41.612  28.510  29.575  1.00  0.00     0.049 A 
ATOM     39  N   UNL A   1      41.962  25.675  29.049  1.00  0.00    -0.248 NA
ATOM     40  C   UNL A   1      40.021  25.575  27.829  1.00  0.00     0.031 C 
ATOM     41  C   UNL A   1      43.044  28.251  29.448  1.00  0.00     0.029 A 
ATOM     42  N   UNL A   1      41.540  29.637  30.393  1.00  0.00    -0.354 N 
ATOM     43  C   UNL A   1      42.035  24.548  28.261  1.00  0.00     0.074 A 
ATOM     44  C   UNL A   1      40.785  24.519  27.536  1.00  0.00     0.031 C 
ATOM     45  C   UNL A   1      43.706  29.010  30.332  1.00  0.00     0.029 A 
ATOM     46  C   UNL A   1      42.719  29.666  31.168  1.00  0.00     0.049 A 
ATOM     47  H   UNL A   1      40.804  30.290  30.424  1.00  0.00     0.167 HD
ATOM     48  C   UNL A   1      43.186  23.816  28.220  1.00  0.00     0.037 A 
ATOM     49  C   UNL A   1      42.651  29.544  32.530  1.00  0.00     0.037 A 
ATOM     50  C   UNL A   1      44.191  24.327  29.149  1.00  0.00     0.049 A 
ATOM     51  C   UNL A   1      43.260  28.273  33.086  1.00  0.00     0.074 A 
ATOM     52  C   UNL A   1      45.297  25.151  29.023  1.00  0.00     0.029 A 
ATOM     53  N   UNL A   1      43.956  24.210  30.506  1.00  0.00    -0.354 N 
ATOM     54  N   UNL A   1      43.866  27.366  32.371  1.00  0.00    -0.248 NA
ATOM     55  C   UNL A   1      43.167  27.889  34.498  1.00  0.00     0.031 C 
ATOM     56  C   UNL A   1      45.690  25.572  30.325  1.00  0.00     0.029 A 
ATOM     57  C   UNL A   1      44.822  25.001  31.237  1.00  0.00     0.049 A 
ATOM     58  H   UNL A   1      43.262  23.636  30.901  1.00  0.00     0.167 HD
ATOM     59  C   UNL A   1      44.139  26.280  33.157  1.00  0.00     0.074 A 
ATOM     60  C   UNL A   1      43.725  26.667  34.491  1.00  0.00     0.031 C 
ATOM     61  C   UNL A   1      44.630  25.107  32.671  1.00  0.00     0.037 A 
BRANCH  48  62
ATOM     62  C   UNL A   1      43.467  22.764  27.170  1.00  0.00     0.058 A 
ATOM     63  C   UNL A   1      42.765  21.539  27.169  1.00  0.00     0.135 A 
ATOM     64  C   UNL A   1      44.446  22.886  26.166  1.00  0.00     0.135 A 
ATOM     65  F   UNL A   1      41.744  21.315  28.006  1.00  0.00    -0.206 F 
ATOM     66  C   UNL A   1      43.090  20.480  26.320  1.00  0.00     0.059 A 
ATOM     67  C   UNL A   1      44.832  21.820  25.346  1.00  0.00     0.059 A 
ATOM     68  F   UNL A   1      45.040  24.063  25.917  1.00  0.00    -0.206 F 
ATOM     69  C   UNL A   1      44.153  20.614  25.438  1.00  0.00     0.060 A 
BRANCH  69  70
ATOM     70  S   UNL A   1      44.638  19.193  24.441  1.00  0.00     0.124 S 
ATOM     71  O   UNL A   1      46.035  19.007  24.823  1.00  0.00    -0.237 OA
ATOM     72  O   UNL A   1      43.711  18.168  24.905  1.00  0.00    -0.237 OA
ATOM     73  O   UNL A   1      44.431  19.655  23.071  1.00  0.00    -0.744 OA
ENDBRANCH  69  70
ENDBRANCH  48  62
BRANCH  49  74
ATOM     74  C   UNL A   1      41.478  30.268  33.094  1.00  0.00     0.058 A 
ATOM     75  C   UNL A   1      41.563  31.673  33.149  1.00  0.00     0.135 A 
ATOM     76  C   UNL A   1      40.201  29.689  33.088  1.00  0.00     0.135 A 
ATOM     77  F   UNL A   1      42.764  32.275  33.182  1.00  0.00    -0.206 F 
ATOM     78  C   UNL A   1      40.440  32.474  32.989  1.00  0.00     0.059 A 
ATOM     79  C   UNL A   1      39.060  30.476  32.943  1.00  0.00     0.059 A 
ATOM     80  F   UNL A   1      40.063  28.356  33.051  1.00  0.00    -0.206 F 
ATOM     81  C   UNL A   1      39.205  31.857  32.801  1.00  0.00     0.060 A 
BRANCH  81  82
ATOM     82  S   UNL A   1      37.848  32.871  32.168  1.00  0.00     0.124 S 
ATOM     83  O   UNL A   1      38.442  33.470  30.977  1.00  0.00    -0.237 OA
ATOM     84  O   UNL A   1      36.818  31.862  31.918  1.00  0.00    -0.237 OA
ATOM     85  O   UNL A   1      37.577  33.788  33.269  1.00  0.00    -0.744 OA
ENDBRANCH  81  82
ENDBRANCH  49  74
BRANCH  61  86
ATOM     86  C   UNL A   1      44.964  23.954  33.557  1.00  0.00     0.058 A 
ATOM     87  C   UNL A   1      46.289  23.694  33.937  1.00  0.00     0.135 A 
ATOM     88  C   UNL A   1      43.993  23.005  33.928  1.00  0.00     0.135 A 
ATOM     89  F   UNL A   1      47.272  24.546  33.603  1.00  0.00    -0.206 F 
ATOM     90  C   UNL A   1      46.636  22.553  34.655  1.00  0.00     0.059 A 
ATOM     91  C   UNL A   1      44.321  21.841  34.616  1.00  0.00     0.059 A 
ATOM     92  F   UNL A   1      42.696  23.198  33.639  1.00  0.00    -0.206 F 
ATOM     93  C   UNL A   1      45.646  21.628  34.985  1.00  0.00     0.060 A 
BRANCH  93  94
ATOM     94  S   UNL A   1      46.095  20.118  35.864  1.00  0.00     0.124 S 
ATOM     95  O   UNL A   1      45.753  20.435  37.249  1.00  0.00    -0.237 OA
ATOM     96  O   UNL A   1      45.233  19.137  35.213  1.00  0.00    -0.237 OA
ATOM     97  O   UNL A   1      47.522  19.987  35.593  1.00  0.00    -0.744 OA
ENDBRANCH  93  94
ENDBRANCH  61  86
ENDBRANCH  35  36
ENDBRANCH  27  30
ENDBRANCH  25  26
ENDBRANCH  24  25
ENDBRANCH   1  24
TORSDOF 17
ENDMDL
MODEL 2
REMARK VINA RESULT:     -13.5      1.333      2.186
REMARK SMILES Cc1cccc(CN(C)c2ccc(C(=O)NCCCCNC(=O)c3ccc(-c4c5nc(c(-c6c(F)cc(S(=O)(=O)[O-])cc6F)c6ccc([nH]6)c(-c6c(F)cc(S(=O)(=O)[O-])cc6F)c6nc(c(-c7c(F)cc(S(=O)(=O)[O-])cc7F)c7ccc4[nH]7)C=C6)C=C5)cc3)cc2C)n1
REMARK SMILES IDX 18 1 17 2 16 3 14 4 15 5 13 7 10 8 11 9 91 10 12 11 90 12
REMARK SMILES IDX 92 13 8 14 9 15 7 16 6 17 1 18 2 19 3 20 93 21 4 22 5 23
REMARK SMILES IDX 19 24 20 25 21 26 22 27 23 29 24 30 25 31 89 32 26 33 88 34
REMARK SMILES IDX 27 35 28 36 29 37 82 38 30 39 87 40 81 41 83 42 31 43 86 44
REMARK SMILES IDX 80 45 79 46 32 48 66 49 45 50 65 51 46 52 49 53 64 54 84 55
REMARK SMILES IDX 47 56 48 57 63 59 85 60 50 61 33 62 34 63 43 64 35 65 36 66
REMARK SMILES IDX 42 67 44 68 37 69 38 70 39 71 40 72 41 73 67 74 68 75 77 76
REMARK SMILES IDX 69 77 70 78 76 79 78 80 71 81 72 82 73 83 74 84 75 85 51 86
REMARK SMILES IDX 52 87 61 88 53 89 54 90 60 91 62 92 55 93 56 94 57 95 58 96
REMARK SMILES IDX 59 97
REMARK H PARENT 16 6 21 28 83 47 49 58
REMARK Flexibility Score: inf
ROOT
ATOM      1  C   UNL A   1      32.067  30.333  26.252  1.00  0.00     0.023 C 
ENDROOT
BRANCH   1   2
ATOM      2  C   UNL A   1      32.221  29.790  24.827  1.00  0.00     0.116 C 
BRANCH   2   3
ATOM      3  N   UNL A   1      31.005  29.204  24.264  1.00  0.00    -0.352 N 
ATOM      4  C   UNL A   1      30.710  27.957  23.753  1.00  0.00     0.251 C 
ATOM      5  O   UNL A   1      29.582  27.768  23.294  1.00  0.00    -0.269 OA
ATOM      6  H   UNL A   1      30.243  29.826  24.245  1.00  0.00     0.163 HD
BRANCH   4   7
ATOM      7  C   UNL A   1      31.700  26.849  23.686  1.00  0.00     0.040 A 
ATOM      8  C   UNL A   1      33.363  24.514  23.620  1.00  0.00     0.040 A 
ATOM      9  C   UNL A   1      33.036  25.258  22.476  1.00  0.00     0.027 A 
ATOM     10  C   UNL A   1      33.016  25.121  24.847  1.00  0.00    -0.027 A 
ATOM     11  C   UNL A   1      32.268  26.425  22.503  1.00  0.00     0.016 A 
ATOM     12  C   UNL A   1      32.144  26.242  24.868  1.00  0.00     0.019 A 
ATOM     13  C   UNL A   1      33.575  24.663  26.168  1.00  0.00     0.046 C 
BRANCH   8  14
ATOM     14  N   UNL A   1      33.964  23.254  23.528  1.00  0.00    -0.368 N 
ATOM     15  C   UNL A   1      33.076  22.125  23.244  1.00  0.00     0.144 C 
BRANCH  14  16
ATOM     16  C   UNL A   1      35.375  23.070  23.116  1.00  0.00     0.172 C 
BRANCH  16  17
ATOM     17  C   UNL A   1      36.341  22.658  24.229  1.00  0.00     0.060 A 
ATOM     18  C   UNL A   1      38.388  19.712  25.071  1.00  0.00     0.067 C 
ATOM     19  C   UNL A   1      37.839  21.106  25.104  1.00  0.00     0.038 A 
ATOM     20  C   UNL A   1      38.403  22.063  25.942  1.00  0.00     0.023 A 
ATOM     21  N   UNL A   1      36.809  21.381  24.261  1.00  0.00    -0.256 NA
ATOM     22  C   UNL A   1      37.866  23.343  25.955  1.00  0.00     0.004 A 
ATOM     23  C   UNL A   1      36.806  23.641  25.108  1.00  0.00     0.026 A 
ENDBRANCH  16  17
ENDBRANCH  14  16
ENDBRANCH   8  14
ENDBRANCH   4   7
ENDBRANCH   2   3
ENDBRANCH   1   2
BRANCH   1  24
ATOM     24  C   UNL A   1      32.807  29.585  27.358  1.00  0.00     0.023 C 
BRANCH  24  25
ATOM     25  C   UNL A   1      34.302  29.396  27.122  1.00  0.00     0.116 C 
BRANCH  25  26
ATOM     26  N   UNL A   1      35.110  30.586  27.259  1.00  0.00    -0.352 N 
ATOM     27  C   UNL A   1      36.095  30.752  28.245  1.00  0.00     0.251 C 
ATOM     28  H   UNL A   1      34.961  31.323  26.624  1.00  0.00     0.163 HD
ATOM     29  O   UNL A   1      36.243  31.796  28.862  1.00  0.00    -0.269 OA
BRANCH  27  30
ATOM     30  C   UNL A   1      37.056  29.636  28.386  1.00  0.00     0.039 A 
ATOM     31  C   UNL A   1      37.182  29.008  29.631  1.00  0.00     0.014 A 
ATOM     32  C   UNL A   1      37.966  29.376  27.372  1.00  0.00     0.014 A 
ATOM     33  C   UNL A   1      38.320  28.237  29.905  1.00  0.00     0.010 A 
ATOM     34  C   UNL A   1      39.134  28.708  27.675  1.00  0.00     0.010 A 
ATOM     35  C   UNL A   1      39.331  28.156  28.948  1.00  0.00    -0.014 A 
BRANCH  35  36
ATOM     36  C   UNL A   1      40.670  27.610  29.182  1.00  0.00     0.031 A 
ATOM     37  C   UNL A   1      41.038  26.256  28.690  1.00  0.00     0.074 A 
ATOM     38  C   UNL A   1      41.644  28.422  29.648  1.00  0.00     0.049 A 
ATOM     39  N   UNL A   1      42.121  25.628  29.013  1.00  0.00    -0.248 NA
ATOM     40  C   UNL A   1      40.186  25.488  27.787  1.00  0.00     0.031 C 
ATOM     41  C   UNL A   1      43.086  28.233  29.513  1.00  0.00     0.029 A 
ATOM     42  N   UNL A   1      41.521  29.513  30.508  1.00  0.00    -0.354 N 
ATOM     43  C   UNL A   1      42.244  24.537  28.183  1.00  0.00     0.074 A 
ATOM     44  C   UNL A   1      40.998  24.480  27.455  1.00  0.00     0.031 C 
ATOM     45  C   UNL A   1      43.714  28.986  30.427  1.00  0.00     0.029 A 
ATOM     46  C   UNL A   1      42.697  29.564  31.286  1.00  0.00     0.049 A 
ATOM     47  H   UNL A   1      40.756  30.130  30.563  1.00  0.00     0.167 HD
ATOM     48  C   UNL A   1      43.428  23.859  28.116  1.00  0.00     0.037 A 
ATOM     49  C   UNL A   1      42.635  29.387  32.642  1.00  0.00     0.037 A 
ATOM     50  C   UNL A   1      44.409  24.379  29.065  1.00  0.00     0.049 A 
ATOM     51  C   UNL A   1      43.301  28.125  33.150  1.00  0.00     0.074 A 
ATOM     52  C   UNL A   1      45.476  25.257  28.973  1.00  0.00     0.029 A 
ATOM     53  N   UNL A   1      44.179  24.199  30.416  1.00  0.00    -0.354 N 
ATOM     54  N   UNL A   1      43.947  27.274  32.401  1.00  0.00    -0.248 NA
ATOM     55  C   UNL A   1      43.225  27.683  34.546  1.00  0.00     0.031 C 
ATOM     56  C   UNL A   1      45.850  25.643  30.291  1.00  0.00     0.029 A 
ATOM     57  C   UNL A   1      45.008  25.000  31.179  1.00  0.00     0.049 A 
ATOM     58  H   UNL A   1      43.511  23.580  30.788  1.00  0.00     0.167 HD
ATOM     59  C   UNL A   1      44.268  26.172  33.145  1.00  0.00     0.074 A 
ATOM     60  C   UNL A   1      43.837  26.488  34.492  1.00  0.00     0.031 C 
ATOM     61  C   UNL A   1      44.811  25.042  32.615  1.00  0.00     0.037 A 
BRANCH  48  62
ATOM     62  C   UNL A   1      43.755  22.863  27.027  1.00  0.00     0.058 A 
ATOM     63  C   UNL A   1      42.998  21.681  26.877  1.00  0.00     0.135 A 
ATOM     64  C   UNL A   1      44.830  22.994  26.127  1.00  0.00     0.135 A 
ATOM     65  F   UNL A   1      41.892  21.460  27.599  1.00  0.00    -0.206 F 
ATOM     66  C   UNL A   1      43.350  20.662  25.991  1.00  0.00     0.059 A 
ATOM     67  C   UNL A   1      45.241  21.962  25.275  1.00  0.00     0.059 A 
ATOM     68  F   UNL A   1      45.502  24.149  26.015  1.00  0.00    -0.206 F 
ATOM     69  C   UNL A   1      44.497  20.792  25.222  1.00  0.00     0.060 A 
BRANCH  69  70
ATOM     70  S   UNL A   1      45.005  19.413  24.179  1.00  0.00     0.124 S 
ATOM     71  O   UNL A   1      46.462  19.499  24.236  1.00  0.00    -0.237 OA
ATOM     72  O   UNL A   1      44.409  18.276  24.870  1.00  0.00    -0.237 OA
ATOM     73  O   UNL A   1      44.420  19.737  22.881  1.00  0.00    -0.744 OA
ENDBRANCH  69  70
ENDBRANCH  48  62
BRANCH  49  74
ATOM     74  C   UNL A   1      41.430  30.036  33.231  1.00  0.00     0.058 A 
ATOM     75  C   UNL A   1      41.441  31.442  33.314  1.00  0.00     0.135 A 
ATOM     76  C   UNL A   1      40.187  29.389  33.225  1.00  0.00     0.135 A 
ATOM     77  F   UNL A   1      42.608  32.107  33.350  1.00  0.00    -0.206 F 
ATOM     78  C   UNL A   1      40.275  32.184  33.181  1.00  0.00     0.059 A 
ATOM     79  C   UNL A   1      39.003  30.116  33.107  1.00  0.00     0.059 A 
ATOM     80  F   UNL A   1      40.120  28.052  33.161  1.00  0.00    -0.206 F 
ATOM     81  C   UNL A   1      39.073  31.506  32.991  1.00  0.00     0.060 A 
BRANCH  81  82
ATOM     82  S   UNL A   1      37.657  32.458  32.392  1.00  0.00     0.124 S 
ATOM     83  O   UNL A   1      37.354  33.310  33.537  1.00  0.00    -0.237 OA
ATOM     84  O   UNL A   1      38.232  33.142  31.234  1.00  0.00    -0.237 OA
ATOM     85  O   UNL A   1      36.669  31.430  32.089  1.00  0.00    -0.744 OA
ENDBRANCH  81  82
ENDBRANCH  49  74
BRANCH  61  86
ATOM     86  C   UNL A   1      45.197  23.871  33.457  1.00  0.00     0.058 A 
ATOM     87  C   UNL A   1      44.288  22.834  33.714  1.00  0.00     0.135 A 
ATOM     88  C   UNL A   1      46.428  23.828  34.138  1.00  0.00     0.135 A 
ATOM     89  F   UNL A   1      43.087  22.819  33.114  1.00  0.00    -0.206 F 
ATOM     90  C   UNL A   1      44.584  21.801  34.599  1.00  0.00     0.059 A 
ATOM     91  C   UNL A   1      46.733  22.824  35.051  1.00  0.00     0.059 A 
ATOM     92  F   UNL A   1      47.370  24.759  33.917  1.00  0.00    -0.206 F 
ATOM     93  C   UNL A   1      45.807  21.807  35.268  1.00  0.00     0.060 A 
BRANCH  93  94
ATOM     94  S   UNL A   1      46.178  20.505  36.460  1.00  0.00     0.124 S 
ATOM     95  O   UNL A   1      45.791  21.108  37.732  1.00  0.00    -0.237 OA
ATOM     96  O   UNL A   1      45.316  19.426  35.987  1.00  0.00    -0.237 OA
ATOM     97  O   UNL A   1      47.611  20.292  36.285  1.00  0.00    -0.744 OA
ENDBRANCH  93  94
ENDBRANCH  61  86
ENDBRANCH  35  36
ENDBRANCH  27  30
ENDBRANCH  25  26
ENDBRANCH  24  25
ENDBRANCH   1  24
TORSDOF 17
ENDMDL
MODEL 3
REMARK VINA RESULT:     -13.4      4.661     11.534
REMARK SMILES Cc1cccc(CN(C)c2ccc(C(=O)NCCCCNC(=O)c3ccc(-c4c5nc(c(-c6c(F)cc(S(=O)(=O)[O-])cc6F)c6ccc([nH]6)c(-c6c(F)cc(S(=O)(=O)[O-])cc6F)c6nc(c(-c7c(F)cc(S(=O)(=O)[O-])cc7F)c7ccc4[nH]7)C=C6)C=C5)cc3)cc2C)n1
REMARK SMILES IDX 18 1 17 2 16 3 14 4 15 5 13 7 10 8 11 9 91 10 12 11 90 12
REMARK SMILES IDX 92 13 8 14 9 15 7 16 6 17 1 18 2 19 3 20 93 21 4 22 5 23
REMARK SMILES IDX 19 24 20 25 21 26 22 27 23 29 24 30 25 31 89 32 26 33 88 34
REMARK SMILES IDX 27 35 28 36 29 37 82 38 30 39 87 40 81 41 83 42 31 43 86 44
REMARK SMILES IDX 80 45 79 46 32 48 66 49 45 50 65 51 46 52 49 53 64 54 84 55
REMARK SMILES IDX 47 56 48 57 63 59 85 60 50 61 33 62 34 63 43 64 35 65 36 66
REMARK SMILES IDX 42 67 44 68 37 69 38 70 39 71 40 72 41 73 67 74 68 75 77 76
REMARK SMILES IDX 69 77 70 78 76 79 78 80 71 81 72 82 73 83 74 84 75 85 51 86
REMARK SMILES IDX 52 87 61 88 53 89 54 90 60 91 62 92 55 93 56 94 57 95 58 96
REMARK SMILES IDX 59 97
REMARK H PARENT 16 6 21 28 83 47 49 58
REMARK Flexibility Score: inf
ROOT
ATOM      1  C   UNL A   1      36.481  21.239  25.374  1.00  0.00     0.023 C 
ENDROOT
BRANCH   1   2
ATOM      2  C   UNL A   1      34.968  21.478  25.330  1.00  0.00     0.116 C 
BRANCH   2   3
ATOM      3  N   UNL A   1      34.330  21.590  26.641  1.00  0.00    -0.352 N 
ATOM      4  C   UNL A   1      33.530  22.554  27.220  1.00  0.00     0.251 C 
ATOM      5  O   UNL A   1      33.174  22.390  28.388  1.00  0.00    -0.269 OA
ATOM      6  H   UNL A   1      34.507  20.822  27.230  1.00  0.00     0.163 HD
BRANCH   4   7
ATOM      7  C   UNL A   1      33.118  23.800  26.519  1.00  0.00     0.040 A 
ATOM      8  C   UNL A   1      32.306  26.337  25.461  1.00  0.00     0.040 A 
ATOM      9  C   UNL A   1      33.602  25.821  25.311  1.00  0.00     0.027 A 
ATOM     10  C   UNL A   1      31.353  25.424  25.963  1.00  0.00    -0.027 A 
ATOM     11  C   UNL A   1      33.995  24.565  25.779  1.00  0.00     0.016 A 
ATOM     12  C   UNL A   1      31.775  24.196  26.537  1.00  0.00     0.019 A 
ATOM     13  C   UNL A   1      29.870  25.666  25.873  1.00  0.00     0.046 C 
BRANCH   8  14
ATOM     14  N   UNL A   1      32.007  27.669  25.154  1.00  0.00    -0.368 N 
ATOM     15  C   UNL A   1      32.637  28.690  25.993  1.00  0.00     0.144 C 
BRANCH  14  16
ATOM     16  C   UNL A   1      31.636  28.111  23.789  1.00  0.00     0.172 C 
BRANCH  16  17
ATOM     17  C   UNL A   1      30.237  28.713  23.647  1.00  0.00     0.060 A 
ATOM     18  C   UNL A   1      28.754  32.084  23.490  1.00  0.00     0.067 C 
ATOM     19  C   UNL A   1      28.884  30.593  23.409  1.00  0.00     0.038 A 
ATOM     20  C   UNL A   1      27.824  29.820  22.944  1.00  0.00     0.023 A 
ATOM     21  N   UNL A   1      30.079  30.059  23.775  1.00  0.00    -0.256 NA
ATOM     22  C   UNL A   1      27.972  28.441  22.889  1.00  0.00     0.004 A 
ATOM     23  C   UNL A   1      29.183  27.875  23.268  1.00  0.00     0.026 A 
ENDBRANCH  16  17
ENDBRANCH  14  16
ENDBRANCH   8  14
ENDBRANCH   4   7
ENDBRANCH   2   3
ENDBRANCH   1   2
BRANCH   1  24
ATOM     24  C   UNL A   1      37.375  22.405  24.963  1.00  0.00     0.023 C 
BRANCH  24  25
ATOM     25  C   UNL A   1      37.687  23.404  26.072  1.00  0.00     0.116 C 
BRANCH  25  26
ATOM     26  N   UNL A   1      38.863  23.115  26.860  1.00  0.00    -0.352 N 
ATOM     27  C   UNL A   1      39.984  23.956  26.928  1.00  0.00     0.251 C 
ATOM     28  H   UNL A   1      38.879  22.278  27.378  1.00  0.00     0.163 HD
ATOM     29  O   UNL A   1      41.130  23.534  26.899  1.00  0.00    -0.269 OA
BRANCH  27  30
ATOM     30  C   UNL A   1      39.699  25.382  27.202  1.00  0.00     0.039 A 
ATOM     31  C   UNL A   1      40.341  26.358  26.431  1.00  0.00     0.014 A 
ATOM     32  C   UNL A   1      38.993  25.738  28.343  1.00  0.00     0.014 A 
ATOM     33  C   UNL A   1      40.403  27.678  26.897  1.00  0.00     0.010 A 
ATOM     34  C   UNL A   1      39.144  27.011  28.853  1.00  0.00     0.010 A 
ATOM     35  C   UNL A   1      39.870  27.982  28.149  1.00  0.00    -0.014 A 
BRANCH  35  36
ATOM     36  C   UNL A   1      40.081  29.237  28.872  1.00  0.00     0.031 A 
ATOM     37  C   UNL A   1      39.014  30.272  28.932  1.00  0.00     0.074 A 
ATOM     38  C   UNL A   1      41.160  29.366  29.676  1.00  0.00     0.049 A 
ATOM     39  N   UNL A   1      39.182  31.472  29.382  1.00  0.00    -0.248 NA
ATOM     40  C   UNL A   1      37.653  30.026  28.467  1.00  0.00     0.031 C 
ATOM     41  C   UNL A   1      41.316  30.287  30.798  1.00  0.00     0.029 A 
ATOM     42  N   UNL A   1      42.424  28.797  29.521  1.00  0.00    -0.354 N 
ATOM     43  C   UNL A   1      37.941  32.052  29.521  1.00  0.00     0.074 A 
ATOM     44  C   UNL A   1      37.023  31.118  28.911  1.00  0.00     0.031 C 
ATOM     45  C   UNL A   1      42.620  30.418  31.078  1.00  0.00     0.029 A 
ATOM     46  C   UNL A   1      43.360  29.712  30.048  1.00  0.00     0.049 A 
ATOM     47  H   UNL A   1      42.626  27.921  29.119  1.00  0.00     0.167 HD
ATOM     48  C   UNL A   1      37.803  33.209  30.233  1.00  0.00     0.037 A 
ATOM     49  C   UNL A   1      44.295  30.288  29.232  1.00  0.00     0.037 A 
ATOM     50  C   UNL A   1      39.091  33.728  30.686  1.00  0.00     0.049 A 
ATOM     51  C   UNL A   1      44.134  31.782  29.035  1.00  0.00     0.074 A 
ATOM     52  C   UNL A   1      39.798  33.663  31.875  1.00  0.00     0.029 A 
ATOM     53  N   UNL A   1      39.978  34.208  29.741  1.00  0.00    -0.354 N 
ATOM     54  N   UNL A   1      43.229  32.515  29.623  1.00  0.00    -0.248 NA
ATOM     55  C   UNL A   1      44.945  32.560  28.092  1.00  0.00     0.031 C 
ATOM     56  C   UNL A   1      41.141  34.062  31.617  1.00  0.00     0.029 A 
ATOM     57  C   UNL A   1      41.244  34.366  30.273  1.00  0.00     0.049 A 
ATOM     58  H   UNL A   1      39.739  34.412  28.808  1.00  0.00     0.167 HD
ATOM     59  C   UNL A   1      43.255  33.776  29.093  1.00  0.00     0.074 A 
ATOM     60  C   UNL A   1      44.373  33.773  28.170  1.00  0.00     0.031 C 
ATOM     61  C   UNL A   1      42.333  34.732  29.388  1.00  0.00     0.037 A 
BRANCH  48  62
ATOM     62  C   UNL A   1      36.468  33.744  30.699  1.00  0.00     0.058 A 
ATOM     63  C   UNL A   1      35.550  34.296  29.779  1.00  0.00     0.135 A 
ATOM     64  C   UNL A   1      36.053  33.782  32.044  1.00  0.00     0.135 A 
ATOM     65  F   UNL A   1      35.766  34.249  28.459  1.00  0.00    -0.206 F 
ATOM     66  C   UNL A   1      34.375  34.939  30.173  1.00  0.00     0.059 A 
ATOM     67  C   UNL A   1      34.914  34.474  32.470  1.00  0.00     0.059 A 
ATOM     68  F   UNL A   1      36.722  33.112  32.994  1.00  0.00    -0.206 F 
ATOM     69  C   UNL A   1      34.085  35.060  31.525  1.00  0.00     0.060 A 
BRANCH  69  70
ATOM     70  S   UNL A   1      32.630  36.003  32.019  1.00  0.00     0.124 S 
ATOM     71  O   UNL A   1      32.198  36.594  30.755  1.00  0.00    -0.237 OA
ATOM     72  O   UNL A   1      31.765  34.962  32.561  1.00  0.00    -0.237 OA
ATOM     73  O   UNL A   1      33.158  36.953  32.994  1.00  0.00    -0.744 OA
ENDBRANCH  69  70
ENDBRANCH  48  62
BRANCH  49  74
ATOM     74  C   UNL A   1      44.816  29.327  28.220  1.00  0.00     0.058 A 
ATOM     75  C   UNL A   1      45.788  28.406  28.660  1.00  0.00     0.135 A 
ATOM     76  C   UNL A   1      44.064  28.994  27.086  1.00  0.00     0.135 A 
ATOM     77  F   UNL A   1      46.553  28.691  29.727  1.00  0.00    -0.206 F 
ATOM     78  C   UNL A   1      45.864  27.126  28.130  1.00  0.00     0.059 A 
ATOM     79  C   UNL A   1      44.136  27.718  26.529  1.00  0.00     0.059 A 
ATOM     80  F   UNL A   1      43.136  29.840  26.617  1.00  0.00    -0.206 F 
ATOM     81  C   UNL A   1      44.971  26.768  27.122  1.00  0.00     0.060 A 
BRANCH  81  82
ATOM     82  S   UNL A   1      44.783  25.009  26.751  1.00  0.00     0.124 S 
ATOM     83  O   UNL A   1      43.933  24.553  27.845  1.00  0.00    -0.237 OA
ATOM     84  O   UNL A   1      44.145  25.052  25.435  1.00  0.00    -0.237 OA
ATOM     85  O   UNL A   1      46.156  24.517  26.769  1.00  0.00    -0.744 OA
ENDBRANCH  81  82
ENDBRANCH  49  74
BRANCH  61  86
ATOM     86  C   UNL A   1      42.413  36.116  28.833  1.00  0.00     0.058 A 
ATOM     87  C   UNL A   1      41.802  36.442  27.613  1.00  0.00     0.135 A 
ATOM     88  C   UNL A   1      43.216  37.104  29.432  1.00  0.00     0.135 A 
ATOM     89  F   UNL A   1      41.035  35.543  26.974  1.00  0.00    -0.206 F 
ATOM     90  C   UNL A   1      41.972  37.688  27.017  1.00  0.00     0.059 A 
ATOM     91  C   UNL A   1      43.428  38.344  28.839  1.00  0.00     0.059 A 
ATOM     92  F   UNL A   1      43.802  36.887  30.620  1.00  0.00    -0.206 F 
ATOM     93  C   UNL A   1      42.792  38.632  27.634  1.00  0.00     0.060 A 
BRANCH  93  94
ATOM     94  S   UNL A   1      43.066  40.229  26.841  1.00  0.00     0.124 S 
ATOM     95  O   UNL A   1      43.226  41.133  27.977  1.00  0.00    -0.237 OA
ATOM     96  O   UNL A   1      44.278  39.966  26.071  1.00  0.00    -0.237 OA
ATOM     97  O   UNL A   1      41.850  40.425  26.060  1.00  0.00    -0.744 OA
ENDBRANCH  93  94
ENDBRANCH  61  86
ENDBRANCH  35  36
ENDBRANCH  27  30
ENDBRANCH  25  26
ENDBRANCH  24  25
ENDBRANCH   1  24
TORSDOF 17
ENDMDL
