MODEL 1
REMARK VINA RESULT:     -11.8      0.000      0.000
REMARK SMILES O=C(CCc1nc(-c2ccccc2)c(-c2ccccc2)o1)NCCCCNC(=O)c1ccc(-c2c3nc(c(-c4c(F)cc(S(=O)(=O)[O-])cc4F)c4ccc([nH]4)c(-c4c(F)cc(S(=O)(=O)[O-])cc4F)c4nc(c(-c5c(F)cc(S(=O)(=O)[O-])cc5F)c5ccc2[nH]5)C=C4)C=C3)cc1
REMARK SMILES IDX 24 1 23 2 22 3 1 4 2 5 3 7 4 8 5 9 6 10 21 11 7 12 14 13
REMARK SMILES IDX 8 14 9 15 13 16 10 17 12 18 11 19 15 20 16 21 20 22 17 23
REMARK SMILES IDX 19 24 18 25 25 26 26 27 27 28 28 29 29 31 30 32 31 33 95 34
REMARK SMILES IDX 32 35 94 36 33 37 34 38 35 39 88 40 36 41 93 42 87 43 89 44
REMARK SMILES IDX 37 45 92 46 86 47 85 48 38 50 72 51 51 52 71 53 52 54 55 55
REMARK SMILES IDX 70 56 90 57 53 58 54 59 69 61 91 62 56 63 39 64 40 65 49 66
REMARK SMILES IDX 41 67 42 68 48 69 50 70 43 71 44 72 45 73 46 74 47 75 73 76
REMARK SMILES IDX 74 77 83 78 75 79 76 80 82 81 84 82 77 83 78 84 79 85 80 86
REMARK SMILES IDX 81 87 57 88 58 89 67 90 59 91 60 92 66 93 68 94 61 95 62 96
REMARK SMILES IDX 63 97 64 98 65 99
REMARK H PARENT 22 6 27 30 89 49 55 60
REMARK Flexibility Score: inf
ROOT
ATOM      1  C   UNL A   1      31.295  27.431  26.265  1.00  0.00     0.023 C 
ENDROOT
BRANCH   1   2
ATOM      2  C   UNL A   1      31.563  28.248  25.001  1.00  0.00     0.116 C 
BRANCH   2   3
ATOM      3  N   UNL A   1      32.007  27.436  23.885  1.00  0.00    -0.356 N 
ATOM      4  O   UNL A   1      33.811  28.747  23.319  1.00  0.00    -0.275 OA
ATOM      5  C   UNL A   1      33.122  27.748  23.139  1.00  0.00     0.220 C 
ATOM      6  H   UNL A   1      31.492  26.630  23.652  1.00  0.00     0.163 HD
BRANCH   5   7
ATOM      7  C   UNL A   1      33.463  26.732  22.069  1.00  0.00     0.110 C 
BRANCH   7   8
ATOM      8  C   UNL A   1      32.426  25.616  22.022  1.00  0.00     0.107 C 
BRANCH   8   9
ATOM      9  C   UNL A   1      32.926  24.379  22.673  1.00  0.00     0.196 A 
ATOM     10  N   UNL A   1      32.315  23.223  22.814  1.00  0.00    -0.213 NA
ATOM     11  O   UNL A   1      34.150  24.454  23.273  1.00  0.00    -0.440 OA
ATOM     12  C   UNL A   1      33.209  22.469  23.540  1.00  0.00     0.117 A 
ATOM     13  C   UNL A   1      34.341  23.210  23.825  1.00  0.00     0.162 A 
BRANCH  12  14
ATOM     14  C   UNL A   1      32.943  21.113  23.961  1.00  0.00     0.004 A 
ATOM     15  C   UNL A   1      33.137  20.731  25.294  1.00  0.00     0.010 A 
ATOM     16  C   UNL A   1      32.515  20.164  23.026  1.00  0.00     0.010 A 
ATOM     17  C   UNL A   1      32.933  19.404  25.681  1.00  0.00     0.001 A 
ATOM     18  C   UNL A   1      32.322  18.837  23.414  1.00  0.00     0.001 A 
ATOM     19  C   UNL A   1      32.536  18.458  24.739  1.00  0.00     0.000 A 
ENDBRANCH  12  14
BRANCH  13  20
ATOM     20  C   UNL A   1      35.595  23.010  24.540  1.00  0.00     0.020 A 
ATOM     21  C   UNL A   1      36.398  21.891  24.266  1.00  0.00     0.012 A 
ATOM     22  C   UNL A   1      36.051  23.940  25.484  1.00  0.00     0.012 A 
ATOM     23  C   UNL A   1      37.644  21.734  24.878  1.00  0.00     0.001 A 
ATOM     24  C   UNL A   1      37.289  23.773  26.112  1.00  0.00     0.001 A 
ATOM     25  C   UNL A   1      38.092  22.679  25.797  1.00  0.00     0.000 A 
ENDBRANCH  13  20
ENDBRANCH   8   9
ENDBRANCH   7   8
ENDBRANCH   5   7
ENDBRANCH   2   3
ENDBRANCH   1   2
BRANCH   1  26
ATOM     26  C   UNL A   1      32.096  27.835  27.509  1.00  0.00     0.023 C 
BRANCH  26  27
ATOM     27  C   UNL A   1      33.425  28.543  27.255  1.00  0.00     0.116 C 
BRANCH  27  28
ATOM     28  N   UNL A   1      33.423  29.942  27.639  1.00  0.00    -0.352 N 
ATOM     29  C   UNL A   1      34.420  30.716  28.192  1.00  0.00     0.251 C 
ATOM     30  H   UNL A   1      32.573  30.415  27.480  1.00  0.00     0.163 HD
ATOM     31  O   UNL A   1      34.153  31.871  28.519  1.00  0.00    -0.269 OA
BRANCH  29  32
ATOM     32  C   UNL A   1      35.790  30.186  28.438  1.00  0.00     0.039 A 
ATOM     33  C   UNL A   1      36.705  30.176  27.376  1.00  0.00     0.014 A 
ATOM     34  C   UNL A   1      36.186  29.666  29.671  1.00  0.00     0.014 A 
ATOM     35  C   UNL A   1      38.018  29.729  27.574  1.00  0.00     0.010 A 
ATOM     36  C   UNL A   1      37.502  29.249  29.880  1.00  0.00     0.010 A 
ATOM     37  C   UNL A   1      38.437  29.296  28.840  1.00  0.00    -0.014 A 
BRANCH  37  38
ATOM     38  C   UNL A   1      39.864  28.992  29.121  1.00  0.00     0.031 A 
ATOM     39  C   UNL A   1      40.794  30.037  29.668  1.00  0.00     0.074 A 
ATOM     40  C   UNL A   1      40.339  27.777  28.788  1.00  0.00     0.049 A 
ATOM     41  N   UNL A   1      42.066  29.933  29.961  1.00  0.00    -0.248 NA
ATOM     42  C   UNL A   1      40.229  31.373  29.906  1.00  0.00     0.031 C 
ATOM     43  C   UNL A   1      39.549  26.700  28.184  1.00  0.00     0.029 A 
ATOM     44  N   UNL A   1      41.601  27.246  28.889  1.00  0.00    -0.354 N 
ATOM     45  C   UNL A   1      42.456  31.183  30.422  1.00  0.00     0.074 A 
ATOM     46  C   UNL A   1      41.294  32.044  30.331  1.00  0.00     0.031 C 
ATOM     47  C   UNL A   1      40.343  25.638  27.973  1.00  0.00     0.029 A 
ATOM     48  C   UNL A   1      41.698  25.960  28.411  1.00  0.00     0.049 A 
ATOM     49  H   UNL A   1      42.364  27.738  29.267  1.00  0.00     0.167 HD
ATOM     50  C   UNL A   1      43.666  31.571  30.896  1.00  0.00     0.037 A 
ATOM     51  C   UNL A   1      42.756  25.130  28.335  1.00  0.00     0.037 A 
ATOM     52  C   UNL A   1      44.818  30.707  30.986  1.00  0.00     0.049 A 
ATOM     53  C   UNL A   1      44.086  25.582  28.869  1.00  0.00     0.074 A 
ATOM     54  C   UNL A   1      46.064  30.987  31.523  1.00  0.00     0.029 A 
ATOM     55  N   UNL A   1      44.872  29.404  30.516  1.00  0.00    -0.354 N 
ATOM     56  N   UNL A   1      44.410  26.736  29.399  1.00  0.00    -0.248 NA
ATOM     57  C   UNL A   1      45.190  24.614  28.807  1.00  0.00     0.031 C 
ATOM     58  C   UNL A   1      46.884  29.867  31.339  1.00  0.00     0.029 A 
ATOM     59  C   UNL A   1      46.137  28.875  30.725  1.00  0.00     0.049 A 
ATOM     60  H   UNL A   1      44.123  28.923  30.096  1.00  0.00     0.167 HD
ATOM     61  C   UNL A   1      45.746  26.625  29.763  1.00  0.00     0.074 A 
ATOM     62  C   UNL A   1      46.169  25.288  29.395  1.00  0.00     0.031 C 
ATOM     63  C   UNL A   1      46.548  27.544  30.354  1.00  0.00     0.037 A 
BRANCH  50  64
ATOM     64  C   UNL A   1      43.814  32.992  31.367  1.00  0.00     0.058 A 
ATOM     65  C   UNL A   1      43.593  33.344  32.708  1.00  0.00     0.135 A 
ATOM     66  C   UNL A   1      44.240  33.999  30.487  1.00  0.00     0.135 A 
ATOM     67  F   UNL A   1      43.178  32.422  33.591  1.00  0.00    -0.206 F 
ATOM     68  C   UNL A   1      43.769  34.650  33.156  1.00  0.00     0.059 A 
ATOM     69  C   UNL A   1      44.443  35.307  30.918  1.00  0.00     0.059 A 
ATOM     70  F   UNL A   1      44.466  33.716  29.195  1.00  0.00    -0.206 F 
ATOM     71  C   UNL A   1      44.193  35.626  32.252  1.00  0.00     0.060 A 
BRANCH  71  72
ATOM     72  S   UNL A   1      44.424  37.315  32.849  1.00  0.00     0.124 S 
ATOM     73  O   UNL A   1      45.562  37.148  33.749  1.00  0.00    -0.237 OA
ATOM     74  O   UNL A   1      44.693  38.049  31.618  1.00  0.00    -0.237 OA
ATOM     75  O   UNL A   1      43.152  37.623  33.495  1.00  0.00    -0.744 OA
ENDBRANCH  71  72
ENDBRANCH  50  64
BRANCH  51  76
ATOM     76  C   UNL A   1      42.584  23.771  27.766  1.00  0.00     0.058 A 
ATOM     77  C   UNL A   1      42.427  22.656  28.602  1.00  0.00     0.135 A 
ATOM     78  C   UNL A   1      42.541  23.563  26.379  1.00  0.00     0.135 A 
ATOM     79  F   UNL A   1      42.465  22.808  29.935  1.00  0.00    -0.206 F 
ATOM     80  C   UNL A   1      42.247  21.378  28.085  1.00  0.00     0.059 A 
ATOM     81  C   UNL A   1      42.340  22.297  25.838  1.00  0.00     0.059 A 
ATOM     82  F   UNL A   1      42.665  24.603  25.540  1.00  0.00    -0.206 F 
ATOM     83  C   UNL A   1      42.203  21.210  26.699  1.00  0.00     0.060 A 
BRANCH  83  84
ATOM     84  S   UNL A   1      41.909  19.555  26.038  1.00  0.00     0.124 S 
ATOM     85  O   UNL A   1      42.351  18.715  27.142  1.00  0.00    -0.237 OA
ATOM     86  O   UNL A   1      40.471  19.576  25.784  1.00  0.00    -0.237 OA
ATOM     87  O   UNL A   1      42.745  19.522  24.840  1.00  0.00    -0.744 OA
ENDBRANCH  83  84
ENDBRANCH  51  76
BRANCH  63  88
ATOM     88  C   UNL A   1      47.960  27.130  30.663  1.00  0.00     0.058 A 
ATOM     89  C   UNL A   1      49.026  27.461  29.814  1.00  0.00     0.135 A 
ATOM     90  C   UNL A   1      48.252  26.422  31.841  1.00  0.00     0.135 A 
ATOM     91  F   UNL A   1      48.797  28.128  28.671  1.00  0.00    -0.206 F 
ATOM     92  C   UNL A   1      50.332  27.086  30.109  1.00  0.00     0.059 A 
ATOM     93  C   UNL A   1      49.555  26.058  32.168  1.00  0.00     0.059 A 
ATOM     94  F   UNL A   1      47.269  26.089  32.691  1.00  0.00    -0.206 F 
ATOM     95  C   UNL A   1      50.587  26.384  31.289  1.00  0.00     0.060 A 
BRANCH  95  96
ATOM     96  S   UNL A   1      52.290  25.926  31.677  1.00  0.00     0.124 S 
ATOM     97  O   UNL A   1      52.646  26.933  32.671  1.00  0.00    -0.237 OA
ATOM     98  O   UNL A   1      52.144  24.563  32.179  1.00  0.00    -0.237 OA
ATOM     99  O   UNL A   1      52.973  26.043  30.391  1.00  0.00    -0.744 OA
ENDBRANCH  95  96
ENDBRANCH  63  88
ENDBRANCH  37  38
ENDBRANCH  29  32
ENDBRANCH  27  28
ENDBRANCH  26  27
ENDBRANCH   1  26
TORSDOF 18
ENDMDL
MODEL 2
REMARK VINA RESULT:     -11.7      1.396      8.319
REMARK SMILES O=C(CCc1nc(-c2ccccc2)c(-c2ccccc2)o1)NCCCCNC(=O)c1ccc(-c2c3nc(c(-c4c(F)cc(S(=O)(=O)[O-])cc4F)c4ccc([nH]4)c(-c4c(F)cc(S(=O)(=O)[O-])cc4F)c4nc(c(-c5c(F)cc(S(=O)(=O)[O-])cc5F)c5ccc2[nH]5)C=C4)C=C3)cc1
REMARK SMILES IDX 24 1 23 2 22 3 1 4 2 5 3 7 4 8 5 9 6 10 21 11 7 12 14 13
REMARK SMILES IDX 8 14 9 15 13 16 10 17 12 18 11 19 15 20 16 21 20 22 17 23
REMARK SMILES IDX 19 24 18 25 25 26 26 27 27 28 28 29 29 31 30 32 31 33 95 34
REMARK SMILES IDX 32 35 94 36 33 37 34 38 35 39 88 40 36 41 93 42 87 43 89 44
REMARK SMILES IDX 37 45 92 46 86 47 85 48 38 50 72 51 51 52 71 53 52 54 55 55
REMARK SMILES IDX 70 56 90 57 53 58 54 59 69 61 91 62 56 63 39 64 40 65 49 66
REMARK SMILES IDX 41 67 42 68 48 69 50 70 43 71 44 72 45 73 46 74 47 75 73 76
REMARK SMILES IDX 74 77 83 78 75 79 76 80 82 81 84 82 77 83 78 84 79 85 80 86
REMARK SMILES IDX 81 87 57 88 58 89 67 90 59 91 60 92 66 93 68 94 61 95 62 96
REMARK SMILES IDX 63 97 64 98 65 99
REMARK H PARENT 22 6 27 30 89 49 55 60
REMARK Flexibility Score: inf
ROOT
ATOM      1  C   UNL A   1      33.706  27.850  24.848  1.00  0.00     0.023 C 
ENDROOT
BRANCH   1   2
ATOM      2  C   UNL A   1      33.901  26.522  25.581  1.00  0.00     0.116 C 
BRANCH   2   3
ATOM      3  N   UNL A   1      32.850  25.563  25.304  1.00  0.00    -0.356 N 
ATOM      4  O   UNL A   1      31.399  26.299  26.930  1.00  0.00    -0.275 OA
ATOM      5  C   UNL A   1      31.661  25.544  25.999  1.00  0.00     0.220 C 
ATOM      6  H   UNL A   1      32.991  24.899  24.590  1.00  0.00     0.163 HD
BRANCH   5   7
ATOM      7  C   UNL A   1      30.665  24.517  25.506  1.00  0.00     0.110 C 
BRANCH   7   8
ATOM      8  C   UNL A   1      30.663  23.281  26.398  1.00  0.00     0.107 C 
BRANCH   8   9
ATOM      9  C   UNL A   1      31.594  22.241  25.890  1.00  0.00     0.196 A 
ATOM     10  N   UNL A   1      31.329  20.998  25.553  1.00  0.00    -0.213 NA
ATOM     11  O   UNL A   1      32.915  22.579  25.827  1.00  0.00    -0.440 OA
ATOM     12  C   UNL A   1      32.560  20.482  25.220  1.00  0.00     0.117 A 
ATOM     13  C   UNL A   1      33.543  21.442  25.379  1.00  0.00     0.162 A 
BRANCH  12  14
ATOM     14  C   UNL A   1      32.759  19.111  24.808  1.00  0.00     0.004 A 
ATOM     15  C   UNL A   1      32.895  18.095  25.762  1.00  0.00     0.010 A 
ATOM     16  C   UNL A   1      32.845  18.798  23.447  1.00  0.00     0.010 A 
ATOM     17  C   UNL A   1      33.144  16.781  25.357  1.00  0.00     0.001 A 
ATOM     18  C   UNL A   1      33.105  17.486  23.047  1.00  0.00     0.001 A 
ATOM     19  C   UNL A   1      33.259  16.481  24.001  1.00  0.00     0.000 A 
ENDBRANCH  12  14
BRANCH  13  20
ATOM     20  C   UNL A   1      34.988  21.527  25.217  1.00  0.00     0.020 A 
ATOM     21  C   UNL A   1      35.645  22.761  25.341  1.00  0.00     0.012 A 
ATOM     22  C   UNL A   1      35.762  20.384  24.972  1.00  0.00     0.012 A 
ATOM     23  C   UNL A   1      37.039  22.843  25.278  1.00  0.00     0.001 A 
ATOM     24  C   UNL A   1      37.155  20.468  24.889  1.00  0.00     0.001 A 
ATOM     25  C   UNL A   1      37.793  21.694  25.057  1.00  0.00     0.000 A 
ENDBRANCH  13  20
ENDBRANCH   8   9
ENDBRANCH   7   8
ENDBRANCH   5   7
ENDBRANCH   2   3
ENDBRANCH   1   2
BRANCH   1  26
ATOM     26  C   UNL A   1      33.573  29.094  25.736  1.00  0.00     0.023 C 
BRANCH  26  27
ATOM     27  C   UNL A   1      33.926  28.912  27.210  1.00  0.00     0.116 C 
BRANCH  27  28
ATOM     28  N   UNL A   1      33.894  30.146  27.973  1.00  0.00    -0.352 N 
ATOM     29  C   UNL A   1      34.882  30.762  28.711  1.00  0.00     0.251 C 
ATOM     30  H   UNL A   1      33.030  30.619  27.962  1.00  0.00     0.163 HD
ATOM     31  O   UNL A   1      34.591  31.770  29.353  1.00  0.00    -0.269 OA
BRANCH  29  32
ATOM     32  C   UNL A   1      36.269  30.225  28.783  1.00  0.00     0.039 A 
ATOM     33  C   UNL A   1      37.052  30.234  27.621  1.00  0.00     0.014 A 
ATOM     34  C   UNL A   1      36.805  29.682  29.952  1.00  0.00     0.014 A 
ATOM     35  C   UNL A   1      38.377  29.780  27.653  1.00  0.00     0.010 A 
ATOM     36  C   UNL A   1      38.136  29.259  29.996  1.00  0.00     0.010 A 
ATOM     37  C   UNL A   1      38.941  29.324  28.853  1.00  0.00    -0.014 A 
BRANCH  37  38
ATOM     38  C   UNL A   1      40.390  29.012  28.958  1.00  0.00     0.031 A 
ATOM     39  C   UNL A   1      40.928  27.655  28.603  1.00  0.00     0.074 A 
ATOM     40  C   UNL A   1      41.213  29.949  29.469  1.00  0.00     0.049 A 
ATOM     41  N   UNL A   1      42.163  27.224  28.646  1.00  0.00    -0.248 NA
ATOM     42  C   UNL A   1      39.954  26.649  28.155  1.00  0.00     0.031 C 
ATOM     43  C   UNL A   1      40.797  31.282  29.915  1.00  0.00     0.029 A 
ATOM     44  N   UNL A   1      42.562  29.921  29.718  1.00  0.00    -0.354 N 
ATOM     45  C   UNL A   1      42.121  25.900  28.227  1.00  0.00     0.074 A 
ATOM     46  C   UNL A   1      40.728  25.586  27.974  1.00  0.00     0.031 C 
ATOM     47  C   UNL A   1      41.869  31.944  30.378  1.00  0.00     0.029 A 
ATOM     48  C   UNL A   1      43.043  31.082  30.277  1.00  0.00     0.049 A 
ATOM     49  H   UNL A   1      43.131  29.145  29.516  1.00  0.00     0.167 HD
ATOM     50  C   UNL A   1      43.150  25.035  28.052  1.00  0.00     0.037 A 
ATOM     51  C   UNL A   1      44.288  31.418  30.664  1.00  0.00     0.037 A 
ATOM     52  C   UNL A   1      44.533  25.356  28.302  1.00  0.00     0.049 A 
ATOM     53  C   UNL A   1      45.413  30.443  30.457  1.00  0.00     0.074 A 
ATOM     54  C   UNL A   1      45.653  24.571  28.081  1.00  0.00     0.029 A 
ATOM     55  N   UNL A   1      44.986  26.549  28.845  1.00  0.00    -0.354 N 
ATOM     56  N   UNL A   1      45.368  29.230  29.960  1.00  0.00    -0.248 NA
ATOM     57  C   UNL A   1      46.758  30.886  30.849  1.00  0.00     0.031 C 
ATOM     58  C   UNL A   1      46.778  25.274  28.528  1.00  0.00     0.029 A 
ATOM     59  C   UNL A   1      46.364  26.513  28.991  1.00  0.00     0.049 A 
ATOM     60  H   UNL A   1      44.413  27.312  29.090  1.00  0.00     0.167 HD
ATOM     61  C   UNL A   1      46.681  28.776  29.951  1.00  0.00     0.074 A 
ATOM     62  C   UNL A   1      47.498  29.846  30.489  1.00  0.00     0.031 C 
ATOM     63  C   UNL A   1      47.167  27.583  29.529  1.00  0.00     0.037 A 
BRANCH  50  64
ATOM     64  C   UNL A   1      42.828  23.653  27.552  1.00  0.00     0.058 A 
ATOM     65  C   UNL A   1      42.844  23.348  26.182  1.00  0.00     0.135 A 
ATOM     66  C   UNL A   1      42.563  22.608  28.452  1.00  0.00     0.135 A 
ATOM     67  F   UNL A   1      43.084  24.311  25.277  1.00  0.00    -0.206 F 
ATOM     68  C   UNL A   1      42.587  22.061  25.719  1.00  0.00     0.059 A 
ATOM     69  C   UNL A   1      42.325  21.309  28.013  1.00  0.00     0.059 A 
ATOM     70  F   UNL A   1      42.538  22.845  29.772  1.00  0.00    -0.206 F 
ATOM     71  C   UNL A   1      42.326  21.048  26.643  1.00  0.00     0.060 A 
BRANCH  71  72
ATOM     72  S   UNL A   1      42.003  19.380  26.028  1.00  0.00     0.124 S 
ATOM     73  O   UNL A   1      40.574  19.451  25.741  1.00  0.00    -0.237 OA
ATOM     74  O   UNL A   1      42.880  19.300  24.865  1.00  0.00    -0.237 OA
ATOM     75  O   UNL A   1      42.378  18.527  27.152  1.00  0.00    -0.744 OA
ENDBRANCH  71  72
ENDBRANCH  50  64
BRANCH  51  76
ATOM     76  C   UNL A   1      44.539  32.759  31.248  1.00  0.00     0.058 A 
ATOM     77  C   UNL A   1      44.827  33.858  30.427  1.00  0.00     0.135 A 
ATOM     78  C   UNL A   1      44.465  32.974  32.633  1.00  0.00     0.135 A 
ATOM     79  F   UNL A   1      44.911  33.697  29.097  1.00  0.00    -0.206 F 
ATOM     80  C   UNL A   1      45.047  35.125  30.957  1.00  0.00     0.059 A 
ATOM     81  C   UNL A   1      44.659  34.236  33.185  1.00  0.00     0.059 A 
ATOM     82  F   UNL A   1      44.172  31.956  33.456  1.00  0.00    -0.206 F 
ATOM     83  C   UNL A   1      44.959  35.304  32.339  1.00  0.00     0.060 A 
BRANCH  83  84
ATOM     84  S   UNL A   1      45.187  36.964  33.013  1.00  0.00     0.124 S 
ATOM     85  O   UNL A   1      46.630  37.009  33.197  1.00  0.00    -0.237 OA
ATOM     86  O   UNL A   1      44.650  37.805  31.947  1.00  0.00    -0.237 OA
ATOM     87  O   UNL A   1      44.390  36.938  34.238  1.00  0.00    -0.744 OA
ENDBRANCH  83  84
ENDBRANCH  51  76
BRANCH  63  88
ATOM     88  C   UNL A   1      48.654  27.378  29.609  1.00  0.00     0.058 A 
ATOM     89  C   UNL A   1      49.515  27.831  28.598  1.00  0.00     0.135 A 
ATOM     90  C   UNL A   1      49.227  26.750  30.728  1.00  0.00     0.135 A 
ATOM     91  F   UNL A   1      49.016  28.428  27.504  1.00  0.00    -0.206 F 
ATOM     92  C   UNL A   1      50.891  27.649  28.681  1.00  0.00     0.059 A 
ATOM     93  C   UNL A   1      50.603  26.578  30.843  1.00  0.00     0.059 A 
ATOM     94  F   UNL A   1      48.447  26.306  31.726  1.00  0.00    -0.206 F 
ATOM     95  C   UNL A   1      51.426  27.021  29.808  1.00  0.00     0.060 A 
BRANCH  95  96
ATOM     96  S   UNL A   1      53.217  26.815  29.919  1.00  0.00     0.124 S 
ATOM     97  O   UNL A   1      53.521  26.193  28.635  1.00  0.00    -0.237 OA
ATOM     98  O   UNL A   1      53.682  28.188  30.085  1.00  0.00    -0.237 OA
ATOM     99  O   UNL A   1      53.386  25.958  31.089  1.00  0.00    -0.744 OA
ENDBRANCH  95  96
ENDBRANCH  63  88
ENDBRANCH  37  38
ENDBRANCH  29  32
ENDBRANCH  27  28
ENDBRANCH  26  27
ENDBRANCH   1  26
TORSDOF 18
ENDMDL
MODEL 3
REMARK VINA RESULT:     -11.5      4.722     10.426
REMARK SMILES O=C(CCc1nc(-c2ccccc2)c(-c2ccccc2)o1)NCCCCNC(=O)c1ccc(-c2c3nc(c(-c4c(F)cc(S(=O)(=O)[O-])cc4F)c4ccc([nH]4)c(-c4c(F)cc(S(=O)(=O)[O-])cc4F)c4nc(c(-c5c(F)cc(S(=O)(=O)[O-])cc5F)c5ccc2[nH]5)C=C4)C=C3)cc1
REMARK SMILES IDX 24 1 23 2 22 3 1 4 2 5 3 7 4 8 5 9 6 10 21 11 7 12 14 13
REMARK SMILES IDX 8 14 9 15 13 16 10 17 12 18 11 19 15 20 16 21 20 22 17 23
REMARK SMILES IDX 19 24 18 25 25 26 26 27 27 28 28 29 29 31 30 32 31 33 95 34
REMARK SMILES IDX 32 35 94 36 33 37 34 38 35 39 88 40 36 41 93 42 87 43 89 44
REMARK SMILES IDX 37 45 92 46 86 47 85 48 38 50 72 51 51 52 71 53 52 54 55 55
REMARK SMILES IDX 70 56 90 57 53 58 54 59 69 61 91 62 56 63 39 64 40 65 49 66
REMARK SMILES IDX 41 67 42 68 48 69 50 70 43 71 44 72 45 73 46 74 47 75 73 76
REMARK SMILES IDX 74 77 83 78 75 79 76 80 82 81 84 82 77 83 78 84 79 85 80 86
REMARK SMILES IDX 81 87 57 88 58 89 67 90 59 91 60 92 66 93 68 94 61 95 62 96
REMARK SMILES IDX 63 97 64 98 65 99
REMARK H PARENT 22 6 27 30 89 49 55 60
REMARK Flexibility Score: inf
ROOT
ATOM      1  C   UNL A   1      36.975  23.562  25.108  1.00  0.00     0.023 C 
ENDROOT
BRANCH   1   2
ATOM      2  C   UNL A   1      35.587  23.061  25.510  1.00  0.00     0.116 C 
BRANCH   2   3
ATOM      3  N   UNL A   1      34.600  23.226  24.462  1.00  0.00    -0.356 N 
ATOM      4  O   UNL A   1      34.005  21.008  24.321  1.00  0.00    -0.275 OA
ATOM      5  C   UNL A   1      33.866  22.173  23.962  1.00  0.00     0.220 C 
ATOM      6  H   UNL A   1      34.446  24.127  24.094  1.00  0.00     0.163 HD
BRANCH   5   7
ATOM      7  C   UNL A   1      32.832  22.567  22.928  1.00  0.00     0.110 C 
BRANCH   7   8
ATOM      8  C   UNL A   1      31.447  22.679  23.553  1.00  0.00     0.107 C 
BRANCH   8   9
ATOM      9  C   UNL A   1      31.087  24.093  23.830  1.00  0.00     0.196 A 
ATOM     10  N   UNL A   1      30.148  24.824  23.269  1.00  0.00    -0.213 NA
ATOM     11  O   UNL A   1      31.867  24.759  24.731  1.00  0.00    -0.440 OA
ATOM     12  C   UNL A   1      30.304  26.059  23.858  1.00  0.00     0.117 A 
ATOM     13  C   UNL A   1      31.351  26.032  24.760  1.00  0.00     0.162 A 
BRANCH  12  14
ATOM     14  C   UNL A   1      29.491  27.205  23.520  1.00  0.00     0.004 A 
ATOM     15  C   UNL A   1      28.102  27.168  23.697  1.00  0.00     0.010 A 
ATOM     16  C   UNL A   1      30.090  28.351  22.986  1.00  0.00     0.010 A 
ATOM     17  C   UNL A   1      27.318  28.259  23.314  1.00  0.00     0.001 A 
ATOM     18  C   UNL A   1      29.301  29.434  22.595  1.00  0.00     0.001 A 
ATOM     19  C   UNL A   1      27.917  29.385  22.755  1.00  0.00     0.000 A 
ENDBRANCH  12  14
BRANCH  13  20
ATOM     20  C   UNL A   1      32.010  26.971  25.659  1.00  0.00     0.020 A 
ATOM     21  C   UNL A   1      33.402  27.147  25.606  1.00  0.00     0.012 A 
ATOM     22  C   UNL A   1      31.276  27.746  26.568  1.00  0.00     0.012 A 
ATOM     23  C   UNL A   1      34.035  28.109  26.398  1.00  0.00     0.001 A 
ATOM     24  C   UNL A   1      31.911  28.694  27.375  1.00  0.00     0.001 A 
ATOM     25  C   UNL A   1      33.287  28.886  27.279  1.00  0.00     0.000 A 
ENDBRANCH  13  20
ENDBRANCH   8   9
ENDBRANCH   7   8
ENDBRANCH   5   7
ENDBRANCH   2   3
ENDBRANCH   1   2
BRANCH   1  26
ATOM     26  C   UNL A   1      38.163  22.851  25.767  1.00  0.00     0.023 C 
BRANCH  26  27
ATOM     27  C   UNL A   1      39.047  23.709  26.669  1.00  0.00     0.116 C 
BRANCH  27  28
ATOM     28  N   UNL A   1      40.426  23.794  26.224  1.00  0.00    -0.352 N 
ATOM     29  C   UNL A   1      41.409  24.706  26.539  1.00  0.00     0.251 C 
ATOM     30  H   UNL A   1      40.703  23.087  25.596  1.00  0.00     0.163 HD
ATOM     31  O   UNL A   1      42.491  24.625  25.961  1.00  0.00    -0.269 OA
BRANCH  29  32
ATOM     32  C   UNL A   1      41.188  25.802  27.523  1.00  0.00     0.039 A 
ATOM     33  C   UNL A   1      40.067  25.732  28.363  1.00  0.00     0.014 A 
ATOM     34  C   UNL A   1      42.030  26.911  27.618  1.00  0.00     0.014 A 
ATOM     35  C   UNL A   1      39.844  26.717  29.333  1.00  0.00     0.010 A 
ATOM     36  C   UNL A   1      41.829  27.877  28.606  1.00  0.00     0.010 A 
ATOM     37  C   UNL A   1      40.746  27.779  29.487  1.00  0.00    -0.014 A 
BRANCH  37  38
ATOM     38  C   UNL A   1      40.635  28.731  30.622  1.00  0.00     0.031 A 
ATOM     39  C   UNL A   1      41.464  28.569  31.864  1.00  0.00     0.074 A 
ATOM     40  C   UNL A   1      39.703  29.701  30.558  1.00  0.00     0.049 A 
ATOM     41  N   UNL A   1      41.480  29.309  32.944  1.00  0.00    -0.248 NA
ATOM     42  C   UNL A   1      42.384  27.422  31.907  1.00  0.00     0.031 C 
ATOM     43  C   UNL A   1      38.789  29.917  29.433  1.00  0.00     0.029 A 
ATOM     44  N   UNL A   1      39.353  30.673  31.461  1.00  0.00    -0.354 N 
ATOM     45  C   UNL A   1      42.412  28.726  33.794  1.00  0.00     0.074 A 
ATOM     46  C   UNL A   1      42.910  27.544  33.120  1.00  0.00     0.031 C 
ATOM     47  C   UNL A   1      37.988  30.958  29.712  1.00  0.00     0.029 A 
ATOM     48  C   UNL A   1      38.318  31.473  31.037  1.00  0.00     0.049 A 
ATOM     49  H   UNL A   1      39.800  30.788  32.330  1.00  0.00     0.167 HD
ATOM     50  C   UNL A   1      42.825  29.150  35.014  1.00  0.00     0.037 A 
ATOM     51  C   UNL A   1      37.704  32.507  31.642  1.00  0.00     0.037 A 
ATOM     52  C   UNL A   1      42.327  30.329  35.677  1.00  0.00     0.049 A 
ATOM     53  C   UNL A   1      38.182  32.960  32.993  1.00  0.00     0.074 A 
ATOM     54  C   UNL A   1      42.740  30.882  36.878  1.00  0.00     0.029 A 
ATOM     55  N   UNL A   1      41.296  31.129  35.206  1.00  0.00    -0.354 N 
ATOM     56  N   UNL A   1      39.139  32.458  33.737  1.00  0.00    -0.248 NA
ATOM     57  C   UNL A   1      37.510  34.126  33.581  1.00  0.00     0.031 C 
ATOM     58  C   UNL A   1      41.931  31.991  37.154  1.00  0.00     0.029 A 
ATOM     59  C   UNL A   1      41.041  32.154  36.105  1.00  0.00     0.049 A 
ATOM     60  H   UNL A   1      40.816  30.991  34.358  1.00  0.00     0.167 HD
ATOM     61  C   UNL A   1      39.204  33.265  34.866  1.00  0.00     0.074 A 
ATOM     62  C   UNL A   1      38.192  34.290  34.706  1.00  0.00     0.031 C 
ATOM     63  C   UNL A   1      40.031  33.168  35.935  1.00  0.00     0.037 A 
BRANCH  50  64
ATOM     64  C   UNL A   1      43.882  28.342  35.716  1.00  0.00     0.058 A 
ATOM     65  C   UNL A   1      45.248  28.587  35.510  1.00  0.00     0.135 A 
ATOM     66  C   UNL A   1      43.528  27.356  36.652  1.00  0.00     0.135 A 
ATOM     67  F   UNL A   1      45.643  29.513  34.621  1.00  0.00    -0.206 F 
ATOM     68  C   UNL A   1      46.228  27.869  36.189  1.00  0.00     0.059 A 
ATOM     69  C   UNL A   1      44.490  26.641  37.359  1.00  0.00     0.059 A 
ATOM     70  F   UNL A   1      42.236  27.084  36.888  1.00  0.00    -0.206 F 
ATOM     71  C   UNL A   1      45.838  26.896  37.111  1.00  0.00     0.060 A 
BRANCH  71  72
ATOM     72  S   UNL A   1      47.121  25.978  37.992  1.00  0.00     0.124 S 
ATOM     73  O   UNL A   1      48.006  25.596  36.896  1.00  0.00    -0.237 OA
ATOM     74  O   UNL A   1      47.648  26.980  38.912  1.00  0.00    -0.237 OA
ATOM     75  O   UNL A   1      46.385  24.883  38.617  1.00  0.00    -0.744 OA
ENDBRANCH  71  72
ENDBRANCH  50  64
BRANCH  51  76
ATOM     76  C   UNL A   1      36.595  33.211  30.951  1.00  0.00     0.058 A 
ATOM     77  C   UNL A   1      35.267  33.036  31.363  1.00  0.00     0.135 A 
ATOM     78  C   UNL A   1      36.843  34.092  29.889  1.00  0.00     0.135 A 
ATOM     79  F   UNL A   1      34.982  32.199  32.374  1.00  0.00    -0.206 F 
ATOM     80  C   UNL A   1      34.217  33.701  30.738  1.00  0.00     0.059 A 
ATOM     81  C   UNL A   1      35.813  34.786  29.262  1.00  0.00     0.059 A 
ATOM     82  F   UNL A   1      38.101  34.307  29.473  1.00  0.00    -0.206 F 
ATOM     83  C   UNL A   1      34.502  34.576  29.689  1.00  0.00     0.060 A 
BRANCH  83  84
ATOM     84  S   UNL A   1      33.139  35.480  28.923  1.00  0.00     0.124 S 
ATOM     85  O   UNL A   1      32.427  35.982  30.090  1.00  0.00    -0.237 OA
ATOM     86  O   UNL A   1      33.843  36.479  28.124  1.00  0.00    -0.237 OA
ATOM     87  O   UNL A   1      32.447  34.450  28.151  1.00  0.00    -0.744 OA
ENDBRANCH  83  84
ENDBRANCH  51  76
BRANCH  63  88
ATOM     88  C   UNL A   1      39.894  34.213  37.008  1.00  0.00     0.058 A 
ATOM     89  C   UNL A   1      40.464  35.488  36.871  1.00  0.00     0.135 A 
ATOM     90  C   UNL A   1      39.155  33.946  38.173  1.00  0.00     0.135 A 
ATOM     91  F   UNL A   1      41.188  35.790  35.781  1.00  0.00    -0.206 F 
ATOM     92  C   UNL A   1      40.326  36.455  37.860  1.00  0.00     0.059 A 
ATOM     93  C   UNL A   1      38.984  34.906  39.164  1.00  0.00     0.059 A 
ATOM     94  F   UNL A   1      38.582  32.745  38.348  1.00  0.00    -0.206 F 
ATOM     95  C   UNL A   1      39.584  36.155  39.004  1.00  0.00     0.060 A 
BRANCH  95  96
ATOM     96  S   UNL A   1      39.386  37.428  40.270  1.00  0.00     0.124 S 
ATOM     97  O   UNL A   1      38.736  36.679  41.340  1.00  0.00    -0.237 OA
ATOM     98  O   UNL A   1      40.765  37.833  40.528  1.00  0.00    -0.237 OA
ATOM     99  O   UNL A   1      38.558  38.433  39.612  1.00  0.00    -0.744 OA
ENDBRANCH  95  96
ENDBRANCH  63  88
ENDBRANCH  37  38
ENDBRANCH  29  32
ENDBRANCH  27  28
ENDBRANCH  26  27
ENDBRANCH   1  26
TORSDOF 18
ENDMDL
