MODEL 1
REMARK VINA RESULT:     -12.2      0.000      0.000
REMARK SMILES CC(C)(Cn1ccc2ccc([N+](=O)[O-])cc21)C(=O)NCCCCNC(=O)c1ccc(-c2c3nc(c(-c4c(F)cc(S(=O)(=O)[O-])cc4F)c4ccc([nH]4)c(-c4c(F)cc(S(=O)(=O)[O-])cc4F)c4nc(c(-c5c(F)cc(S(=O)(=O)[O-])cc5F)c5ccc2[nH]5)C=C4)C=C3)cc1
REMARK SMILES IDX 21 1 20 2 19 3 17 4 18 5 2 7 1 8 3 9 4 10 5 11 6 12 16 13
REMARK SMILES IDX 7 14 8 15 15 16 9 17 11 18 10 19 12 20 13 21 14 22 22 23
REMARK SMILES IDX 23 24 24 25 25 26 26 28 27 29 28 30 92 31 29 32 91 33 30 34
REMARK SMILES IDX 31 35 32 36 85 37 33 38 90 39 84 40 86 41 34 42 89 43 83 44
REMARK SMILES IDX 82 45 35 47 69 48 48 49 68 50 49 51 52 52 67 53 87 54 50 55
REMARK SMILES IDX 51 56 66 58 88 59 53 60 36 61 37 62 46 63 38 64 39 65 45 66
REMARK SMILES IDX 47 67 40 68 41 69 42 70 43 71 44 72 70 73 71 74 80 75 72 76
REMARK SMILES IDX 73 77 79 78 81 79 74 80 75 81 76 82 77 83 78 84 54 85 55 86
REMARK SMILES IDX 64 87 56 88 57 89 63 90 65 91 58 92 59 93 60 94 61 95 62 96
REMARK H PARENT 19 6 24 27 86 46 52 57
REMARK Flexibility Score: inf
ROOT
ATOM      1  C   UNL A   1      41.228  20.674  27.040  1.00  0.00     0.023 C 
ENDROOT
BRANCH   1   2
ATOM      2  C   UNL A   1      39.950  21.409  26.641  1.00  0.00     0.116 C 
BRANCH   2   3
ATOM      3  N   UNL A   1      39.100  20.665  25.719  1.00  0.00    -0.356 N 
ATOM      4  C   UNL A   1      37.939  20.959  25.068  1.00  0.00     0.227 C 
ATOM      5  O   UNL A   1      37.535  20.113  24.265  1.00  0.00    -0.274 OA
ATOM      6  H   UNL A   1      39.435  19.760  25.527  1.00  0.00     0.163 HD
BRANCH   4   7
ATOM      7  C   UNL A   1      37.162  22.262  25.304  1.00  0.00     0.061 C 
ATOM      8  C   UNL A   1      36.896  22.965  23.948  1.00  0.00     0.023 C 
ATOM      9  C   UNL A   1      38.043  23.258  26.091  1.00  0.00     0.023 C 
BRANCH   7  10
ATOM     10  C   UNL A   1      35.823  21.963  26.026  1.00  0.00     0.138 C 
BRANCH  10  11
ATOM     11  N   UNL A   1      34.645  21.765  25.179  1.00  0.00    -0.346 N 
ATOM     12  C   UNL A   1      33.794  22.798  24.854  1.00  0.00     0.087 A 
ATOM     13  C   UNL A   1      34.138  20.573  24.684  1.00  0.00     0.055 A 
ATOM     14  C   UNL A   1      32.736  22.282  24.148  1.00  0.00     0.028 A 
ATOM     15  C   UNL A   1      32.929  20.881  24.044  1.00  0.00     0.000 A 
ATOM     16  C   UNL A   1      34.610  19.246  24.723  1.00  0.00     0.112 A 
ATOM     17  C   UNL A   1      32.163  19.851  23.458  1.00  0.00     0.017 A 
ATOM     18  C   UNL A   1      33.835  18.241  24.108  1.00  0.00     0.271 A 
ATOM     19  C   UNL A   1      32.618  18.530  23.497  1.00  0.00     0.086 A 
BRANCH  18  20
ATOM     20  N   UNL A   1      34.338  16.860  24.071  1.00  0.00     0.062 N 
ATOM     21  O   UNL A   1      34.944  16.443  25.069  1.00  0.00    -0.258 OA
ATOM     22  O   UNL A   1      34.168  16.206  23.035  1.00  0.00    -0.258 OA
ENDBRANCH  18  20
ENDBRANCH  10  11
ENDBRANCH   7  10
ENDBRANCH   4   7
ENDBRANCH   2   3
ENDBRANCH   1   2
BRANCH   1  23
ATOM     23  C   UNL A   1      41.599  19.480  26.160  1.00  0.00     0.023 C 
BRANCH  23  24
ATOM     24  C   UNL A   1      43.076  19.103  26.162  1.00  0.00     0.116 C 
BRANCH  24  25
ATOM     25  N   UNL A   1      43.769  19.518  24.964  1.00  0.00    -0.352 N 
ATOM     26  C   UNL A   1      44.319  20.693  24.532  1.00  0.00     0.251 C 
ATOM     27  H   UNL A   1      43.868  18.789  24.310  1.00  0.00     0.163 HD
ATOM     28  O   UNL A   1      44.904  20.631  23.447  1.00  0.00    -0.269 OA
BRANCH  26  29
ATOM     29  C   UNL A   1      44.239  22.003  25.238  1.00  0.00     0.039 A 
ATOM     30  C   UNL A   1      45.039  22.416  26.307  1.00  0.00     0.014 A 
ATOM     31  C   UNL A   1      43.229  22.875  24.787  1.00  0.00     0.014 A 
ATOM     32  C   UNL A   1      44.798  23.633  26.944  1.00  0.00     0.010 A 
ATOM     33  C   UNL A   1      42.996  24.098  25.409  1.00  0.00     0.010 A 
ATOM     34  C   UNL A   1      43.761  24.462  26.512  1.00  0.00    -0.014 A 
BRANCH  34  35
ATOM     35  C   UNL A   1      43.566  25.738  27.199  1.00  0.00     0.031 A 
ATOM     36  C   UNL A   1      44.601  26.783  26.945  1.00  0.00     0.074 A 
ATOM     37  C   UNL A   1      42.460  26.031  27.913  1.00  0.00     0.049 A 
ATOM     38  N   UNL A   1      45.363  27.392  27.796  1.00  0.00    -0.248 NA
ATOM     39  C   UNL A   1      44.871  27.142  25.544  1.00  0.00     0.031 C 
ATOM     40  C   UNL A   1      41.228  25.248  28.031  1.00  0.00     0.029 A 
ATOM     41  N   UNL A   1      42.175  27.165  28.614  1.00  0.00    -0.354 N 
ATOM     42  C   UNL A   1      46.091  28.334  27.069  1.00  0.00     0.074 A 
ATOM     43  C   UNL A   1      45.836  28.053  25.680  1.00  0.00     0.031 C 
ATOM     44  C   UNL A   1      40.261  26.021  28.575  1.00  0.00     0.029 A 
ATOM     45  C   UNL A   1      40.839  27.298  28.961  1.00  0.00     0.049 A 
ATOM     46  H   UNL A   1      42.860  27.832  28.853  1.00  0.00     0.167 HD
ATOM     47  C   UNL A   1      46.724  29.386  27.661  1.00  0.00     0.037 A 
ATOM     48  C   UNL A   1      40.235  28.402  29.466  1.00  0.00     0.037 A 
ATOM     49  C   UNL A   1      46.915  29.165  29.069  1.00  0.00     0.049 A 
ATOM     50  C   UNL A   1      41.294  29.240  30.086  1.00  0.00     0.074 A 
ATOM     51  C   UNL A   1      47.602  28.230  29.819  1.00  0.00     0.029 A 
ATOM     52  N   UNL A   1      46.077  29.802  29.951  1.00  0.00    -0.354 N 
ATOM     53  N   UNL A   1      41.984  28.891  31.139  1.00  0.00    -0.248 NA
ATOM     54  C   UNL A   1      41.883  30.302  29.283  1.00  0.00     0.031 C 
ATOM     55  C   UNL A   1      46.799  28.022  30.978  1.00  0.00     0.029 A 
ATOM     56  C   UNL A   1      45.693  28.870  30.880  1.00  0.00     0.049 A 
ATOM     57  H   UNL A   1      45.805  30.749  29.921  1.00  0.00     0.167 HD
ATOM     58  C   UNL A   1      43.261  29.381  30.911  1.00  0.00     0.074 A 
ATOM     59  C   UNL A   1      43.111  30.325  29.806  1.00  0.00     0.031 C 
ATOM     60  C   UNL A   1      44.364  28.786  31.452  1.00  0.00     0.037 A 
BRANCH  47  61
ATOM     61  C   UNL A   1      46.915  30.745  27.028  1.00  0.00     0.058 A 
ATOM     62  C   UNL A   1      48.196  31.341  27.016  1.00  0.00     0.135 A 
ATOM     63  C   UNL A   1      45.846  31.604  26.688  1.00  0.00     0.135 A 
ATOM     64  F   UNL A   1      49.289  30.624  27.324  1.00  0.00    -0.206 F 
ATOM     65  C   UNL A   1      48.388  32.701  26.768  1.00  0.00     0.059 A 
ATOM     66  C   UNL A   1      46.022  32.950  26.386  1.00  0.00     0.059 A 
ATOM     67  F   UNL A   1      44.570  31.201  26.733  1.00  0.00    -0.206 F 
ATOM     68  C   UNL A   1      47.288  33.502  26.476  1.00  0.00     0.060 A 
BRANCH  68  69
ATOM     69  S   UNL A   1      47.511  35.281  26.299  1.00  0.00     0.124 S 
ATOM     70  O   UNL A   1      48.009  35.645  27.620  1.00  0.00    -0.237 OA
ATOM     71  O   UNL A   1      48.475  35.361  25.207  1.00  0.00    -0.237 OA
ATOM     72  O   UNL A   1      46.168  35.758  25.977  1.00  0.00    -0.744 OA
ENDBRANCH  68  69
ENDBRANCH  47  61
BRANCH  48  73
ATOM     73  C   UNL A   1      38.869  28.901  29.145  1.00  0.00     0.058 A 
ATOM     74  C   UNL A   1      37.885  29.056  30.137  1.00  0.00     0.135 A 
ATOM     75  C   UNL A   1      38.576  29.475  27.889  1.00  0.00     0.135 A 
ATOM     76  F   UNL A   1      38.092  28.577  31.374  1.00  0.00    -0.206 F 
ATOM     77  C   UNL A   1      36.695  29.757  29.904  1.00  0.00     0.059 A 
ATOM     78  C   UNL A   1      37.392  30.163  27.630  1.00  0.00     0.059 A 
ATOM     79  F   UNL A   1      39.473  29.463  26.893  1.00  0.00    -0.206 F 
ATOM     80  C   UNL A   1      36.463  30.319  28.649  1.00  0.00     0.060 A 
BRANCH  80  81
ATOM     81  S   UNL A   1      34.994  31.337  28.379  1.00  0.00     0.124 S 
ATOM     82  O   UNL A   1      35.488  32.340  27.442  1.00  0.00    -0.237 OA
ATOM     83  O   UNL A   1      34.047  30.370  27.836  1.00  0.00    -0.237 OA
ATOM     84  O   UNL A   1      34.675  31.837  29.714  1.00  0.00    -0.744 OA
ENDBRANCH  80  81
ENDBRANCH  48  73
BRANCH  60  85
ATOM     85  C   UNL A   1      44.178  27.747  32.530  1.00  0.00     0.058 A 
ATOM     86  C   UNL A   1      43.910  28.060  33.875  1.00  0.00     0.135 A 
ATOM     87  C   UNL A   1      44.042  26.403  32.147  1.00  0.00     0.135 A 
ATOM     88  F   UNL A   1      43.924  29.329  34.302  1.00  0.00    -0.206 F 
ATOM     89  C   UNL A   1      43.534  27.082  34.797  1.00  0.00     0.059 A 
ATOM     90  C   UNL A   1      43.638  25.415  33.045  1.00  0.00     0.059 A 
ATOM     91  F   UNL A   1      44.226  26.047  30.866  1.00  0.00    -0.206 F 
ATOM     92  C   UNL A   1      43.386  25.764  34.371  1.00  0.00     0.060 A 
BRANCH  92  93
ATOM     93  S   UNL A   1      42.761  24.530  35.534  1.00  0.00     0.124 S 
ATOM     94  O   UNL A   1      43.710  24.644  36.641  1.00  0.00    -0.237 OA
ATOM     95  O   UNL A   1      41.409  25.014  35.815  1.00  0.00    -0.237 OA
ATOM     96  O   UNL A   1      42.824  23.284  34.785  1.00  0.00    -0.744 OA
ENDBRANCH  92  93
ENDBRANCH  60  85
ENDBRANCH  34  35
ENDBRANCH  26  29
ENDBRANCH  24  25
ENDBRANCH  23  24
ENDBRANCH   1  23
TORSDOF 17
ENDMDL
MODEL 2
REMARK VINA RESULT:     -12.2      2.131      3.173
REMARK SMILES CC(C)(Cn1ccc2ccc([N+](=O)[O-])cc21)C(=O)NCCCCNC(=O)c1ccc(-c2c3nc(c(-c4c(F)cc(S(=O)(=O)[O-])cc4F)c4ccc([nH]4)c(-c4c(F)cc(S(=O)(=O)[O-])cc4F)c4nc(c(-c5c(F)cc(S(=O)(=O)[O-])cc5F)c5ccc2[nH]5)C=C4)C=C3)cc1
REMARK SMILES IDX 21 1 20 2 19 3 17 4 18 5 2 7 1 8 3 9 4 10 5 11 6 12 16 13
REMARK SMILES IDX 7 14 8 15 15 16 9 17 11 18 10 19 12 20 13 21 14 22 22 23
REMARK SMILES IDX 23 24 24 25 25 26 26 28 27 29 28 30 92 31 29 32 91 33 30 34
REMARK SMILES IDX 31 35 32 36 85 37 33 38 90 39 84 40 86 41 34 42 89 43 83 44
REMARK SMILES IDX 82 45 35 47 69 48 48 49 68 50 49 51 52 52 67 53 87 54 50 55
REMARK SMILES IDX 51 56 66 58 88 59 53 60 36 61 37 62 46 63 38 64 39 65 45 66
REMARK SMILES IDX 47 67 40 68 41 69 42 70 43 71 44 72 70 73 71 74 80 75 72 76
REMARK SMILES IDX 73 77 79 78 81 79 74 80 75 81 76 82 77 83 78 84 54 85 55 86
REMARK SMILES IDX 64 87 56 88 57 89 63 90 65 91 58 92 59 93 60 94 61 95 62 96
REMARK H PARENT 19 6 24 27 86 46 52 57
REMARK Flexibility Score: inf
ROOT
ATOM      1  C   UNL A   1      37.963  20.893  24.988  1.00  0.00     0.023 C 
ENDROOT
BRANCH   1   2
ATOM      2  C   UNL A   1      36.446  21.070  24.971  1.00  0.00     0.116 C 
BRANCH   2   3
ATOM      3  N   UNL A   1      35.889  21.547  26.231  1.00  0.00    -0.356 N 
ATOM      4  C   UNL A   1      34.834  22.349  26.546  1.00  0.00     0.227 C 
ATOM      5  O   UNL A   1      34.578  22.467  27.748  1.00  0.00    -0.274 OA
ATOM      6  H   UNL A   1      36.379  21.221  27.020  1.00  0.00     0.163 HD
BRANCH   4   7
ATOM      7  C   UNL A   1      33.995  23.074  25.484  1.00  0.00     0.061 C 
ATOM      8  C   UNL A   1      34.777  23.127  24.146  1.00  0.00     0.023 C 
ATOM      9  C   UNL A   1      33.815  24.556  25.886  1.00  0.00     0.023 C 
BRANCH   7  10
ATOM     10  C   UNL A   1      32.639  22.350  25.286  1.00  0.00     0.138 C 
BRANCH  10  11
ATOM     11  N   UNL A   1      32.490  21.547  24.069  1.00  0.00    -0.346 N 
ATOM     12  C   UNL A   1      31.994  22.076  22.899  1.00  0.00     0.087 A 
ATOM     13  C   UNL A   1      32.693  20.185  23.914  1.00  0.00     0.055 A 
ATOM     14  C   UNL A   1      31.873  21.062  21.982  1.00  0.00     0.028 A 
ATOM     15  C   UNL A   1      32.295  19.861  22.608  1.00  0.00     0.000 A 
ATOM     16  C   UNL A   1      33.187  19.188  24.778  1.00  0.00     0.112 A 
ATOM     17  C   UNL A   1      32.362  18.524  22.165  1.00  0.00     0.017 A 
ATOM     18  C   UNL A   1      33.266  17.864  24.300  1.00  0.00     0.271 A 
ATOM     19  C   UNL A   1      32.845  17.526  23.017  1.00  0.00     0.086 A 
BRANCH  18  20
ATOM     20  N   UNL A   1      33.844  16.818  25.156  1.00  0.00     0.062 N 
ATOM     21  O   UNL A   1      33.073  16.190  25.896  1.00  0.00    -0.258 OA
ATOM     22  O   UNL A   1      35.070  16.650  25.122  1.00  0.00    -0.258 OA
ENDBRANCH  18  20
ENDBRANCH  10  11
ENDBRANCH   7  10
ENDBRANCH   4   7
ENDBRANCH   2   3
ENDBRANCH   1   2
BRANCH   1  23
ATOM     23  C   UNL A   1      38.721  21.835  25.923  1.00  0.00     0.023 C 
BRANCH  23  24
ATOM     24  C   UNL A   1      40.000  21.263  26.526  1.00  0.00     0.116 C 
BRANCH  24  25
ATOM     25  N   UNL A   1      41.180  21.570  25.751  1.00  0.00    -0.352 N 
ATOM     26  C   UNL A   1      42.015  22.648  25.662  1.00  0.00     0.251 C 
ATOM     27  H   UNL A   1      41.443  20.835  25.151  1.00  0.00     0.163 HD
ATOM     28  O   UNL A   1      42.986  22.501  24.914  1.00  0.00    -0.269 OA
BRANCH  26  29
ATOM     29  C   UNL A   1      41.828  23.955  26.355  1.00  0.00     0.039 A 
ATOM     30  C   UNL A   1      41.271  25.111  25.803  1.00  0.00     0.014 A 
ATOM     31  C   UNL A   1      42.297  24.011  27.682  1.00  0.00     0.014 A 
ATOM     32  C   UNL A   1      41.241  26.301  26.530  1.00  0.00     0.010 A 
ATOM     33  C   UNL A   1      42.254  25.191  28.417  1.00  0.00     0.010 A 
ATOM     34  C   UNL A   1      41.755  26.348  27.827  1.00  0.00    -0.014 A 
BRANCH  34  35
ATOM     35  C   UNL A   1      41.677  27.613  28.555  1.00  0.00     0.031 A 
ATOM     36  C   UNL A   1      42.859  28.516  28.425  1.00  0.00     0.074 A 
ATOM     37  C   UNL A   1      40.568  28.028  29.199  1.00  0.00     0.049 A 
ATOM     38  N   UNL A   1      43.625  28.986  29.357  1.00  0.00    -0.248 NA
ATOM     39  C   UNL A   1      43.284  28.884  27.066  1.00  0.00     0.031 C 
ATOM     40  C   UNL A   1      39.237  27.416  29.191  1.00  0.00     0.029 A 
ATOM     41  N   UNL A   1      40.382  29.165  29.928  1.00  0.00    -0.354 N 
ATOM     42  C   UNL A   1      44.527  29.845  28.729  1.00  0.00     0.074 A 
ATOM     43  C   UNL A   1      44.347  29.651  27.313  1.00  0.00     0.031 C 
ATOM     44  C   UNL A   1      38.342  28.294  29.697  1.00  0.00     0.029 A 
ATOM     45  C   UNL A   1      39.052  29.466  30.182  1.00  0.00     0.049 A 
ATOM     46  H   UNL A   1      41.127  29.724  30.247  1.00  0.00     0.167 HD
ATOM     47  C   UNL A   1      45.245  30.780  29.413  1.00  0.00     0.037 A 
ATOM     48  C   UNL A   1      38.562  30.623  30.691  1.00  0.00     0.037 A 
ATOM     49  C   UNL A   1      45.294  30.485  30.820  1.00  0.00     0.049 A 
ATOM     50  C   UNL A   1      39.671  31.288  31.425  1.00  0.00     0.074 A 
ATOM     51  C   UNL A   1      45.790  29.440  31.574  1.00  0.00     0.029 A 
ATOM     52  N   UNL A   1      44.482  31.199  31.666  1.00  0.00    -0.354 N 
ATOM     53  N   UNL A   1      40.223  30.811  32.509  1.00  0.00    -0.248 NA
ATOM     54  C   UNL A   1      40.457  32.286  30.716  1.00  0.00     0.031 C 
ATOM     55  C   UNL A   1      44.879  29.302  32.660  1.00  0.00     0.029 A 
ATOM     56  C   UNL A   1      43.905  30.295  32.521  1.00  0.00     0.049 A 
ATOM     57  H   UNL A   1      44.341  32.174  31.660  1.00  0.00     0.167 HD
ATOM     58  C   UNL A   1      41.568  31.131  32.397  1.00  0.00     0.074 A 
ATOM     59  C   UNL A   1      41.632  32.125  31.329  1.00  0.00     0.031 C 
ATOM     60  C   UNL A   1      42.536  30.372  32.990  1.00  0.00     0.037 A 
BRANCH  47  61
ATOM     61  C   UNL A   1      45.665  32.122  28.858  1.00  0.00     0.058 A 
ATOM     62  C   UNL A   1      44.696  32.988  28.305  1.00  0.00     0.135 A 
ATOM     63  C   UNL A   1      47.008  32.470  28.593  1.00  0.00     0.135 A 
ATOM     64  F   UNL A   1      43.386  32.758  28.488  1.00  0.00    -0.206 F 
ATOM     65  C   UNL A   1      45.034  34.064  27.482  1.00  0.00     0.059 A 
ATOM     66  C   UNL A   1      47.368  33.569  27.820  1.00  0.00     0.059 A 
ATOM     67  F   UNL A   1      48.032  31.702  28.986  1.00  0.00    -0.206 F 
ATOM     68  C   UNL A   1      46.376  34.332  27.229  1.00  0.00     0.060 A 
BRANCH  68  69
ATOM     69  S   UNL A   1      46.813  35.627  26.055  1.00  0.00     0.124 S 
ATOM     70  O   UNL A   1      48.243  35.772  26.300  1.00  0.00    -0.237 OA
ATOM     71  O   UNL A   1      46.440  35.023  24.781  1.00  0.00    -0.237 OA
ATOM     72  O   UNL A   1      45.984  36.754  26.473  1.00  0.00    -0.744 OA
ENDBRANCH  68  69
ENDBRANCH  47  61
BRANCH  48  73
ATOM     73  C   UNL A   1      37.304  31.314  30.295  1.00  0.00     0.058 A 
ATOM     74  C   UNL A   1      36.461  31.920  31.242  1.00  0.00     0.135 A 
ATOM     75  C   UNL A   1      37.026  31.611  28.943  1.00  0.00     0.135 A 
ATOM     76  F   UNL A   1      36.671  31.727  32.554  1.00  0.00    -0.206 F 
ATOM     77  C   UNL A   1      35.423  32.785  30.873  1.00  0.00     0.059 A 
ATOM     78  C   UNL A   1      35.990  32.455  28.551  1.00  0.00     0.059 A 
ATOM     79  F   UNL A   1      37.813  31.157  27.956  1.00  0.00    -0.206 F 
ATOM     80  C   UNL A   1      35.203  33.057  29.523  1.00  0.00     0.060 A 
BRANCH  80  81
ATOM     81  S   UNL A   1      33.954  34.273  29.044  1.00  0.00     0.124 S 
ATOM     82  O   UNL A   1      33.313  34.568  30.321  1.00  0.00    -0.237 OA
ATOM     83  O   UNL A   1      34.769  35.342  28.478  1.00  0.00    -0.237 OA
ATOM     84  O   UNL A   1      33.124  33.550  28.084  1.00  0.00    -0.744 OA
ENDBRANCH  80  81
ENDBRANCH  48  73
BRANCH  60  85
ATOM     85  C   UNL A   1      42.130  29.331  34.002  1.00  0.00     0.058 A 
ATOM     86  C   UNL A   1      41.742  28.022  33.660  1.00  0.00     0.135 A 
ATOM     87  C   UNL A   1      42.356  29.594  35.362  1.00  0.00     0.135 A 
ATOM     88  F   UNL A   1      41.597  27.660  32.378  1.00  0.00    -0.206 F 
ATOM     89  C   UNL A   1      41.579  27.027  34.625  1.00  0.00     0.059 A 
ATOM     90  C   UNL A   1      42.229  28.607  36.339  1.00  0.00     0.059 A 
ATOM     91  F   UNL A   1      42.785  30.807  35.749  1.00  0.00    -0.206 F 
ATOM     92  C   UNL A   1      41.839  27.324  35.961  1.00  0.00     0.060 A 
BRANCH  92  93
ATOM     93  S   UNL A   1      41.766  25.997  37.186  1.00  0.00     0.124 S 
ATOM     94  O   UNL A   1      42.781  26.415  38.152  1.00  0.00    -0.237 OA
ATOM     95  O   UNL A   1      40.383  26.075  37.657  1.00  0.00    -0.237 OA
ATOM     96  O   UNL A   1      42.088  24.802  36.421  1.00  0.00    -0.744 OA
ENDBRANCH  92  93
ENDBRANCH  60  85
ENDBRANCH  34  35
ENDBRANCH  26  29
ENDBRANCH  24  25
ENDBRANCH  23  24
ENDBRANCH   1  23
TORSDOF 17
ENDMDL
MODEL 3
REMARK VINA RESULT:     -12.2      2.734      4.647
REMARK SMILES CC(C)(Cn1ccc2ccc([N+](=O)[O-])cc21)C(=O)NCCCCNC(=O)c1ccc(-c2c3nc(c(-c4c(F)cc(S(=O)(=O)[O-])cc4F)c4ccc([nH]4)c(-c4c(F)cc(S(=O)(=O)[O-])cc4F)c4nc(c(-c5c(F)cc(S(=O)(=O)[O-])cc5F)c5ccc2[nH]5)C=C4)C=C3)cc1
REMARK SMILES IDX 21 1 20 2 19 3 17 4 18 5 2 7 1 8 3 9 4 10 5 11 6 12 16 13
REMARK SMILES IDX 7 14 8 15 15 16 9 17 11 18 10 19 12 20 13 21 14 22 22 23
REMARK SMILES IDX 23 24 24 25 25 26 26 28 27 29 28 30 92 31 29 32 91 33 30 34
REMARK SMILES IDX 31 35 32 36 85 37 33 38 90 39 84 40 86 41 34 42 89 43 83 44
REMARK SMILES IDX 82 45 35 47 69 48 48 49 68 50 49 51 52 52 67 53 87 54 50 55
REMARK SMILES IDX 51 56 66 58 88 59 53 60 36 61 37 62 46 63 38 64 39 65 45 66
REMARK SMILES IDX 47 67 40 68 41 69 42 70 43 71 44 72 70 73 71 74 80 75 72 76
REMARK SMILES IDX 73 77 79 78 81 79 74 80 75 81 76 82 77 83 78 84 54 85 55 86
REMARK SMILES IDX 64 87 56 88 57 89 63 90 65 91 58 92 59 93 60 94 61 95 62 96
REMARK H PARENT 19 6 24 27 86 46 52 57
REMARK Flexibility Score: inf
ROOT
ATOM      1  C   UNL A   1      37.384  22.016  25.377  1.00  0.00     0.023 C 
ENDROOT
BRANCH   1   2
ATOM      2  C   UNL A   1      36.020  21.334  25.454  1.00  0.00     0.116 C 
BRANCH   2   3
ATOM      3  N   UNL A   1      35.271  21.638  26.667  1.00  0.00    -0.356 N 
ATOM      4  C   UNL A   1      34.158  22.383  26.921  1.00  0.00     0.227 C 
ATOM      5  O   UNL A   1      33.726  22.341  28.076  1.00  0.00    -0.274 OA
ATOM      6  H   UNL A   1      35.649  21.217  27.473  1.00  0.00     0.163 HD
BRANCH   4   7
ATOM      7  C   UNL A   1      33.464  23.231  25.846  1.00  0.00     0.061 C 
ATOM      8  C   UNL A   1      32.298  24.030  26.483  1.00  0.00     0.023 C 
ATOM      9  C   UNL A   1      32.781  22.306  24.813  1.00  0.00     0.023 C 
BRANCH   7  10
ATOM     10  C   UNL A   1      34.481  24.198  25.188  1.00  0.00     0.138 C 
BRANCH  10  11
ATOM     11  N   UNL A   1      33.931  25.267  24.351  1.00  0.00    -0.346 N 
ATOM     12  C   UNL A   1      33.611  25.068  23.026  1.00  0.00     0.087 A 
ATOM     13  C   UNL A   1      33.755  26.603  24.676  1.00  0.00     0.055 A 
ATOM     14  C   UNL A   1      33.227  26.272  22.488  1.00  0.00     0.028 A 
ATOM     15  C   UNL A   1      33.325  27.252  23.508  1.00  0.00     0.000 A 
ATOM     16  C   UNL A   1      33.925  27.325  25.874  1.00  0.00     0.112 A 
ATOM     17  C   UNL A   1      33.087  28.643  23.526  1.00  0.00     0.017 A 
ATOM     18  C   UNL A   1      33.656  28.709  25.867  1.00  0.00     0.271 A 
ATOM     19  C   UNL A   1      33.259  29.369  24.707  1.00  0.00     0.086 A 
BRANCH  18  20
ATOM     20  N   UNL A   1      33.755  29.472  27.120  1.00  0.00     0.062 N 
ATOM     21  O   UNL A   1      34.690  29.199  27.887  1.00  0.00    -0.258 OA
ATOM     22  O   UNL A   1      32.879  30.312  27.360  1.00  0.00    -0.258 OA
ENDBRANCH  18  20
ENDBRANCH  10  11
ENDBRANCH   7  10
ENDBRANCH   4   7
ENDBRANCH   2   3
ENDBRANCH   1   2
BRANCH   1  23
ATOM     23  C   UNL A   1      38.588  21.101  25.602  1.00  0.00     0.023 C 
BRANCH  23  24
ATOM     24  C   UNL A   1      39.719  21.703  26.429  1.00  0.00     0.116 C 
BRANCH  24  25
ATOM     25  N   UNL A   1      40.951  21.843  25.688  1.00  0.00    -0.352 N 
ATOM     26  C   UNL A   1      41.955  22.769  25.664  1.00  0.00     0.251 C 
ATOM     27  H   UNL A   1      41.102  21.102  25.057  1.00  0.00     0.163 HD
ATOM     28  O   UNL A   1      42.905  22.496  24.924  1.00  0.00    -0.269 OA
BRANCH  26  29
ATOM     29  C   UNL A   1      41.971  24.056  26.416  1.00  0.00     0.039 A 
ATOM     30  C   UNL A   1      42.571  24.280  27.658  1.00  0.00     0.014 A 
ATOM     31  C   UNL A   1      41.278  25.122  25.810  1.00  0.00     0.014 A 
ATOM     32  C   UNL A   1      42.430  25.509  28.302  1.00  0.00     0.010 A 
ATOM     33  C   UNL A   1      41.150  26.356  26.441  1.00  0.00     0.010 A 
ATOM     34  C   UNL A   1      41.699  26.538  27.706  1.00  0.00    -0.014 A 
BRANCH  34  35
ATOM     35  C   UNL A   1      41.603  27.814  28.412  1.00  0.00     0.031 A 
ATOM     36  C   UNL A   1      42.763  28.740  28.252  1.00  0.00     0.074 A 
ATOM     37  C   UNL A   1      40.492  28.217  29.062  1.00  0.00     0.049 A 
ATOM     38  N   UNL A   1      43.530  29.243  29.166  1.00  0.00    -0.248 NA
ATOM     39  C   UNL A   1      43.164  29.092  26.882  1.00  0.00     0.031 C 
ATOM     40  C   UNL A   1      39.175  27.577  29.080  1.00  0.00     0.029 A 
ATOM     41  N   UNL A   1      40.290  29.363  29.773  1.00  0.00    -0.354 N 
ATOM     42  C   UNL A   1      44.406  30.110  28.512  1.00  0.00     0.074 A 
ATOM     43  C   UNL A   1      44.213  29.886  27.102  1.00  0.00     0.031 C 
ATOM     44  C   UNL A   1      38.267  28.444  29.582  1.00  0.00     0.029 A 
ATOM     45  C   UNL A   1      38.956  29.640  30.037  1.00  0.00     0.049 A 
ATOM     46  H   UNL A   1      41.027  29.943  30.072  1.00  0.00     0.167 HD
ATOM     47  C   UNL A   1      45.111  31.072  29.171  1.00  0.00     0.037 A 
ATOM     48  C   UNL A   1      38.448  30.795  30.531  1.00  0.00     0.037 A 
ATOM     49  C   UNL A   1      45.182  30.804  30.582  1.00  0.00     0.049 A 
ATOM     50  C   UNL A   1      39.550  31.497  31.239  1.00  0.00     0.074 A 
ATOM     51  C   UNL A   1      45.710  29.784  31.349  1.00  0.00     0.029 A 
ATOM     52  N   UNL A   1      44.365  31.516  31.424  1.00  0.00    -0.354 N 
ATOM     53  N   UNL A   1      40.125  31.052  32.325  1.00  0.00    -0.248 NA
ATOM     54  C   UNL A   1      40.306  32.499  30.503  1.00  0.00     0.031 C 
ATOM     55  C   UNL A   1      44.814  29.647  32.448  1.00  0.00     0.029 A 
ATOM     56  C   UNL A   1      43.817  30.616  32.303  1.00  0.00     0.049 A 
ATOM     57  H   UNL A   1      44.203  32.487  31.402  1.00  0.00     0.167 HD
ATOM     58  C   UNL A   1      41.461  31.399  32.191  1.00  0.00     0.074 A 
ATOM     59  C   UNL A   1      41.491  32.374  31.104  1.00  0.00     0.031 C 
ATOM     60  C   UNL A   1      42.453  30.672  32.786  1.00  0.00     0.037 A 
BRANCH  47  61
ATOM     61  C   UNL A   1      45.495  32.413  28.587  1.00  0.00     0.058 A 
ATOM     62  C   UNL A   1      46.855  32.790  28.527  1.00  0.00     0.135 A 
ATOM     63  C   UNL A   1      44.568  33.451  28.345  1.00  0.00     0.135 A 
ATOM     64  F   UNL A   1      47.827  31.889  28.742  1.00  0.00    -0.206 F 
ATOM     65  C   UNL A   1      47.258  34.112  28.328  1.00  0.00     0.059 A 
ATOM     66  C   UNL A   1      44.950  34.765  28.092  1.00  0.00     0.059 A 
ATOM     67  F   UNL A   1      43.246  33.262  28.445  1.00  0.00    -0.206 F 
ATOM     68  C   UNL A   1      46.293  35.097  28.133  1.00  0.00     0.060 A 
BRANCH  68  69
ATOM     69  S   UNL A   1      46.800  36.822  28.021  1.00  0.00     0.124 S 
ATOM     70  O   UNL A   1      45.511  37.503  28.002  1.00  0.00    -0.237 OA
ATOM     71  O   UNL A   1      47.594  36.986  29.234  1.00  0.00    -0.237 OA
ATOM     72  O   UNL A   1      47.558  36.869  26.773  1.00  0.00    -0.744 OA
ENDBRANCH  68  69
ENDBRANCH  47  61
BRANCH  48  73
ATOM     73  C   UNL A   1      37.171  31.452  30.137  1.00  0.00     0.058 A 
ATOM     74  C   UNL A   1      36.288  31.989  31.091  1.00  0.00     0.135 A 
ATOM     75  C   UNL A   1      36.905  31.789  28.792  1.00  0.00     0.135 A 
ATOM     76  F   UNL A   1      36.484  31.755  32.398  1.00  0.00    -0.206 F 
ATOM     77  C   UNL A   1      35.223  32.827  30.735  1.00  0.00     0.059 A 
ATOM     78  C   UNL A   1      35.843  32.607  28.413  1.00  0.00     0.059 A 
ATOM     79  F   UNL A   1      37.725  31.403  27.804  1.00  0.00    -0.206 F 
ATOM     80  C   UNL A   1      35.016  33.141  29.391  1.00  0.00     0.060 A 
BRANCH  80  81
ATOM     81  S   UNL A   1      33.729  34.325  28.935  1.00  0.00     0.124 S 
ATOM     82  O   UNL A   1      32.914  33.545  28.011  1.00  0.00    -0.237 OA
ATOM     83  O   UNL A   1      33.119  34.627  30.225  1.00  0.00    -0.237 OA
ATOM     84  O   UNL A   1      34.476  35.424  28.329  1.00  0.00    -0.744 OA
ENDBRANCH  80  81
ENDBRANCH  48  73
BRANCH  60  85
ATOM     85  C   UNL A   1      42.080  29.640  33.822  1.00  0.00     0.058 A 
ATOM     86  C   UNL A   1      41.675  28.331  33.506  1.00  0.00     0.135 A 
ATOM     87  C   UNL A   1      42.359  29.915  35.170  1.00  0.00     0.135 A 
ATOM     88  F   UNL A   1      41.481  27.958  32.234  1.00  0.00    -0.206 F 
ATOM     89  C   UNL A   1      41.545  27.344  34.485  1.00  0.00     0.059 A 
ATOM     90  C   UNL A   1      42.264  28.936  36.159  1.00  0.00     0.059 A 
ATOM     91  F   UNL A   1      42.806  31.129  35.530  1.00  0.00    -0.206 F 
ATOM     92  C   UNL A   1      41.856  27.651  35.807  1.00  0.00     0.060 A 
BRANCH  92  93
ATOM     93  S   UNL A   1      41.824  26.335  37.045  1.00  0.00     0.124 S 
ATOM     94  O   UNL A   1      42.960  26.686  37.896  1.00  0.00    -0.237 OA
ATOM     95  O   UNL A   1      40.506  26.507  37.658  1.00  0.00    -0.237 OA
ATOM     96  O   UNL A   1      41.984  25.119  36.262  1.00  0.00    -0.744 OA
ENDBRANCH  92  93
ENDBRANCH  60  85
ENDBRANCH  34  35
ENDBRANCH  26  29
ENDBRANCH  24  25
ENDBRANCH  23  24
ENDBRANCH   1  23
TORSDOF 17
ENDMDL
