MODEL 1
REMARK VINA RESULT:     -11.1      0.000      0.000
REMARK SMILES CCc1ccc(C(=O)NC[C@@H](CC(C)C)C(=O)NCCCCNC(=O)c2ccc(-c3c4nc(c(-c5c(F)cc(S(=O)(=O)[O-])cc5F)c5ccc([nH]5)c(-c5c(F)cc(S(=O)(=O)[O-])cc5F)c5nc(c(-c6c(F)cc(S(=O)(=O)[O-])cc6F)c6ccc3[nH]6)C=C5)C=C4)cc2)s1
REMARK SMILES IDX 20 1 19 2 18 3 16 4 17 5 11 7 10 8 9 9 7 10 8 11 6 13 3 14
REMARK SMILES IDX 4 15 92 16 5 17 2 18 1 19 12 20 13 21 14 22 15 23 21 24
REMARK SMILES IDX 22 25 23 26 24 27 25 29 26 30 27 31 91 32 28 33 90 34 29 35
REMARK SMILES IDX 30 36 31 37 84 38 32 39 89 40 83 41 85 42 33 43 88 44 82 45
REMARK SMILES IDX 81 46 34 48 68 49 47 50 67 51 48 52 51 53 66 54 86 55 49 56
REMARK SMILES IDX 50 57 65 59 87 60 52 61 35 62 36 63 45 64 37 65 38 66 44 67
REMARK SMILES IDX 46 68 39 69 40 70 41 71 42 72 43 73 69 74 70 75 79 76 71 77
REMARK SMILES IDX 72 78 78 79 80 80 73 81 74 82 75 83 76 84 77 85 53 86 54 87
REMARK SMILES IDX 63 88 55 89 56 90 62 91 64 92 57 93 58 94 59 95 60 96 61 97
REMARK H PARENT 18 6 9 12 23 28 85 47 51 58
REMARK Flexibility Score: inf
ROOT
ATOM      1  C   UNL A   1      36.733  23.680  24.638  1.00  0.00     0.023 C 
ENDROOT
BRANCH   1   2
ATOM      2  C   UNL A   1      35.456  24.390  25.059  1.00  0.00     0.116 C 
BRANCH   2   3
ATOM      3  N   UNL A   1      34.346  24.144  24.160  1.00  0.00    -0.356 N 
ATOM      4  C   UNL A   1      33.208  24.850  23.930  1.00  0.00     0.224 C 
ATOM      5  O   UNL A   1      32.514  24.495  22.972  1.00  0.00    -0.275 OA
ATOM      6  H   UNL A   1      34.431  23.323  23.623  1.00  0.00     0.163 HD
BRANCH   4   7
ATOM      7  C   UNL A   1      32.769  26.040  24.780  1.00  0.00     0.098 C 
BRANCH   7   8
ATOM      8  C   UNL A   1      32.596  25.712  26.270  1.00  0.00     0.129 C 
BRANCH   8   9
ATOM      9  N   UNL A   1      31.385  24.964  26.557  1.00  0.00    -0.351 N 
ATOM     10  C   UNL A   1      31.178  23.643  26.885  1.00  0.00     0.261 C 
ATOM     11  O   UNL A   1      30.043  23.401  27.312  1.00  0.00    -0.268 OA
ATOM     12  H   UNL A   1      30.561  25.501  26.509  1.00  0.00     0.163 HD
BRANCH  10  13
ATOM     13  C   UNL A   1      32.210  22.621  26.729  1.00  0.00     0.092 A 
ATOM     14  C   UNL A   1      33.533  20.748  25.715  1.00  0.00     0.005 A 
ATOM     15  C   UNL A   1      34.129  21.268  26.842  1.00  0.00     0.016 A 
ATOM     16  S   UNL A   1      32.030  21.514  25.414  1.00  0.00    -0.135 S 
ATOM     17  C   UNL A   1      33.389  22.358  27.400  1.00  0.00     0.026 A 
BRANCH  14  18
ATOM     18  C   UNL A   1      34.002  19.682  24.764  1.00  0.00     0.043 C 
ATOM     19  C   UNL A   1      32.881  18.970  24.019  1.00  0.00     0.010 C 
ENDBRANCH  14  18
ENDBRANCH  10  13
ENDBRANCH   8   9
ENDBRANCH   7   8
BRANCH   7  20
ATOM     20  C   UNL A   1      33.552  27.347  24.493  1.00  0.00     0.018 C 
BRANCH  20  21
ATOM     21  C   UNL A   1      32.752  28.666  24.433  1.00  0.00    -0.017 C 
ATOM     22  C   UNL A   1      31.238  28.420  24.412  1.00  0.00     0.007 C 
ATOM     23  C   UNL A   1      33.075  29.567  25.629  1.00  0.00     0.007 C 
ENDBRANCH  20  21
ENDBRANCH   7  20
ENDBRANCH   4   7
ENDBRANCH   2   3
ENDBRANCH   1   2
BRANCH   1  24
ATOM     24  C   UNL A   1      37.540  23.095  25.794  1.00  0.00     0.023 C 
BRANCH  24  25
ATOM     25  C   UNL A   1      38.431  24.087  26.534  1.00  0.00     0.116 C 
BRANCH  25  26
ATOM     26  N   UNL A   1      39.828  24.023  26.124  1.00  0.00    -0.352 N 
ATOM     27  C   UNL A   1      40.878  24.836  26.485  1.00  0.00     0.251 C 
ATOM     28  H   UNL A   1      40.052  23.296  25.499  1.00  0.00     0.163 HD
ATOM     29  O   UNL A   1      41.964  24.715  25.939  1.00  0.00    -0.269 OA
BRANCH  27  30
ATOM     30  C   UNL A   1      40.663  25.873  27.516  1.00  0.00     0.039 A 
ATOM     31  C   UNL A   1      39.690  25.663  28.494  1.00  0.00     0.014 A 
ATOM     32  C   UNL A   1      41.448  27.028  27.534  1.00  0.00     0.014 A 
ATOM     33  C   UNL A   1      39.546  26.591  29.528  1.00  0.00     0.010 A 
ATOM     34  C   UNL A   1      41.371  27.896  28.615  1.00  0.00     0.010 A 
ATOM     35  C   UNL A   1      40.406  27.700  29.613  1.00  0.00    -0.014 A 
BRANCH  35  36
ATOM     36  C   UNL A   1      40.278  28.688  30.714  1.00  0.00     0.031 A 
ATOM     37  C   UNL A   1      41.136  28.552  31.944  1.00  0.00     0.074 A 
ATOM     38  C   UNL A   1      39.361  29.671  30.636  1.00  0.00     0.049 A 
ATOM     39  N   UNL A   1      41.152  29.286  33.027  1.00  0.00    -0.248 NA
ATOM     40  C   UNL A   1      42.075  27.420  31.975  1.00  0.00     0.031 C 
ATOM     41  C   UNL A   1      38.422  29.866  29.529  1.00  0.00     0.029 A 
ATOM     42  N   UNL A   1      39.062  30.688  31.508  1.00  0.00    -0.354 N 
ATOM     43  C   UNL A   1      42.091  28.697  33.867  1.00  0.00     0.074 A 
ATOM     44  C   UNL A   1      42.561  27.502  33.203  1.00  0.00     0.031 C 
ATOM     45  C   UNL A   1      37.667  30.949  29.780  1.00  0.00     0.029 A 
ATOM     46  C   UNL A   1      38.048  31.507  31.074  1.00  0.00     0.049 A 
ATOM     47  H   UNL A   1      39.530  30.817  32.364  1.00  0.00     0.167 HD
ATOM     48  C   UNL A   1      42.551  29.131  35.065  1.00  0.00     0.037 A 
ATOM     49  C   UNL A   1      37.488  32.587  31.654  1.00  0.00     0.037 A 
ATOM     50  C   UNL A   1      42.090  30.331  35.713  1.00  0.00     0.049 A 
ATOM     51  C   UNL A   1      38.026  33.071  32.972  1.00  0.00     0.074 A 
ATOM     52  C   UNL A   1      42.516  30.886  36.906  1.00  0.00     0.029 A 
ATOM     53  N   UNL A   1      41.094  31.163  35.219  1.00  0.00    -0.354 N 
ATOM     54  N   UNL A   1      38.963  32.542  33.723  1.00  0.00    -0.248 NA
ATOM     55  C   UNL A   1      37.448  34.309  33.512  1.00  0.00     0.031 C 
ATOM     56  C   UNL A   1      41.749  32.030  37.154  1.00  0.00     0.029 A 
ATOM     57  C   UNL A   1      40.884  32.220  36.087  1.00  0.00     0.049 A 
ATOM     58  H   UNL A   1      40.607  31.021  34.374  1.00  0.00     0.167 HD
ATOM     59  C   UNL A   1      39.108  33.396  34.811  1.00  0.00     0.074 A 
ATOM     60  C   UNL A   1      38.169  34.482  34.612  1.00  0.00     0.031 C 
ATOM     61  C   UNL A   1      39.945  33.295  35.874  1.00  0.00     0.037 A 
BRANCH  48  62
ATOM     62  C   UNL A   1      43.609  28.296  35.736  1.00  0.00     0.058 A 
ATOM     63  C   UNL A   1      43.275  27.252  36.618  1.00  0.00     0.135 A 
ATOM     64  C   UNL A   1      44.972  28.550  35.516  1.00  0.00     0.135 A 
ATOM     65  F   UNL A   1      41.987  26.972  36.878  1.00  0.00    -0.206 F 
ATOM     66  C   UNL A   1      44.250  26.532  37.299  1.00  0.00     0.059 A 
ATOM     67  C   UNL A   1      45.966  27.817  36.160  1.00  0.00     0.059 A 
ATOM     68  F   UNL A   1      45.352  29.531  34.683  1.00  0.00    -0.206 F 
ATOM     69  C   UNL A   1      45.594  26.829  37.070  1.00  0.00     0.060 A 
BRANCH  69  70
ATOM     70  S   UNL A   1      46.847  25.912  37.990  1.00  0.00     0.124 S 
ATOM     71  O   UNL A   1      47.484  25.143  36.925  1.00  0.00    -0.237 OA
ATOM     72  O   UNL A   1      47.655  26.980  38.569  1.00  0.00    -0.237 OA
ATOM     73  O   UNL A   1      46.064  25.133  38.945  1.00  0.00    -0.744 OA
ENDBRANCH  69  70
ENDBRANCH  48  62
BRANCH  49  74
ATOM     74  C   UNL A   1      36.380  33.299  30.960  1.00  0.00     0.058 A 
ATOM     75  C   UNL A   1      35.075  33.286  31.474  1.00  0.00     0.135 A 
ATOM     76  C   UNL A   1      36.618  34.050  29.799  1.00  0.00     0.135 A 
ATOM     77  F   UNL A   1      34.795  32.579  32.580  1.00  0.00    -0.206 F 
ATOM     78  C   UNL A   1      34.043  33.989  30.860  1.00  0.00     0.059 A 
ATOM     79  C   UNL A   1      35.608  34.780  29.181  1.00  0.00     0.059 A 
ATOM     80  F   UNL A   1      37.854  34.109  29.278  1.00  0.00    -0.206 F 
ATOM     81  C   UNL A   1      34.322  34.742  29.718  1.00  0.00     0.060 A 
BRANCH  81  82
ATOM     82  S   UNL A   1      32.994  35.718  28.977  1.00  0.00     0.124 S 
ATOM     83  O   UNL A   1      32.364  34.740  28.099  1.00  0.00    -0.237 OA
ATOM     84  O   UNL A   1      32.221  36.118  30.149  1.00  0.00    -0.237 OA
ATOM     85  O   UNL A   1      33.709  36.801  28.307  1.00  0.00    -0.744 OA
ENDBRANCH  81  82
ENDBRANCH  49  74
BRANCH  61  86
ATOM     86  C   UNL A   1      39.915  34.407  36.887  1.00  0.00     0.058 A 
ATOM     87  C   UNL A   1      40.669  35.580  36.727  1.00  0.00     0.135 A 
ATOM     88  C   UNL A   1      39.089  34.309  38.019  1.00  0.00     0.135 A 
ATOM     89  F   UNL A   1      41.477  35.725  35.666  1.00  0.00    -0.206 F 
ATOM     90  C   UNL A   1      40.629  36.602  37.671  1.00  0.00     0.059 A 
ATOM     91  C   UNL A   1      39.010  35.331  38.958  1.00  0.00     0.059 A 
ATOM     92  F   UNL A   1      38.336  33.214  38.214  1.00  0.00    -0.206 F 
ATOM     93  C   UNL A   1      39.799  36.468  38.784  1.00  0.00     0.060 A 
BRANCH  93  94
ATOM     94  S   UNL A   1      39.747  37.806  39.995  1.00  0.00     0.124 S 
ATOM     95  O   UNL A   1      38.557  38.537  39.572  1.00  0.00    -0.237 OA
ATOM     96  O   UNL A   1      39.632  37.082  41.257  1.00  0.00    -0.237 OA
ATOM     97  O   UNL A   1      41.015  38.499  39.790  1.00  0.00    -0.744 OA
ENDBRANCH  93  94
ENDBRANCH  61  86
ENDBRANCH  35  36
ENDBRANCH  27  30
ENDBRANCH  25  26
ENDBRANCH  24  25
ENDBRANCH   1  24
TORSDOF 20
ENDMDL
MODEL 2
REMARK VINA RESULT:     -10.8      1.587      8.727
REMARK SMILES CCc1ccc(C(=O)NC[C@@H](CC(C)C)C(=O)NCCCCNC(=O)c2ccc(-c3c4nc(c(-c5c(F)cc(S(=O)(=O)[O-])cc5F)c5ccc([nH]5)c(-c5c(F)cc(S(=O)(=O)[O-])cc5F)c5nc(c(-c6c(F)cc(S(=O)(=O)[O-])cc6F)c6ccc3[nH]6)C=C5)C=C4)cc2)s1
REMARK SMILES IDX 20 1 19 2 18 3 16 4 17 5 11 7 10 8 9 9 7 10 8 11 6 13 3 14
REMARK SMILES IDX 4 15 92 16 5 17 2 18 1 19 12 20 13 21 14 22 15 23 21 24
REMARK SMILES IDX 22 25 23 26 24 27 25 29 26 30 27 31 91 32 28 33 90 34 29 35
REMARK SMILES IDX 30 36 31 37 84 38 32 39 89 40 83 41 85 42 33 43 88 44 82 45
REMARK SMILES IDX 81 46 34 48 68 49 47 50 67 51 48 52 51 53 66 54 86 55 49 56
REMARK SMILES IDX 50 57 65 59 87 60 52 61 35 62 36 63 45 64 37 65 38 66 44 67
REMARK SMILES IDX 46 68 39 69 40 70 41 71 42 72 43 73 69 74 70 75 79 76 71 77
REMARK SMILES IDX 72 78 78 79 80 80 73 81 74 82 75 83 76 84 77 85 53 86 54 87
REMARK SMILES IDX 63 88 55 89 56 90 62 91 64 92 57 93 58 94 59 95 60 96 61 97
REMARK H PARENT 18 6 9 12 23 28 85 47 51 58
REMARK Flexibility Score: inf
ROOT
ATOM      1  C   UNL A   1      37.707  22.645  25.382  1.00  0.00     0.023 C 
ENDROOT
BRANCH   1   2
ATOM      2  C   UNL A   1      36.677  22.893  24.290  1.00  0.00     0.116 C 
BRANCH   2   3
ATOM      3  N   UNL A   1      35.500  22.056  24.417  1.00  0.00    -0.356 N 
ATOM      4  C   UNL A   1      34.179  22.346  24.289  1.00  0.00     0.224 C 
ATOM      5  O   UNL A   1      33.396  21.391  24.277  1.00  0.00    -0.275 OA
ATOM      6  H   UNL A   1      35.691  21.115  24.634  1.00  0.00     0.163 HD
BRANCH   4   7
ATOM      7  C   UNL A   1      33.638  23.767  24.154  1.00  0.00     0.098 C 
BRANCH   7   8
ATOM      8  C   UNL A   1      32.340  23.865  23.341  1.00  0.00     0.129 C 
BRANCH   8   9
ATOM      9  N   UNL A   1      32.559  24.206  21.946  1.00  0.00    -0.351 N 
ATOM     10  C   UNL A   1      32.779  25.412  21.319  1.00  0.00     0.261 C 
ATOM     11  O   UNL A   1      33.178  25.310  20.154  1.00  0.00    -0.268 OA
ATOM     12  H   UNL A   1      32.549  23.432  21.337  1.00  0.00     0.163 HD
BRANCH  10  13
ATOM     13  C   UNL A   1      32.547  26.696  21.977  1.00  0.00     0.092 A 
ATOM     14  C   UNL A   1      31.374  28.512  23.246  1.00  0.00     0.005 A 
ATOM     15  C   UNL A   1      32.709  28.786  23.039  1.00  0.00     0.016 A 
ATOM     16  S   UNL A   1      30.935  27.035  22.497  1.00  0.00    -0.135 S 
ATOM     17  C   UNL A   1      33.383  27.734  22.343  1.00  0.00     0.026 A 
BRANCH  14  18
ATOM     18  C   UNL A   1      30.326  29.275  24.008  1.00  0.00     0.043 C 
ATOM     19  C   UNL A   1      29.600  30.330  23.186  1.00  0.00     0.010 C 
ENDBRANCH  14  18
ENDBRANCH  10  13
ENDBRANCH   8   9
ENDBRANCH   7   8
BRANCH   7  20
ATOM     20  C   UNL A   1      33.634  24.573  25.479  1.00  0.00     0.018 C 
BRANCH  20  21
ATOM     21  C   UNL A   1      32.938  25.951  25.479  1.00  0.00    -0.017 C 
ATOM     22  C   UNL A   1      31.691  25.966  26.371  1.00  0.00     0.007 C 
ATOM     23  C   UNL A   1      33.887  27.053  25.963  1.00  0.00     0.007 C 
ENDBRANCH  20  21
ENDBRANCH   7  20
ENDBRANCH   4   7
ENDBRANCH   2   3
ENDBRANCH   1   2
BRANCH   1  24
ATOM     24  C   UNL A   1      38.060  23.878  26.208  1.00  0.00     0.023 C 
BRANCH  24  25
ATOM     25  C   UNL A   1      39.434  23.849  26.868  1.00  0.00     0.116 C 
BRANCH  25  26
ATOM     26  N   UNL A   1      40.503  24.310  25.991  1.00  0.00    -0.352 N 
ATOM     27  C   UNL A   1      41.220  25.485  26.038  1.00  0.00     0.251 C 
ATOM     28  H   UNL A   1      40.746  23.696  25.262  1.00  0.00     0.163 HD
ATOM     29  O   UNL A   1      41.996  25.766  25.139  1.00  0.00    -0.269 OA
BRANCH  27  30
ATOM     30  C   UNL A   1      41.012  26.409  27.173  1.00  0.00     0.039 A 
ATOM     31  C   UNL A   1      40.098  26.063  28.169  1.00  0.00     0.014 A 
ATOM     32  C   UNL A   1      41.747  27.593  27.265  1.00  0.00     0.014 A 
ATOM     33  C   UNL A   1      39.966  26.882  29.292  1.00  0.00     0.010 A 
ATOM     34  C   UNL A   1      41.687  28.351  28.428  1.00  0.00     0.010 A 
ATOM     35  C   UNL A   1      40.781  28.017  29.445  1.00  0.00    -0.014 A 
BRANCH  35  36
ATOM     36  C   UNL A   1      40.667  28.891  30.640  1.00  0.00     0.031 A 
ATOM     37  C   UNL A   1      39.616  29.968  30.682  1.00  0.00     0.074 A 
ATOM     38  C   UNL A   1      41.535  28.754  31.660  1.00  0.00     0.049 A 
ATOM     39  N   UNL A   1      39.377  30.854  31.614  1.00  0.00    -0.248 NA
ATOM     40  C   UNL A   1      38.742  30.087  29.504  1.00  0.00     0.031 C 
ATOM     41  C   UNL A   1      42.642  27.796  31.708  1.00  0.00     0.029 A 
ATOM     42  N   UNL A   1      41.628  29.427  32.852  1.00  0.00    -0.354 N 
ATOM     43  C   UNL A   1      38.335  31.638  31.129  1.00  0.00     0.074 A 
ATOM     44  C   UNL A   1      38.047  31.177  29.790  1.00  0.00     0.031 C 
ATOM     45  C   UNL A   1      43.288  27.929  32.878  1.00  0.00     0.029 A 
ATOM     46  C   UNL A   1      42.661  28.998  33.650  1.00  0.00     0.049 A 
ATOM     47  H   UNL A   1      41.013  30.151  33.111  1.00  0.00     0.167 HD
ATOM     48  C   UNL A   1      37.654  32.628  31.754  1.00  0.00     0.037 A 
ATOM     49  C   UNL A   1      43.059  29.418  34.867  1.00  0.00     0.037 A 
ATOM     50  C   UNL A   1      37.936  33.073  33.093  1.00  0.00     0.049 A 
ATOM     51  C   UNL A   1      42.277  30.501  35.559  1.00  0.00     0.074 A 
ATOM     52  C   UNL A   1      37.283  34.038  33.838  1.00  0.00     0.029 A 
ATOM     53  N   UNL A   1      38.962  32.580  33.890  1.00  0.00    -0.354 N 
ATOM     54  N   UNL A   1      41.250  31.186  35.115  1.00  0.00    -0.248 NA
ATOM     55  C   UNL A   1      42.691  30.852  36.924  1.00  0.00     0.031 C 
ATOM     56  C   UNL A   1      37.939  34.157  35.070  1.00  0.00     0.029 A 
ATOM     57  C   UNL A   1      38.966  33.227  35.113  1.00  0.00     0.049 A 
ATOM     58  H   UNL A   1      39.594  31.873  33.623  1.00  0.00     0.167 HD
ATOM     59  C   UNL A   1      40.877  32.032  36.155  1.00  0.00     0.074 A 
ATOM     60  C   UNL A   1      41.783  31.761  37.253  1.00  0.00     0.031 C 
ATOM     61  C   UNL A   1      39.874  32.944  36.199  1.00  0.00     0.037 A 
BRANCH  48  62
ATOM     62  C   UNL A   1      36.537  33.283  30.984  1.00  0.00     0.058 A 
ATOM     63  C   UNL A   1      36.793  34.235  29.981  1.00  0.00     0.135 A 
ATOM     64  C   UNL A   1      35.197  32.976  31.264  1.00  0.00     0.135 A 
ATOM     65  F   UNL A   1      38.056  34.579  29.681  1.00  0.00    -0.206 F 
ATOM     66  C   UNL A   1      35.762  34.898  29.325  1.00  0.00     0.059 A 
ATOM     67  C   UNL A   1      34.148  33.602  30.593  1.00  0.00     0.059 A 
ATOM     68  F   UNL A   1      34.891  32.073  32.208  1.00  0.00    -0.206 F 
ATOM     69  C   UNL A   1      34.441  34.580  29.645  1.00  0.00     0.060 A 
BRANCH  69  70
ATOM     70  S   UNL A   1      33.114  35.477  28.813  1.00  0.00     0.124 S 
ATOM     71  O   UNL A   1      32.420  36.084  29.945  1.00  0.00    -0.237 OA
ATOM     72  O   UNL A   1      33.850  36.400  27.955  1.00  0.00    -0.237 OA
ATOM     73  O   UNL A   1      32.380  34.427  28.115  1.00  0.00    -0.744 OA
ENDBRANCH  69  70
ENDBRANCH  48  62
BRANCH  49  74
ATOM     74  C   UNL A   1      44.235  28.776  35.516  1.00  0.00     0.058 A 
ATOM     75  C   UNL A   1      44.082  27.666  36.360  1.00  0.00     0.135 A 
ATOM     76  C   UNL A   1      45.539  29.228  35.262  1.00  0.00     0.135 A 
ATOM     77  F   UNL A   1      42.855  27.198  36.638  1.00  0.00    -0.206 F 
ATOM     78  C   UNL A   1      45.179  27.029  36.933  1.00  0.00     0.059 A 
ATOM     79  C   UNL A   1      46.652  28.594  35.802  1.00  0.00     0.059 A 
ATOM     80  F   UNL A   1      45.739  30.276  34.445  1.00  0.00    -0.206 F 
ATOM     81  C   UNL A   1      46.462  27.496  36.639  1.00  0.00     0.060 A 
BRANCH  81  82
ATOM     82  S   UNL A   1      47.882  26.610  37.320  1.00  0.00     0.124 S 
ATOM     83  O   UNL A   1      48.130  25.612  36.287  1.00  0.00    -0.237 OA
ATOM     84  O   UNL A   1      48.877  27.673  37.435  1.00  0.00    -0.237 OA
ATOM     85  O   UNL A   1      47.377  26.094  38.589  1.00  0.00    -0.744 OA
ENDBRANCH  81  82
ENDBRANCH  49  74
BRANCH  61  86
ATOM     86  C   UNL A   1      39.673  33.690  37.490  1.00  0.00     0.058 A 
ATOM     87  C   UNL A   1      40.304  34.918  37.745  1.00  0.00     0.135 A 
ATOM     88  C   UNL A   1      38.806  33.183  38.471  1.00  0.00     0.135 A 
ATOM     89  F   UNL A   1      41.145  35.447  36.844  1.00  0.00    -0.206 F 
ATOM     90  C   UNL A   1      40.106  35.600  38.943  1.00  0.00     0.059 A 
ATOM     91  C   UNL A   1      38.569  33.863  39.661  1.00  0.00     0.059 A 
ATOM     92  F   UNL A   1      38.166  32.019  38.273  1.00  0.00    -0.206 F 
ATOM     93  C   UNL A   1      39.239  35.063  39.895  1.00  0.00     0.060 A 
BRANCH  93  94
ATOM     94  S   UNL A   1      38.982  35.963  41.439  1.00  0.00     0.124 S 
ATOM     95  O   UNL A   1      38.979  37.346  40.974  1.00  0.00    -0.237 OA
ATOM     96  O   UNL A   1      37.696  35.443  41.893  1.00  0.00    -0.237 OA
ATOM     97  O   UNL A   1      40.131  35.576  42.253  1.00  0.00    -0.744 OA
ENDBRANCH  93  94
ENDBRANCH  61  86
ENDBRANCH  35  36
ENDBRANCH  27  30
ENDBRANCH  25  26
ENDBRANCH  24  25
ENDBRANCH   1  24
TORSDOF 20
ENDMDL
MODEL 3
REMARK VINA RESULT:     -10.7      5.052      6.778
REMARK SMILES CCc1ccc(C(=O)NC[C@@H](CC(C)C)C(=O)NCCCCNC(=O)c2ccc(-c3c4nc(c(-c5c(F)cc(S(=O)(=O)[O-])cc5F)c5ccc([nH]5)c(-c5c(F)cc(S(=O)(=O)[O-])cc5F)c5nc(c(-c6c(F)cc(S(=O)(=O)[O-])cc6F)c6ccc3[nH]6)C=C5)C=C4)cc2)s1
REMARK SMILES IDX 20 1 19 2 18 3 16 4 17 5 11 7 10 8 9 9 7 10 8 11 6 13 3 14
REMARK SMILES IDX 4 15 92 16 5 17 2 18 1 19 12 20 13 21 14 22 15 23 21 24
REMARK SMILES IDX 22 25 23 26 24 27 25 29 26 30 27 31 91 32 28 33 90 34 29 35
REMARK SMILES IDX 30 36 31 37 84 38 32 39 89 40 83 41 85 42 33 43 88 44 82 45
REMARK SMILES IDX 81 46 34 48 68 49 47 50 67 51 48 52 51 53 66 54 86 55 49 56
REMARK SMILES IDX 50 57 65 59 87 60 52 61 35 62 36 63 45 64 37 65 38 66 44 67
REMARK SMILES IDX 46 68 39 69 40 70 41 71 42 72 43 73 69 74 70 75 79 76 71 77
REMARK SMILES IDX 72 78 78 79 80 80 73 81 74 82 75 83 76 84 77 85 53 86 54 87
REMARK SMILES IDX 63 88 55 89 56 90 62 91 64 92 57 93 58 94 59 95 60 96 61 97
REMARK H PARENT 18 6 9 12 23 28 85 47 51 58
REMARK Flexibility Score: inf
ROOT
ATOM      1  C   UNL A   1      34.127  23.782  26.055  1.00  0.00     0.023 C 
ENDROOT
BRANCH   1   2
ATOM      2  C   UNL A   1      32.822  23.834  25.276  1.00  0.00     0.116 C 
BRANCH   2   3
ATOM      3  N   UNL A   1      31.859  24.759  25.840  1.00  0.00    -0.356 N 
ATOM      4  C   UNL A   1      31.888  26.111  25.972  1.00  0.00     0.224 C 
ATOM      5  O   UNL A   1      30.842  26.660  26.334  1.00  0.00    -0.275 OA
ATOM      6  H   UNL A   1      31.042  24.333  26.188  1.00  0.00     0.163 HD
BRANCH   4   7
ATOM      7  C   UNL A   1      33.126  26.958  25.689  1.00  0.00     0.098 C 
BRANCH   7   8
ATOM      8  C   UNL A   1      33.070  27.716  24.355  1.00  0.00     0.129 C 
BRANCH   8   9
ATOM      9  N   UNL A   1      32.696  26.876  23.231  1.00  0.00    -0.351 N 
ATOM     10  C   UNL A   1      31.593  26.883  22.407  1.00  0.00     0.261 C 
ATOM     11  O   UNL A   1      31.716  26.188  21.392  1.00  0.00    -0.268 OA
ATOM     12  H   UNL A   1      33.352  26.172  23.019  1.00  0.00     0.163 HD
BRANCH  10  13
ATOM     13  C   UNL A   1      30.382  27.639  22.717  1.00  0.00     0.092 A 
ATOM     14  C   UNL A   1      28.713  29.510  22.728  1.00  0.00     0.005 A 
ATOM     15  C   UNL A   1      28.239  28.374  23.346  1.00  0.00     0.016 A 
ATOM     16  S   UNL A   1      30.332  29.290  22.212  1.00  0.00    -0.135 S 
ATOM     17  C   UNL A   1      29.181  27.298  23.311  1.00  0.00     0.026 A 
BRANCH  14  18
ATOM     18  C   UNL A   1      28.038  30.824  22.445  1.00  0.00     0.043 C 
ATOM     19  C   UNL A   1      27.425  31.487  23.670  1.00  0.00     0.010 C 
ENDBRANCH  14  18
ENDBRANCH  10  13
ENDBRANCH   8   9
ENDBRANCH   7   8
BRANCH   7  20
ATOM     20  C   UNL A   1      33.604  27.807  26.895  1.00  0.00     0.018 C 
BRANCH  20  21
ATOM     21  C   UNL A   1      33.820  29.318  26.670  1.00  0.00    -0.017 C 
ATOM     22  C   UNL A   1      32.623  30.149  27.147  1.00  0.00     0.007 C 
ATOM     23  C   UNL A   1      35.071  29.816  27.401  1.00  0.00     0.007 C 
ENDBRANCH  20  21
ENDBRANCH   7  20
ENDBRANCH   4   7
ENDBRANCH   2   3
ENDBRANCH   1   2
BRANCH   1  24
ATOM     24  C   UNL A   1      35.312  23.236  25.265  1.00  0.00     0.023 C 
BRANCH  24  25
ATOM     25  C   UNL A   1      36.676  23.777  25.679  1.00  0.00     0.116 C 
BRANCH  25  26
ATOM     26  N   UNL A   1      37.670  22.732  25.891  1.00  0.00    -0.352 N 
ATOM     27  C   UNL A   1      38.963  22.842  26.349  1.00  0.00     0.251 C 
ATOM     28  H   UNL A   1      37.374  21.819  25.675  1.00  0.00     0.163 HD
ATOM     29  O   UNL A   1      39.702  21.870  26.340  1.00  0.00    -0.269 OA
BRANCH  27  30
ATOM     30  C   UNL A   1      39.451  24.156  26.818  1.00  0.00     0.039 A 
ATOM     31  C   UNL A   1      39.350  24.471  28.173  1.00  0.00     0.014 A 
ATOM     32  C   UNL A   1      40.038  25.054  25.924  1.00  0.00     0.014 A 
ATOM     33  C   UNL A   1      39.895  25.668  28.641  1.00  0.00     0.010 A 
ATOM     34  C   UNL A   1      40.667  26.194  26.407  1.00  0.00     0.010 A 
ATOM     35  C   UNL A   1      40.584  26.526  27.767  1.00  0.00    -0.014 A 
BRANCH  35  36
ATOM     36  C   UNL A   1      41.185  27.795  28.250  1.00  0.00     0.031 A 
ATOM     37  C   UNL A   1      42.680  27.971  28.228  1.00  0.00     0.074 A 
ATOM     38  C   UNL A   1      40.398  28.764  28.755  1.00  0.00     0.049 A 
ATOM     39  N   UNL A   1      43.400  28.983  28.638  1.00  0.00    -0.248 NA
ATOM     40  C   UNL A   1      43.472  26.844  27.711  1.00  0.00     0.031 C 
ATOM     41  C   UNL A   1      38.943  28.685  28.897  1.00  0.00     0.029 A 
ATOM     42  N   UNL A   1      40.713  30.004  29.251  1.00  0.00    -0.354 N 
ATOM     43  C   UNL A   1      44.725  28.610  28.436  1.00  0.00     0.074 A 
ATOM     44  C   UNL A   1      44.710  27.249  27.948  1.00  0.00     0.031 C 
ATOM     45  C   UNL A   1      38.490  29.835  29.423  1.00  0.00     0.029 A 
ATOM     46  C   UNL A   1      39.622  30.720  29.682  1.00  0.00     0.049 A 
ATOM     47  H   UNL A   1      41.635  30.348  29.295  1.00  0.00     0.167 HD
ATOM     48  C   UNL A   1      45.851  29.344  28.605  1.00  0.00     0.037 A 
ATOM     49  C   UNL A   1      39.542  31.951  30.224  1.00  0.00     0.037 A 
ATOM     50  C   UNL A   1      45.857  30.703  29.077  1.00  0.00     0.049 A 
ATOM     51  C   UNL A   1      40.799  32.764  30.381  1.00  0.00     0.074 A 
ATOM     52  C   UNL A   1      46.935  31.553  29.245  1.00  0.00     0.029 A 
ATOM     53  N   UNL A   1      44.726  31.412  29.458  1.00  0.00    -0.354 N 
ATOM     54  N   UNL A   1      42.039  32.421  30.122  1.00  0.00    -0.248 NA
ATOM     55  C   UNL A   1      40.645  34.135  30.884  1.00  0.00     0.031 C 
ATOM     56  C   UNL A   1      46.460  32.762  29.767  1.00  0.00     0.029 A 
ATOM     57  C   UNL A   1      45.080  32.685  29.870  1.00  0.00     0.049 A 
ATOM     58  H   UNL A   1      43.805  31.061  29.437  1.00  0.00     0.167 HD
ATOM     59  C   UNL A   1      42.811  33.543  30.403  1.00  0.00     0.074 A 
ATOM     60  C   UNL A   1      41.895  34.577  30.841  1.00  0.00     0.031 C 
ATOM     61  C   UNL A   1      44.154  33.705  30.302  1.00  0.00     0.037 A 
BRANCH  48  62
ATOM     62  C   UNL A   1      47.159  28.678  28.268  1.00  0.00     0.058 A 
ATOM     63  C   UNL A   1      47.673  28.683  26.959  1.00  0.00     0.135 A 
ATOM     64  C   UNL A   1      47.899  28.009  29.255  1.00  0.00     0.135 A 
ATOM     65  F   UNL A   1      47.002  29.296  25.971  1.00  0.00    -0.206 F 
ATOM     66  C   UNL A   1      48.841  28.002  26.631  1.00  0.00     0.059 A 
ATOM     67  C   UNL A   1      49.089  27.350  28.957  1.00  0.00     0.059 A 
ATOM     68  F   UNL A   1      47.460  27.973  30.523  1.00  0.00    -0.206 F 
ATOM     69  C   UNL A   1      49.537  27.330  27.637  1.00  0.00     0.060 A 
BRANCH  69  70
ATOM     70  S   UNL A   1      51.029  26.418  27.188  1.00  0.00     0.124 S 
ATOM     71  O   UNL A   1      52.021  27.040  28.060  1.00  0.00    -0.237 OA
ATOM     72  O   UNL A   1      50.668  25.044  27.521  1.00  0.00    -0.237 OA
ATOM     73  O   UNL A   1      51.182  26.697  25.764  1.00  0.00    -0.744 OA
ENDBRANCH  69  70
ENDBRANCH  48  62
BRANCH  49  74
ATOM     74  C   UNL A   1      38.214  32.495  30.615  1.00  0.00     0.058 A 
ATOM     75  C   UNL A   1      37.706  32.310  31.910  1.00  0.00     0.135 A 
ATOM     76  C   UNL A   1      37.450  33.256  29.717  1.00  0.00     0.135 A 
ATOM     77  F   UNL A   1      38.396  31.586  32.804  1.00  0.00    -0.206 F 
ATOM     78  C   UNL A   1      36.487  32.856  32.300  1.00  0.00     0.059 A 
ATOM     79  C   UNL A   1      36.241  33.833  30.091  1.00  0.00     0.059 A 
ATOM     80  F   UNL A   1      37.901  33.478  28.472  1.00  0.00    -0.206 F 
ATOM     81  C   UNL A   1      35.766  33.625  31.384  1.00  0.00     0.060 A 
BRANCH  81  82
ATOM     82  S   UNL A   1      34.226  34.400  31.927  1.00  0.00     0.124 S 
ATOM     83  O   UNL A   1      33.646  33.352  32.759  1.00  0.00    -0.237 OA
ATOM     84  O   UNL A   1      34.712  35.582  32.633  1.00  0.00    -0.237 OA
ATOM     85  O   UNL A   1      33.528  34.670  30.673  1.00  0.00    -0.744 OA
ENDBRANCH  81  82
ENDBRANCH  49  74
BRANCH  61  86
ATOM     86  C   UNL A   1      44.715  35.062  30.633  1.00  0.00     0.058 A 
ATOM     87  C   UNL A   1      45.158  35.390  31.924  1.00  0.00     0.135 A 
ATOM     88  C   UNL A   1      44.843  36.036  29.629  1.00  0.00     0.135 A 
ATOM     89  F   UNL A   1      45.056  34.497  32.920  1.00  0.00    -0.206 F 
ATOM     90  C   UNL A   1      45.678  36.648  32.214  1.00  0.00     0.059 A 
ATOM     91  C   UNL A   1      45.388  37.288  29.891  1.00  0.00     0.059 A 
ATOM     92  F   UNL A   1      44.448  35.771  28.373  1.00  0.00    -0.206 F 
ATOM     93  C   UNL A   1      45.787  37.591  31.192  1.00  0.00     0.060 A 
BRANCH  93  94
ATOM     94  S   UNL A   1      46.474  39.215  31.580  1.00  0.00     0.124 S 
ATOM     95  O   UNL A   1      47.120  39.567  30.320  1.00  0.00    -0.237 OA
ATOM     96  O   UNL A   1      45.282  39.985  31.920  1.00  0.00    -0.237 OA
ATOM     97  O   UNL A   1      47.378  38.944  32.694  1.00  0.00    -0.744 OA
ENDBRANCH  93  94
ENDBRANCH  61  86
ENDBRANCH  35  36
ENDBRANCH  27  30
ENDBRANCH  25  26
ENDBRANCH  24  25
ENDBRANCH   1  24
TORSDOF 20
ENDMDL
