MODEL 1
REMARK VINA RESULT:     -12.2      0.000      0.000
REMARK SMILES CCn1ncc(CNc2ccccc2C(=O)NCCCCNC(=O)c2ccc(-c3c4nc(c(-c5c(F)cc(S(=O)(=O)[O-])cc5F)c5ccc([nH]5)c(-c5c(F)cc(S(=O)(=O)[O-])cc5F)c5nc(c(-c6c(F)cc(S(=O)(=O)[O-])cc6F)c6ccc3[nH]6)C=C5)C=C4)cc2)c1C
REMARK SMILES IDX 19 1 18 2 17 3 15 4 16 5 14 7 9 8 10 9 11 10 13 11 12 12
REMARK SMILES IDX 8 13 7 15 6 16 3 17 4 18 91 19 5 20 92 21 2 22 1 23 20 24
REMARK SMILES IDX 21 25 22 26 23 27 24 29 25 30 26 31 90 32 27 33 89 34 28 35
REMARK SMILES IDX 29 36 30 37 83 38 31 39 88 40 82 41 84 42 32 43 87 44 81 45
REMARK SMILES IDX 80 46 33 48 67 49 46 50 66 51 47 52 50 53 65 54 85 55 48 56
REMARK SMILES IDX 49 57 64 59 86 60 51 61 34 62 35 63 44 64 36 65 37 66 43 67
REMARK SMILES IDX 45 68 38 69 39 70 40 71 41 72 42 73 68 74 69 75 78 76 70 77
REMARK SMILES IDX 71 78 77 79 79 80 72 81 73 82 74 83 75 84 76 85 52 86 53 87
REMARK SMILES IDX 62 88 54 89 55 90 61 91 63 92 56 93 57 94 58 95 59 96 60 97
REMARK H PARENT 17 6 8 14 22 28 84 47 50 58
REMARK Flexibility Score: inf
ROOT
ATOM      1  C   UNL A   1      34.054  28.259  25.146  1.00  0.00     0.023 C 
ENDROOT
BRANCH   1   2
ATOM      2  C   UNL A   1      33.408  28.389  23.762  1.00  0.00     0.116 C 
BRANCH   2   3
ATOM      3  N   UNL A   1      33.691  27.310  22.831  1.00  0.00    -0.352 N 
ATOM      4  C   UNL A   1      33.376  25.966  22.920  1.00  0.00     0.253 C 
ATOM      5  O   UNL A   1      33.703  25.237  21.982  1.00  0.00    -0.269 OA
ATOM      6  H   UNL A   1      34.177  27.574  22.017  1.00  0.00     0.163 HD
BRANCH   4   7
ATOM      7  C   UNL A   1      32.742  25.345  24.124  1.00  0.00     0.062 A 
ATOM      8  C   UNL A   1      31.369  25.355  24.424  1.00  0.00     0.047 A 
ATOM      9  C   UNL A   1      30.947  24.839  25.666  1.00  0.00     0.026 A 
ATOM     10  C   UNL A   1      31.837  24.248  26.558  1.00  0.00     0.002 A 
ATOM     11  C   UNL A   1      33.627  24.696  25.011  1.00  0.00     0.016 A 
ATOM     12  C   UNL A   1      33.177  24.145  26.213  1.00  0.00     0.001 A 
BRANCH   8  13
ATOM     13  N   UNL A   1      30.360  25.712  23.544  1.00  0.00    -0.380 N 
ATOM     14  H   UNL A   1      30.360  25.357  22.625  1.00  0.00     0.160 HD
BRANCH  13  15
ATOM     15  C   UNL A   1      29.298  26.614  23.977  1.00  0.00     0.152 C 
BRANCH  15  16
ATOM     16  C   UNL A   1      29.240  27.798  23.080  1.00  0.00     0.012 A 
ATOM     17  N   UNL A   1      28.624  29.612  22.005  1.00  0.00    -0.270 N 
ATOM     18  N   UNL A   1      29.942  29.513  21.759  1.00  0.00    -0.181 NA
ATOM     19  C   UNL A   1      28.165  28.646  22.866  1.00  0.00     0.040 A 
ATOM     20  C   UNL A   1      30.315  28.449  22.457  1.00  0.00     0.141 A 
ATOM     21  C   UNL A   1      26.828  28.615  23.508  1.00  0.00     0.067 C 
BRANCH  17  22
ATOM     22  C   UNL A   1      27.941  30.787  21.501  1.00  0.00     0.141 C 
ATOM     23  C   UNL A   1      28.062  31.942  22.480  1.00  0.00     0.029 C 
ENDBRANCH  17  22
ENDBRANCH  15  16
ENDBRANCH  13  15
ENDBRANCH   8  13
ENDBRANCH   4   7
ENDBRANCH   2   3
ENDBRANCH   1   2
BRANCH   1  24
ATOM     24  C   UNL A   1      33.152  28.447  26.375  1.00  0.00     0.023 C 
BRANCH  24  25
ATOM     25  C   UNL A   1      33.798  29.123  27.575  1.00  0.00     0.116 C 
BRANCH  25  26
ATOM     26  N   UNL A   1      33.878  30.573  27.501  1.00  0.00    -0.352 N 
ATOM     27  C   UNL A   1      34.892  31.404  27.959  1.00  0.00     0.251 C 
ATOM     28  H   UNL A   1      33.116  31.025  27.069  1.00  0.00     0.163 HD
ATOM     29  O   UNL A   1      34.686  32.603  28.052  1.00  0.00    -0.269 OA
BRANCH  27  30
ATOM     30  C   UNL A   1      36.221  30.840  28.334  1.00  0.00     0.039 A 
ATOM     31  C   UNL A   1      36.443  29.458  28.297  1.00  0.00     0.014 A 
ATOM     32  C   UNL A   1      37.245  31.677  28.774  1.00  0.00     0.014 A 
ATOM     33  C   UNL A   1      37.698  28.950  28.648  1.00  0.00     0.010 A 
ATOM     34  C   UNL A   1      38.485  31.193  29.102  1.00  0.00     0.010 A 
ATOM     35  C   UNL A   1      38.712  29.828  29.051  1.00  0.00    -0.014 A 
BRANCH  35  36
ATOM     36  C   UNL A   1      40.097  29.395  29.190  1.00  0.00     0.031 A 
ATOM     37  C   UNL A   1      40.526  29.207  30.606  1.00  0.00     0.074 A 
ATOM     38  C   UNL A   1      40.802  28.848  28.177  1.00  0.00     0.049 A 
ATOM     39  N   UNL A   1      41.474  29.809  31.244  1.00  0.00    -0.248 NA
ATOM     40  C   UNL A   1      39.716  28.312  31.455  1.00  0.00     0.031 C 
ATOM     41  C   UNL A   1      40.358  28.580  26.803  1.00  0.00     0.029 A 
ATOM     42  N   UNL A   1      42.040  28.284  28.208  1.00  0.00    -0.354 N 
ATOM     43  C   UNL A   1      41.519  29.220  32.506  1.00  0.00     0.074 A 
ATOM     44  C   UNL A   1      40.312  28.448  32.640  1.00  0.00     0.031 C 
ATOM     45  C   UNL A   1      41.225  27.728  26.209  1.00  0.00     0.029 A 
ATOM     46  C   UNL A   1      42.355  27.512  27.095  1.00  0.00     0.049 A 
ATOM     47  H   UNL A   1      42.664  28.413  28.959  1.00  0.00     0.167 HD
ATOM     48  C   UNL A   1      42.653  29.226  33.261  1.00  0.00     0.037 A 
ATOM     49  C   UNL A   1      43.448  26.723  26.939  1.00  0.00     0.037 A 
ATOM     50  C   UNL A   1      43.604  30.192  32.775  1.00  0.00     0.049 A 
ATOM     51  C   UNL A   1      44.459  27.180  27.928  1.00  0.00     0.074 A 
ATOM     52  C   UNL A   1      43.569  31.559  32.571  1.00  0.00     0.029 A 
ATOM     53  N   UNL A   1      44.661  29.733  32.027  1.00  0.00    -0.354 N 
ATOM     54  N   UNL A   1      45.035  28.353  27.901  1.00  0.00    -0.248 NA
ATOM     55  C   UNL A   1      44.512  26.494  29.209  1.00  0.00     0.031 C 
ATOM     56  C   UNL A   1      44.265  31.765  31.343  1.00  0.00     0.029 A 
ATOM     57  C   UNL A   1      44.743  30.527  30.909  1.00  0.00     0.049 A 
ATOM     58  H   UNL A   1      45.251  28.978  32.251  1.00  0.00     0.167 HD
ATOM     59  C   UNL A   1      45.136  28.732  29.231  1.00  0.00     0.074 A 
ATOM     60  C   UNL A   1      44.894  27.508  29.991  1.00  0.00     0.031 C 
ATOM     61  C   UNL A   1      45.131  30.049  29.598  1.00  0.00     0.037 A 
BRANCH  48  62
ATOM     62  C   UNL A   1      43.025  28.127  34.226  1.00  0.00     0.058 A 
ATOM     63  C   UNL A   1      43.231  28.428  35.587  1.00  0.00     0.135 A 
ATOM     64  C   UNL A   1      43.431  26.837  33.819  1.00  0.00     0.135 A 
ATOM     65  F   UNL A   1      42.911  29.637  36.076  1.00  0.00    -0.206 F 
ATOM     66  C   UNL A   1      43.830  27.525  36.468  1.00  0.00     0.059 A 
ATOM     67  C   UNL A   1      43.976  25.902  34.691  1.00  0.00     0.059 A 
ATOM     68  F   UNL A   1      43.409  26.457  32.535  1.00  0.00    -0.206 F 
ATOM     69  C   UNL A   1      44.206  26.266  36.007  1.00  0.00     0.060 A 
BRANCH  69  70
ATOM     70  S   UNL A   1      45.051  25.127  37.119  1.00  0.00     0.124 S 
ATOM     71  O   UNL A   1      46.444  25.519  36.932  1.00  0.00    -0.237 OA
ATOM     72  O   UNL A   1      44.459  25.466  38.409  1.00  0.00    -0.237 OA
ATOM     73  O   UNL A   1      44.687  23.814  36.595  1.00  0.00    -0.744 OA
ENDBRANCH  69  70
ENDBRANCH  48  62
BRANCH  49  74
ATOM     74  C   UNL A   1      43.567  25.426  26.220  1.00  0.00     0.058 A 
ATOM     75  C   UNL A   1      44.611  25.194  25.305  1.00  0.00     0.135 A 
ATOM     76  C   UNL A   1      42.835  24.292  26.626  1.00  0.00     0.135 A 
ATOM     77  F   UNL A   1      45.373  26.213  24.879  1.00  0.00    -0.206 F 
ATOM     78  C   UNL A   1      44.944  23.909  24.861  1.00  0.00     0.059 A 
ATOM     79  C   UNL A   1      43.142  23.003  26.190  1.00  0.00     0.059 A 
ATOM     80  F   UNL A   1      41.855  24.392  27.535  1.00  0.00    -0.206 F 
ATOM     81  C   UNL A   1      44.217  22.815  25.328  1.00  0.00     0.060 A 
BRANCH  81  82
ATOM     82  S   UNL A   1      44.758  21.142  24.901  1.00  0.00     0.124 S 
ATOM     83  O   UNL A   1      46.139  21.142  25.373  1.00  0.00    -0.237 OA
ATOM     84  O   UNL A   1      43.826  20.314  25.658  1.00  0.00    -0.237 OA
ATOM     85  O   UNL A   1      44.595  21.093  23.451  1.00  0.00    -0.744 OA
ENDBRANCH  81  82
ENDBRANCH  49  74
BRANCH  61  86
ATOM     86  C   UNL A   1      45.311  31.093  28.520  1.00  0.00     0.058 A 
ATOM     87  C   UNL A   1      44.262  31.673  27.781  1.00  0.00     0.135 A 
ATOM     88  C   UNL A   1      46.590  31.638  28.332  1.00  0.00     0.135 A 
ATOM     89  F   UNL A   1      42.992  31.289  27.967  1.00  0.00    -0.206 F 
ATOM     90  C   UNL A   1      44.479  32.712  26.874  1.00  0.00     0.059 A 
ATOM     91  C   UNL A   1      46.826  32.696  27.457  1.00  0.00     0.059 A 
ATOM     92  F   UNL A   1      47.629  31.174  29.047  1.00  0.00    -0.206 F 
ATOM     93  C   UNL A   1      45.767  33.220  26.720  1.00  0.00     0.060 A 
BRANCH  93  94
ATOM     94  S   UNL A   1      46.035  34.614  25.603  1.00  0.00     0.124 S 
ATOM     95  O   UNL A   1      45.621  35.749  26.423  1.00  0.00    -0.237 OA
ATOM     96  O   UNL A   1      47.464  34.527  25.319  1.00  0.00    -0.237 OA
ATOM     97  O   UNL A   1      45.165  34.315  24.469  1.00  0.00    -0.744 OA
ENDBRANCH  93  94
ENDBRANCH  61  86
ENDBRANCH  35  36
ENDBRANCH  27  30
ENDBRANCH  25  26
ENDBRANCH  24  25
ENDBRANCH   1  24
TORSDOF 18
ENDMDL
MODEL 2
REMARK VINA RESULT:     -12.1      3.713      9.722
REMARK SMILES CCn1ncc(CNc2ccccc2C(=O)NCCCCNC(=O)c2ccc(-c3c4nc(c(-c5c(F)cc(S(=O)(=O)[O-])cc5F)c5ccc([nH]5)c(-c5c(F)cc(S(=O)(=O)[O-])cc5F)c5nc(c(-c6c(F)cc(S(=O)(=O)[O-])cc6F)c6ccc3[nH]6)C=C5)C=C4)cc2)c1C
REMARK SMILES IDX 19 1 18 2 17 3 15 4 16 5 14 7 9 8 10 9 11 10 13 11 12 12
REMARK SMILES IDX 8 13 7 15 6 16 3 17 4 18 91 19 5 20 92 21 2 22 1 23 20 24
REMARK SMILES IDX 21 25 22 26 23 27 24 29 25 30 26 31 90 32 27 33 89 34 28 35
REMARK SMILES IDX 29 36 30 37 83 38 31 39 88 40 82 41 84 42 32 43 87 44 81 45
REMARK SMILES IDX 80 46 33 48 67 49 46 50 66 51 47 52 50 53 65 54 85 55 48 56
REMARK SMILES IDX 49 57 64 59 86 60 51 61 34 62 35 63 44 64 36 65 37 66 43 67
REMARK SMILES IDX 45 68 38 69 39 70 40 71 41 72 42 73 68 74 69 75 78 76 70 77
REMARK SMILES IDX 71 78 77 79 79 80 72 81 73 82 74 83 75 84 76 85 52 86 53 87
REMARK SMILES IDX 62 88 54 89 55 90 61 91 63 92 56 93 57 94 58 95 59 96 60 97
REMARK H PARENT 17 6 8 14 22 28 84 47 50 58
REMARK Flexibility Score: inf
ROOT
ATOM      1  C   UNL A   1      38.008  23.465  26.166  1.00  0.00     0.023 C 
ENDROOT
BRANCH   1   2
ATOM      2  C   UNL A   1      36.490  23.544  25.968  1.00  0.00     0.116 C 
BRANCH   2   3
ATOM      3  N   UNL A   1      36.047  23.865  24.622  1.00  0.00    -0.352 N 
ATOM      4  C   UNL A   1      34.766  23.899  24.102  1.00  0.00     0.253 C 
ATOM      5  O   UNL A   1      34.634  24.227  22.922  1.00  0.00    -0.269 OA
ATOM      6  H   UNL A   1      36.764  24.093  23.987  1.00  0.00     0.163 HD
BRANCH   4   7
ATOM      7  C   UNL A   1      33.552  23.478  24.868  1.00  0.00     0.062 A 
ATOM      8  C   UNL A   1      32.798  22.314  24.636  1.00  0.00     0.047 A 
ATOM      9  C   UNL A   1      31.604  22.130  25.360  1.00  0.00     0.026 A 
ATOM     10  C   UNL A   1      31.200  23.018  26.352  1.00  0.00     0.002 A 
ATOM     11  C   UNL A   1      33.161  24.343  25.912  1.00  0.00     0.016 A 
ATOM     12  C   UNL A   1      32.000  24.111  26.653  1.00  0.00     0.001 A 
BRANCH   8  13
ATOM     13  N   UNL A   1      33.194  21.251  23.840  1.00  0.00    -0.380 N 
ATOM     14  H   UNL A   1      34.139  21.156  23.579  1.00  0.00     0.160 HD
BRANCH  13  15
ATOM     15  C   UNL A   1      32.210  20.273  23.387  1.00  0.00     0.152 C 
BRANCH  15  16
ATOM     16  C   UNL A   1      32.752  18.897  23.544  1.00  0.00     0.012 A 
ATOM     17  N   UNL A   1      33.442  16.972  24.345  1.00  0.00    -0.270 N 
ATOM     18  N   UNL A   1      33.347  16.765  23.020  1.00  0.00    -0.181 NA
ATOM     19  C   UNL A   1      33.014  18.221  24.724  1.00  0.00     0.040 A 
ATOM     20  C   UNL A   1      32.877  17.912  22.552  1.00  0.00     0.141 A 
ATOM     21  C   UNL A   1      32.780  18.675  26.116  1.00  0.00     0.067 C 
BRANCH  17  22
ATOM     22  C   UNL A   1      33.785  15.832  25.172  1.00  0.00     0.141 C 
ATOM     23  C   UNL A   1      32.554  14.998  25.478  1.00  0.00     0.029 C 
ENDBRANCH  17  22
ENDBRANCH  15  16
ENDBRANCH  13  15
ENDBRANCH   8  13
ENDBRANCH   4   7
ENDBRANCH   2   3
ENDBRANCH   1   2
BRANCH   1  24
ATOM     24  C   UNL A   1      38.682  22.099  25.969  1.00  0.00     0.023 C 
BRANCH  24  25
ATOM     25  C   UNL A   1      39.900  21.828  26.839  1.00  0.00     0.116 C 
BRANCH  25  26
ATOM     26  N   UNL A   1      41.141  21.599  26.115  1.00  0.00    -0.352 N 
ATOM     27  C   UNL A   1      42.137  22.514  25.805  1.00  0.00     0.251 C 
ATOM     28  H   UNL A   1      41.294  20.676  25.807  1.00  0.00     0.163 HD
ATOM     29  O   UNL A   1      42.981  22.219  24.973  1.00  0.00    -0.269 OA
BRANCH  27  30
ATOM     30  C   UNL A   1      42.180  23.845  26.476  1.00  0.00     0.039 A 
ATOM     31  C   UNL A   1      41.642  24.975  25.849  1.00  0.00     0.014 A 
ATOM     32  C   UNL A   1      42.800  23.991  27.716  1.00  0.00     0.014 A 
ATOM     33  C   UNL A   1      41.687  26.213  26.497  1.00  0.00     0.010 A 
ATOM     34  C   UNL A   1      42.832  25.196  28.370  1.00  0.00     0.010 A 
ATOM     35  C   UNL A   1      42.287  26.312  27.759  1.00  0.00    -0.014 A 
BRANCH  35  36
ATOM     36  C   UNL A   1      42.151  27.504  28.587  1.00  0.00     0.031 A 
ATOM     37  C   UNL A   1      43.238  28.504  28.382  1.00  0.00     0.074 A 
ATOM     38  C   UNL A   1      40.990  27.858  29.182  1.00  0.00     0.049 A 
ATOM     39  N   UNL A   1      44.084  28.958  29.246  1.00  0.00    -0.248 NA
ATOM     40  C   UNL A   1      43.488  28.972  27.005  1.00  0.00     0.031 C 
ATOM     41  C   UNL A   1      39.694  27.170  29.124  1.00  0.00     0.029 A 
ATOM     42  N   UNL A   1      40.695  29.000  29.859  1.00  0.00    -0.354 N 
ATOM     43  C   UNL A   1      44.833  29.923  28.576  1.00  0.00     0.074 A 
ATOM     44  C   UNL A   1      44.551  29.758  27.174  1.00  0.00     0.031 C 
ATOM     45  C   UNL A   1      38.722  28.007  29.555  1.00  0.00     0.029 A 
ATOM     46  C   UNL A   1      39.337  29.222  30.059  1.00  0.00     0.049 A 
ATOM     47  H   UNL A   1      41.388  29.619  30.184  1.00  0.00     0.167 HD
ATOM     48  C   UNL A   1      45.455  30.937  29.240  1.00  0.00     0.037 A 
ATOM     49  C   UNL A   1      38.765  30.344  30.563  1.00  0.00     0.037 A 
ATOM     50  C   UNL A   1      45.548  30.664  30.651  1.00  0.00     0.049 A 
ATOM     51  C   UNL A   1      39.829  31.086  31.290  1.00  0.00     0.074 A 
ATOM     52  C   UNL A   1      46.109  29.647  31.400  1.00  0.00     0.029 A 
ATOM     53  N   UNL A   1      44.654  31.289  31.486  1.00  0.00    -0.354 N 
ATOM     54  N   UNL A   1      40.425  30.646  32.366  1.00  0.00    -0.248 NA
ATOM     55  C   UNL A   1      40.541  32.128  30.569  1.00  0.00     0.031 C 
ATOM     56  C   UNL A   1      45.172  29.402  32.447  1.00  0.00     0.029 A 
ATOM     57  C   UNL A   1      44.134  30.327  32.317  1.00  0.00     0.049 A 
ATOM     58  H   UNL A   1      44.429  32.247  31.489  1.00  0.00     0.167 HD
ATOM     59  C   UNL A   1      41.749  31.032  32.223  1.00  0.00     0.074 A 
ATOM     60  C   UNL A   1      41.739  32.027  31.154  1.00  0.00     0.031 C 
ATOM     61  C   UNL A   1      42.764  30.313  32.790  1.00  0.00     0.037 A 
BRANCH  48  62
ATOM     62  C   UNL A   1      45.675  32.311  28.657  1.00  0.00     0.058 A 
ATOM     63  C   UNL A   1      46.970  32.865  28.634  1.00  0.00     0.135 A 
ATOM     64  C   UNL A   1      44.624  33.205  28.350  1.00  0.00     0.135 A 
ATOM     65  F   UNL A   1      48.040  32.115  28.941  1.00  0.00    -0.206 F 
ATOM     66  C   UNL A   1      47.199  34.216  28.361  1.00  0.00     0.059 A 
ATOM     67  C   UNL A   1      44.834  34.539  28.019  1.00  0.00     0.059 A 
ATOM     68  F   UNL A   1      43.337  32.850  28.451  1.00  0.00    -0.206 F 
ATOM     69  C   UNL A   1      46.121  35.046  28.063  1.00  0.00     0.060 A 
BRANCH  69  70
ATOM     70  S   UNL A   1      46.403  36.805  27.789  1.00  0.00     0.124 S 
ATOM     71  O   UNL A   1      47.802  36.938  28.178  1.00  0.00    -0.237 OA
ATOM     72  O   UNL A   1      46.118  36.941  26.365  1.00  0.00    -0.237 OA
ATOM     73  O   UNL A   1      45.435  37.441  28.678  1.00  0.00    -0.744 OA
ENDBRANCH  69  70
ENDBRANCH  48  62
BRANCH  49  74
ATOM     74  C   UNL A   1      37.461  30.967  30.209  1.00  0.00     0.058 A 
ATOM     75  C   UNL A   1      36.663  31.592  31.185  1.00  0.00     0.135 A 
ATOM     76  C   UNL A   1      37.107  31.216  28.867  1.00  0.00     0.135 A 
ATOM     77  F   UNL A   1      36.939  31.427  32.488  1.00  0.00    -0.206 F 
ATOM     78  C   UNL A   1      35.612  32.454  30.852  1.00  0.00     0.059 A 
ATOM     79  C   UNL A   1      36.057  32.063  28.511  1.00  0.00     0.059 A 
ATOM     80  F   UNL A   1      37.832  30.713  27.857  1.00  0.00    -0.206 F 
ATOM     81  C   UNL A   1      35.330  32.701  29.510  1.00  0.00     0.060 A 
BRANCH  81  82
ATOM     82  S   UNL A   1      34.096  33.952  29.077  1.00  0.00     0.124 S 
ATOM     83  O   UNL A   1      34.921  34.997  28.482  1.00  0.00    -0.237 OA
ATOM     84  O   UNL A   1      33.228  33.224  28.158  1.00  0.00    -0.237 OA
ATOM     85  O   UNL A   1      33.492  34.290  30.363  1.00  0.00    -0.744 OA
ENDBRANCH  81  82
ENDBRANCH  49  74
BRANCH  61  86
ATOM     86  C   UNL A   1      42.411  29.262  33.818  1.00  0.00     0.058 A 
ATOM     87  C   UNL A   1      42.026  27.942  33.516  1.00  0.00     0.135 A 
ATOM     88  C   UNL A   1      42.618  29.564  35.172  1.00  0.00     0.135 A 
ATOM     89  F   UNL A   1      41.902  27.532  32.247  1.00  0.00    -0.206 F 
ATOM     90  C   UNL A   1      41.817  26.984  34.510  1.00  0.00     0.059 A 
ATOM     91  C   UNL A   1      42.448  28.616  36.180  1.00  0.00     0.059 A 
ATOM     92  F   UNL A   1      43.045  30.787  35.530  1.00  0.00    -0.206 F 
ATOM     93  C   UNL A   1      42.034  27.330  35.842  1.00  0.00     0.060 A 
BRANCH  93  94
ATOM     94  S   UNL A   1      41.838  26.071  37.122  1.00  0.00     0.124 S 
ATOM     95  O   UNL A   1      40.438  26.233  37.501  1.00  0.00    -0.237 OA
ATOM     96  O   UNL A   1      42.163  24.838  36.410  1.00  0.00    -0.237 OA
ATOM     97  O   UNL A   1      42.808  26.464  38.140  1.00  0.00    -0.744 OA
ENDBRANCH  93  94
ENDBRANCH  61  86
ENDBRANCH  35  36
ENDBRANCH  27  30
ENDBRANCH  25  26
ENDBRANCH  24  25
ENDBRANCH   1  24
TORSDOF 18
ENDMDL
MODEL 3
REMARK VINA RESULT:     -12.0      1.264      2.120
REMARK SMILES CCn1ncc(CNc2ccccc2C(=O)NCCCCNC(=O)c2ccc(-c3c4nc(c(-c5c(F)cc(S(=O)(=O)[O-])cc5F)c5ccc([nH]5)c(-c5c(F)cc(S(=O)(=O)[O-])cc5F)c5nc(c(-c6c(F)cc(S(=O)(=O)[O-])cc6F)c6ccc3[nH]6)C=C5)C=C4)cc2)c1C
REMARK SMILES IDX 19 1 18 2 17 3 15 4 16 5 14 7 9 8 10 9 11 10 13 11 12 12
REMARK SMILES IDX 8 13 7 15 6 16 3 17 4 18 91 19 5 20 92 21 2 22 1 23 20 24
REMARK SMILES IDX 21 25 22 26 23 27 24 29 25 30 26 31 90 32 27 33 89 34 28 35
REMARK SMILES IDX 29 36 30 37 83 38 31 39 88 40 82 41 84 42 32 43 87 44 81 45
REMARK SMILES IDX 80 46 33 48 67 49 46 50 66 51 47 52 50 53 65 54 85 55 48 56
REMARK SMILES IDX 49 57 64 59 86 60 51 61 34 62 35 63 44 64 36 65 37 66 43 67
REMARK SMILES IDX 45 68 38 69 39 70 40 71 41 72 42 73 68 74 69 75 78 76 70 77
REMARK SMILES IDX 71 78 77 79 79 80 72 81 73 82 74 83 75 84 76 85 52 86 53 87
REMARK SMILES IDX 62 88 54 89 55 90 61 91 63 92 56 93 57 94 58 95 59 96 60 97
REMARK H PARENT 17 6 8 14 22 28 84 47 50 58
REMARK Flexibility Score: inf
ROOT
ATOM      1  C   UNL A   1      32.630  27.573  26.346  1.00  0.00     0.023 C 
ENDROOT
BRANCH   1   2
ATOM      2  C   UNL A   1      33.299  26.332  25.745  1.00  0.00     0.116 C 
BRANCH   2   3
ATOM      3  N   UNL A   1      32.888  25.059  26.310  1.00  0.00    -0.352 N 
ATOM      4  C   UNL A   1      33.462  23.808  26.171  1.00  0.00     0.253 C 
ATOM      5  O   UNL A   1      32.942  22.867  26.774  1.00  0.00    -0.269 OA
ATOM      6  H   UNL A   1      32.084  25.091  26.877  1.00  0.00     0.163 HD
BRANCH   4   7
ATOM      7  C   UNL A   1      34.618  23.526  25.265  1.00  0.00     0.062 A 
ATOM      8  C   UNL A   1      34.531  23.002  23.964  1.00  0.00     0.047 A 
ATOM      9  C   UNL A   1      35.724  22.670  23.290  1.00  0.00     0.026 A 
ATOM     10  C   UNL A   1      36.976  22.926  23.841  1.00  0.00     0.002 A 
ATOM     11  C   UNL A   1      35.892  23.829  25.792  1.00  0.00     0.016 A 
ATOM     12  C   UNL A   1      37.060  23.540  25.083  1.00  0.00     0.001 A 
BRANCH   8  13
ATOM     13  N   UNL A   1      33.368  22.900  23.218  1.00  0.00    -0.380 N 
ATOM     14  H   UNL A   1      32.616  22.357  23.550  1.00  0.00     0.160 HD
BRANCH  13  15
ATOM     15  C   UNL A   1      33.256  23.596  21.941  1.00  0.00     0.152 C 
BRANCH  15  16
ATOM     16  C   UNL A   1      32.643  24.935  22.143  1.00  0.00     0.012 A 
ATOM     17  N   UNL A   1      31.342  26.600  22.746  1.00  0.00    -0.270 N 
ATOM     18  N   UNL A   1      32.461  27.198  22.300  1.00  0.00    -0.181 NA
ATOM     19  C   UNL A   1      31.432  25.229  22.749  1.00  0.00     0.040 A 
ATOM     20  C   UNL A   1      33.261  26.186  21.993  1.00  0.00     0.141 A 
ATOM     21  C   UNL A   1      30.472  24.296  23.385  1.00  0.00     0.067 C 
BRANCH  17  22
ATOM     22  C   UNL A   1      30.316  27.451  23.314  1.00  0.00     0.141 C 
ATOM     23  C   UNL A   1      30.493  28.888  22.856  1.00  0.00     0.029 C 
ENDBRANCH  17  22
ENDBRANCH  15  16
ENDBRANCH  13  15
ENDBRANCH   8  13
ENDBRANCH   4   7
ENDBRANCH   2   3
ENDBRANCH   1   2
BRANCH   1  24
ATOM     24  C   UNL A   1      33.077  28.947  25.825  1.00  0.00     0.023 C 
BRANCH  24  25
ATOM     25  C   UNL A   1      34.298  29.549  26.503  1.00  0.00     0.116 C 
BRANCH  25  26
ATOM     26  N   UNL A   1      34.083  30.843  27.132  1.00  0.00    -0.352 N 
ATOM     27  C   UNL A   1      34.812  31.433  28.157  1.00  0.00     0.251 C 
ATOM     28  H   UNL A   1      33.325  31.368  26.788  1.00  0.00     0.163 HD
ATOM     29  O   UNL A   1      34.346  32.398  28.742  1.00  0.00    -0.269 OA
BRANCH  27  30
ATOM     30  C   UNL A   1      36.149  30.897  28.542  1.00  0.00     0.039 A 
ATOM     31  C   UNL A   1      36.332  29.524  28.748  1.00  0.00     0.014 A 
ATOM     32  C   UNL A   1      37.223  31.760  28.749  1.00  0.00     0.014 A 
ATOM     33  C   UNL A   1      37.595  29.041  29.104  1.00  0.00     0.010 A 
ATOM     34  C   UNL A   1      38.471  31.296  29.078  1.00  0.00     0.010 A 
ATOM     35  C   UNL A   1      38.659  29.938  29.267  1.00  0.00    -0.014 A 
BRANCH  35  36
ATOM     36  C   UNL A   1      40.038  29.484  29.393  1.00  0.00     0.031 A 
ATOM     37  C   UNL A   1      40.483  29.302  30.805  1.00  0.00     0.074 A 
ATOM     38  C   UNL A   1      40.721  28.917  28.375  1.00  0.00     0.049 A 
ATOM     39  N   UNL A   1      41.448  29.895  31.424  1.00  0.00    -0.248 NA
ATOM     40  C   UNL A   1      39.670  28.429  31.672  1.00  0.00     0.031 C 
ATOM     41  C   UNL A   1      40.255  28.643  27.010  1.00  0.00     0.029 A 
ATOM     42  N   UNL A   1      41.950  28.334  28.396  1.00  0.00    -0.354 N 
ATOM     43  C   UNL A   1      41.501  29.318  32.691  1.00  0.00     0.074 A 
ATOM     44  C   UNL A   1      40.283  28.566  32.848  1.00  0.00     0.031 C 
ATOM     45  C   UNL A   1      41.100  27.772  26.412  1.00  0.00     0.029 A 
ATOM     46  C   UNL A   1      42.239  27.547  27.286  1.00  0.00     0.049 A 
ATOM     47  H   UNL A   1      42.586  28.460  29.137  1.00  0.00     0.167 HD
ATOM     48  C   UNL A   1      42.645  29.312  33.430  1.00  0.00     0.037 A 
ATOM     49  C   UNL A   1      43.316  26.739  27.123  1.00  0.00     0.037 A 
ATOM     50  C   UNL A   1      43.604  30.259  32.923  1.00  0.00     0.049 A 
ATOM     51  C   UNL A   1      44.348  27.189  28.095  1.00  0.00     0.074 A 
ATOM     52  C   UNL A   1      43.588  31.624  32.707  1.00  0.00     0.029 A 
ATOM     53  N   UNL A   1      44.644  29.776  32.166  1.00  0.00    -0.354 N 
ATOM     54  N   UNL A   1      44.941  28.352  28.049  1.00  0.00    -0.248 NA
ATOM     55  C   UNL A   1      44.406  26.514  29.381  1.00  0.00     0.031 C 
ATOM     56  C   UNL A   1      44.271  31.808  31.469  1.00  0.00     0.029 A 
ATOM     57  C   UNL A   1      44.723  30.558  31.040  1.00  0.00     0.049 A 
ATOM     58  H   UNL A   1      45.225  29.014  32.390  1.00  0.00     0.167 HD
ATOM     59  C   UNL A   1      45.066  28.742  29.374  1.00  0.00     0.074 A 
ATOM     60  C   UNL A   1      44.815  27.529  30.148  1.00  0.00     0.031 C 
ATOM     61  C   UNL A   1      45.086  30.062  29.728  1.00  0.00     0.037 A 
BRANCH  48  62
ATOM     62  C   UNL A   1      43.012  28.217  34.401  1.00  0.00     0.058 A 
ATOM     63  C   UNL A   1      43.248  28.528  35.755  1.00  0.00     0.135 A 
ATOM     64  C   UNL A   1      43.386  26.914  34.001  1.00  0.00     0.135 A 
ATOM     65  F   UNL A   1      42.961  29.748  36.236  1.00  0.00    -0.206 F 
ATOM     66  C   UNL A   1      43.845  27.622  36.635  1.00  0.00     0.059 A 
ATOM     67  C   UNL A   1      43.928  25.978  34.874  1.00  0.00     0.059 A 
ATOM     68  F   UNL A   1      43.333  26.521  32.722  1.00  0.00    -0.206 F 
ATOM     69  C   UNL A   1      44.188  26.351  36.181  1.00  0.00     0.060 A 
BRANCH  69  70
ATOM     70  S   UNL A   1      45.030  25.208  37.291  1.00  0.00     0.124 S 
ATOM     71  O   UNL A   1      46.419  25.630  37.142  1.00  0.00    -0.237 OA
ATOM     72  O   UNL A   1      44.403  25.512  38.573  1.00  0.00    -0.237 OA
ATOM     73  O   UNL A   1      44.703  23.899  36.735  1.00  0.00    -0.744 OA
ENDBRANCH  69  70
ENDBRANCH  48  62
BRANCH  49  74
ATOM     74  C   UNL A   1      43.406  25.434  26.414  1.00  0.00     0.058 A 
ATOM     75  C   UNL A   1      44.324  25.236  25.366  1.00  0.00     0.135 A 
ATOM     76  C   UNL A   1      42.801  24.272  26.937  1.00  0.00     0.135 A 
ATOM     77  F   UNL A   1      44.962  26.283  24.822  1.00  0.00    -0.206 F 
ATOM     78  C   UNL A   1      44.662  23.960  24.900  1.00  0.00     0.059 A 
ATOM     79  C   UNL A   1      43.115  22.992  26.482  1.00  0.00     0.059 A 
ATOM     80  F   UNL A   1      41.953  24.343  27.973  1.00  0.00    -0.206 F 
ATOM     81  C   UNL A   1      44.068  22.841  25.481  1.00  0.00     0.060 A 
BRANCH  81  82
ATOM     82  S   UNL A   1      44.636  21.188  25.009  1.00  0.00     0.124 S 
ATOM     83  O   UNL A   1      45.995  21.175  25.539  1.00  0.00    -0.237 OA
ATOM     84  O   UNL A   1      43.677  20.326  25.690  1.00  0.00    -0.237 OA
ATOM     85  O   UNL A   1      44.535  21.199  23.552  1.00  0.00    -0.744 OA
ENDBRANCH  81  82
ENDBRANCH  49  74
BRANCH  61  86
ATOM     86  C   UNL A   1      45.269  31.093  28.638  1.00  0.00     0.058 A 
ATOM     87  C   UNL A   1      44.225  31.637  27.865  1.00  0.00     0.135 A 
ATOM     88  C   UNL A   1      46.539  31.665  28.472  1.00  0.00     0.135 A 
ATOM     89  F   UNL A   1      42.960  31.227  28.027  1.00  0.00    -0.206 F 
ATOM     90  C   UNL A   1      44.440  32.667  26.947  1.00  0.00     0.059 A 
ATOM     91  C   UNL A   1      46.772  32.714  27.586  1.00  0.00     0.059 A 
ATOM     92  F   UNL A   1      47.571  31.236  29.219  1.00  0.00    -0.206 F 
ATOM     93  C   UNL A   1      45.719  33.203  26.815  1.00  0.00     0.060 A 
BRANCH  93  94
ATOM     94  S   UNL A   1      45.982  34.585  25.683  1.00  0.00     0.124 S 
ATOM     95  O   UNL A   1      45.057  34.275  24.598  1.00  0.00    -0.237 OA
ATOM     96  O   UNL A   1      45.633  35.741  26.503  1.00  0.00    -0.237 OA
ATOM     97  O   UNL A   1      47.399  34.482  25.341  1.00  0.00    -0.744 OA
ENDBRANCH  93  94
ENDBRANCH  61  86
ENDBRANCH  35  36
ENDBRANCH  27  30
ENDBRANCH  25  26
ENDBRANCH  24  25
ENDBRANCH   1  24
TORSDOF 18
ENDMDL
