MODEL 1
REMARK VINA RESULT:      -9.9      0.000      0.000
REMARK SMILES Cc1cc(O[C@@H](C)C(=O)NCCCCNC(=O)c2ccc(-c3c4nc(c(-c5c(F)cc(S(=O)(=O)[O-])cc5F)c5ccc([nH]5)c(-c5c(F)cc(S(=O)(=O)[O-])cc5F)c5nc(c(-c6c(F)cc(S(=O)(=O)[O-])cc6F)c6ccc3[nH]6)C=C5)C=C4)cc2)n(C)n1
REMARK SMILES IDX 13 1 12 2 11 3 10 4 8 5 9 6 6 8 7 9 5 10 4 11 1 12 2 13 3 14
REMARK SMILES IDX 86 15 84 16 85 17 14 18 15 19 16 20 17 22 18 23 19 24 83 25
REMARK SMILES IDX 20 26 82 27 21 28 22 29 23 30 76 31 24 32 81 33 75 34 77 35
REMARK SMILES IDX 25 36 80 37 74 38 73 39 26 41 60 42 39 43 59 44 40 45 43 46
REMARK SMILES IDX 58 47 78 48 41 49 42 50 57 52 79 53 44 54 27 55 28 56 37 57
REMARK SMILES IDX 29 58 30 59 36 60 38 61 31 62 32 63 33 64 34 65 35 66 61 67
REMARK SMILES IDX 62 68 71 69 63 70 64 71 70 72 72 73 65 74 66 75 67 76 68 77
REMARK SMILES IDX 69 78 45 79 46 80 55 81 47 82 48 83 54 84 56 85 49 86 50 87
REMARK SMILES IDX 51 88 52 89 53 90
REMARK H PARENT 10 7 15 21 77 40 43 51
REMARK Flexibility Score: inf
ROOT
ATOM      1  C   UNL A   1      33.397  33.429  28.050  1.00  0.00     0.023 C 
ENDROOT
BRANCH   1   2
ATOM      2  C   UNL A   1      33.836  34.791  28.582  1.00  0.00     0.023 C 
BRANCH   2   3
ATOM      3  C   UNL A   1      32.888  35.411  29.607  1.00  0.00     0.116 C 
BRANCH   3   4
ATOM      4  N   UNL A   1      33.614  36.009  30.704  1.00  0.00    -0.353 N 
ATOM      5  C   UNL A   1      34.253  35.454  31.767  1.00  0.00     0.260 C 
ATOM      6  O   UNL A   1      34.715  36.245  32.601  1.00  0.00    -0.271 OA
ATOM      7  H   UNL A   1      33.653  36.993  30.677  1.00  0.00     0.163 HD
BRANCH   5   8
ATOM      8  C   UNL A   1      34.462  33.926  31.955  1.00  0.00     0.260 C 
ATOM      9  C   UNL A   1      33.983  33.392  33.302  1.00  0.00     0.064 C 
BRANCH   8  10
ATOM     10  O   UNL A   1      35.616  33.319  31.387  1.00  0.00    -0.465 OA
BRANCH  10  11
ATOM     11  C   UNL A   1      36.828  33.437  31.928  1.00  0.00     0.212 A 
ATOM     12  C   UNL A   1      40.238  34.423  32.881  1.00  0.00     0.069 C 
ATOM     13  C   UNL A   1      38.891  33.841  32.672  1.00  0.00     0.063 A 
ATOM     14  C   UNL A   1      37.757  34.446  32.078  1.00  0.00     0.093 A 
ATOM     15  N   UNL A   1      38.646  32.571  33.005  1.00  0.00    -0.175 NA
ATOM     16  N   UNL A   1      37.378  32.366  32.597  1.00  0.00    -0.237 N 
ATOM     17  C   UNL A   1      36.765  31.085  32.857  1.00  0.00     0.178 C 
ENDBRANCH  10  11
ENDBRANCH   8  10
ENDBRANCH   5   8
ENDBRANCH   3   4
ENDBRANCH   2   3
ENDBRANCH   1   2
BRANCH   1  18
ATOM     18  C   UNL A   1      34.381  32.289  28.294  1.00  0.00     0.116 C 
BRANCH  18  19
ATOM     19  N   UNL A   1      33.921  30.983  27.836  1.00  0.00    -0.352 N 
ATOM     20  C   UNL A   1      34.632  29.805  27.773  1.00  0.00     0.251 C 
ATOM     21  H   UNL A   1      32.986  30.939  27.531  1.00  0.00     0.163 HD
ATOM     22  O   UNL A   1      34.118  28.787  27.320  1.00  0.00    -0.269 OA
BRANCH  20  23
ATOM     23  C   UNL A   1      36.042  29.807  28.217  1.00  0.00     0.039 A 
ATOM     24  C   UNL A   1      36.342  29.409  29.522  1.00  0.00     0.014 A 
ATOM     25  C   UNL A   1      37.062  30.081  27.303  1.00  0.00     0.014 A 
ATOM     26  C   UNL A   1      37.673  29.186  29.881  1.00  0.00     0.010 A 
ATOM     27  C   UNL A   1      38.376  29.780  27.640  1.00  0.00     0.010 A 
ATOM     28  C   UNL A   1      38.694  29.314  28.925  1.00  0.00    -0.014 A 
BRANCH  28  29
ATOM     29  C   UNL A   1      40.100  28.935  29.225  1.00  0.00     0.031 A 
ATOM     30  C   UNL A   1      41.038  29.950  29.818  1.00  0.00     0.074 A 
ATOM     31  C   UNL A   1      40.561  27.724  28.850  1.00  0.00     0.049 A 
ATOM     32  N   UNL A   1      42.328  29.869  30.011  1.00  0.00    -0.248 NA
ATOM     33  C   UNL A   1      40.451  31.243  30.203  1.00  0.00     0.031 C 
ATOM     34  C   UNL A   1      39.769  26.680  28.194  1.00  0.00     0.029 A 
ATOM     35  N   UNL A   1      41.816  27.176  28.945  1.00  0.00    -0.354 N 
ATOM     36  C   UNL A   1      42.714  31.111  30.500  1.00  0.00     0.074 A 
ATOM     37  C   UNL A   1      41.528  31.940  30.534  1.00  0.00     0.031 C 
ATOM     38  C   UNL A   1      40.552  25.614  27.962  1.00  0.00     0.029 A 
ATOM     39  C   UNL A   1      41.906  25.909  28.417  1.00  0.00     0.049 A 
ATOM     40  H   UNL A   1      42.579  27.645  29.352  1.00  0.00     0.167 HD
ATOM     41  C   UNL A   1      43.942  31.518  30.901  1.00  0.00     0.037 A 
ATOM     42  C   UNL A   1      42.963  25.080  28.307  1.00  0.00     0.037 A 
ATOM     43  C   UNL A   1      45.105  30.671  30.917  1.00  0.00     0.049 A 
ATOM     44  C   UNL A   1      44.301  25.525  28.828  1.00  0.00     0.074 A 
ATOM     45  C   UNL A   1      46.373  30.959  31.390  1.00  0.00     0.029 A 
ATOM     46  N   UNL A   1      45.137  29.366  30.448  1.00  0.00    -0.354 N 
ATOM     47  N   UNL A   1      44.635  26.681  29.351  1.00  0.00    -0.248 NA
ATOM     48  C   UNL A   1      45.403  24.556  28.754  1.00  0.00     0.031 C 
ATOM     49  C   UNL A   1      47.180  29.834  31.185  1.00  0.00     0.029 A 
ATOM     50  C   UNL A   1      46.405  28.836  30.613  1.00  0.00     0.049 A 
ATOM     51  H   UNL A   1      44.372  28.888  30.056  1.00  0.00     0.167 HD
ATOM     52  C   UNL A   1      45.979  26.573  29.685  1.00  0.00     0.074 A 
ATOM     53  C   UNL A   1      46.395  25.235  29.314  1.00  0.00     0.031 C 
ATOM     54  C   UNL A   1      46.796  27.498  30.247  1.00  0.00     0.037 A 
BRANCH  41  55
ATOM     55  C   UNL A   1      44.080  32.943  31.360  1.00  0.00     0.058 A 
ATOM     56  C   UNL A   1      43.864  33.310  32.699  1.00  0.00     0.135 A 
ATOM     57  C   UNL A   1      44.427  33.956  30.453  1.00  0.00     0.135 A 
ATOM     58  F   UNL A   1      43.513  32.384  33.605  1.00  0.00    -0.206 F 
ATOM     59  C   UNL A   1      43.944  34.634  33.112  1.00  0.00     0.059 A 
ATOM     60  C   UNL A   1      44.541  35.285  30.849  1.00  0.00     0.059 A 
ATOM     61  F   UNL A   1      44.646  33.661  29.161  1.00  0.00    -0.206 F 
ATOM     62  C   UNL A   1      44.274  35.617  32.177  1.00  0.00     0.060 A 
BRANCH  62  63
ATOM     63  S   UNL A   1      44.350  37.338  32.719  1.00  0.00     0.124 S 
ATOM     64  O   UNL A   1      45.720  37.423  33.217  1.00  0.00    -0.237 OA
ATOM     65  O   UNL A   1      44.077  38.070  31.487  1.00  0.00    -0.237 OA
ATOM     66  O   UNL A   1      43.305  37.417  33.735  1.00  0.00    -0.744 OA
ENDBRANCH  62  63
ENDBRANCH  41  55
BRANCH  42  67
ATOM     67  C   UNL A   1      42.783  23.731  27.709  1.00  0.00     0.058 A 
ATOM     68  C   UNL A   1      42.947  23.532  26.330  1.00  0.00     0.135 A 
ATOM     69  C   UNL A   1      42.488  22.613  28.503  1.00  0.00     0.135 A 
ATOM     70  F   UNL A   1      43.224  24.572  25.531  1.00  0.00    -0.206 F 
ATOM     71  C   UNL A   1      42.820  22.271  25.756  1.00  0.00     0.059 A 
ATOM     72  C   UNL A   1      42.375  21.338  27.955  1.00  0.00     0.059 A 
ATOM     73  F   UNL A   1      42.340  22.749  29.829  1.00  0.00    -0.206 F 
ATOM     74  C   UNL A   1      42.537  21.178  26.578  1.00  0.00     0.060 A 
BRANCH  74  75
ATOM     75  S   UNL A   1      42.449  19.534  25.835  1.00  0.00     0.124 S 
ATOM     76  O   UNL A   1      41.045  19.464  25.445  1.00  0.00    -0.237 OA
ATOM     77  O   UNL A   1      43.411  19.637  24.742  1.00  0.00    -0.237 OA
ATOM     78  O   UNL A   1      42.846  18.652  26.928  1.00  0.00    -0.744 OA
ENDBRANCH  74  75
ENDBRANCH  42  67
BRANCH  54  79
ATOM     79  C   UNL A   1      48.215  27.090  30.520  1.00  0.00     0.058 A 
ATOM     80  C   UNL A   1      49.215  27.215  29.545  1.00  0.00     0.135 A 
ATOM     81  C   UNL A   1      48.588  26.630  31.792  1.00  0.00     0.135 A 
ATOM     82  F   UNL A   1      48.905  27.644  28.311  1.00  0.00    -0.206 F 
ATOM     83  C   UNL A   1      50.537  26.885  29.817  1.00  0.00     0.059 A 
ATOM     84  C   UNL A   1      49.909  26.314  32.094  1.00  0.00     0.059 A 
ATOM     85  F   UNL A   1      47.668  26.501  32.763  1.00  0.00    -0.206 F 
ATOM     86  C   UNL A   1      50.876  26.437  31.096  1.00  0.00     0.060 A 
BRANCH  86  87
ATOM     87  S   UNL A   1      52.603  26.056  31.455  1.00  0.00     0.124 S 
ATOM     88  O   UNL A   1      52.904  27.020  32.509  1.00  0.00    -0.237 OA
ATOM     89  O   UNL A   1      52.539  24.659  31.873  1.00  0.00    -0.237 OA
ATOM     90  O   UNL A   1      53.273  26.291  30.179  1.00  0.00    -0.744 OA
ENDBRANCH  86  87
ENDBRANCH  54  79
ENDBRANCH  28  29
ENDBRANCH  20  23
ENDBRANCH  18  19
ENDBRANCH   1  18
TORSDOF 16
ENDMDL
MODEL 2
REMARK VINA RESULT:      -9.8      3.223     11.129
REMARK SMILES Cc1cc(O[C@@H](C)C(=O)NCCCCNC(=O)c2ccc(-c3c4nc(c(-c5c(F)cc(S(=O)(=O)[O-])cc5F)c5ccc([nH]5)c(-c5c(F)cc(S(=O)(=O)[O-])cc5F)c5nc(c(-c6c(F)cc(S(=O)(=O)[O-])cc6F)c6ccc3[nH]6)C=C5)C=C4)cc2)n(C)n1
REMARK SMILES IDX 13 1 12 2 11 3 10 4 8 5 9 6 6 8 7 9 5 10 4 11 1 12 2 13 3 14
REMARK SMILES IDX 86 15 84 16 85 17 14 18 15 19 16 20 17 22 18 23 19 24 83 25
REMARK SMILES IDX 20 26 82 27 21 28 22 29 23 30 76 31 24 32 81 33 75 34 77 35
REMARK SMILES IDX 25 36 80 37 74 38 73 39 26 41 60 42 39 43 59 44 40 45 43 46
REMARK SMILES IDX 58 47 78 48 41 49 42 50 57 52 79 53 44 54 27 55 28 56 37 57
REMARK SMILES IDX 29 58 30 59 36 60 38 61 31 62 32 63 33 64 34 65 35 66 61 67
REMARK SMILES IDX 62 68 71 69 63 70 64 71 70 72 72 73 65 74 66 75 67 76 68 77
REMARK SMILES IDX 69 78 45 79 46 80 55 81 47 82 48 83 54 84 56 85 49 86 50 87
REMARK SMILES IDX 51 88 52 89 53 90
REMARK H PARENT 10 7 15 21 77 40 43 51
REMARK Flexibility Score: inf
ROOT
ATOM      1  C   UNL A   1      44.018  18.759  25.040  1.00  0.00     0.023 C 
ENDROOT
BRANCH   1   2
ATOM      2  C   UNL A   1      45.515  18.795  25.340  1.00  0.00     0.023 C 
BRANCH   2   3
ATOM      3  C   UNL A   1      46.294  19.857  24.564  1.00  0.00     0.116 C 
BRANCH   3   4
ATOM      4  N   UNL A   1      45.409  20.730  23.827  1.00  0.00    -0.353 N 
ATOM      5  C   UNL A   1      45.174  22.064  23.931  1.00  0.00     0.260 C 
ATOM      6  O   UNL A   1      44.278  22.518  23.207  1.00  0.00    -0.271 OA
ATOM      7  H   UNL A   1      44.883  20.278  23.127  1.00  0.00     0.163 HD
BRANCH   5   8
ATOM      8  C   UNL A   1      45.981  23.021  24.850  1.00  0.00     0.260 C 
ATOM      9  C   UNL A   1      45.798  22.754  26.342  1.00  0.00     0.064 C 
BRANCH   8  10
ATOM     10  O   UNL A   1      46.152  24.374  24.447  1.00  0.00    -0.465 OA
BRANCH  10  11
ATOM     11  C   UNL A   1      45.733  25.401  25.184  1.00  0.00     0.212 A 
ATOM     12  C   UNL A   1      43.924  28.238  26.662  1.00  0.00     0.069 C 
ATOM     13  C   UNL A   1      44.823  27.133  26.253  1.00  0.00     0.063 A 
ATOM     14  C   UNL A   1      44.524  26.016  25.436  1.00  0.00     0.093 A 
ATOM     15  N   UNL A   1      46.110  27.144  26.610  1.00  0.00    -0.175 NA
ATOM     16  N   UNL A   1      46.627  26.060  25.998  1.00  0.00    -0.237 N 
ATOM     17  C   UNL A   1      48.016  25.736  26.220  1.00  0.00     0.178 C 
ENDBRANCH  10  11
ENDBRANCH   8  10
ENDBRANCH   5   8
ENDBRANCH   3   4
ENDBRANCH   2   3
ENDBRANCH   1   2
BRANCH   1  18
ATOM     18  C   UNL A   1      43.116  18.596  26.261  1.00  0.00     0.116 C 
BRANCH  18  19
ATOM     19  N   UNL A   1      41.690  18.714  25.979  1.00  0.00    -0.352 N 
ATOM     20  C   UNL A   1      40.872  19.804  26.179  1.00  0.00     0.251 C 
ATOM     21  H   UNL A   1      41.258  17.914  25.601  1.00  0.00     0.163 HD
ATOM     22  O   UNL A   1      39.671  19.738  25.932  1.00  0.00    -0.269 OA
BRANCH  20  23
ATOM     23  C   UNL A   1      41.461  21.034  26.745  1.00  0.00     0.039 A 
ATOM     24  C   UNL A   1      41.911  22.032  25.877  1.00  0.00     0.014 A 
ATOM     25  C   UNL A   1      41.449  21.245  28.125  1.00  0.00     0.014 A 
ATOM     26  C   UNL A   1      42.254  23.284  26.391  1.00  0.00     0.010 A 
ATOM     27  C   UNL A   1      41.713  22.515  28.624  1.00  0.00     0.010 A 
ATOM     28  C   UNL A   1      42.101  23.552  27.761  1.00  0.00    -0.014 A 
BRANCH  28  29
ATOM     29  C   UNL A   1      42.305  24.914  28.321  1.00  0.00     0.031 A 
ATOM     30  C   UNL A   1      43.595  25.252  29.015  1.00  0.00     0.074 A 
ATOM     31  C   UNL A   1      41.289  25.800  28.312  1.00  0.00     0.049 A 
ATOM     32  N   UNL A   1      43.911  26.321  29.699  1.00  0.00    -0.248 NA
ATOM     33  C   UNL A   1      44.654  24.230  28.973  1.00  0.00     0.031 C 
ATOM     34  C   UNL A   1      39.961  25.564  27.738  1.00  0.00     0.029 A 
ATOM     35  N   UNL A   1      41.204  27.070  28.825  1.00  0.00    -0.354 N 
ATOM     36  C   UNL A   1      45.185  26.084  30.201  1.00  0.00     0.074 A 
ATOM     37  C   UNL A   1      45.566  24.754  29.778  1.00  0.00     0.031 C 
ATOM     38  C   UNL A   1      39.203  26.658  27.916  1.00  0.00     0.029 A 
ATOM     39  C   UNL A   1      39.974  27.659  28.645  1.00  0.00     0.049 A 
ATOM     40  H   UNL A   1      41.954  27.518  29.279  1.00  0.00     0.167 HD
ATOM     41  C   UNL A   1      45.973  26.908  30.932  1.00  0.00     0.037 A 
ATOM     42  C   UNL A   1      39.516  28.866  29.031  1.00  0.00     0.037 A 
ATOM     43  C   UNL A   1      45.610  28.250  31.300  1.00  0.00     0.049 A 
ATOM     44  C   UNL A   1      40.434  29.794  29.777  1.00  0.00     0.074 A 
ATOM     45  C   UNL A   1      46.372  29.198  31.960  1.00  0.00     0.029 A 
ATOM     46  N   UNL A   1      44.383  28.839  31.029  1.00  0.00    -0.354 N 
ATOM     47  N   UNL A   1      41.662  29.580  30.186  1.00  0.00    -0.248 NA
ATOM     48  C   UNL A   1      39.912  31.126  30.107  1.00  0.00     0.031 C 
ATOM     49  C   UNL A   1      45.596  30.353  32.110  1.00  0.00     0.029 A 
ATOM     50  C   UNL A   1      44.362  30.134  31.516  1.00  0.00     0.049 A 
ATOM     51  H   UNL A   1      43.637  28.399  30.561  1.00  0.00     0.167 HD
ATOM     52  C   UNL A   1      42.067  30.756  30.805  1.00  0.00     0.074 A 
ATOM     53  C   UNL A   1      40.956  31.682  30.708  1.00  0.00     0.031 C 
ATOM     54  C   UNL A   1      43.250  31.043  31.400  1.00  0.00     0.037 A 
BRANCH  41  55
ATOM     55  C   UNL A   1      47.308  26.374  31.372  1.00  0.00     0.058 A 
ATOM     56  C   UNL A   1      48.450  26.488  30.562  1.00  0.00     0.135 A 
ATOM     57  C   UNL A   1      47.447  25.737  32.615  1.00  0.00     0.135 A 
ATOM     58  F   UNL A   1      48.368  27.072  29.357  1.00  0.00    -0.206 F 
ATOM     59  C   UNL A   1      49.672  25.950  30.950  1.00  0.00     0.059 A 
ATOM     60  C   UNL A   1      48.667  25.216  33.036  1.00  0.00     0.059 A 
ATOM     61  F   UNL A   1      46.388  25.602  33.429  1.00  0.00    -0.206 F 
ATOM     62  C   UNL A   1      49.769  25.308  32.186  1.00  0.00     0.060 A 
BRANCH  62  63
ATOM     63  S   UNL A   1      51.355  24.591  32.667  1.00  0.00     0.124 S 
ATOM     64  O   UNL A   1      52.269  25.278  31.759  1.00  0.00    -0.237 OA
ATOM     65  O   UNL A   1      51.458  24.967  34.073  1.00  0.00    -0.237 OA
ATOM     66  O   UNL A   1      51.171  23.166  32.415  1.00  0.00    -0.744 OA
ENDBRANCH  62  63
ENDBRANCH  41  55
BRANCH  42  67
ATOM     67  C   UNL A   1      38.130  29.274  28.683  1.00  0.00     0.058 A 
ATOM     68  C   UNL A   1      37.808  29.678  27.379  1.00  0.00     0.135 A 
ATOM     69  C   UNL A   1      37.095  29.230  29.630  1.00  0.00     0.135 A 
ATOM     70  F   UNL A   1      38.766  29.742  26.442  1.00  0.00    -0.206 F 
ATOM     71  C   UNL A   1      36.510  30.029  27.024  1.00  0.00     0.059 A 
ATOM     72  C   UNL A   1      35.784  29.557  29.294  1.00  0.00     0.059 A 
ATOM     73  F   UNL A   1      37.349  28.832  30.885  1.00  0.00    -0.206 F 
ATOM     74  C   UNL A   1      35.503  29.961  27.988  1.00  0.00     0.060 A 
BRANCH  74  75
ATOM     75  S   UNL A   1      33.806  30.345  27.499  1.00  0.00     0.124 S 
ATOM     76  O   UNL A   1      33.085  29.182  28.006  1.00  0.00    -0.237 OA
ATOM     77  O   UNL A   1      33.561  31.603  28.198  1.00  0.00    -0.237 OA
ATOM     78  O   UNL A   1      33.894  30.452  26.046  1.00  0.00    -0.744 OA
ENDBRANCH  74  75
ENDBRANCH  42  67
BRANCH  54  79
ATOM     79  C   UNL A   1      43.418  32.422  31.972  1.00  0.00     0.058 A 
ATOM     80  C   UNL A   1      43.928  33.477  31.202  1.00  0.00     0.135 A 
ATOM     81  C   UNL A   1      43.003  32.702  33.283  1.00  0.00     0.135 A 
ATOM     82  F   UNL A   1      44.345  33.257  29.945  1.00  0.00    -0.206 F 
ATOM     83  C   UNL A   1      44.034  34.764  31.717  1.00  0.00     0.059 A 
ATOM     84  C   UNL A   1      43.080  33.987  33.812  1.00  0.00     0.059 A 
ATOM     85  F   UNL A   1      42.500  31.727  34.056  1.00  0.00    -0.206 F 
ATOM     86  C   UNL A   1      43.605  35.010  33.023  1.00  0.00     0.060 A 
BRANCH  86  87
ATOM     87  S   UNL A   1      43.702  36.693  33.668  1.00  0.00     0.124 S 
ATOM     88  O   UNL A   1      43.776  37.474  32.437  1.00  0.00    -0.237 OA
ATOM     89  O   UNL A   1      42.459  36.815  34.422  1.00  0.00    -0.237 OA
ATOM     90  O   UNL A   1      44.918  36.677  34.475  1.00  0.00    -0.744 OA
ENDBRANCH  86  87
ENDBRANCH  54  79
ENDBRANCH  28  29
ENDBRANCH  20  23
ENDBRANCH  18  19
ENDBRANCH   1  18
TORSDOF 16
ENDMDL
MODEL 3
REMARK VINA RESULT:      -9.8      5.118     11.657
REMARK SMILES Cc1cc(O[C@@H](C)C(=O)NCCCCNC(=O)c2ccc(-c3c4nc(c(-c5c(F)cc(S(=O)(=O)[O-])cc5F)c5ccc([nH]5)c(-c5c(F)cc(S(=O)(=O)[O-])cc5F)c5nc(c(-c6c(F)cc(S(=O)(=O)[O-])cc6F)c6ccc3[nH]6)C=C5)C=C4)cc2)n(C)n1
REMARK SMILES IDX 13 1 12 2 11 3 10 4 8 5 9 6 6 8 7 9 5 10 4 11 1 12 2 13 3 14
REMARK SMILES IDX 86 15 84 16 85 17 14 18 15 19 16 20 17 22 18 23 19 24 83 25
REMARK SMILES IDX 20 26 82 27 21 28 22 29 23 30 76 31 24 32 81 33 75 34 77 35
REMARK SMILES IDX 25 36 80 37 74 38 73 39 26 41 60 42 39 43 59 44 40 45 43 46
REMARK SMILES IDX 58 47 78 48 41 49 42 50 57 52 79 53 44 54 27 55 28 56 37 57
REMARK SMILES IDX 29 58 30 59 36 60 38 61 31 62 32 63 33 64 34 65 35 66 61 67
REMARK SMILES IDX 62 68 71 69 63 70 64 71 70 72 72 73 65 74 66 75 67 76 68 77
REMARK SMILES IDX 69 78 45 79 46 80 55 81 47 82 48 83 54 84 56 85 49 86 50 87
REMARK SMILES IDX 51 88 52 89 53 90
REMARK H PARENT 10 7 15 21 77 40 43 51
REMARK Flexibility Score: inf
ROOT
ATOM      1  C   UNL A   1      36.020  23.216  26.050  1.00  0.00     0.023 C 
ENDROOT
BRANCH   1   2
ATOM      2  C   UNL A   1      35.235  21.935  25.782  1.00  0.00     0.023 C 
BRANCH   2   3
ATOM      3  C   UNL A   1      34.333  21.488  26.932  1.00  0.00     0.116 C 
BRANCH   3   4
ATOM      4  N   UNL A   1      32.970  21.923  26.734  1.00  0.00    -0.353 N 
ATOM      5  C   UNL A   1      32.108  21.732  25.701  1.00  0.00     0.260 C 
ATOM      6  O   UNL A   1      31.017  22.313  25.785  1.00  0.00    -0.271 OA
ATOM      7  H   UNL A   1      32.599  22.451  27.478  1.00  0.00     0.163 HD
BRANCH   5   8
ATOM      8  C   UNL A   1      32.400  20.813  24.483  1.00  0.00     0.260 C 
ATOM      9  C   UNL A   1      32.429  21.543  23.143  1.00  0.00     0.064 C 
BRANCH   8  10
ATOM     10  O   UNL A   1      31.889  19.486  24.490  1.00  0.00    -0.465 OA
BRANCH  10  11
ATOM     11  C   UNL A   1      32.678  18.413  24.474  1.00  0.00     0.212 A 
ATOM     12  C   UNL A   1      35.140  15.774  25.171  1.00  0.00     0.069 C 
ATOM     13  C   UNL A   1      34.097  16.705  24.677  1.00  0.00     0.063 A 
ATOM     14  C   UNL A   1      33.361  17.666  25.412  1.00  0.00     0.093 A 
ATOM     15  N   UNL A   1      33.793  16.748  23.377  1.00  0.00    -0.175 NA
ATOM     16  N   UNL A   1      32.894  17.749  23.287  1.00  0.00    -0.237 N 
ATOM     17  C   UNL A   1      32.304  18.035  22.000  1.00  0.00     0.178 C 
ENDBRANCH  10  11
ENDBRANCH   8  10
ENDBRANCH   5   8
ENDBRANCH   3   4
ENDBRANCH   2   3
ENDBRANCH   1   2
BRANCH   1  18
ATOM     18  C   UNL A   1      37.188  23.472  25.101  1.00  0.00     0.116 C 
BRANCH  18  19
ATOM     19  N   UNL A   1      38.363  22.644  25.350  1.00  0.00    -0.352 N 
ATOM     20  C   UNL A   1      39.481  22.956  26.092  1.00  0.00     0.251 C 
ATOM     21  H   UNL A   1      38.356  21.752  24.935  1.00  0.00     0.163 HD
ATOM     22  O   UNL A   1      40.416  22.166  26.177  1.00  0.00    -0.269 OA
BRANCH  20  23
ATOM     23  C   UNL A   1      39.550  24.282  26.740  1.00  0.00     0.039 A 
ATOM     24  C   UNL A   1      38.969  24.452  27.999  1.00  0.00     0.014 A 
ATOM     25  C   UNL A   1      40.295  25.308  26.156  1.00  0.00     0.014 A 
ATOM     26  C   UNL A   1      39.224  25.621  28.719  1.00  0.00     0.010 A 
ATOM     27  C   UNL A   1      40.612  26.433  26.907  1.00  0.00     0.010 A 
ATOM     28  C   UNL A   1      40.095  26.594  28.202  1.00  0.00    -0.014 A 
BRANCH  28  29
ATOM     29  C   UNL A   1      40.514  27.775  29.002  1.00  0.00     0.031 A 
ATOM     30  C   UNL A   1      41.812  27.743  29.760  1.00  0.00     0.074 A 
ATOM     31  C   UNL A   1      39.673  28.820  29.143  1.00  0.00     0.049 A 
ATOM     32  N   UNL A   1      42.283  28.598  30.630  1.00  0.00    -0.248 NA
ATOM     33  C   UNL A   1      42.672  26.568  29.544  1.00  0.00     0.031 C 
ATOM     34  C   UNL A   1      38.351  28.936  28.521  1.00  0.00     0.029 A 
ATOM     35  N   UNL A   1      39.794  29.973  29.877  1.00  0.00    -0.354 N 
ATOM     36  C   UNL A   1      43.471  28.047  31.094  1.00  0.00     0.074 A 
ATOM     37  C   UNL A   1      43.627  26.765  30.441  1.00  0.00     0.031 C 
ATOM     38  C   UNL A   1      37.793  30.102  28.885  1.00  0.00     0.029 A 
ATOM     39  C   UNL A   1      38.697  30.799  29.793  1.00  0.00     0.049 A 
ATOM     40  H   UNL A   1      40.591  30.189  30.412  1.00  0.00     0.167 HD
ATOM     41  C   UNL A   1      44.360  28.570  31.972  1.00  0.00     0.037 A 
ATOM     42  C   UNL A   1      38.445  31.983  30.386  1.00  0.00     0.037 A 
ATOM     43  C   UNL A   1      44.226  29.870  32.573  1.00  0.00     0.049 A 
ATOM     44  C   UNL A   1      39.480  32.580  31.299  1.00  0.00     0.074 A 
ATOM     45  C   UNL A   1      45.115  30.530  33.403  1.00  0.00     0.029 A 
ATOM     46  N   UNL A   1      43.137  30.712  32.400  1.00  0.00    -0.354 N 
ATOM     47  N   UNL A   1      40.631  32.076  31.675  1.00  0.00    -0.248 NA
ATOM     48  C   UNL A   1      39.190  33.907  31.860  1.00  0.00     0.031 C 
ATOM     49  C   UNL A   1      44.552  31.763  33.752  1.00  0.00     0.029 A 
ATOM     50  C   UNL A   1      43.326  31.883  33.114  1.00  0.00     0.049 A 
ATOM     51  H   UNL A   1      42.346  30.506  31.852  1.00  0.00     0.167 HD
ATOM     52  C   UNL A   1      41.212  33.030  32.502  1.00  0.00     0.074 A 
ATOM     53  C   UNL A   1      40.289  34.147  32.562  1.00  0.00     0.031 C 
ATOM     54  C   UNL A   1      42.400  32.986  33.153  1.00  0.00     0.037 A 
BRANCH  41  55
ATOM     55  C   UNL A   1      45.557  27.732  32.323  1.00  0.00     0.058 A 
ATOM     56  C   UNL A   1      45.533  26.824  33.394  1.00  0.00     0.135 A 
ATOM     57  C   UNL A   1      46.746  27.839  31.583  1.00  0.00     0.135 A 
ATOM     58  F   UNL A   1      44.427  26.694  34.144  1.00  0.00    -0.206 F 
ATOM     59  C   UNL A   1      46.656  26.086  33.747  1.00  0.00     0.059 A 
ATOM     60  C   UNL A   1      47.874  27.090  31.901  1.00  0.00     0.059 A 
ATOM     61  F   UNL A   1      46.823  28.691  30.548  1.00  0.00    -0.206 F 
ATOM     62  C   UNL A   1      47.826  26.232  33.000  1.00  0.00     0.060 A 
BRANCH  62  63
ATOM     63  S   UNL A   1      49.286  25.287  33.484  1.00  0.00     0.124 S 
ATOM     64  O   UNL A   1      50.024  26.276  34.264  1.00  0.00    -0.237 OA
ATOM     65  O   UNL A   1      48.711  24.182  34.243  1.00  0.00    -0.237 OA
ATOM     66  O   UNL A   1      49.888  24.918  32.206  1.00  0.00    -0.744 OA
ENDBRANCH  62  63
ENDBRANCH  41  55
BRANCH  42  67
ATOM     67  C   UNL A   1      37.171  32.694  30.103  1.00  0.00     0.058 A 
ATOM     68  C   UNL A   1      36.037  32.476  30.900  1.00  0.00     0.135 A 
ATOM     69  C   UNL A   1      37.072  33.631  29.064  1.00  0.00     0.135 A 
ATOM     70  F   UNL A   1      36.083  31.585  31.901  1.00  0.00    -0.206 F 
ATOM     71  C   UNL A   1      34.846  33.158  30.674  1.00  0.00     0.059 A 
ATOM     72  C   UNL A   1      35.897  34.341  28.831  1.00  0.00     0.059 A 
ATOM     73  F   UNL A   1      38.135  33.887  28.286  1.00  0.00    -0.206 F 
ATOM     74  C   UNL A   1      34.787  34.093  29.639  1.00  0.00     0.060 A 
BRANCH  74  75
ATOM     75  S   UNL A   1      33.260  35.029  29.401  1.00  0.00     0.124 S 
ATOM     76  O   UNL A   1      33.773  36.312  28.932  1.00  0.00    -0.237 OA
ATOM     77  O   UNL A   1      32.555  34.223  28.411  1.00  0.00    -0.237 OA
ATOM     78  O   UNL A   1      32.662  35.035  30.733  1.00  0.00    -0.744 OA
ENDBRANCH  74  75
ENDBRANCH  42  67
BRANCH  54  79
ATOM     79  C   UNL A   1      42.786  34.188  33.967  1.00  0.00     0.058 A 
ATOM     80  C   UNL A   1      42.531  34.253  35.344  1.00  0.00     0.135 A 
ATOM     81  C   UNL A   1      43.474  35.256  33.372  1.00  0.00     0.135 A 
ATOM     82  F   UNL A   1      41.869  33.258  35.957  1.00  0.00    -0.206 F 
ATOM     83  C   UNL A   1      42.936  35.343  36.105  1.00  0.00     0.059 A 
ATOM     84  C   UNL A   1      43.907  36.348  34.118  1.00  0.00     0.059 A 
ATOM     85  F   UNL A   1      43.749  35.237  32.058  1.00  0.00    -0.206 F 
ATOM     86  C   UNL A   1      43.626  36.387  35.483  1.00  0.00     0.060 A 
BRANCH  86  87
ATOM     87  S   UNL A   1      44.189  37.777  36.487  1.00  0.00     0.124 S 
ATOM     88  O   UNL A   1      44.088  38.883  35.540  1.00  0.00    -0.237 OA
ATOM     89  O   UNL A   1      43.221  37.789  37.580  1.00  0.00    -0.237 OA
ATOM     90  O   UNL A   1      45.546  37.394  36.865  1.00  0.00    -0.744 OA
ENDBRANCH  86  87
ENDBRANCH  54  79
ENDBRANCH  28  29
ENDBRANCH  20  23
ENDBRANCH  18  19
ENDBRANCH   1  18
TORSDOF 16
ENDMDL
