MODEL 1
REMARK VINA RESULT:     -13.3      0.000      0.000
REMARK SMILES O=C1CCCC2=C1[C@H](c1ccc([N+](=O)[O-])cc1)CC(=O)N2c1ccccc1C(=O)NCCCCNC(=O)c1ccc(-c2c3nc(c(-c4c(F)cc(S(=O)(=O)[O-])cc4F)c4ccc([nH]4)c(-c4c(F)cc(S(=O)(=O)[O-])cc4F)c4nc(c(-c5c(F)cc(S(=O)(=O)[O-])cc5F)c5ccc2[nH]5)C=C4)C=C3)cc1
REMARK SMILES IDX 32 1 31 2 30 3 28 4 29 5 27 7 22 8 23 9 24 10 26 11 25 12
REMARK SMILES IDX 21 13 1 14 2 15 3 16 7 17 4 18 6 19 8 20 5 21 18 22 19 23
REMARK SMILES IDX 20 24 9 25 10 26 17 27 11 28 16 29 12 30 13 31 14 32 15 33
REMARK SMILES IDX 33 34 34 35 35 36 36 37 37 39 38 40 39 41 103 42 40 43
REMARK SMILES IDX 102 44 41 45 42 46 43 47 96 48 44 49 101 50 95 51 97 52
REMARK SMILES IDX 45 53 100 54 94 55 93 56 46 58 80 59 59 60 79 61 60 62 63 63
REMARK SMILES IDX 78 64 98 65 61 66 62 67 77 69 99 70 64 71 47 72 48 73 57 74
REMARK SMILES IDX 49 75 50 76 56 77 58 78 51 79 52 80 53 81 54 82 55 83 81 84
REMARK SMILES IDX 82 85 91 86 83 87 84 88 90 89 92 90 85 91 86 92 87 93 88 94
REMARK SMILES IDX 89 95 65 96 66 97 75 98 67 99 68 100 74 101 76 102 69 103
REMARK SMILES IDX 70 104 71 105 72 106 73 107
REMARK H PARENT 30 6 35 38 97 57 63 68
REMARK Flexibility Score: inf
ROOT
ATOM      1  C   UNL A   1      39.307  21.455  25.752  1.00  0.00     0.023 C 
ENDROOT
BRANCH   1   2
ATOM      2  C   UNL A   1      37.816  21.354  25.467  1.00  0.00     0.116 C 
BRANCH   2   3
ATOM      3  N   UNL A   1      37.080  22.552  25.746  1.00  0.00    -0.352 N 
ATOM      4  C   UNL A   1      35.758  22.900  25.751  1.00  0.00     0.253 C 
ATOM      5  O   UNL A   1      35.595  24.062  26.153  1.00  0.00    -0.269 OA
ATOM      6  H   UNL A   1      37.667  23.303  25.993  1.00  0.00     0.163 HD
BRANCH   4   7
ATOM      7  C   UNL A   1      34.513  22.112  25.360  1.00  0.00     0.063 A 
ATOM      8  C   UNL A   1      33.182  22.460  25.023  1.00  0.00     0.061 A 
ATOM      9  C   UNL A   1      32.258  21.423  24.678  1.00  0.00     0.027 A 
ATOM     10  C   UNL A   1      32.589  20.075  24.677  1.00  0.00     0.002 A 
ATOM     11  C   UNL A   1      34.795  20.709  25.359  1.00  0.00     0.016 A 
ATOM     12  C   UNL A   1      33.868  19.715  25.027  1.00  0.00     0.001 A 
BRANCH   8  13
ATOM     13  N   UNL A   1      32.592  23.766  24.898  1.00  0.00    -0.284 N 
ATOM     14  O   UNL A   1      30.684  26.753  22.031  1.00  0.00    -0.294 OA
ATOM     15  C   UNL A   1      31.768  26.251  22.307  1.00  0.00     0.161 C 
ATOM     16  C   UNL A   1      32.825  25.953  21.267  1.00  0.00     0.081 C 
ATOM     17  C   UNL A   1      32.019  25.720  23.677  1.00  0.00     0.023 C 
ATOM     18  C   UNL A   1      32.854  24.453  21.090  1.00  0.00     0.015 C 
ATOM     19  C   UNL A   1      32.542  24.469  23.685  1.00  0.00     0.033 C 
ATOM     20  C   UNL A   1      31.371  26.390  24.886  1.00  0.00     0.064 C 
ATOM     21  C   UNL A   1      33.034  23.736  22.431  1.00  0.00     0.055 C 
ATOM     22  C   UNL A   1      30.787  25.271  25.734  1.00  0.00     0.114 C 
ATOM     23  C   UNL A   1      31.808  24.184  26.005  1.00  0.00     0.232 C 
ATOM     24  O   UNL A   1      31.857  23.670  27.126  1.00  0.00    -0.274 OA
BRANCH  20  25
ATOM     25  C   UNL A   1      32.228  27.370  25.726  1.00  0.00    -0.039 A 
ATOM     26  C   UNL A   1      33.634  27.325  25.815  1.00  0.00     0.011 A 
ATOM     27  C   UNL A   1      31.590  28.349  26.508  1.00  0.00     0.011 A 
ATOM     28  C   UNL A   1      34.368  28.296  26.522  1.00  0.00     0.086 A 
ATOM     29  C   UNL A   1      32.305  29.363  27.169  1.00  0.00     0.086 A 
ATOM     30  C   UNL A   1      33.698  29.355  27.132  1.00  0.00     0.269 A 
BRANCH  30  31
ATOM     31  N   UNL A   1      34.457  30.501  27.645  1.00  0.00     0.062 N 
ATOM     32  O   UNL A   1      33.812  31.463  28.086  1.00  0.00    -0.258 OA
ATOM     33  O   UNL A   1      35.692  30.413  27.647  1.00  0.00    -0.258 OA
ENDBRANCH  30  31
ENDBRANCH  20  25
ENDBRANCH   8  13
ENDBRANCH   4   7
ENDBRANCH   2   3
ENDBRANCH   1   2
BRANCH   1  34
ATOM     34  C   UNL A   1      39.802  21.976  27.098  1.00  0.00     0.023 C 
BRANCH  34  35
ATOM     35  C   UNL A   1      40.807  23.122  27.168  1.00  0.00     0.116 C 
BRANCH  35  36
ATOM     36  N   UNL A   1      40.775  24.108  26.101  1.00  0.00    -0.352 N 
ATOM     37  C   UNL A   1      41.203  25.424  26.094  1.00  0.00     0.251 C 
ATOM     38  H   UNL A   1      40.390  23.790  25.253  1.00  0.00     0.163 HD
ATOM     39  O   UNL A   1      41.422  26.015  25.052  1.00  0.00    -0.269 OA
BRANCH  37  40
ATOM     40  C   UNL A   1      41.267  26.181  27.341  1.00  0.00     0.039 A 
ATOM     41  C   UNL A   1      42.328  27.082  27.503  1.00  0.00     0.014 A 
ATOM     42  C   UNL A   1      40.247  26.077  28.273  1.00  0.00     0.014 A 
ATOM     43  C   UNL A   1      42.285  27.994  28.548  1.00  0.00     0.010 A 
ATOM     44  C   UNL A   1      40.146  27.056  29.238  1.00  0.00     0.010 A 
ATOM     45  C   UNL A   1      41.157  28.022  29.375  1.00  0.00    -0.014 A 
BRANCH  45  46
ATOM     46  C   UNL A   1      41.002  29.019  30.448  1.00  0.00     0.031 A 
ATOM     47  C   UNL A   1      41.868  28.872  31.661  1.00  0.00     0.074 A 
ATOM     48  C   UNL A   1      40.012  29.926  30.374  1.00  0.00     0.049 A 
ATOM     49  N   UNL A   1      41.744  29.424  32.835  1.00  0.00    -0.248 NA
ATOM     50  C   UNL A   1      42.982  27.911  31.557  1.00  0.00     0.031 C 
ATOM     51  C   UNL A   1      39.081  30.090  29.251  1.00  0.00     0.029 A 
ATOM     52  N   UNL A   1      39.601  30.864  31.280  1.00  0.00    -0.354 N 
ATOM     53  C   UNL A   1      42.734  28.846  33.619  1.00  0.00     0.074 A 
ATOM     54  C   UNL A   1      43.399  27.848  32.811  1.00  0.00     0.031 C 
ATOM     55  C   UNL A   1      38.217  31.078  29.534  1.00  0.00     0.029 A 
ATOM     56  C   UNL A   1      38.507  31.587  30.868  1.00  0.00     0.049 A 
ATOM     57  H   UNL A   1      40.046  31.008  32.146  1.00  0.00     0.167 HD
ATOM     58  C   UNL A   1      43.077  29.151  34.890  1.00  0.00     0.037 A 
ATOM     59  C   UNL A   1      37.820  32.547  31.515  1.00  0.00     0.037 A 
ATOM     60  C   UNL A   1      42.435  30.194  35.641  1.00  0.00     0.049 A 
ATOM     61  C   UNL A   1      38.278  32.928  32.898  1.00  0.00     0.074 A 
ATOM     62  C   UNL A   1      42.706  30.634  36.922  1.00  0.00     0.029 A 
ATOM     63  N   UNL A   1      41.404  30.986  35.150  1.00  0.00    -0.354 N 
ATOM     64  N   UNL A   1      39.224  32.383  33.631  1.00  0.00    -0.248 NA
ATOM     65  C   UNL A   1      37.595  34.057  33.536  1.00  0.00     0.031 C 
ATOM     66  C   UNL A   1      41.835  31.693  37.206  1.00  0.00     0.029 A 
ATOM     67  C   UNL A   1      41.042  31.929  36.092  1.00  0.00     0.049 A 
ATOM     68  H   UNL A   1      40.992  30.889  34.260  1.00  0.00     0.167 HD
ATOM     69  C   UNL A   1      39.262  33.117  34.809  1.00  0.00     0.074 A 
ATOM     70  C   UNL A   1      38.260  34.158  34.679  1.00  0.00     0.031 C 
ATOM     71  C   UNL A   1      40.043  32.950  35.906  1.00  0.00     0.037 A 
BRANCH  58  72
ATOM     72  C   UNL A   1      44.207  28.375  35.502  1.00  0.00     0.058 A 
ATOM     73  C   UNL A   1      43.974  27.188  36.218  1.00  0.00     0.135 A 
ATOM     74  C   UNL A   1      45.533  28.823  35.395  1.00  0.00     0.135 A 
ATOM     75  F   UNL A   1      42.722  26.730  36.379  1.00  0.00    -0.206 F 
ATOM     76  C   UNL A   1      45.008  26.494  36.835  1.00  0.00     0.059 A 
ATOM     77  C   UNL A   1      46.588  28.126  35.978  1.00  0.00     0.059 A 
ATOM     78  F   UNL A   1      45.813  29.957  34.733  1.00  0.00    -0.206 F 
ATOM     79  C   UNL A   1      46.313  26.971  36.710  1.00  0.00     0.060 A 
BRANCH  79  80
ATOM     80  S   UNL A   1      47.645  26.051  37.510  1.00  0.00     0.124 S 
ATOM     81  O   UNL A   1      47.537  24.753  36.852  1.00  0.00    -0.237 OA
ATOM     82  O   UNL A   1      48.822  26.841  37.164  1.00  0.00    -0.237 OA
ATOM     83  O   UNL A   1      47.270  26.073  38.920  1.00  0.00    -0.744 OA
ENDBRANCH  79  80
ENDBRANCH  58  72
BRANCH  59  84
ATOM     84  C   UNL A   1      36.672  33.229  30.862  1.00  0.00     0.058 A 
ATOM     85  C   UNL A   1      36.878  34.128  29.804  1.00  0.00     0.135 A 
ATOM     86  C   UNL A   1      35.349  33.000  31.273  1.00  0.00     0.135 A 
ATOM     87  F   UNL A   1      38.124  34.378  29.373  1.00  0.00    -0.206 F 
ATOM     88  C   UNL A   1      35.822  34.804  29.200  1.00  0.00     0.059 A 
ATOM     89  C   UNL A   1      34.273  33.646  30.667  1.00  0.00     0.059 A 
ATOM     90  F   UNL A   1      35.092  32.132  32.263  1.00  0.00    -0.206 F 
ATOM     91  C   UNL A   1      34.522  34.559  29.644  1.00  0.00     0.060 A 
BRANCH  91  92
ATOM     92  S   UNL A   1      33.156  35.431  28.843  1.00  0.00     0.124 S 
ATOM     93  O   UNL A   1      33.869  36.421  28.044  1.00  0.00    -0.237 OA
ATOM     94  O   UNL A   1      32.500  34.362  28.095  1.00  0.00    -0.237 OA
ATOM     95  O   UNL A   1      32.390  35.959  29.969  1.00  0.00    -0.744 OA
ENDBRANCH  91  92
ENDBRANCH  59  84
BRANCH  71  96
ATOM     96  C   UNL A   1      39.855  33.937  37.019  1.00  0.00     0.058 A 
ATOM     97  C   UNL A   1      38.966  33.686  38.075  1.00  0.00     0.135 A 
ATOM     98  C   UNL A   1      40.594  35.128  37.040  1.00  0.00     0.135 A 
ATOM     99  F   UNL A   1      38.237  32.559  38.092  1.00  0.00    -0.206 F 
ATOM    100  C   UNL A   1      38.789  34.605  39.100  1.00  0.00     0.059 A 
ATOM    101  C   UNL A   1      40.452  36.050  38.070  1.00  0.00     0.059 A 
ATOM    102  F   UNL A   1      41.467  35.403  36.058  1.00  0.00    -0.206 F 
ATOM    103  C   UNL A   1      39.533  35.787  39.085  1.00  0.00     0.060 A 
BRANCH 103 104
ATOM    104  S   UNL A   1      39.304  36.971  40.427  1.00  0.00     0.124 S 
ATOM    105  O   UNL A   1      40.684  37.307  40.758  1.00  0.00    -0.237 OA
ATOM    106  O   UNL A   1      38.529  38.030  39.785  1.00  0.00    -0.237 OA
ATOM    107  O   UNL A   1      38.583  36.202  41.436  1.00  0.00    -0.744 OA
ENDBRANCH 103 104
ENDBRANCH  71  96
ENDBRANCH  45  46
ENDBRANCH  37  40
ENDBRANCH  35  36
ENDBRANCH  34  35
ENDBRANCH   1  34
TORSDOF 17
ENDMDL
MODEL 2
REMARK VINA RESULT:     -13.3      4.684     10.537
REMARK SMILES O=C1CCCC2=C1[C@H](c1ccc([N+](=O)[O-])cc1)CC(=O)N2c1ccccc1C(=O)NCCCCNC(=O)c1ccc(-c2c3nc(c(-c4c(F)cc(S(=O)(=O)[O-])cc4F)c4ccc([nH]4)c(-c4c(F)cc(S(=O)(=O)[O-])cc4F)c4nc(c(-c5c(F)cc(S(=O)(=O)[O-])cc5F)c5ccc2[nH]5)C=C4)C=C3)cc1
REMARK SMILES IDX 32 1 31 2 30 3 28 4 29 5 27 7 22 8 23 9 24 10 26 11 25 12
REMARK SMILES IDX 21 13 1 14 2 15 3 16 7 17 4 18 6 19 8 20 5 21 18 22 19 23
REMARK SMILES IDX 20 24 9 25 10 26 17 27 11 28 16 29 12 30 13 31 14 32 15 33
REMARK SMILES IDX 33 34 34 35 35 36 36 37 37 39 38 40 39 41 103 42 40 43
REMARK SMILES IDX 102 44 41 45 42 46 43 47 96 48 44 49 101 50 95 51 97 52
REMARK SMILES IDX 45 53 100 54 94 55 93 56 46 58 80 59 59 60 79 61 60 62 63 63
REMARK SMILES IDX 78 64 98 65 61 66 62 67 77 69 99 70 64 71 47 72 48 73 57 74
REMARK SMILES IDX 49 75 50 76 56 77 58 78 51 79 52 80 53 81 54 82 55 83 81 84
REMARK SMILES IDX 82 85 91 86 83 87 84 88 90 89 92 90 85 91 86 92 87 93 88 94
REMARK SMILES IDX 89 95 65 96 66 97 75 98 67 99 68 100 74 101 76 102 69 103
REMARK SMILES IDX 70 104 71 105 72 106 73 107
REMARK H PARENT 30 6 35 38 97 57 63 68
REMARK Flexibility Score: inf
ROOT
ATOM      1  C   UNL A   1      33.230  28.297  24.607  1.00  0.00     0.023 C 
ENDROOT
BRANCH   1   2
ATOM      2  C   UNL A   1      31.784  28.702  24.363  1.00  0.00     0.116 C 
BRANCH   2   3
ATOM      3  N   UNL A   1      30.846  27.623  24.457  1.00  0.00    -0.352 N 
ATOM      4  C   UNL A   1      30.739  26.379  23.898  1.00  0.00     0.253 C 
ATOM      5  O   UNL A   1      29.772  25.754  24.362  1.00  0.00    -0.269 OA
ATOM      6  H   UNL A   1      30.102  27.824  25.070  1.00  0.00     0.163 HD
BRANCH   4   7
ATOM      7  C   UNL A   1      31.588  25.677  22.846  1.00  0.00     0.063 A 
ATOM      8  C   UNL A   1      32.396  24.514  22.834  1.00  0.00     0.061 A 
ATOM      9  C   UNL A   1      33.049  24.132  21.619  1.00  0.00     0.027 A 
ATOM     10  C   UNL A   1      32.955  24.859  20.441  1.00  0.00     0.002 A 
ATOM     11  C   UNL A   1      31.539  26.397  21.609  1.00  0.00     0.016 A 
ATOM     12  C   UNL A   1      32.198  26.006  20.438  1.00  0.00     0.001 A 
BRANCH   8  13
ATOM     13  N   UNL A   1      32.625  23.561  23.887  1.00  0.00    -0.284 N 
ATOM     14  O   UNL A   1      34.645  22.838  27.909  1.00  0.00    -0.294 OA
ATOM     15  C   UNL A   1      34.907  22.984  26.720  1.00  0.00     0.161 C 
ATOM     16  C   UNL A   1      36.162  23.673  26.233  1.00  0.00     0.081 C 
ATOM     17  C   UNL A   1      33.886  22.657  25.685  1.00  0.00     0.023 C 
ATOM     18  C   UNL A   1      35.738  25.016  25.685  1.00  0.00     0.015 C 
ATOM     19  C   UNL A   1      33.720  23.636  24.761  1.00  0.00     0.033 C 
ATOM     20  C   UNL A   1      32.896  21.519  25.920  1.00  0.00     0.064 C 
ATOM     21  C   UNL A   1      34.625  24.868  24.644  1.00  0.00     0.055 C 
ATOM     22  C   UNL A   1      31.525  22.060  25.548  1.00  0.00     0.114 C 
ATOM     23  C   UNL A   1      31.531  22.704  24.175  1.00  0.00     0.232 C 
ATOM     24  O   UNL A   1      30.573  22.521  23.421  1.00  0.00    -0.274 OA
BRANCH  20  25
ATOM     25  C   UNL A   1      33.182  20.150  25.254  1.00  0.00    -0.039 A 
ATOM     26  C   UNL A   1      34.451  19.733  24.805  1.00  0.00     0.011 A 
ATOM     27  C   UNL A   1      32.118  19.263  25.014  1.00  0.00     0.011 A 
ATOM     28  C   UNL A   1      34.671  18.442  24.288  1.00  0.00     0.086 A 
ATOM     29  C   UNL A   1      32.327  17.950  24.557  1.00  0.00     0.086 A 
ATOM     30  C   UNL A   1      33.617  17.531  24.238  1.00  0.00     0.269 A 
BRANCH  30  31
ATOM     31  N   UNL A   1      33.885  16.119  23.947  1.00  0.00     0.062 N 
ATOM     32  O   UNL A   1      33.540  15.285  24.796  1.00  0.00    -0.258 OA
ATOM     33  O   UNL A   1      34.397  15.848  22.853  1.00  0.00    -0.258 OA
ENDBRANCH  30  31
ENDBRANCH  20  25
ENDBRANCH   8  13
ENDBRANCH   4   7
ENDBRANCH   2   3
ENDBRANCH   1   2
BRANCH   1  34
ATOM     34  C   UNL A   1      34.022  28.917  25.753  1.00  0.00     0.023 C 
BRANCH  34  35
ATOM     35  C   UNL A   1      33.464  28.923  27.174  1.00  0.00     0.116 C 
BRANCH  35  36
ATOM     36  N   UNL A   1      33.599  30.149  27.942  1.00  0.00    -0.352 N 
ATOM     37  C   UNL A   1      34.737  30.834  28.330  1.00  0.00     0.251 C 
ATOM     38  H   UNL A   1      32.750  30.555  28.230  1.00  0.00     0.163 HD
ATOM     39  O   UNL A   1      34.690  32.002  28.671  1.00  0.00    -0.269 OA
BRANCH  37  40
ATOM     40  C   UNL A   1      36.005  30.125  28.476  1.00  0.00     0.039 A 
ATOM     41  C   UNL A   1      36.911  30.184  27.408  1.00  0.00     0.014 A 
ATOM     42  C   UNL A   1      36.328  29.510  29.675  1.00  0.00     0.014 A 
ATOM     43  C   UNL A   1      38.213  29.746  27.602  1.00  0.00     0.010 A 
ATOM     44  C   UNL A   1      37.647  29.184  29.903  1.00  0.00     0.010 A 
ATOM     45  C   UNL A   1      38.595  29.307  28.874  1.00  0.00    -0.014 A 
BRANCH  45  46
ATOM     46  C   UNL A   1      39.981  28.910  29.177  1.00  0.00     0.031 A 
ATOM     47  C   UNL A   1      40.895  29.956  29.738  1.00  0.00     0.074 A 
ATOM     48  C   UNL A   1      40.417  27.690  28.817  1.00  0.00     0.049 A 
ATOM     49  N   UNL A   1      42.195  29.955  29.827  1.00  0.00    -0.248 NA
ATOM     50  C   UNL A   1      40.258  31.208  30.189  1.00  0.00     0.031 C 
ATOM     51  C   UNL A   1      39.601  26.635  28.203  1.00  0.00     0.029 A 
ATOM     52  N   UNL A   1      41.667  27.140  28.886  1.00  0.00    -0.354 N 
ATOM     53  C   UNL A   1      42.532  31.216  30.302  1.00  0.00     0.074 A 
ATOM     54  C   UNL A   1      41.310  31.979  30.409  1.00  0.00     0.031 C 
ATOM     55  C   UNL A   1      40.375  25.563  27.963  1.00  0.00     0.029 A 
ATOM     56  C   UNL A   1      41.740  25.869  28.368  1.00  0.00     0.049 A 
ATOM     57  H   UNL A   1      42.442  27.611  29.269  1.00  0.00     0.167 HD
ATOM     58  C   UNL A   1      43.754  31.677  30.650  1.00  0.00     0.037 A 
ATOM     59  C   UNL A   1      42.805  25.057  28.235  1.00  0.00     0.037 A 
ATOM     60  C   UNL A   1      44.939  30.867  30.590  1.00  0.00     0.049 A 
ATOM     61  C   UNL A   1      44.140  25.566  28.712  1.00  0.00     0.074 A 
ATOM     62  C   UNL A   1      46.232  31.195  30.947  1.00  0.00     0.029 A 
ATOM     63  N   UNL A   1      44.956  29.544  30.168  1.00  0.00    -0.354 N 
ATOM     64  N   UNL A   1      44.451  26.758  29.171  1.00  0.00    -0.248 NA
ATOM     65  C   UNL A   1      45.262  24.623  28.671  1.00  0.00     0.031 C 
ATOM     66  C   UNL A   1      47.034  30.066  30.739  1.00  0.00     0.029 A 
ATOM     67  C   UNL A   1      46.234  29.030  30.278  1.00  0.00     0.049 A 
ATOM     68  H   UNL A   1      44.174  29.044  29.840  1.00  0.00     0.167 HD
ATOM     69  C   UNL A   1      45.800  26.701  29.492  1.00  0.00     0.074 A 
ATOM     70  C   UNL A   1      46.239  25.351  29.196  1.00  0.00     0.031 C 
ATOM     71  C   UNL A   1      46.614  27.672  29.979  1.00  0.00     0.037 A 
BRANCH  58  72
ATOM     72  C   UNL A   1      43.837  33.090  31.154  1.00  0.00     0.058 A 
ATOM     73  C   UNL A   1      43.581  33.400  32.501  1.00  0.00     0.135 A 
ATOM     74  C   UNL A   1      44.153  34.148  30.289  1.00  0.00     0.135 A 
ATOM     75  F   UNL A   1      43.243  32.430  33.366  1.00  0.00    -0.206 F 
ATOM     76  C   UNL A   1      43.601  34.710  32.964  1.00  0.00     0.059 A 
ATOM     77  C   UNL A   1      44.209  35.466  30.738  1.00  0.00     0.059 A 
ATOM     78  F   UNL A   1      44.394  33.912  28.989  1.00  0.00    -0.206 F 
ATOM     79  C   UNL A   1      43.916  35.737  32.074  1.00  0.00     0.060 A 
BRANCH  79  80
ATOM     80  S   UNL A   1      43.945  37.432  32.694  1.00  0.00     0.124 S 
ATOM     81  O   UNL A   1      43.662  38.191  31.480  1.00  0.00    -0.237 OA
ATOM     82  O   UNL A   1      42.883  37.418  33.694  1.00  0.00    -0.237 OA
ATOM     83  O   UNL A   1      45.298  37.575  33.222  1.00  0.00    -0.744 OA
ENDBRANCH  79  80
ENDBRANCH  58  72
BRANCH  59  84
ATOM     84  C   UNL A   1      42.652  23.691  27.670  1.00  0.00     0.058 A 
ATOM     85  C   UNL A   1      42.460  22.584  28.510  1.00  0.00     0.135 A 
ATOM     86  C   UNL A   1      42.689  23.458  26.286  1.00  0.00     0.135 A 
ATOM     87  F   UNL A   1      42.413  22.754  29.841  1.00  0.00    -0.206 F 
ATOM     88  C   UNL A   1      42.347  21.291  28.006  1.00  0.00     0.059 A 
ATOM     89  C   UNL A   1      42.554  22.177  25.755  1.00  0.00     0.059 A 
ATOM     90  F   UNL A   1      42.846  24.484  25.435  1.00  0.00    -0.206 F 
ATOM     91  C   UNL A   1      42.401  21.098  26.625  1.00  0.00     0.060 A 
BRANCH  91  92
ATOM     92  S   UNL A   1      42.239  19.418  25.979  1.00  0.00     0.124 S 
ATOM     93  O   UNL A   1      40.798  19.321  25.773  1.00  0.00    -0.237 OA
ATOM     94  O   UNL A   1      43.054  19.469  24.769  1.00  0.00    -0.237 OA
ATOM     95  O   UNL A   1      42.780  18.592  27.056  1.00  0.00    -0.744 OA
ENDBRANCH  91  92
ENDBRANCH  59  84
BRANCH  71  96
ATOM     96  C   UNL A   1      48.037  27.283  30.246  1.00  0.00     0.058 A 
ATOM     97  C   UNL A   1      48.428  26.750  31.483  1.00  0.00     0.135 A 
ATOM     98  C   UNL A   1      49.007  27.419  29.243  1.00  0.00     0.135 A 
ATOM     99  F   UNL A   1      47.532  26.606  32.472  1.00  0.00    -0.206 F 
ATOM    100  C   UNL A   1      49.749  26.397  31.730  1.00  0.00     0.059 A 
ATOM    101  C   UNL A   1      50.328  27.048  29.459  1.00  0.00     0.059 A 
ATOM    102  F   UNL A   1      48.673  27.910  28.039  1.00  0.00    -0.206 F 
ATOM    103  C   UNL A   1      50.692  26.556  30.712  1.00  0.00     0.060 A 
BRANCH 103 104
ATOM    104  S   UNL A   1      52.403  26.086  31.037  1.00  0.00     0.124 S 
ATOM    105  O   UNL A   1      52.961  26.065  29.690  1.00  0.00    -0.237 OA
ATOM    106  O   UNL A   1      52.869  27.168  31.901  1.00  0.00    -0.237 OA
ATOM    107  O   UNL A   1      52.278  24.785  31.688  1.00  0.00    -0.744 OA
ENDBRANCH 103 104
ENDBRANCH  71  96
ENDBRANCH  45  46
ENDBRANCH  37  40
ENDBRANCH  35  36
ENDBRANCH  34  35
ENDBRANCH   1  34
TORSDOF 17
ENDMDL
MODEL 3
REMARK VINA RESULT:     -13.0      0.802      7.864
REMARK SMILES O=C1CCCC2=C1[C@H](c1ccc([N+](=O)[O-])cc1)CC(=O)N2c1ccccc1C(=O)NCCCCNC(=O)c1ccc(-c2c3nc(c(-c4c(F)cc(S(=O)(=O)[O-])cc4F)c4ccc([nH]4)c(-c4c(F)cc(S(=O)(=O)[O-])cc4F)c4nc(c(-c5c(F)cc(S(=O)(=O)[O-])cc5F)c5ccc2[nH]5)C=C4)C=C3)cc1
REMARK SMILES IDX 32 1 31 2 30 3 28 4 29 5 27 7 22 8 23 9 24 10 26 11 25 12
REMARK SMILES IDX 21 13 1 14 2 15 3 16 7 17 4 18 6 19 8 20 5 21 18 22 19 23
REMARK SMILES IDX 20 24 9 25 10 26 17 27 11 28 16 29 12 30 13 31 14 32 15 33
REMARK SMILES IDX 33 34 34 35 35 36 36 37 37 39 38 40 39 41 103 42 40 43
REMARK SMILES IDX 102 44 41 45 42 46 43 47 96 48 44 49 101 50 95 51 97 52
REMARK SMILES IDX 45 53 100 54 94 55 93 56 46 58 80 59 59 60 79 61 60 62 63 63
REMARK SMILES IDX 78 64 98 65 61 66 62 67 77 69 99 70 64 71 47 72 48 73 57 74
REMARK SMILES IDX 49 75 50 76 56 77 58 78 51 79 52 80 53 81 54 82 55 83 81 84
REMARK SMILES IDX 82 85 91 86 83 87 84 88 90 89 92 90 85 91 86 92 87 93 88 94
REMARK SMILES IDX 89 95 65 96 66 97 75 98 67 99 68 100 74 101 76 102 69 103
REMARK SMILES IDX 70 104 71 105 72 106 73 107
REMARK H PARENT 30 6 35 38 97 57 63 68
REMARK Flexibility Score: inf
ROOT
ATOM      1  C   UNL A   1      38.142  23.780  26.272  1.00  0.00     0.023 C 
ENDROOT
BRANCH   1   2
ATOM      2  C   UNL A   1      36.931  22.968  25.836  1.00  0.00     0.116 C 
BRANCH   2   3
ATOM      3  N   UNL A   1      35.860  22.952  26.788  1.00  0.00    -0.352 N 
ATOM      4  C   UNL A   1      34.558  22.533  26.776  1.00  0.00     0.253 C 
ATOM      5  O   UNL A   1      34.033  22.649  27.895  1.00  0.00    -0.269 OA
ATOM      6  H   UNL A   1      36.124  23.333  27.657  1.00  0.00     0.163 HD
BRANCH   4   7
ATOM      7  C   UNL A   1      33.696  21.970  25.653  1.00  0.00     0.063 A 
ATOM      8  C   UNL A   1      32.714  22.510  24.788  1.00  0.00     0.061 A 
ATOM      9  C   UNL A   1      32.109  21.662  23.805  1.00  0.00     0.027 A 
ATOM     10  C   UNL A   1      32.418  20.317  23.665  1.00  0.00     0.002 A 
ATOM     11  C   UNL A   1      33.963  20.575  25.476  1.00  0.00     0.016 A 
ATOM     12  C   UNL A   1      33.349  19.767  24.513  1.00  0.00     0.001 A 
BRANCH   8  13
ATOM     13  N   UNL A   1      32.246  23.867  24.684  1.00  0.00    -0.284 N 
ATOM     14  O   UNL A   1      30.792  27.119  21.839  1.00  0.00    -0.294 OA
ATOM     15  C   UNL A   1      31.809  26.512  22.159  1.00  0.00     0.161 C 
ATOM     16  C   UNL A   1      32.903  26.163  21.174  1.00  0.00     0.081 C 
ATOM     17  C   UNL A   1      31.923  25.909  23.517  1.00  0.00     0.023 C 
ATOM     18  C   UNL A   1      32.815  24.675  20.933  1.00  0.00     0.015 C 
ATOM     19  C   UNL A   1      32.336  24.618  23.502  1.00  0.00     0.033 C 
ATOM     20  C   UNL A   1      31.257  26.586  24.712  1.00  0.00     0.064 C 
ATOM     21  C   UNL A   1      32.845  23.893  22.250  1.00  0.00     0.055 C 
ATOM     22  C   UNL A   1      30.525  25.491  25.472  1.00  0.00     0.114 C 
ATOM     23  C   UNL A   1      31.429  24.309  25.758  1.00  0.00     0.232 C 
ATOM     24  O   UNL A   1      31.361  23.750  26.855  1.00  0.00    -0.274 OA
BRANCH  20  25
ATOM     25  C   UNL A   1      32.137  27.454  25.645  1.00  0.00    -0.039 A 
ATOM     26  C   UNL A   1      33.498  27.207  25.915  1.00  0.00     0.011 A 
ATOM     27  C   UNL A   1      31.558  28.538  26.330  1.00  0.00     0.011 A 
ATOM     28  C   UNL A   1      34.273  28.080  26.701  1.00  0.00     0.086 A 
ATOM     29  C   UNL A   1      32.327  29.455  27.068  1.00  0.00     0.086 A 
ATOM     30  C   UNL A   1      33.697  29.243  27.211  1.00  0.00     0.269 A 
BRANCH  30  31
ATOM     31  N   UNL A   1      34.547  30.279  27.806  1.00  0.00     0.062 N 
ATOM     32  O   UNL A   1      35.732  29.991  28.024  1.00  0.00    -0.258 OA
ATOM     33  O   UNL A   1      34.036  31.389  28.011  1.00  0.00    -0.258 OA
ENDBRANCH  30  31
ENDBRANCH  20  25
ENDBRANCH   8  13
ENDBRANCH   4   7
ENDBRANCH   2   3
ENDBRANCH   1   2
BRANCH   1  34
ATOM     34  C   UNL A   1      39.443  23.081  26.653  1.00  0.00     0.023 C 
BRANCH  34  35
ATOM     35  C   UNL A   1      40.769  23.836  26.633  1.00  0.00     0.116 C 
BRANCH  35  36
ATOM     36  N   UNL A   1      40.853  25.021  25.795  1.00  0.00    -0.352 N 
ATOM     37  C   UNL A   1      41.327  26.286  26.091  1.00  0.00     0.251 C 
ATOM     38  H   UNL A   1      40.521  24.904  24.876  1.00  0.00     0.163 HD
ATOM     39  O   UNL A   1      41.645  27.067  25.212  1.00  0.00    -0.269 OA
BRANCH  37  40
ATOM     40  C   UNL A   1      41.324  26.766  27.470  1.00  0.00     0.039 A 
ATOM     41  C   UNL A   1      42.343  27.649  27.855  1.00  0.00     0.014 A 
ATOM     42  C   UNL A   1      40.283  26.435  28.322  1.00  0.00     0.014 A 
ATOM     43  C   UNL A   1      42.232  28.320  29.065  1.00  0.00     0.010 A 
ATOM     44  C   UNL A   1      40.115  27.185  29.466  1.00  0.00     0.010 A 
ATOM     45  C   UNL A   1      41.081  28.135  29.838  1.00  0.00    -0.014 A 
BRANCH  45  46
ATOM     46  C   UNL A   1      40.855  28.879  31.089  1.00  0.00     0.031 A 
ATOM     47  C   UNL A   1      39.764  29.906  31.097  1.00  0.00     0.074 A 
ATOM     48  C   UNL A   1      41.706  28.723  32.118  1.00  0.00     0.049 A 
ATOM     49  N   UNL A   1      39.544  30.870  31.946  1.00  0.00    -0.248 NA
ATOM     50  C   UNL A   1      38.842  29.889  29.946  1.00  0.00     0.031 C 
ATOM     51  C   UNL A   1      42.836  27.788  32.162  1.00  0.00     0.029 A 
ATOM     52  N   UNL A   1      41.771  29.374  33.319  1.00  0.00    -0.354 N 
ATOM     53  C   UNL A   1      38.489  31.596  31.410  1.00  0.00     0.074 A 
ATOM     54  C   UNL A   1      38.164  31.010  30.130  1.00  0.00     0.031 C 
ATOM     55  C   UNL A   1      43.474  27.921  33.337  1.00  0.00     0.029 A 
ATOM     56  C   UNL A   1      42.824  28.973  34.107  1.00  0.00     0.049 A 
ATOM     57  H   UNL A   1      41.127  30.065  33.594  1.00  0.00     0.167 HD
ATOM     58  C   UNL A   1      37.829  32.639  31.962  1.00  0.00     0.037 A 
ATOM     59  C   UNL A   1      43.212  29.424  35.315  1.00  0.00     0.037 A 
ATOM     60  C   UNL A   1      38.139  33.155  33.266  1.00  0.00     0.049 A 
ATOM     61  C   UNL A   1      42.405  30.529  35.944  1.00  0.00     0.074 A 
ATOM     62  C   UNL A   1      37.528  34.181  33.960  1.00  0.00     0.029 A 
ATOM     63  N   UNL A   1      39.139  32.648  34.086  1.00  0.00    -0.354 N 
ATOM     64  N   UNL A   1      41.400  31.206  35.436  1.00  0.00    -0.248 NA
ATOM     65  C   UNL A   1      42.769  30.921  37.309  1.00  0.00     0.031 C 
ATOM     66  C   UNL A   1      38.162  34.295  35.204  1.00  0.00     0.029 A 
ATOM     67  C   UNL A   1      39.149  33.323  35.292  1.00  0.00     0.049 A 
ATOM     68  H   UNL A   1      39.751  31.915  33.845  1.00  0.00     0.167 HD
ATOM     69  C   UNL A   1      40.998  32.091  36.428  1.00  0.00     0.074 A 
ATOM     70  C   UNL A   1      41.855  31.845  37.572  1.00  0.00     0.031 C 
ATOM     71  C   UNL A   1      40.018  33.030  36.403  1.00  0.00     0.037 A 
BRANCH  58  72
ATOM     72  C   UNL A   1      36.703  33.238  31.167  1.00  0.00     0.058 A 
ATOM     73  C   UNL A   1      36.950  34.010  30.020  1.00  0.00     0.135 A 
ATOM     74  C   UNL A   1      35.368  33.059  31.560  1.00  0.00     0.135 A 
ATOM     75  F   UNL A   1      38.210  34.239  29.617  1.00  0.00    -0.206 F 
ATOM     76  C   UNL A   1      35.918  34.613  29.312  1.00  0.00     0.059 A 
ATOM     77  C   UNL A   1      34.315  33.629  30.847  1.00  0.00     0.059 A 
ATOM     78  F   UNL A   1      35.074  32.341  32.656  1.00  0.00    -0.206 F 
ATOM     79  C   UNL A   1      34.602  34.417  29.734  1.00  0.00     0.060 A 
BRANCH  79  80
ATOM     80  S   UNL A   1      33.273  35.201  28.796  1.00  0.00     0.124 S 
ATOM     81  O   UNL A   1      32.829  34.100  27.948  1.00  0.00    -0.237 OA
ATOM     82  O   UNL A   1      32.345  35.605  29.847  1.00  0.00    -0.237 OA
ATOM     83  O   UNL A   1      33.947  36.294  28.104  1.00  0.00    -0.744 OA
ENDBRANCH  79  80
ENDBRANCH  58  72
BRANCH  59  84
ATOM     84  C   UNL A   1      44.376  28.818  36.012  1.00  0.00     0.058 A 
ATOM     85  C   UNL A   1      45.667  29.341  35.842  1.00  0.00     0.135 A 
ATOM     86  C   UNL A   1      44.230  27.711  36.863  1.00  0.00     0.135 A 
ATOM     87  F   UNL A   1      45.859  30.401  35.042  1.00  0.00    -0.206 F 
ATOM     88  C   UNL A   1      46.777  28.770  36.458  1.00  0.00     0.059 A 
ATOM     89  C   UNL A   1      45.322  27.136  37.511  1.00  0.00     0.059 A 
ATOM     90  F   UNL A   1      43.015  27.186  37.081  1.00  0.00    -0.206 F 
ATOM     91  C   UNL A   1      46.594  27.663  37.287  1.00  0.00     0.060 A 
BRANCH  91  92
ATOM     92  S   UNL A   1      48.039  26.937  38.095  1.00  0.00     0.124 S 
ATOM     93  O   UNL A   1      49.129  27.509  37.313  1.00  0.00    -0.237 OA
ATOM     94  O   UNL A   1      47.910  27.428  39.463  1.00  0.00    -0.237 OA
ATOM     95  O   UNL A   1      47.829  25.501  37.929  1.00  0.00    -0.744 OA
ENDBRANCH  91  92
ENDBRANCH  59  84
BRANCH  71  96
ATOM     96  C   UNL A   1      39.816  33.820  37.660  1.00  0.00     0.058 A 
ATOM     97  C   UNL A   1      38.899  33.412  38.640  1.00  0.00     0.135 A 
ATOM     98  C   UNL A   1      40.568  34.980  37.895  1.00  0.00     0.135 A 
ATOM     99  F   UNL A   1      38.156  32.309  38.454  1.00  0.00    -0.206 F 
ATOM    100  C   UNL A   1      38.708  34.150  39.801  1.00  0.00     0.059 A 
ATOM    101  C   UNL A   1      40.413  35.720  39.061  1.00  0.00     0.059 A 
ATOM    102  F   UNL A   1      41.468  35.400  36.992  1.00  0.00    -0.206 F 
ATOM    103  C   UNL A   1      39.467  35.306  39.998  1.00  0.00     0.060 A 
BRANCH 103 104
ATOM    104  S   UNL A   1      39.220  36.254  41.513  1.00  0.00     0.124 S 
ATOM    105  O   UNL A   1      38.005  35.645  42.043  1.00  0.00    -0.237 OA
ATOM    106  O   UNL A   1      40.445  35.983  42.260  1.00  0.00    -0.237 OA
ATOM    107  O   UNL A   1      39.078  37.626  41.033  1.00  0.00    -0.744 OA
ENDBRANCH 103 104
ENDBRANCH  71  96
ENDBRANCH  45  46
ENDBRANCH  37  40
ENDBRANCH  35  36
ENDBRANCH  34  35
ENDBRANCH   1  34
TORSDOF 17
ENDMDL
