MODEL 1
REMARK VINA RESULT:     -11.9      0.000      0.000
REMARK SMILES C[C@@H](O)[C@@H](NC(=O)Nc1ccc(F)cc1F)C(=O)NCCCCNC(=O)c1ccc(-c2c3nc(c(-c4c(F)cc(S(=O)(=O)[O-])cc4F)c4ccc([nH]4)c(-c4c(F)cc(S(=O)(=O)[O-])cc4F)c4nc(c(-c5c(F)cc(S(=O)(=O)[O-])cc5F)c5ccc2[nH]5)C=C4)C=C3)cc1
REMARK SMILES IDX 22 1 21 2 20 3 19 4 17 5 18 6 4 8 2 9 1 10 3 11 5 13 6 14
REMARK SMILES IDX 7 16 8 17 9 19 10 20 15 21 11 22 14 23 16 24 12 25 13 26
REMARK SMILES IDX 23 27 24 28 25 29 26 31 27 32 28 33 92 34 29 35 91 36 30 37
REMARK SMILES IDX 31 38 32 39 85 40 33 41 90 42 84 43 86 44 34 45 89 46 83 47
REMARK SMILES IDX 82 48 35 50 69 51 48 52 68 53 49 54 52 55 67 56 87 57 50 58
REMARK SMILES IDX 51 59 66 61 88 62 53 63 36 64 37 65 46 66 38 67 39 68 45 69
REMARK SMILES IDX 47 70 40 71 41 72 42 73 43 74 44 75 70 76 71 77 80 78 72 79
REMARK SMILES IDX 73 80 79 81 81 82 74 83 75 84 76 85 77 86 78 87 54 88 55 89
REMARK SMILES IDX 64 90 56 91 57 92 63 93 65 94 58 95 59 96 60 97 61 98 62 99
REMARK H PARENT 19 7 3 12 5 15 8 18 24 30 86 49 52 60
REMARK Flexibility Score: inf
ROOT
ATOM      1  C   UNL A   1      37.742  23.520  25.649  1.00  0.00     0.023 C 
ENDROOT
BRANCH   1   2
ATOM      2  C   UNL A   1      36.261  23.740  26.002  1.00  0.00     0.023 C 
BRANCH   2   3
ATOM      3  C   UNL A   1      35.278  23.046  25.054  1.00  0.00     0.116 C 
BRANCH   3   4
ATOM      4  N   UNL A   1      34.830  21.810  25.656  1.00  0.00    -0.354 N 
ATOM      5  C   UNL A   1      33.677  21.694  26.373  1.00  0.00     0.245 C 
ATOM      6  O   UNL A   1      33.743  21.505  27.590  1.00  0.00    -0.273 OA
ATOM      7  H   UNL A   1      35.390  21.008  25.543  1.00  0.00     0.163 HD
BRANCH   5   8
ATOM      8  C   UNL A   1      32.325  21.892  25.666  1.00  0.00     0.201 C 
BRANCH   8   9
ATOM      9  C   UNL A   1      32.172  20.675  24.714  1.00  0.00     0.143 C 
ATOM     10  C   UNL A   1      32.423  20.990  23.245  1.00  0.00     0.041 C 
BRANCH   9  11
ATOM     11  O   UNL A   1      33.127  19.659  25.067  1.00  0.00    -0.391 OA
ATOM     12  H   UNL A   1      33.543  19.885  25.914  1.00  0.00     0.211 HD
ENDBRANCH   9  11
ENDBRANCH   8   9
BRANCH   8  13
ATOM     13  N   UNL A   1      31.210  22.129  26.594  1.00  0.00    -0.323 N 
ATOM     14  C   UNL A   1      30.409  23.191  26.833  1.00  0.00     0.320 C 
ATOM     15  H   UNL A   1      31.004  21.350  27.160  1.00  0.00     0.166 HD
ATOM     16  O   UNL A   1      29.549  23.050  27.706  1.00  0.00    -0.248 OA
ATOM     17  N   UNL A   1      30.624  24.421  26.318  1.00  0.00    -0.305 N 
ATOM     18  H   UNL A   1      30.290  25.151  26.887  1.00  0.00     0.171 HD
BRANCH  17  19
ATOM     19  C   UNL A   1      31.230  24.860  25.133  1.00  0.00     0.079 A 
ATOM     20  C   UNL A   1      30.639  24.681  23.884  1.00  0.00     0.032 A 
ATOM     21  C   UNL A   1      32.491  25.469  25.218  1.00  0.00     0.149 A 
ATOM     22  C   UNL A   1      31.360  24.994  22.729  1.00  0.00     0.041 A 
ATOM     23  C   UNL A   1      33.224  25.762  24.074  1.00  0.00     0.080 A 
ATOM     24  F   UNL A   1      33.067  25.642  26.418  1.00  0.00    -0.205 F 
ATOM     25  C   UNL A   1      32.653  25.502  22.836  1.00  0.00     0.126 A 
ATOM     26  F   UNL A   1      33.359  25.737  21.722  1.00  0.00    -0.207 F 
ENDBRANCH  17  19
ENDBRANCH   8  13
ENDBRANCH   5   8
ENDBRANCH   3   4
ENDBRANCH   2   3
ENDBRANCH   1   2
BRANCH   1  27
ATOM     27  C   UNL A   1      38.733  24.132  26.637  1.00  0.00     0.116 C 
BRANCH  27  28
ATOM     28  N   UNL A   1      40.063  24.222  26.064  1.00  0.00    -0.352 N 
ATOM     29  C   UNL A   1      41.038  25.156  26.292  1.00  0.00     0.251 C 
ATOM     30  H   UNL A   1      40.297  23.512  25.423  1.00  0.00     0.163 HD
ATOM     31  O   UNL A   1      42.012  25.213  25.550  1.00  0.00    -0.269 OA
BRANCH  29  32
ATOM     32  C   UNL A   1      40.904  26.093  27.425  1.00  0.00     0.039 A 
ATOM     33  C   UNL A   1      39.936  25.833  28.397  1.00  0.00     0.014 A 
ATOM     34  C   UNL A   1      41.704  27.237  27.511  1.00  0.00     0.014 A 
ATOM     35  C   UNL A   1      39.784  26.711  29.470  1.00  0.00     0.010 A 
ATOM     36  C   UNL A   1      41.593  28.080  28.613  1.00  0.00     0.010 A 
ATOM     37  C   UNL A   1      40.620  27.834  29.593  1.00  0.00    -0.014 A 
BRANCH  37  38
ATOM     38  C   UNL A   1      40.454  28.771  30.731  1.00  0.00     0.031 A 
ATOM     39  C   UNL A   1      41.321  28.633  31.953  1.00  0.00     0.074 A 
ATOM     40  C   UNL A   1      39.511  29.730  30.667  1.00  0.00     0.049 A 
ATOM     41  N   UNL A   1      41.324  29.351  33.046  1.00  0.00    -0.248 NA
ATOM     42  C   UNL A   1      42.298  27.531  31.959  1.00  0.00     0.031 C 
ATOM     43  C   UNL A   1      38.578  29.925  29.555  1.00  0.00     0.029 A 
ATOM     44  N   UNL A   1      39.179  30.721  31.556  1.00  0.00    -0.354 N 
ATOM     45  C   UNL A   1      42.288  28.784  33.871  1.00  0.00     0.074 A 
ATOM     46  C   UNL A   1      42.818  27.633  33.173  1.00  0.00     0.031 C 
ATOM     47  C   UNL A   1      37.797  30.986  29.816  1.00  0.00     0.029 A 
ATOM     48  C   UNL A   1      38.155  31.530  31.123  1.00  0.00     0.049 A 
ATOM     49  H   UNL A   1      39.631  30.840  32.422  1.00  0.00     0.167 HD
ATOM     50  C   UNL A   1      42.709  29.200  35.088  1.00  0.00     0.037 A 
ATOM     51  C   UNL A   1      37.577  32.594  31.711  1.00  0.00     0.037 A 
ATOM     52  C   UNL A   1      42.201  30.368  35.760  1.00  0.00     0.049 A 
ATOM     53  C   UNL A   1      38.091  33.062  33.044  1.00  0.00     0.074 A 
ATOM     54  C   UNL A   1      42.596  30.904  36.973  1.00  0.00     0.029 A 
ATOM     55  N   UNL A   1      41.192  31.184  35.272  1.00  0.00    -0.354 N 
ATOM     56  N   UNL A   1      39.042  32.544  33.787  1.00  0.00    -0.248 NA
ATOM     57  C   UNL A   1      37.470  34.265  33.614  1.00  0.00     0.031 C 
ATOM     58  C   UNL A   1      41.804  32.026  37.233  1.00  0.00     0.029 A 
ATOM     59  C   UNL A   1      40.945  32.216  36.163  1.00  0.00     0.049 A 
ATOM     60  H   UNL A   1      40.720  31.051  34.417  1.00  0.00     0.167 HD
ATOM     61  C   UNL A   1      39.150  33.373  34.898  1.00  0.00     0.074 A 
ATOM     62  C   UNL A   1      38.177  34.432  34.723  1.00  0.00     0.031 C 
ATOM     63  C   UNL A   1      39.979  33.267  35.966  1.00  0.00     0.037 A 
BRANCH  50  64
ATOM     64  C   UNL A   1      43.782  28.398  35.773  1.00  0.00     0.058 A 
ATOM     65  C   UNL A   1      45.139  28.660  35.523  1.00  0.00     0.135 A 
ATOM     66  C   UNL A   1      43.468  27.331  36.630  1.00  0.00     0.135 A 
ATOM     67  F   UNL A   1      45.494  29.671  34.714  1.00  0.00    -0.206 F 
ATOM     68  C   UNL A   1      46.148  27.887  36.089  1.00  0.00     0.059 A 
ATOM     69  C   UNL A   1      44.462  26.562  37.228  1.00  0.00     0.059 A 
ATOM     70  F   UNL A   1      42.187  27.049  36.918  1.00  0.00    -0.206 F 
ATOM     71  C   UNL A   1      45.799  26.844  36.946  1.00  0.00     0.060 A 
BRANCH  71  72
ATOM     72  S   UNL A   1      47.072  25.817  37.709  1.00  0.00     0.124 S 
ATOM     73  O   UNL A   1      47.027  24.623  36.871  1.00  0.00    -0.237 OA
ATOM     74  O   UNL A   1      48.266  26.645  37.568  1.00  0.00    -0.237 OA
ATOM     75  O   UNL A   1      46.594  25.640  39.077  1.00  0.00    -0.744 OA
ENDBRANCH  71  72
ENDBRANCH  50  64
BRANCH  51  76
ATOM     76  C   UNL A   1      36.469  33.310  31.022  1.00  0.00     0.058 A 
ATOM     77  C   UNL A   1      36.715  34.132  29.912  1.00  0.00     0.135 A 
ATOM     78  C   UNL A   1      35.147  33.201  31.475  1.00  0.00     0.135 A 
ATOM     79  F   UNL A   1      37.966  34.285  29.453  1.00  0.00    -0.206 F 
ATOM     80  C   UNL A   1      35.691  34.829  29.279  1.00  0.00     0.059 A 
ATOM     81  C   UNL A   1      34.102  33.868  30.843  1.00  0.00     0.059 A 
ATOM     82  F   UNL A   1      34.861  32.424  32.531  1.00  0.00    -0.206 F 
ATOM     83  C   UNL A   1      34.386  34.683  29.746  1.00  0.00     0.060 A 
BRANCH  83  84
ATOM     84  S   UNL A   1      33.029  35.581  28.962  1.00  0.00     0.124 S 
ATOM     85  O   UNL A   1      32.473  34.563  28.078  1.00  0.00    -0.237 OA
ATOM     86  O   UNL A   1      32.205  35.950  30.109  1.00  0.00    -0.237 OA
ATOM     87  O   UNL A   1      33.702  36.694  28.300  1.00  0.00    -0.744 OA
ENDBRANCH  83  84
ENDBRANCH  51  76
BRANCH  63  88
ATOM     88  C   UNL A   1      39.896  34.342  37.012  1.00  0.00     0.058 A 
ATOM     89  C   UNL A   1      39.111  34.154  38.162  1.00  0.00     0.135 A 
ATOM     90  C   UNL A   1      40.553  35.573  36.859  1.00  0.00     0.135 A 
ATOM     91  F   UNL A   1      38.452  33.000  38.349  1.00  0.00    -0.206 F 
ATOM     92  C   UNL A   1      38.981  35.147  39.127  1.00  0.00     0.059 A 
ATOM     93  C   UNL A   1      40.458  36.570  37.824  1.00  0.00     0.059 A 
ATOM     94  F   UNL A   1      41.318  35.800  35.780  1.00  0.00    -0.206 F 
ATOM     95  C   UNL A   1      39.670  36.347  38.955  1.00  0.00     0.060 A 
BRANCH  95  96
ATOM     96  S   UNL A   1      39.544  37.656  40.192  1.00  0.00     0.124 S 
ATOM     97  O   UNL A   1      40.928  38.110  40.281  1.00  0.00    -0.237 OA
ATOM     98  O   UNL A   1      38.610  38.587  39.566  1.00  0.00    -0.237 OA
ATOM     99  O   UNL A   1      39.033  36.963  41.371  1.00  0.00    -0.744 OA
ENDBRANCH  95  96
ENDBRANCH  63  88
ENDBRANCH  37  38
ENDBRANCH  29  32
ENDBRANCH  27  28
ENDBRANCH   1  27
TORSDOF 18
ENDMDL
MODEL 2
REMARK VINA RESULT:     -11.7      6.850     12.194
REMARK SMILES C[C@@H](O)[C@@H](NC(=O)Nc1ccc(F)cc1F)C(=O)NCCCCNC(=O)c1ccc(-c2c3nc(c(-c4c(F)cc(S(=O)(=O)[O-])cc4F)c4ccc([nH]4)c(-c4c(F)cc(S(=O)(=O)[O-])cc4F)c4nc(c(-c5c(F)cc(S(=O)(=O)[O-])cc5F)c5ccc2[nH]5)C=C4)C=C3)cc1
REMARK SMILES IDX 22 1 21 2 20 3 19 4 17 5 18 6 4 8 2 9 1 10 3 11 5 13 6 14
REMARK SMILES IDX 7 16 8 17 9 19 10 20 15 21 11 22 14 23 16 24 12 25 13 26
REMARK SMILES IDX 23 27 24 28 25 29 26 31 27 32 28 33 92 34 29 35 91 36 30 37
REMARK SMILES IDX 31 38 32 39 85 40 33 41 90 42 84 43 86 44 34 45 89 46 83 47
REMARK SMILES IDX 82 48 35 50 69 51 48 52 68 53 49 54 52 55 67 56 87 57 50 58
REMARK SMILES IDX 51 59 66 61 88 62 53 63 36 64 37 65 46 66 38 67 39 68 45 69
REMARK SMILES IDX 47 70 40 71 41 72 42 73 43 74 44 75 70 76 71 77 80 78 72 79
REMARK SMILES IDX 73 80 79 81 81 82 74 83 75 84 76 85 77 86 78 87 54 88 55 89
REMARK SMILES IDX 64 90 56 91 57 92 63 93 65 94 58 95 59 96 60 97 61 98 62 99
REMARK H PARENT 19 7 3 12 5 15 8 18 24 30 86 49 52 60
REMARK Flexibility Score: inf
ROOT
ATOM      1  C   UNL A   1      34.068  29.673  27.186  1.00  0.00     0.023 C 
ENDROOT
BRANCH   1   2
ATOM      2  C   UNL A   1      33.357  28.354  26.834  1.00  0.00     0.023 C 
BRANCH   2   3
ATOM      3  C   UNL A   1      33.815  27.726  25.513  1.00  0.00     0.116 C 
BRANCH   3   4
ATOM      4  N   UNL A   1      33.604  28.672  24.440  1.00  0.00    -0.354 N 
ATOM      5  C   UNL A   1      33.528  28.320  23.126  1.00  0.00     0.245 C 
ATOM      6  O   UNL A   1      34.439  28.648  22.362  1.00  0.00    -0.273 OA
ATOM      7  H   UNL A   1      33.511  29.625  24.673  1.00  0.00     0.163 HD
BRANCH   5   8
ATOM      8  C   UNL A   1      32.357  27.445  22.646  1.00  0.00     0.201 C 
BRANCH   8   9
ATOM      9  C   UNL A   1      31.093  28.339  22.768  1.00  0.00     0.143 C 
ATOM     10  C   UNL A   1      30.322  28.164  24.070  1.00  0.00     0.041 C 
BRANCH   9  11
ATOM     11  O   UNL A   1      31.472  29.725  22.719  1.00  0.00    -0.391 OA
ATOM     12  H   UNL A   1      30.776  30.236  22.276  1.00  0.00     0.211 HD
ENDBRANCH   9  11
ENDBRANCH   8   9
BRANCH   8  13
ATOM     13  N   UNL A   1      32.589  26.832  21.330  1.00  0.00    -0.323 N 
ATOM     14  C   UNL A   1      32.757  25.557  20.916  1.00  0.00     0.320 C 
ATOM     15  H   UNL A   1      32.628  27.488  20.597  1.00  0.00     0.166 HD
ATOM     16  O   UNL A   1      32.937  25.386  19.707  1.00  0.00    -0.248 OA
ATOM     17  N   UNL A   1      32.929  24.513  21.756  1.00  0.00    -0.305 N 
ATOM     18  H   UNL A   1      33.469  23.784  21.375  1.00  0.00     0.171 HD
BRANCH  17  19
ATOM     19  C   UNL A   1      32.490  24.267  23.064  1.00  0.00     0.079 A 
ATOM     20  C   UNL A   1      31.148  24.050  23.370  1.00  0.00     0.032 A 
ATOM     21  C   UNL A   1      33.440  24.276  24.097  1.00  0.00     0.149 A 
ATOM     22  C   UNL A   1      30.751  23.969  24.707  1.00  0.00     0.041 A 
ATOM     23  C   UNL A   1      33.051  24.219  25.429  1.00  0.00     0.080 A 
ATOM     24  F   UNL A   1      34.734  24.487  23.808  1.00  0.00    -0.205 F 
ATOM     25  C   UNL A   1      31.700  24.085  25.721  1.00  0.00     0.126 A 
ATOM     26  F   UNL A   1      31.300  24.071  26.998  1.00  0.00    -0.207 F 
ENDBRANCH  17  19
ENDBRANCH   8  13
ENDBRANCH   5   8
ENDBRANCH   3   4
ENDBRANCH   2   3
ENDBRANCH   1   2
BRANCH   1  27
ATOM     27  C   UNL A   1      35.416  29.506  27.882  1.00  0.00     0.116 C 
BRANCH  27  28
ATOM     28  N   UNL A   1      35.440  30.195  29.159  1.00  0.00    -0.352 N 
ATOM     29  C   UNL A   1      36.467  30.309  30.057  1.00  0.00     0.251 C 
ATOM     30  H   UNL A   1      34.601  30.644  29.414  1.00  0.00     0.163 HD
ATOM     31  O   UNL A   1      36.243  30.727  31.189  1.00  0.00    -0.269 OA
BRANCH  29  32
ATOM     32  C   UNL A   1      37.835  29.921  29.660  1.00  0.00     0.039 A 
ATOM     33  C   UNL A   1      38.176  29.966  28.307  1.00  0.00     0.014 A 
ATOM     34  C   UNL A   1      38.763  29.482  30.611  1.00  0.00     0.014 A 
ATOM     35  C   UNL A   1      39.459  29.593  27.908  1.00  0.00     0.010 A 
ATOM     36  C   UNL A   1      40.061  29.167  30.218  1.00  0.00     0.010 A 
ATOM     37  C   UNL A   1      40.415  29.202  28.861  1.00  0.00    -0.014 A 
BRANCH  37  38
ATOM     38  C   UNL A   1      41.777  28.799  28.435  1.00  0.00     0.031 A 
ATOM     39  C   UNL A   1      42.881  29.820  28.373  1.00  0.00     0.074 A 
ATOM     40  C   UNL A   1      42.011  27.519  28.088  1.00  0.00     0.049 A 
ATOM     41  N   UNL A   1      44.131  29.661  28.024  1.00  0.00    -0.248 NA
ATOM     42  C   UNL A   1      42.530  31.205  28.727  1.00  0.00     0.031 C 
ATOM     43  C   UNL A   1      41.005  26.454  28.060  1.00  0.00     0.029 A 
ATOM     44  N   UNL A   1      43.166  26.894  27.692  1.00  0.00    -0.354 N 
ATOM     45  C   UNL A   1      44.711  30.922  28.104  1.00  0.00     0.074 A 
ATOM     46  C   UNL A   1      43.666  31.845  28.489  1.00  0.00     0.031 C 
ATOM     47  C   UNL A   1      41.593  25.304  27.693  1.00  0.00     0.029 A 
ATOM     48  C   UNL A   1      43.008  25.553  27.435  1.00  0.00     0.049 A 
ATOM     49  H   UNL A   1      44.027  27.363  27.600  1.00  0.00     0.167 HD
ATOM     50  C   UNL A   1      46.002  31.272  27.898  1.00  0.00     0.037 A 
ATOM     51  C   UNL A   1      43.905  24.628  27.043  1.00  0.00     0.037 A 
ATOM     52  C   UNL A   1      47.043  30.340  27.550  1.00  0.00     0.049 A 
ATOM     53  C   UNL A   1      45.342  25.034  26.863  1.00  0.00     0.074 A 
ATOM     54  C   UNL A   1      48.393  30.586  27.369  1.00  0.00     0.029 A 
ATOM     55  N   UNL A   1      46.851  28.984  27.337  1.00  0.00    -0.354 N 
ATOM     56  N   UNL A   1      45.884  26.223  26.995  1.00  0.00    -0.248 NA
ATOM     57  C   UNL A   1      46.292  23.977  26.497  1.00  0.00     0.031 C 
ATOM     58  C   UNL A   1      49.012  29.383  27.015  1.00  0.00     0.029 A 
ATOM     59  C   UNL A   1      48.056  28.380  27.018  1.00  0.00     0.049 A 
ATOM     60  H   UNL A   1      45.986  28.518  27.402  1.00  0.00     0.167 HD
ATOM     61  C   UNL A   1      47.242  26.050  26.754  1.00  0.00     0.074 A 
ATOM     62  C   UNL A   1      47.440  24.641  26.481  1.00  0.00     0.031 C 
ATOM     63  C   UNL A   1      48.235  26.974  26.759  1.00  0.00     0.037 A 
BRANCH  50  64
ATOM     64  C   UNL A   1      46.371  32.722  28.056  1.00  0.00     0.058 A 
ATOM     65  C   UNL A   1      46.204  33.622  26.991  1.00  0.00     0.135 A 
ATOM     66  C   UNL A   1      46.946  33.210  29.241  1.00  0.00     0.135 A 
ATOM     67  F   UNL A   1      45.655  33.209  25.837  1.00  0.00    -0.206 F 
ATOM     68  C   UNL A   1      46.603  34.951  27.089  1.00  0.00     0.059 A 
ATOM     69  C   UNL A   1      47.328  34.541  29.369  1.00  0.00     0.059 A 
ATOM     70  F   UNL A   1      47.111  32.397  30.296  1.00  0.00    -0.206 F 
ATOM     71  C   UNL A   1      47.158  35.404  28.285  1.00  0.00     0.060 A 
BRANCH  71  72
ATOM     72  S   UNL A   1      47.686  37.121  28.462  1.00  0.00     0.124 S 
ATOM     73  O   UNL A   1      49.070  36.958  28.897  1.00  0.00    -0.237 OA
ATOM     74  O   UNL A   1      47.503  37.642  27.111  1.00  0.00    -0.237 OA
ATOM     75  O   UNL A   1      46.772  37.656  29.466  1.00  0.00    -0.744 OA
ENDBRANCH  71  72
ENDBRANCH  50  64
BRANCH  51  76
ATOM     76  C   UNL A   1      43.473  23.221  26.830  1.00  0.00     0.058 A 
ATOM     77  C   UNL A   1      43.170  22.382  27.914  1.00  0.00     0.135 A 
ATOM     78  C   UNL A   1      43.377  22.682  25.540  1.00  0.00     0.135 A 
ATOM     79  F   UNL A   1      43.268  22.845  29.169  1.00  0.00    -0.206 F 
ATOM     80  C   UNL A   1      42.794  21.056  27.728  1.00  0.00     0.059 A 
ATOM     81  C   UNL A   1      42.978  21.366  25.327  1.00  0.00     0.059 A 
ATOM     82  F   UNL A   1      43.653  23.446  24.471  1.00  0.00    -0.206 F 
ATOM     83  C   UNL A   1      42.691  20.559  26.430  1.00  0.00     0.060 A 
BRANCH  83  84
ATOM     84  S   UNL A   1      42.221  18.839  26.144  1.00  0.00     0.124 S 
ATOM     85  O   UNL A   1      42.463  18.247  27.455  1.00  0.00    -0.237 OA
ATOM     86  O   UNL A   1      40.821  18.967  25.750  1.00  0.00    -0.237 OA
ATOM     87  O   UNL A   1      43.128  18.415  25.082  1.00  0.00    -0.744 OA
ENDBRANCH  83  84
ENDBRANCH  51  76
BRANCH  63  88
ATOM     88  C   UNL A   1      49.631  26.486  26.495  1.00  0.00     0.058 A 
ATOM     89  C   UNL A   1      50.446  26.058  27.557  1.00  0.00     0.135 A 
ATOM     90  C   UNL A   1      50.181  26.485  25.204  1.00  0.00     0.135 A 
ATOM     91  F   UNL A   1      49.971  26.053  28.812  1.00  0.00    -0.206 F 
ATOM     92  C   UNL A   1      51.757  25.642  27.349  1.00  0.00     0.059 A 
ATOM     93  C   UNL A   1      51.481  26.048  24.970  1.00  0.00     0.059 A 
ATOM     94  F   UNL A   1      49.444  26.881  24.156  1.00  0.00    -0.206 F 
ATOM     95  C   UNL A   1      52.260  25.628  26.050  1.00  0.00     0.060 A 
BRANCH  95  96
ATOM     96  S   UNL A   1      53.951  25.078  25.733  1.00  0.00     0.124 S 
ATOM     97  O   UNL A   1      54.615  25.439  26.980  1.00  0.00    -0.237 OA
ATOM     98  O   UNL A   1      53.775  23.649  25.497  1.00  0.00    -0.237 OA
ATOM     99  O   UNL A   1      54.347  25.856  24.562  1.00  0.00    -0.744 OA
ENDBRANCH  95  96
ENDBRANCH  63  88
ENDBRANCH  37  38
ENDBRANCH  29  32
ENDBRANCH  27  28
ENDBRANCH   1  27
TORSDOF 18
ENDMDL
MODEL 3
REMARK VINA RESULT:     -11.7      5.106      6.414
REMARK SMILES C[C@@H](O)[C@@H](NC(=O)Nc1ccc(F)cc1F)C(=O)NCCCCNC(=O)c1ccc(-c2c3nc(c(-c4c(F)cc(S(=O)(=O)[O-])cc4F)c4ccc([nH]4)c(-c4c(F)cc(S(=O)(=O)[O-])cc4F)c4nc(c(-c5c(F)cc(S(=O)(=O)[O-])cc5F)c5ccc2[nH]5)C=C4)C=C3)cc1
REMARK SMILES IDX 22 1 21 2 20 3 19 4 17 5 18 6 4 8 2 9 1 10 3 11 5 13 6 14
REMARK SMILES IDX 7 16 8 17 9 19 10 20 15 21 11 22 14 23 16 24 12 25 13 26
REMARK SMILES IDX 23 27 24 28 25 29 26 31 27 32 28 33 92 34 29 35 91 36 30 37
REMARK SMILES IDX 31 38 32 39 85 40 33 41 90 42 84 43 86 44 34 45 89 46 83 47
REMARK SMILES IDX 82 48 35 50 69 51 48 52 68 53 49 54 52 55 67 56 87 57 50 58
REMARK SMILES IDX 51 59 66 61 88 62 53 63 36 64 37 65 46 66 38 67 39 68 45 69
REMARK SMILES IDX 47 70 40 71 41 72 42 73 43 74 44 75 70 76 71 77 80 78 72 79
REMARK SMILES IDX 73 80 79 81 81 82 74 83 75 84 76 85 77 86 78 87 54 88 55 89
REMARK SMILES IDX 64 90 56 91 57 92 63 93 65 94 58 95 59 96 60 97 61 98 62 99
REMARK H PARENT 19 7 3 12 5 15 8 18 24 30 86 49 52 60
REMARK Flexibility Score: inf
ROOT
ATOM      1  C   UNL A   1      36.418  23.703  24.597  1.00  0.00     0.023 C 
ENDROOT
BRANCH   1   2
ATOM      2  C   UNL A   1      35.747  22.496  23.920  1.00  0.00     0.023 C 
BRANCH   2   3
ATOM      3  C   UNL A   1      34.923  21.619  24.869  1.00  0.00     0.116 C 
BRANCH   3   4
ATOM      4  N   UNL A   1      33.764  21.118  24.164  1.00  0.00    -0.354 N 
ATOM      5  C   UNL A   1      32.489  21.220  24.636  1.00  0.00     0.245 C 
ATOM      6  O   UNL A   1      31.900  20.200  25.001  1.00  0.00    -0.273 OA
ATOM      7  H   UNL A   1      33.904  20.676  23.295  1.00  0.00     0.163 HD
BRANCH   5   8
ATOM      8  C   UNL A   1      31.851  22.611  24.788  1.00  0.00     0.201 C 
BRANCH   8   9
ATOM      9  C   UNL A   1      31.420  23.030  23.357  1.00  0.00     0.143 C 
ATOM     10  C   UNL A   1      32.326  24.065  22.704  1.00  0.00     0.041 C 
BRANCH   9  11
ATOM     11  O   UNL A   1      31.443  21.884  22.488  1.00  0.00    -0.391 OA
ATOM     12  H   UNL A   1      32.064  21.224  22.837  1.00  0.00     0.211 HD
ENDBRANCH   9  11
ENDBRANCH   8   9
BRANCH   8  13
ATOM     13  N   UNL A   1      30.804  22.663  25.819  1.00  0.00    -0.323 N 
ATOM     14  C   UNL A   1      30.390  23.622  26.675  1.00  0.00     0.320 C 
ATOM     15  H   UNL A   1      30.297  21.823  25.900  1.00  0.00     0.166 HD
ATOM     16  O   UNL A   1      29.459  23.327  27.430  1.00  0.00    -0.248 OA
ATOM     17  N   UNL A   1      31.052  24.783  26.876  1.00  0.00    -0.305 N 
ATOM     18  H   UNL A   1      30.935  25.153  27.781  1.00  0.00     0.171 HD
BRANCH  17  19
ATOM     19  C   UNL A   1      31.872  25.561  26.049  1.00  0.00     0.079 A 
ATOM     20  C   UNL A   1      33.263  25.484  26.096  1.00  0.00     0.032 A 
ATOM     21  C   UNL A   1      31.262  26.471  25.173  1.00  0.00     0.149 A 
ATOM     22  C   UNL A   1      34.028  26.396  25.365  1.00  0.00     0.041 A 
ATOM     23  C   UNL A   1      32.015  27.396  24.460  1.00  0.00     0.080 A 
ATOM     24  F   UNL A   1      29.922  26.552  25.126  1.00  0.00    -0.205 F 
ATOM     25  C   UNL A   1      33.397  27.360  24.581  1.00  0.00     0.126 A 
ATOM     26  F   UNL A   1      34.139  28.269  23.936  1.00  0.00    -0.207 F 
ENDBRANCH  17  19
ENDBRANCH   8  13
ENDBRANCH   5   8
ENDBRANCH   3   4
ENDBRANCH   2   3
ENDBRANCH   1   2
BRANCH   1  27
ATOM     27  C   UNL A   1      36.784  23.490  26.064  1.00  0.00     0.116 C 
BRANCH  27  28
ATOM     28  N   UNL A   1      37.733  22.404  26.220  1.00  0.00    -0.352 N 
ATOM     29  C   UNL A   1      39.078  22.464  26.466  1.00  0.00     0.251 C 
ATOM     30  H   UNL A   1      37.357  21.497  26.139  1.00  0.00     0.163 HD
ATOM     31  O   UNL A   1      39.767  21.457  26.336  1.00  0.00    -0.269 OA
BRANCH  29  32
ATOM     32  C   UNL A   1      39.691  23.742  26.879  1.00  0.00     0.039 A 
ATOM     33  C   UNL A   1      40.155  23.868  28.190  1.00  0.00     0.014 A 
ATOM     34  C   UNL A   1      39.777  24.819  25.990  1.00  0.00     0.014 A 
ATOM     35  C   UNL A   1      40.727  25.070  28.605  1.00  0.00     0.010 A 
ATOM     36  C   UNL A   1      40.403  25.998  26.388  1.00  0.00     0.010 A 
ATOM     37  C   UNL A   1      40.867  26.140  27.704  1.00  0.00    -0.014 A 
BRANCH  37  38
ATOM     38  C   UNL A   1      41.469  27.420  28.147  1.00  0.00     0.031 A 
ATOM     39  C   UNL A   1      42.955  27.631  28.040  1.00  0.00     0.074 A 
ATOM     40  C   UNL A   1      40.679  28.381  28.663  1.00  0.00     0.049 A 
ATOM     41  N   UNL A   1      43.665  28.677  28.376  1.00  0.00    -0.248 NA
ATOM     42  C   UNL A   1      43.752  26.514  27.505  1.00  0.00     0.031 C 
ATOM     43  C   UNL A   1      39.232  28.267  28.863  1.00  0.00     0.029 A 
ATOM     44  N   UNL A   1      40.978  29.642  29.113  1.00  0.00    -0.354 N 
ATOM     45  C   UNL A   1      44.987  28.341  28.107  1.00  0.00     0.074 A 
ATOM     46  C   UNL A   1      44.988  26.978  27.623  1.00  0.00     0.031 C 
ATOM     47  C   UNL A   1      38.767  29.420  29.372  1.00  0.00     0.029 A 
ATOM     48  C   UNL A   1      39.882  30.344  29.558  1.00  0.00     0.049 A 
ATOM     49  H   UNL A   1      41.891  30.009  29.118  1.00  0.00     0.167 HD
ATOM     50  C   UNL A   1      46.095  29.108  28.230  1.00  0.00     0.037 A 
ATOM     51  C   UNL A   1      39.788  31.592  30.052  1.00  0.00     0.037 A 
ATOM     52  C   UNL A   1      46.081  30.477  28.679  1.00  0.00     0.049 A 
ATOM     53  C   UNL A   1      41.028  32.440  30.138  1.00  0.00     0.074 A 
ATOM     54  C   UNL A   1      47.143  31.357  28.790  1.00  0.00     0.029 A 
ATOM     55  N   UNL A   1      44.947  31.165  29.083  1.00  0.00    -0.354 N 
ATOM     56  N   UNL A   1      42.263  32.123  29.829  1.00  0.00    -0.248 NA
ATOM     57  C   UNL A   1      40.862  33.815  30.623  1.00  0.00     0.031 C 
ATOM     58  C   UNL A   1      46.656  32.568  29.292  1.00  0.00     0.029 A 
ATOM     59  C   UNL A   1      45.284  32.457  29.452  1.00  0.00     0.049 A 
ATOM     60  H   UNL A   1      44.036  30.790  29.104  1.00  0.00     0.167 HD
ATOM     61  C   UNL A   1      43.018  33.269  30.057  1.00  0.00     0.074 A 
ATOM     62  C   UNL A   1      42.097  34.288  30.518  1.00  0.00     0.031 C 
ATOM     63  C   UNL A   1      44.351  33.460  29.900  1.00  0.00     0.037 A 
BRANCH  50  64
ATOM     64  C   UNL A   1      47.419  28.496  27.863  1.00  0.00     0.058 A 
ATOM     65  C   UNL A   1      47.859  28.490  26.529  1.00  0.00     0.135 A 
ATOM     66  C   UNL A   1      48.226  27.861  28.820  1.00  0.00     0.135 A 
ATOM     67  F   UNL A   1      47.127  29.087  25.574  1.00  0.00    -0.206 F 
ATOM     68  C   UNL A   1      49.045  27.868  26.153  1.00  0.00     0.059 A 
ATOM     69  C   UNL A   1      49.429  27.255  28.471  1.00  0.00     0.059 A 
ATOM     70  F   UNL A   1      47.863  27.853  30.113  1.00  0.00    -0.206 F 
ATOM     71  C   UNL A   1      49.828  27.259  27.133  1.00  0.00     0.060 A 
BRANCH  71  72
ATOM     72  S   UNL A   1      51.378  26.444  26.697  1.00  0.00     0.124 S 
ATOM     73  O   UNL A   1      51.480  26.751  25.273  1.00  0.00    -0.237 OA
ATOM     74  O   UNL A   1      52.338  27.120  27.562  1.00  0.00    -0.237 OA
ATOM     75  O   UNL A   1      51.128  25.042  27.018  1.00  0.00    -0.744 OA
ENDBRANCH  71  72
ENDBRANCH  50  64
BRANCH  51  76
ATOM     76  C   UNL A   1      38.464  32.126  30.469  1.00  0.00     0.058 A 
ATOM     77  C   UNL A   1      37.696  32.920  29.603  1.00  0.00     0.135 A 
ATOM     78  C   UNL A   1      37.951  31.870  31.748  1.00  0.00     0.135 A 
ATOM     79  F   UNL A   1      38.151  33.211  28.376  1.00  0.00    -0.206 F 
ATOM     80  C   UNL A   1      36.469  33.449  29.993  1.00  0.00     0.059 A 
ATOM     81  C   UNL A   1      36.716  32.366  32.152  1.00  0.00     0.059 A 
ATOM     82  F   UNL A   1      38.648  31.112  32.610  1.00  0.00    -0.206 F 
ATOM     83  C   UNL A   1      35.983  33.158  31.267  1.00  0.00     0.060 A 
BRANCH  83  84
ATOM     84  S   UNL A   1      34.403  33.837  31.819  1.00  0.00     0.124 S 
ATOM     85  O   UNL A   1      33.777  34.193  30.550  1.00  0.00    -0.237 OA
ATOM     86  O   UNL A   1      33.814  32.703  32.526  1.00  0.00    -0.237 OA
ATOM     87  O   UNL A   1      34.796  34.958  32.666  1.00  0.00    -0.744 OA
ENDBRANCH  83  84
ENDBRANCH  51  76
BRANCH  63  88
ATOM     88  C   UNL A   1      44.890  34.831  30.194  1.00  0.00     0.058 A 
ATOM     89  C   UNL A   1      44.969  35.795  29.175  1.00  0.00     0.135 A 
ATOM     90  C   UNL A   1      45.374  35.177  31.465  1.00  0.00     0.135 A 
ATOM     91  F   UNL A   1      44.533  35.509  27.939  1.00  0.00    -0.206 F 
ATOM     92  C   UNL A   1      45.503  37.059  29.407  1.00  0.00     0.059 A 
ATOM     93  C   UNL A   1      45.888  36.443  31.725  1.00  0.00     0.059 A 
ATOM     94  F   UNL A   1      45.318  34.292  32.472  1.00  0.00    -0.206 F 
ATOM     95  C   UNL A   1      45.947  37.377  30.689  1.00  0.00     0.060 A 
BRANCH  95  96
ATOM     96  S   UNL A   1      46.631  39.011  31.038  1.00  0.00     0.124 S 
ATOM     97  O   UNL A   1      45.735  39.487  32.086  1.00  0.00    -0.237 OA
ATOM     98  O   UNL A   1      47.992  38.696  31.460  1.00  0.00    -0.237 OA
ATOM     99  O   UNL A   1      46.524  39.705  29.758  1.00  0.00    -0.744 OA
ENDBRANCH  95  96
ENDBRANCH  63  88
ENDBRANCH  37  38
ENDBRANCH  29  32
ENDBRANCH  27  28
ENDBRANCH   1  27
TORSDOF 18
ENDMDL
