MODEL 1
REMARK VINA RESULT:     -13.1      0.000      0.000
REMARK SMILES Cc1cc(NC(=O)CCC(=O)NCCCCNC(=O)c2ccc(-c3c4nc(c(-c5c(F)cc(S(=O)(=O)[O-])cc5F)c5ccc([nH]5)c(-c5c(F)cc(S(=O)(=O)[O-])cc5F)c5nc(c(-c6c(F)cc(S(=O)(=O)[O-])cc6F)c6ccc3[nH]6)C=C5)C=C4)cc2)ccc1S(=O)(=O)[O-]
REMARK SMILES IDX 14 1 13 2 12 3 10 4 11 5 9 7 8 8 6 9 5 10 7 12 4 13 1 14
REMARK SMILES IDX 2 15 3 16 88 17 87 18 86 19 89 20 90 21 91 22 92 23 15 24
REMARK SMILES IDX 16 25 17 26 18 27 19 29 20 30 21 31 85 32 22 33 84 34 23 35
REMARK SMILES IDX 24 36 25 37 78 38 26 39 83 40 77 41 79 42 27 43 82 44 76 45
REMARK SMILES IDX 75 46 28 48 62 49 41 50 61 51 42 52 45 53 60 54 80 55 43 56
REMARK SMILES IDX 44 57 59 59 81 60 46 61 29 62 30 63 39 64 31 65 32 66 38 67
REMARK SMILES IDX 40 68 33 69 34 70 35 71 36 72 37 73 63 74 64 75 73 76 65 77
REMARK SMILES IDX 66 78 72 79 74 80 67 81 68 82 69 83 70 84 71 85 47 86 48 87
REMARK SMILES IDX 57 88 49 89 50 90 56 91 58 92 51 93 52 94 53 95 54 96 55 97
REMARK H PARENT 12 6 5 11 17 28 79 47 45 58
REMARK Flexibility Score: inf
ROOT
ATOM      1  C   UNL A   1      32.875  28.003  26.907  1.00  0.00     0.023 C 
ENDROOT
BRANCH   1   2
ATOM      2  C   UNL A   1      31.391  27.713  27.143  1.00  0.00     0.116 C 
BRANCH   2   3
ATOM      3  N   UNL A   1      30.884  26.522  26.474  1.00  0.00    -0.356 N 
ATOM      4  C   UNL A   1      30.522  26.315  25.180  1.00  0.00     0.220 C 
ATOM      5  O   UNL A   1      30.340  25.161  24.791  1.00  0.00    -0.275 OA
ATOM      6  H   UNL A   1      30.788  25.734  27.058  1.00  0.00     0.163 HD
BRANCH   4   7
ATOM      7  C   UNL A   1      30.350  27.475  24.231  1.00  0.00     0.110 C 
BRANCH   7   8
ATOM      8  C   UNL A   1      31.054  27.372  22.881  1.00  0.00     0.110 C 
BRANCH   8   9
ATOM      9  C   UNL A   1      32.533  27.697  22.826  1.00  0.00     0.224 C 
ATOM     10  N   UNL A   1      33.524  26.769  22.953  1.00  0.00    -0.326 N 
ATOM     11  H   UNL A   1      34.418  27.118  22.734  1.00  0.00     0.169 HD
ATOM     12  O   UNL A   1      32.875  28.867  22.617  1.00  0.00    -0.275 OA
BRANCH  10  13
ATOM     13  C   UNL A   1      33.529  25.419  23.334  1.00  0.00     0.041 A 
ATOM     14  C   UNL A   1      33.908  23.338  26.464  1.00  0.00     0.046 C 
ATOM     15  C   UNL A   1      33.687  23.622  25.006  1.00  0.00    -0.032 A 
ATOM     16  C   UNL A   1      33.854  24.969  24.612  1.00  0.00     0.030 A 
ATOM     17  C   UNL A   1      33.206  22.715  24.052  1.00  0.00     0.057 A 
ATOM     18  C   UNL A   1      32.992  23.140  22.729  1.00  0.00     0.021 A 
ATOM     19  C   UNL A   1      33.172  24.477  22.370  1.00  0.00     0.027 A 
BRANCH  17  20
ATOM     20  S   UNL A   1      32.808  21.010  24.365  1.00  0.00     0.124 S 
ATOM     21  O   UNL A   1      34.039  20.304  24.640  1.00  0.00    -0.237 OA
ATOM     22  O   UNL A   1      31.706  20.986  25.305  1.00  0.00    -0.237 OA
ATOM     23  O   UNL A   1      32.231  20.356  23.014  1.00  0.00    -0.744 OA
ENDBRANCH  17  20
ENDBRANCH  10  13
ENDBRANCH   8   9
ENDBRANCH   7   8
ENDBRANCH   4   7
ENDBRANCH   2   3
ENDBRANCH   1   2
BRANCH   1  24
ATOM     24  C   UNL A   1      33.398  29.327  27.463  1.00  0.00     0.023 C 
BRANCH  24  25
ATOM     25  C   UNL A   1      34.760  29.726  26.919  1.00  0.00     0.116 C 
BRANCH  25  26
ATOM     26  N   UNL A   1      35.330  30.892  27.584  1.00  0.00    -0.352 N 
ATOM     27  C   UNL A   1      36.419  30.904  28.438  1.00  0.00     0.251 C 
ATOM     28  H   UNL A   1      34.895  31.758  27.408  1.00  0.00     0.163 HD
ATOM     29  O   UNL A   1      36.716  31.860  29.142  1.00  0.00    -0.269 OA
BRANCH  27  30
ATOM     30  C   UNL A   1      37.305  29.730  28.352  1.00  0.00     0.039 A 
ATOM     31  C   UNL A   1      37.485  29.000  29.533  1.00  0.00     0.014 A 
ATOM     32  C   UNL A   1      38.202  29.640  27.290  1.00  0.00     0.014 A 
ATOM     33  C   UNL A   1      38.677  28.313  29.729  1.00  0.00     0.010 A 
ATOM     34  C   UNL A   1      39.419  29.033  27.525  1.00  0.00     0.010 A 
ATOM     35  C   UNL A   1      39.675  28.415  28.762  1.00  0.00    -0.014 A 
BRANCH  35  36
ATOM     36  C   UNL A   1      41.033  27.919  28.950  1.00  0.00     0.031 A 
ATOM     37  C   UNL A   1      41.345  26.535  28.535  1.00  0.00     0.074 A 
ATOM     38  C   UNL A   1      42.003  28.732  29.419  1.00  0.00     0.049 A 
ATOM     39  N   UNL A   1      42.424  25.895  28.826  1.00  0.00    -0.248 NA
ATOM     40  C   UNL A   1      40.394  25.737  27.771  1.00  0.00     0.031 C 
ATOM     41  C   UNL A   1      43.444  28.503  29.390  1.00  0.00     0.029 A 
ATOM     42  N   UNL A   1      41.847  29.850  30.245  1.00  0.00    -0.354 N 
ATOM     43  C   UNL A   1      42.422  24.707  28.127  1.00  0.00     0.074 A 
ATOM     44  C   UNL A   1      41.120  24.649  27.507  1.00  0.00     0.031 C 
ATOM     45  C   UNL A   1      44.019  29.238  30.355  1.00  0.00     0.029 A 
ATOM     46  C   UNL A   1      42.951  29.845  31.129  1.00  0.00     0.049 A 
ATOM     47  H   UNL A   1      41.116  30.509  30.216  1.00  0.00     0.167 HD
ATOM     48  C   UNL A   1      43.562  23.960  28.090  1.00  0.00     0.037 A 
ATOM     49  C   UNL A   1      42.753  29.661  32.469  1.00  0.00     0.037 A 
ATOM     50  C   UNL A   1      44.545  24.467  29.049  1.00  0.00     0.049 A 
ATOM     51  C   UNL A   1      43.339  28.371  33.019  1.00  0.00     0.074 A 
ATOM     52  C   UNL A   1      45.624  25.332  28.979  1.00  0.00     0.029 A 
ATOM     53  N   UNL A   1      44.270  24.312  30.396  1.00  0.00    -0.354 N 
ATOM     54  N   UNL A   1      43.964  27.475  32.304  1.00  0.00    -0.248 NA
ATOM     55  C   UNL A   1      43.197  27.961  34.417  1.00  0.00     0.031 C 
ATOM     56  C   UNL A   1      45.929  25.765  30.305  1.00  0.00     0.029 A 
ATOM     57  C   UNL A   1      45.049  25.145  31.176  1.00  0.00     0.049 A 
ATOM     58  H   UNL A   1      43.600  23.685  30.755  1.00  0.00     0.167 HD
ATOM     59  C   UNL A   1      44.230  26.379  33.081  1.00  0.00     0.074 A 
ATOM     60  C   UNL A   1      43.754  26.739  34.404  1.00  0.00     0.031 C 
ATOM     61  C   UNL A   1      44.774  25.226  32.600  1.00  0.00     0.037 A 
BRANCH  48  62
ATOM     62  C   UNL A   1      43.861  22.891  27.055  1.00  0.00     0.058 A 
ATOM     63  C   UNL A   1      43.038  21.747  26.960  1.00  0.00     0.135 A 
ATOM     64  C   UNL A   1      44.966  22.885  26.180  1.00  0.00     0.135 A 
ATOM     65  F   UNL A   1      41.907  21.639  27.671  1.00  0.00    -0.206 F 
ATOM     66  C   UNL A   1      43.343  20.653  26.143  1.00  0.00     0.059 A 
ATOM     67  C   UNL A   1      45.326  21.781  25.402  1.00  0.00     0.059 A 
ATOM     68  F   UNL A   1      45.717  23.973  25.984  1.00  0.00    -0.206 F 
ATOM     69  C   UNL A   1      44.511  20.663  25.394  1.00  0.00     0.060 A 
BRANCH  69  70
ATOM     70  S   UNL A   1      44.936  19.219  24.404  1.00  0.00     0.124 S 
ATOM     71  O   UNL A   1      44.199  18.156  25.080  1.00  0.00    -0.237 OA
ATOM     72  O   UNL A   1      44.441  19.598  23.085  1.00  0.00    -0.237 OA
ATOM     73  O   UNL A   1      46.389  19.137  24.527  1.00  0.00    -0.744 OA
ENDBRANCH  69  70
ENDBRANCH  48  62
BRANCH  49  74
ATOM     74  C   UNL A   1      41.511  30.328  32.953  1.00  0.00     0.058 A 
ATOM     75  C   UNL A   1      40.385  29.516  33.205  1.00  0.00     0.135 A 
ATOM     76  C   UNL A   1      41.542  31.593  33.552  1.00  0.00     0.135 A 
ATOM     77  F   UNL A   1      40.295  28.298  32.646  1.00  0.00    -0.206 F 
ATOM     78  C   UNL A   1      39.421  29.871  34.143  1.00  0.00     0.059 A 
ATOM     79  C   UNL A   1      40.576  31.977  34.482  1.00  0.00     0.059 A 
ATOM     80  F   UNL A   1      42.584  32.413  33.350  1.00  0.00    -0.206 F 
ATOM     81  C   UNL A   1      39.562  31.079  34.822  1.00  0.00     0.060 A 
BRANCH  81  82
ATOM     82  S   UNL A   1      38.511  31.368  36.265  1.00  0.00     0.124 S 
ATOM     83  O   UNL A   1      37.412  32.132  35.688  1.00  0.00    -0.237 OA
ATOM     84  O   UNL A   1      38.184  30.003  36.677  1.00  0.00    -0.237 OA
ATOM     85  O   UNL A   1      39.386  32.099  37.173  1.00  0.00    -0.744 OA
ENDBRANCH  81  82
ENDBRANCH  49  74
BRANCH  61  86
ATOM     86  C   UNL A   1      45.076  24.062  33.491  1.00  0.00     0.058 A 
ATOM     87  C   UNL A   1      46.372  23.833  33.976  1.00  0.00     0.135 A 
ATOM     88  C   UNL A   1      44.106  23.085  33.784  1.00  0.00     0.135 A 
ATOM     89  F   UNL A   1      47.361  24.706  33.719  1.00  0.00    -0.206 F 
ATOM     90  C   UNL A   1      46.688  22.704  34.730  1.00  0.00     0.059 A 
ATOM     91  C   UNL A   1      44.407  21.930  34.499  1.00  0.00     0.059 A 
ATOM     92  F   UNL A   1      42.829  23.242  33.401  1.00  0.00    -0.206 F 
ATOM     93  C   UNL A   1      45.698  21.757  34.984  1.00  0.00     0.060 A 
BRANCH  93  94
ATOM     94  S   UNL A   1      46.105  20.279  35.934  1.00  0.00     0.124 S 
ATOM     95  O   UNL A   1      45.688  20.638  37.287  1.00  0.00    -0.237 OA
ATOM     96  O   UNL A   1      45.285  19.273  35.268  1.00  0.00    -0.237 OA
ATOM     97  O   UNL A   1      47.546  20.146  35.745  1.00  0.00    -0.744 OA
ENDBRANCH  93  94
ENDBRANCH  61  86
ENDBRANCH  35  36
ENDBRANCH  27  30
ENDBRANCH  25  26
ENDBRANCH  24  25
ENDBRANCH   1  24
TORSDOF 18
ENDMDL
MODEL 2
REMARK VINA RESULT:     -12.9      5.121     11.410
REMARK SMILES Cc1cc(NC(=O)CCC(=O)NCCCCNC(=O)c2ccc(-c3c4nc(c(-c5c(F)cc(S(=O)(=O)[O-])cc5F)c5ccc([nH]5)c(-c5c(F)cc(S(=O)(=O)[O-])cc5F)c5nc(c(-c6c(F)cc(S(=O)(=O)[O-])cc6F)c6ccc3[nH]6)C=C5)C=C4)cc2)ccc1S(=O)(=O)[O-]
REMARK SMILES IDX 14 1 13 2 12 3 10 4 11 5 9 7 8 8 6 9 5 10 7 12 4 13 1 14
REMARK SMILES IDX 2 15 3 16 88 17 87 18 86 19 89 20 90 21 91 22 92 23 15 24
REMARK SMILES IDX 16 25 17 26 18 27 19 29 20 30 21 31 85 32 22 33 84 34 23 35
REMARK SMILES IDX 24 36 25 37 78 38 26 39 83 40 77 41 79 42 27 43 82 44 76 45
REMARK SMILES IDX 75 46 28 48 62 49 41 50 61 51 42 52 45 53 60 54 80 55 43 56
REMARK SMILES IDX 44 57 59 59 81 60 46 61 29 62 30 63 39 64 31 65 32 66 38 67
REMARK SMILES IDX 40 68 33 69 34 70 35 71 36 72 37 73 63 74 64 75 73 76 65 77
REMARK SMILES IDX 66 78 72 79 74 80 67 81 68 82 69 83 70 84 71 85 47 86 48 87
REMARK SMILES IDX 57 88 49 89 50 90 56 91 58 92 51 93 52 94 53 95 54 96 55 97
REMARK H PARENT 12 6 5 11 17 28 79 47 45 58
REMARK Flexibility Score: inf
ROOT
ATOM      1  C   UNL A   1      35.996  24.245  26.148  1.00  0.00     0.023 C 
ENDROOT
BRANCH   1   2
ATOM      2  C   UNL A   1      34.666  23.972  25.441  1.00  0.00     0.116 C 
BRANCH   2   3
ATOM      3  N   UNL A   1      33.529  23.772  26.330  1.00  0.00    -0.356 N 
ATOM      4  C   UNL A   1      33.201  22.725  27.132  1.00  0.00     0.220 C 
ATOM      5  O   UNL A   1      32.309  22.873  27.970  1.00  0.00    -0.275 OA
ATOM      6  H   UNL A   1      32.891  24.523  26.354  1.00  0.00     0.163 HD
BRANCH   4   7
ATOM      7  C   UNL A   1      33.914  21.401  27.007  1.00  0.00     0.110 C 
BRANCH   7   8
ATOM      8  C   UNL A   1      34.039  20.815  25.605  1.00  0.00     0.110 C 
BRANCH   8   9
ATOM      9  C   UNL A   1      32.810  20.175  24.991  1.00  0.00     0.224 C 
ATOM     10  N   UNL A   1      32.022  20.776  24.055  1.00  0.00    -0.326 N 
ATOM     11  H   UNL A   1      31.365  20.168  23.647  1.00  0.00     0.169 HD
ATOM     12  O   UNL A   1      32.513  19.021  25.327  1.00  0.00    -0.275 OA
BRANCH  10  13
ATOM     13  C   UNL A   1      31.957  22.085  23.556  1.00  0.00     0.041 A 
ATOM     14  C   UNL A   1      30.259  25.363  24.356  1.00  0.00     0.046 C 
ATOM     15  C   UNL A   1      31.154  24.409  23.620  1.00  0.00    -0.032 A 
ATOM     16  C   UNL A   1      31.079  23.058  24.028  1.00  0.00     0.030 A 
ATOM     17  C   UNL A   1      32.135  24.756  22.680  1.00  0.00     0.057 A 
ATOM     18  C   UNL A   1      32.943  23.756  22.112  1.00  0.00     0.021 A 
ATOM     19  C   UNL A   1      32.839  22.429  22.533  1.00  0.00     0.027 A 
BRANCH  17  20
ATOM     20  S   UNL A   1      32.484  26.409  22.123  1.00  0.00     0.124 S 
ATOM     21  O   UNL A   1      33.666  26.363  21.293  1.00  0.00    -0.237 OA
ATOM     22  O   UNL A   1      31.243  26.973  21.630  1.00  0.00    -0.237 OA
ATOM     23  O   UNL A   1      32.886  27.309  23.393  1.00  0.00    -0.744 OA
ENDBRANCH  17  20
ENDBRANCH  10  13
ENDBRANCH   8   9
ENDBRANCH   7   8
ENDBRANCH   4   7
ENDBRANCH   2   3
ENDBRANCH   1   2
BRANCH   1  24
ATOM     24  C   UNL A   1      37.105  23.220  25.912  1.00  0.00     0.023 C 
BRANCH  24  25
ATOM     25  C   UNL A   1      38.434  23.835  25.504  1.00  0.00     0.116 C 
BRANCH  25  26
ATOM     26  N   UNL A   1      39.552  23.398  26.331  1.00  0.00    -0.352 N 
ATOM     27  C   UNL A   1      40.379  24.203  27.094  1.00  0.00     0.251 C 
ATOM     28  H   UNL A   1      39.738  22.431  26.348  1.00  0.00     0.163 HD
ATOM     29  O   UNL A   1      41.432  23.820  27.585  1.00  0.00    -0.269 OA
BRANCH  27  30
ATOM     30  C   UNL A   1      39.845  25.541  27.408  1.00  0.00     0.039 A 
ATOM     31  C   UNL A   1      40.392  26.612  26.690  1.00  0.00     0.014 A 
ATOM     32  C   UNL A   1      39.176  25.732  28.614  1.00  0.00     0.014 A 
ATOM     33  C   UNL A   1      40.434  27.870  27.278  1.00  0.00     0.010 A 
ATOM     34  C   UNL A   1      39.300  26.961  29.231  1.00  0.00     0.010 A 
ATOM     35  C   UNL A   1      39.973  28.013  28.585  1.00  0.00    -0.014 A 
BRANCH  35  36
ATOM     36  C   UNL A   1      40.157  29.224  29.377  1.00  0.00     0.031 A 
ATOM     37  C   UNL A   1      39.105  30.262  29.337  1.00  0.00     0.074 A 
ATOM     38  C   UNL A   1      41.226  29.358  30.190  1.00  0.00     0.049 A 
ATOM     39  N   UNL A   1      39.220  31.456  29.806  1.00  0.00    -0.248 NA
ATOM     40  C   UNL A   1      37.819  30.020  28.694  1.00  0.00     0.031 C 
ATOM     41  C   UNL A   1      41.415  30.341  31.252  1.00  0.00     0.029 A 
ATOM     42  N   UNL A   1      42.480  28.755  30.048  1.00  0.00    -0.354 N 
ATOM     43  C   UNL A   1      37.986  32.067  29.734  1.00  0.00     0.074 A 
ATOM     44  C   UNL A   1      37.157  31.134  29.007  1.00  0.00     0.031 C 
ATOM     45  C   UNL A   1      42.731  30.488  31.475  1.00  0.00     0.029 A 
ATOM     46  C   UNL A   1      43.430  29.717  30.463  1.00  0.00     0.049 A 
ATOM     47  H   UNL A   1      42.665  27.843  29.725  1.00  0.00     0.167 HD
ATOM     48  C   UNL A   1      37.796  33.254  30.379  1.00  0.00     0.037 A 
ATOM     49  C   UNL A   1      44.319  30.233  29.561  1.00  0.00     0.037 A 
ATOM     50  C   UNL A   1      39.073  33.799  30.844  1.00  0.00     0.049 A 
ATOM     51  C   UNL A   1      44.139  31.715  29.280  1.00  0.00     0.074 A 
ATOM     52  C   UNL A   1      39.779  33.759  32.035  1.00  0.00     0.029 A 
ATOM     53  N   UNL A   1      39.965  34.252  29.889  1.00  0.00    -0.354 N 
ATOM     54  N   UNL A   1      43.213  32.466  29.812  1.00  0.00    -0.248 NA
ATOM     55  C   UNL A   1      44.956  32.449  28.312  1.00  0.00     0.031 C 
ATOM     56  C   UNL A   1      41.135  34.106  31.755  1.00  0.00     0.029 A 
ATOM     57  C   UNL A   1      41.243  34.376  30.401  1.00  0.00     0.049 A 
ATOM     58  H   UNL A   1      39.721  34.459  28.958  1.00  0.00     0.167 HD
ATOM     59  C   UNL A   1      43.246  33.706  29.235  1.00  0.00     0.074 A 
ATOM     60  C   UNL A   1      44.370  33.658  28.318  1.00  0.00     0.031 C 
ATOM     61  C   UNL A   1      42.333  34.685  29.492  1.00  0.00     0.037 A 
BRANCH  48  62
ATOM     62  C   UNL A   1      36.443  33.825  30.756  1.00  0.00     0.058 A 
ATOM     63  C   UNL A   1      35.542  34.238  29.750  1.00  0.00     0.135 A 
ATOM     64  C   UNL A   1      35.991  34.061  32.071  1.00  0.00     0.135 A 
ATOM     65  F   UNL A   1      35.793  34.012  28.452  1.00  0.00    -0.206 F 
ATOM     66  C   UNL A   1      34.350  34.917  30.023  1.00  0.00     0.059 A 
ATOM     67  C   UNL A   1      34.837  34.791  32.369  1.00  0.00     0.059 A 
ATOM     68  F   UNL A   1      36.611  33.542  33.134  1.00  0.00    -0.206 F 
ATOM     69  C   UNL A   1      34.022  35.222  31.336  1.00  0.00     0.060 A 
BRANCH  69  70
ATOM     70  S   UNL A   1      32.524  36.164  31.676  1.00  0.00     0.124 S 
ATOM     71  O   UNL A   1      32.048  36.478  30.332  1.00  0.00    -0.237 OA
ATOM     72  O   UNL A   1      31.724  35.202  32.425  1.00  0.00    -0.237 OA
ATOM     73  O   UNL A   1      33.007  37.309  32.443  1.00  0.00    -0.744 OA
ENDBRANCH  69  70
ENDBRANCH  48  62
BRANCH  49  74
ATOM     74  C   UNL A   1      44.785  29.211  28.581  1.00  0.00     0.058 A 
ATOM     75  C   UNL A   1      44.186  29.205  27.304  1.00  0.00     0.135 A 
ATOM     76  C   UNL A   1      46.026  28.577  28.715  1.00  0.00     0.135 A 
ATOM     77  F   UNL A   1      42.989  29.787  27.119  1.00  0.00    -0.206 F 
ATOM     78  C   UNL A   1      44.862  28.745  26.179  1.00  0.00     0.059 A 
ATOM     79  C   UNL A   1      46.715  28.093  27.603  1.00  0.00     0.059 A 
ATOM     80  F   UNL A   1      46.646  28.546  29.903  1.00  0.00    -0.206 F 
ATOM     81  C   UNL A   1      46.154  28.248  26.333  1.00  0.00     0.060 A 
BRANCH  81  82
ATOM     82  S   UNL A   1      47.142  27.979  24.843  1.00  0.00     0.124 S 
ATOM     83  O   UNL A   1      48.498  28.161  25.344  1.00  0.00    -0.237 OA
ATOM     84  O   UNL A   1      46.779  26.609  24.483  1.00  0.00    -0.237 OA
ATOM     85  O   UNL A   1      46.658  29.010  23.932  1.00  0.00    -0.744 OA
ENDBRANCH  81  82
ENDBRANCH  49  74
BRANCH  61  86
ATOM     86  C   UNL A   1      42.423  36.038  28.860  1.00  0.00     0.058 A 
ATOM     87  C   UNL A   1      41.809  36.309  27.627  1.00  0.00     0.135 A 
ATOM     88  C   UNL A   1      43.221  37.059  29.410  1.00  0.00     0.135 A 
ATOM     89  F   UNL A   1      41.050  35.378  27.025  1.00  0.00    -0.206 F 
ATOM     90  C   UNL A   1      41.961  37.534  26.982  1.00  0.00     0.059 A 
ATOM     91  C   UNL A   1      43.422  38.275  28.765  1.00  0.00     0.059 A 
ATOM     92  F   UNL A   1      43.810  36.907  30.606  1.00  0.00    -0.206 F 
ATOM     93  C   UNL A   1      42.771  38.511  27.558  1.00  0.00     0.060 A 
BRANCH  93  94
ATOM     94  S   UNL A   1      42.997  40.089  26.716  1.00  0.00     0.124 S 
ATOM     95  O   UNL A   1      43.162  41.027  27.823  1.00  0.00    -0.237 OA
ATOM     96  O   UNL A   1      44.198  39.828  25.929  1.00  0.00    -0.237 OA
ATOM     97  O   UNL A   1      41.762  40.242  25.954  1.00  0.00    -0.744 OA
ENDBRANCH  93  94
ENDBRANCH  61  86
ENDBRANCH  35  36
ENDBRANCH  27  30
ENDBRANCH  25  26
ENDBRANCH  24  25
ENDBRANCH   1  24
TORSDOF 18
ENDMDL
MODEL 3
REMARK VINA RESULT:     -12.9      5.142     11.485
REMARK SMILES Cc1cc(NC(=O)CCC(=O)NCCCCNC(=O)c2ccc(-c3c4nc(c(-c5c(F)cc(S(=O)(=O)[O-])cc5F)c5ccc([nH]5)c(-c5c(F)cc(S(=O)(=O)[O-])cc5F)c5nc(c(-c6c(F)cc(S(=O)(=O)[O-])cc6F)c6ccc3[nH]6)C=C5)C=C4)cc2)ccc1S(=O)(=O)[O-]
REMARK SMILES IDX 14 1 13 2 12 3 10 4 11 5 9 7 8 8 6 9 5 10 7 12 4 13 1 14
REMARK SMILES IDX 2 15 3 16 88 17 87 18 86 19 89 20 90 21 91 22 92 23 15 24
REMARK SMILES IDX 16 25 17 26 18 27 19 29 20 30 21 31 85 32 22 33 84 34 23 35
REMARK SMILES IDX 24 36 25 37 78 38 26 39 83 40 77 41 79 42 27 43 82 44 76 45
REMARK SMILES IDX 75 46 28 48 62 49 41 50 61 51 42 52 45 53 60 54 80 55 43 56
REMARK SMILES IDX 44 57 59 59 81 60 46 61 29 62 30 63 39 64 31 65 32 66 38 67
REMARK SMILES IDX 40 68 33 69 34 70 35 71 36 72 37 73 63 74 64 75 73 76 65 77
REMARK SMILES IDX 66 78 72 79 74 80 67 81 68 82 69 83 70 84 71 85 47 86 48 87
REMARK SMILES IDX 57 88 49 89 50 90 56 91 58 92 51 93 52 94 53 95 54 96 55 97
REMARK H PARENT 12 6 5 11 17 28 79 47 45 58
REMARK Flexibility Score: inf
ROOT
ATOM      1  C   UNL A   1      36.091  22.476  24.992  1.00  0.00     0.023 C 
ENDROOT
BRANCH   1   2
ATOM      2  C   UNL A   1      35.932  23.011  23.567  1.00  0.00     0.116 C 
BRANCH   2   3
ATOM      3  N   UNL A   1      34.557  23.267  23.158  1.00  0.00    -0.356 N 
ATOM      4  C   UNL A   1      33.780  24.373  23.299  1.00  0.00     0.220 C 
ATOM      5  O   UNL A   1      32.722  24.441  22.670  1.00  0.00    -0.275 OA
ATOM      6  H   UNL A   1      34.118  22.513  22.701  1.00  0.00     0.163 HD
BRANCH   4   7
ATOM      7  C   UNL A   1      34.200  25.504  24.205  1.00  0.00     0.110 C 
BRANCH   7   8
ATOM      8  C   UNL A   1      33.896  25.346  25.691  1.00  0.00     0.110 C 
BRANCH   8   9
ATOM      9  C   UNL A   1      32.641  24.593  26.083  1.00  0.00     0.224 C 
ATOM     10  N   UNL A   1      31.379  24.991  25.758  1.00  0.00    -0.326 N 
ATOM     11  H   UNL A   1      30.692  24.312  25.947  1.00  0.00     0.169 HD
ATOM     12  O   UNL A   1      32.758  23.531  26.707  1.00  0.00    -0.275 OA
BRANCH  10  13
ATOM     13  C   UNL A   1      30.858  26.172  25.208  1.00  0.00     0.041 A 
ATOM     14  C   UNL A   1      31.624  29.871  25.150  1.00  0.00     0.046 C 
ATOM     15  C   UNL A   1      30.893  28.601  24.822  1.00  0.00    -0.032 A 
ATOM     16  C   UNL A   1      31.325  27.448  25.517  1.00  0.00     0.030 A 
ATOM     17  C   UNL A   1      29.936  28.437  23.811  1.00  0.00     0.057 A 
ATOM     18  C   UNL A   1      29.374  27.169  23.579  1.00  0.00     0.021 A 
ATOM     19  C   UNL A   1      29.819  26.051  24.287  1.00  0.00     0.027 A 
BRANCH  17  20
ATOM     20  S   UNL A   1      29.347  29.726  22.736  1.00  0.00     0.124 S 
ATOM     21  O   UNL A   1      29.110  30.905  23.536  1.00  0.00    -0.237 OA
ATOM     22  O   UNL A   1      30.226  29.766  21.584  1.00  0.00    -0.237 OA
ATOM     23  O   UNL A   1      27.907  29.301  22.159  1.00  0.00    -0.744 OA
ENDBRANCH  17  20
ENDBRANCH  10  13
ENDBRANCH   8   9
ENDBRANCH   7   8
ENDBRANCH   4   7
ENDBRANCH   2   3
ENDBRANCH   1   2
BRANCH   1  24
ATOM     24  C   UNL A   1      37.525  22.246  25.468  1.00  0.00     0.023 C 
BRANCH  24  25
ATOM     25  C   UNL A   1      38.185  23.483  26.053  1.00  0.00     0.116 C 
BRANCH  25  26
ATOM     26  N   UNL A   1      39.559  23.256  26.486  1.00  0.00    -0.352 N 
ATOM     27  C   UNL A   1      40.467  24.220  26.888  1.00  0.00     0.251 C 
ATOM     28  H   UNL A   1      39.872  22.323  26.493  1.00  0.00     0.163 HD
ATOM     29  O   UNL A   1      41.665  24.007  27.022  1.00  0.00    -0.269 OA
BRANCH  27  30
ATOM     30  C   UNL A   1      39.883  25.513  27.287  1.00  0.00     0.039 A 
ATOM     31  C   UNL A   1      40.301  26.635  26.560  1.00  0.00     0.014 A 
ATOM     32  C   UNL A   1      39.309  25.630  28.550  1.00  0.00     0.014 A 
ATOM     33  C   UNL A   1      40.317  27.877  27.182  1.00  0.00     0.010 A 
ATOM     34  C   UNL A   1      39.411  26.848  29.194  1.00  0.00     0.010 A 
ATOM     35  C   UNL A   1      39.962  27.956  28.527  1.00  0.00    -0.014 A 
BRANCH  35  36
ATOM     36  C   UNL A   1      40.140  29.155  29.338  1.00  0.00     0.031 A 
ATOM     37  C   UNL A   1      39.092  30.196  29.302  1.00  0.00     0.074 A 
ATOM     38  C   UNL A   1      41.200  29.274  30.166  1.00  0.00     0.049 A 
ATOM     39  N   UNL A   1      39.204  31.383  29.789  1.00  0.00    -0.248 NA
ATOM     40  C   UNL A   1      37.813  29.967  28.641  1.00  0.00     0.031 C 
ATOM     41  C   UNL A   1      41.380  30.241  31.244  1.00  0.00     0.029 A 
ATOM     42  N   UNL A   1      42.454  28.669  30.029  1.00  0.00    -0.354 N 
ATOM     43  C   UNL A   1      37.973  31.998  29.713  1.00  0.00     0.074 A 
ATOM     44  C   UNL A   1      37.150  31.079  28.963  1.00  0.00     0.031 C 
ATOM     45  C   UNL A   1      42.694  30.381  31.485  1.00  0.00     0.029 A 
ATOM     46  C   UNL A   1      43.402  29.624  30.469  1.00  0.00     0.049 A 
ATOM     47  H   UNL A   1      42.640  27.762  29.695  1.00  0.00     0.167 HD
ATOM     48  C   UNL A   1      37.779  33.176  30.373  1.00  0.00     0.037 A 
ATOM     49  C   UNL A   1      44.302  30.150  29.585  1.00  0.00     0.037 A 
ATOM     50  C   UNL A   1      39.052  33.711  30.860  1.00  0.00     0.049 A 
ATOM     51  C   UNL A   1      44.130  31.636  29.324  1.00  0.00     0.074 A 
ATOM     52  C   UNL A   1      39.744  33.651  32.058  1.00  0.00     0.029 A 
ATOM     53  N   UNL A   1      39.956  34.175  29.922  1.00  0.00    -0.354 N 
ATOM     54  N   UNL A   1      43.199  32.382  29.856  1.00  0.00    -0.248 NA
ATOM     55  C   UNL A   1      44.960  32.382  28.376  1.00  0.00     0.031 C 
ATOM     56  C   UNL A   1      41.104  33.999  31.799  1.00  0.00     0.029 A 
ATOM     57  C   UNL A   1      41.228  34.289  30.451  1.00  0.00     0.049 A 
ATOM     58  H   UNL A   1      39.723  34.397  28.991  1.00  0.00     0.167 HD
ATOM     59  C   UNL A   1      43.242  33.630  29.297  1.00  0.00     0.074 A 
ATOM     60  C   UNL A   1      44.377  33.593  28.393  1.00  0.00     0.031 C 
ATOM     61  C   UNL A   1      42.329  34.607  29.559  1.00  0.00     0.037 A 
BRANCH  48  62
ATOM     62  C   UNL A   1      36.422  33.745  30.743  1.00  0.00     0.058 A 
ATOM     63  C   UNL A   1      35.541  34.191  29.733  1.00  0.00     0.135 A 
ATOM     64  C   UNL A   1      35.950  33.949  32.056  1.00  0.00     0.135 A 
ATOM     65  F   UNL A   1      35.812  33.998  28.434  1.00  0.00    -0.206 F 
ATOM     66  C   UNL A   1      34.348  34.869  30.005  1.00  0.00     0.059 A 
ATOM     67  C   UNL A   1      34.795  34.678  32.354  1.00  0.00     0.059 A 
ATOM     68  F   UNL A   1      36.550  33.397  33.115  1.00  0.00    -0.206 F 
ATOM     69  C   UNL A   1      34.001  35.142  31.321  1.00  0.00     0.060 A 
BRANCH  69  70
ATOM     70  S   UNL A   1      32.503  36.083  31.660  1.00  0.00     0.124 S 
ATOM     71  O   UNL A   1      33.018  37.216  32.423  1.00  0.00    -0.237 OA
ATOM     72  O   UNL A   1      32.023  36.386  30.316  1.00  0.00    -0.237 OA
ATOM     73  O   UNL A   1      31.679  35.150  32.423  1.00  0.00    -0.744 OA
ENDBRANCH  69  70
ENDBRANCH  48  62
BRANCH  49  74
ATOM     74  C   UNL A   1      44.777  29.141  28.595  1.00  0.00     0.058 A 
ATOM     75  C   UNL A   1      44.177  29.141  27.318  1.00  0.00     0.135 A 
ATOM     76  C   UNL A   1      46.024  28.517  28.723  1.00  0.00     0.135 A 
ATOM     77  F   UNL A   1      42.975  29.714  27.140  1.00  0.00    -0.206 F 
ATOM     78  C   UNL A   1      44.857  28.698  26.189  1.00  0.00     0.059 A 
ATOM     79  C   UNL A   1      46.716  28.049  27.606  1.00  0.00     0.059 A 
ATOM     80  F   UNL A   1      46.645  28.481  29.910  1.00  0.00    -0.206 F 
ATOM     81  C   UNL A   1      46.153  28.211  26.338  1.00  0.00     0.060 A 
BRANCH  81  82
ATOM     82  S   UNL A   1      47.143  27.965  24.845  1.00  0.00     0.124 S 
ATOM     83  O   UNL A   1      46.649  29.028  23.978  1.00  0.00    -0.237 OA
ATOM     84  O   UNL A   1      48.503  28.144  25.352  1.00  0.00    -0.237 OA
ATOM     85  O   UNL A   1      46.804  26.606  24.440  1.00  0.00    -0.744 OA
ENDBRANCH  81  82
ENDBRANCH  49  74
BRANCH  61  86
ATOM     86  C   UNL A   1      42.430  35.970  28.947  1.00  0.00     0.058 A 
ATOM     87  C   UNL A   1      41.831  36.260  27.712  1.00  0.00     0.135 A 
ATOM     88  C   UNL A   1      43.224  36.980  29.521  1.00  0.00     0.135 A 
ATOM     89  F   UNL A   1      41.077  35.341  27.087  1.00  0.00    -0.206 F 
ATOM     90  C   UNL A   1      41.993  37.495  27.087  1.00  0.00     0.059 A 
ATOM     91  C   UNL A   1      43.435  38.205  28.897  1.00  0.00     0.059 A 
ATOM     92  F   UNL A   1      43.799  36.809  30.723  1.00  0.00    -0.206 F 
ATOM     93  C   UNL A   1      42.799  38.460  27.686  1.00  0.00     0.060 A 
BRANCH  93  94
ATOM     94  S   UNL A   1      43.039  40.050  26.870  1.00  0.00     0.124 S 
ATOM     95  O   UNL A   1      44.273  39.845  26.116  1.00  0.00    -0.237 OA
ATOM     96  O   UNL A   1      41.822  40.151  26.071  1.00  0.00    -0.237 OA
ATOM     97  O   UNL A   1      43.143  40.987  27.984  1.00  0.00    -0.744 OA
ENDBRANCH  93  94
ENDBRANCH  61  86
ENDBRANCH  35  36
ENDBRANCH  27  30
ENDBRANCH  25  26
ENDBRANCH  24  25
ENDBRANCH   1  24
TORSDOF 18
ENDMDL
