MODEL 1
REMARK VINA RESULT:     -13.4      0.000      0.000
REMARK SMILES C[C@@]1(Oc2c[nH]c3ccc(Br)c(Cl)c23)O[C@@H](C(=O)NCCCCNC(=O)c2ccc(-c3c4nc(c(-c5c(F)cc(S(=O)(=O)[O-])cc5F)c5ccc([nH]5)c(-c5c(F)cc(S(=O)(=O)[O-])cc5F)c5nc(c(-c6c(F)cc(S(=O)(=O)[O-])cc6F)c6ccc3[nH]6)C=C5)C=C4)cc2)[C@@](C)(O)[C@@](C)(O)[C@@]1(C)O
REMARK SMILES IDX 22 1 21 2 20 3 19 4 17 5 18 6 16 8 1 9 2 10 15 11 99 12
REMARK SMILES IDX 96 13 100 14 93 15 97 16 94 17 3 18 4 19 5 20 14 21 6 22
REMARK SMILES IDX 7 23 12 24 8 26 10 27 13 28 9 29 11 30 101 31 98 33 95 35
REMARK SMILES IDX 23 37 24 38 25 39 26 41 27 42 28 43 92 44 29 45 91 46 30 47
REMARK SMILES IDX 31 48 32 49 85 50 33 51 90 52 84 53 86 54 34 55 89 56 83 57
REMARK SMILES IDX 82 58 35 60 69 61 48 62 68 63 49 64 52 65 67 66 87 67 50 68
REMARK SMILES IDX 51 69 66 71 88 72 53 73 36 74 37 75 46 76 38 77 39 78 45 79
REMARK SMILES IDX 47 80 40 81 41 82 42 83 43 84 44 85 70 86 71 87 80 88 72 89
REMARK SMILES IDX 73 90 79 91 81 92 74 93 75 94 76 95 77 96 78 97 54 98 55 99
REMARK SMILES IDX 64 100 56 101 57 102 63 103 65 104 58 105 59 106 60 107
REMARK SMILES IDX 61 108 62 109
REMARK H PARENT 19 7 6 25 101 32 98 34 95 36 24 40 86 59 52 70
REMARK Flexibility Score: inf
ROOT
ATOM      1  C   UNL A   1      38.607  22.616  26.154  1.00  0.00     0.023 C 
ENDROOT
BRANCH   1   2
ATOM      2  C   UNL A   1      38.484  21.289  25.408  1.00  0.00     0.023 C 
BRANCH   2   3
ATOM      3  C   UNL A   1      37.094  20.904  24.865  1.00  0.00     0.116 C 
BRANCH   3   4
ATOM      4  N   UNL A   1      35.948  20.945  25.808  1.00  0.00    -0.354 N 
ATOM      5  C   UNL A   1      34.604  21.230  25.762  1.00  0.00     0.252 C 
ATOM      6  O   UNL A   1      34.012  20.900  26.808  1.00  0.00    -0.272 OA
ATOM      7  H   UNL A   1      36.228  20.700  26.720  1.00  0.00     0.163 HD
BRANCH   5   8
ATOM      8  C   UNL A   1      33.711  22.027  24.638  1.00  0.00     0.246 C 
ATOM      9  C   UNL A   1      35.396  24.282  25.513  1.00  0.00     0.094 C 
ATOM     10  C   UNL A   1      33.955  24.393  24.945  1.00  0.00     0.240 C 
ATOM     11  O   UNL A   1      33.968  23.314  24.002  1.00  0.00    -0.322 OA
ATOM     12  C   UNL A   1      32.484  24.319  25.708  1.00  0.00     0.158 C 
ATOM     13  C   UNL A   1      31.831  22.890  26.044  1.00  0.00     0.128 C 
ATOM     14  C   UNL A   1      31.412  24.956  24.775  1.00  0.00     0.053 C 
ATOM     15  C   UNL A   1      32.172  21.879  24.925  1.00  0.00     0.129 C 
ATOM     16  C   UNL A   1      30.336  22.944  26.501  1.00  0.00     0.049 C 
ATOM     17  C   UNL A   1      31.358  22.046  23.630  1.00  0.00     0.049 C 
BRANCH  10  18
ATOM     18  O   UNL A   1      34.240  25.804  24.581  1.00  0.00    -0.457 OA
BRANCH  18  19
ATOM     19  C   UNL A   1      33.561  26.473  23.648  1.00  0.00     0.150 A 
ATOM     20  C   UNL A   1      33.341  26.057  22.364  1.00  0.00     0.130 A 
ATOM     21  C   UNL A   1      33.013  27.782  23.816  1.00  0.00     0.061 A 
ATOM     22  N   UNL A   1      32.511  26.989  21.794  1.00  0.00    -0.358 N 
ATOM     23  C   UNL A   1      32.150  27.939  22.731  1.00  0.00     0.051 A 
ATOM     24  C   UNL A   1      32.973  28.737  24.857  1.00  0.00     0.068 A 
ATOM     25  H   UNL A   1      32.215  26.983  20.854  1.00  0.00     0.166 HD
ATOM     26  C   UNL A   1      31.127  28.893  22.727  1.00  0.00     0.028 A 
ATOM     27  C   UNL A   1      31.899  29.627  24.922  1.00  0.00     0.037 A 
ATOM     28  Cl  UNL A   1      34.196  28.603  26.052  1.00  0.00    -0.082 Cl
ATOM     29  C   UNL A   1      30.972  29.678  23.879  1.00  0.00     0.019 A 
ATOM     30  Br  UNL A   1      31.553  30.676  26.470  1.00  0.00    -0.049 Br
ENDBRANCH  18  19
ENDBRANCH  10  18
BRANCH  12  31
ATOM     31  O   UNL A   1      32.514  25.092  26.919  1.00  0.00    -0.380 OA
ATOM     32  H   UNL A   1      31.981  25.895  26.802  1.00  0.00     0.211 HD
ENDBRANCH  12  31
BRANCH  13  33
ATOM     33  O   UNL A   1      32.401  22.307  27.217  1.00  0.00    -0.384 OA
ATOM     34  H   UNL A   1      33.359  22.213  27.098  1.00  0.00     0.211 HD
ENDBRANCH  13  33
BRANCH  15  35
ATOM     35  O   UNL A   1      31.815  20.550  25.375  1.00  0.00    -0.384 OA
ATOM     36  H   UNL A   1      32.432  19.905  24.996  1.00  0.00     0.211 HD
ENDBRANCH  15  35
ENDBRANCH   5   8
ENDBRANCH   3   4
ENDBRANCH   2   3
ENDBRANCH   1   2
BRANCH   1  37
ATOM     37  C   UNL A   1      39.792  22.749  27.102  1.00  0.00     0.116 C 
BRANCH  37  38
ATOM     38  N   UNL A   1      41.064  22.276  26.572  1.00  0.00    -0.352 N 
ATOM     39  C   UNL A   1      42.083  23.088  26.088  1.00  0.00     0.251 C 
ATOM     40  H   UNL A   1      41.214  21.302  26.554  1.00  0.00     0.163 HD
ATOM     41  O   UNL A   1      42.926  22.674  25.322  1.00  0.00    -0.269 OA
BRANCH  39  42
ATOM     42  C   UNL A   1      42.095  24.491  26.554  1.00  0.00     0.039 A 
ATOM     43  C   UNL A   1      41.508  25.505  25.797  1.00  0.00     0.014 A 
ATOM     44  C   UNL A   1      42.630  24.746  27.820  1.00  0.00     0.014 A 
ATOM     45  C   UNL A   1      41.387  26.773  26.363  1.00  0.00     0.010 A 
ATOM     46  C   UNL A   1      42.432  25.977  28.409  1.00  0.00     0.010 A 
ATOM     47  C   UNL A   1      41.829  26.999  27.679  1.00  0.00    -0.014 A 
BRANCH  47  48
ATOM     48  C   UNL A   1      41.559  28.285  28.318  1.00  0.00     0.031 A 
ATOM     49  C   UNL A   1      42.599  29.334  28.114  1.00  0.00     0.074 A 
ATOM     50  C   UNL A   1      40.392  28.596  28.920  1.00  0.00     0.049 A 
ATOM     51  N   UNL A   1      43.450  29.786  28.977  1.00  0.00    -0.248 NA
ATOM     52  C   UNL A   1      42.800  29.861  26.755  1.00  0.00     0.031 C 
ATOM     53  C   UNL A   1      39.145  27.824  28.945  1.00  0.00     0.029 A 
ATOM     54  N   UNL A   1      40.058  29.735  29.586  1.00  0.00    -0.354 N 
ATOM     55  C   UNL A   1      44.144  30.812  28.339  1.00  0.00     0.074 A 
ATOM     56  C   UNL A   1      43.829  30.693  26.939  1.00  0.00     0.031 C 
ATOM     57  C   UNL A   1      38.141  28.602  29.410  1.00  0.00     0.029 A 
ATOM     58  C   UNL A   1      38.706  29.854  29.879  1.00  0.00     0.049 A 
ATOM     59  H   UNL A   1      40.720  30.419  29.838  1.00  0.00     0.167 HD
ATOM     60  C   UNL A   1      44.742  31.812  29.048  1.00  0.00     0.037 A 
ATOM     61  C   UNL A   1      38.092  30.907  30.468  1.00  0.00     0.037 A 
ATOM     62  C   UNL A   1      44.840  31.468  30.444  1.00  0.00     0.049 A 
ATOM     63  C   UNL A   1      39.134  31.633  31.236  1.00  0.00     0.074 A 
ATOM     64  C   UNL A   1      45.473  30.481  31.172  1.00  0.00     0.029 A 
ATOM     65  N   UNL A   1      43.900  32.014  31.283  1.00  0.00    -0.354 N 
ATOM     66  N   UNL A   1      39.767  31.133  32.264  1.00  0.00    -0.248 NA
ATOM     67  C   UNL A   1      39.767  32.786  30.618  1.00  0.00     0.031 C 
ATOM     68  C   UNL A   1      44.580  30.179  32.244  1.00  0.00     0.029 A 
ATOM     69  C   UNL A   1      43.480  31.034  32.143  1.00  0.00     0.049 A 
ATOM     70  H   UNL A   1      43.583  32.945  31.269  1.00  0.00     0.167 HD
ATOM     71  C   UNL A   1      41.058  31.627  32.161  1.00  0.00     0.074 A 
ATOM     72  C   UNL A   1      40.964  32.727  31.207  1.00  0.00     0.031 C 
ATOM     73  C   UNL A   1      42.125  30.928  32.650  1.00  0.00     0.037 A 
BRANCH  60  74
ATOM     74  C   UNL A   1      44.891  33.248  28.582  1.00  0.00     0.058 A 
ATOM     75  C   UNL A   1      46.184  33.806  28.472  1.00  0.00     0.135 A 
ATOM     76  C   UNL A   1      43.828  34.176  28.533  1.00  0.00     0.135 A 
ATOM     77  F   UNL A   1      47.274  33.021  28.501  1.00  0.00    -0.206 F 
ATOM     78  C   UNL A   1      46.407  35.183  28.414  1.00  0.00     0.059 A 
ATOM     79  C   UNL A   1      44.026  35.549  28.422  1.00  0.00     0.059 A 
ATOM     80  F   UNL A   1      42.552  33.811  28.690  1.00  0.00    -0.206 F 
ATOM     81  C   UNL A   1      45.318  36.048  28.411  1.00  0.00     0.060 A 
BRANCH  81  82
ATOM     82  S   UNL A   1      45.601  37.826  28.464  1.00  0.00     0.124 S 
ATOM     83  O   UNL A   1      45.928  38.025  29.871  1.00  0.00    -0.237 OA
ATOM     84  O   UNL A   1      46.703  37.985  27.521  1.00  0.00    -0.237 OA
ATOM     85  O   UNL A   1      44.324  38.382  28.027  1.00  0.00    -0.744 OA
ENDBRANCH  81  82
ENDBRANCH  60  74
BRANCH  61  86
ATOM     86  C   UNL A   1      36.787  31.517  30.101  1.00  0.00     0.058 A 
ATOM     87  C   UNL A   1      35.960  32.096  31.080  1.00  0.00     0.135 A 
ATOM     88  C   UNL A   1      36.466  31.817  28.760  1.00  0.00     0.135 A 
ATOM     89  F   UNL A   1      36.199  31.872  32.382  1.00  0.00    -0.206 F 
ATOM     90  C   UNL A   1      34.921  32.973  30.755  1.00  0.00     0.059 A 
ATOM     91  C   UNL A   1      35.430  32.682  28.412  1.00  0.00     0.059 A 
ATOM     92  F   UNL A   1      37.214  31.350  27.749  1.00  0.00    -0.206 F 
ATOM     93  C   UNL A   1      34.681  33.282  29.417  1.00  0.00     0.060 A 
BRANCH  93  94
ATOM     94  S   UNL A   1      33.464  34.556  29.006  1.00  0.00     0.124 S 
ATOM     95  O   UNL A   1      34.303  35.603  28.436  1.00  0.00    -0.237 OA
ATOM     96  O   UNL A   1      32.592  33.855  28.069  1.00  0.00    -0.237 OA
ATOM     97  O   UNL A   1      32.858  34.875  30.297  1.00  0.00    -0.744 OA
ENDBRANCH  93  94
ENDBRANCH  61  86
BRANCH  73  98
ATOM     98  C   UNL A   1      41.866  29.816  33.634  1.00  0.00     0.058 A 
ATOM     99  C   UNL A   1      41.629  28.474  33.289  1.00  0.00     0.135 A 
ATOM    100  C   UNL A   1      42.036  30.105  34.998  1.00  0.00     0.135 A 
ATOM    101  F   UNL A   1      41.538  28.096  32.006  1.00  0.00    -0.206 F 
ATOM    102  C   UNL A   1      41.552  27.469  34.259  1.00  0.00     0.059 A 
ATOM    103  C   UNL A   1      41.993  29.117  35.977  1.00  0.00     0.059 A 
ATOM    104  F   UNL A   1      42.316  31.360  35.388  1.00  0.00    -0.206 F 
ATOM    105  C   UNL A   1      41.745  27.800  35.600  1.00  0.00     0.060 A 
BRANCH 105 106
ATOM    106  S   UNL A   1      41.748  26.487  36.842  1.00  0.00     0.124 S 
ATOM    107  O   UNL A   1      40.474  26.700  37.520  1.00  0.00    -0.237 OA
ATOM    108  O   UNL A   1      41.840  25.280  36.026  1.00  0.00    -0.237 OA
ATOM    109  O   UNL A   1      42.935  26.777  37.644  1.00  0.00    -0.744 OA
ENDBRANCH 105 106
ENDBRANCH  73  98
ENDBRANCH  47  48
ENDBRANCH  39  42
ENDBRANCH  37  38
ENDBRANCH   1  37
TORSDOF 19
ENDMDL
MODEL 2
REMARK VINA RESULT:     -13.2      1.012      1.438
REMARK SMILES C[C@@]1(Oc2c[nH]c3ccc(Br)c(Cl)c23)O[C@@H](C(=O)NCCCCNC(=O)c2ccc(-c3c4nc(c(-c5c(F)cc(S(=O)(=O)[O-])cc5F)c5ccc([nH]5)c(-c5c(F)cc(S(=O)(=O)[O-])cc5F)c5nc(c(-c6c(F)cc(S(=O)(=O)[O-])cc6F)c6ccc3[nH]6)C=C5)C=C4)cc2)[C@@](C)(O)[C@@](C)(O)[C@@]1(C)O
REMARK SMILES IDX 22 1 21 2 20 3 19 4 17 5 18 6 16 8 1 9 2 10 15 11 99 12
REMARK SMILES IDX 96 13 100 14 93 15 97 16 94 17 3 18 4 19 5 20 14 21 6 22
REMARK SMILES IDX 7 23 12 24 8 26 10 27 13 28 9 29 11 30 101 31 98 33 95 35
REMARK SMILES IDX 23 37 24 38 25 39 26 41 27 42 28 43 92 44 29 45 91 46 30 47
REMARK SMILES IDX 31 48 32 49 85 50 33 51 90 52 84 53 86 54 34 55 89 56 83 57
REMARK SMILES IDX 82 58 35 60 69 61 48 62 68 63 49 64 52 65 67 66 87 67 50 68
REMARK SMILES IDX 51 69 66 71 88 72 53 73 36 74 37 75 46 76 38 77 39 78 45 79
REMARK SMILES IDX 47 80 40 81 41 82 42 83 43 84 44 85 70 86 71 87 80 88 72 89
REMARK SMILES IDX 73 90 79 91 81 92 74 93 75 94 76 95 77 96 78 97 54 98 55 99
REMARK SMILES IDX 64 100 56 101 57 102 63 103 65 104 58 105 59 106 60 107
REMARK SMILES IDX 61 108 62 109
REMARK H PARENT 19 7 6 25 101 32 98 34 95 36 24 40 86 59 52 70
REMARK Flexibility Score: inf
ROOT
ATOM      1  C   UNL A   1      38.778  22.819  26.383  1.00  0.00     0.023 C 
ENDROOT
BRANCH   1   2
ATOM      2  C   UNL A   1      38.471  21.564  25.567  1.00  0.00     0.023 C 
BRANCH   2   3
ATOM      3  C   UNL A   1      37.203  21.578  24.691  1.00  0.00     0.116 C 
BRANCH   3   4
ATOM      4  N   UNL A   1      36.305  20.398  24.755  1.00  0.00    -0.354 N 
ATOM      5  C   UNL A   1      34.970  20.126  24.574  1.00  0.00     0.252 C 
ATOM      6  O   UNL A   1      34.735  18.903  24.527  1.00  0.00    -0.272 OA
ATOM      7  H   UNL A   1      36.804  19.583  24.993  1.00  0.00     0.163 HD
BRANCH   5   8
ATOM      8  C   UNL A   1      33.664  21.121  24.542  1.00  0.00     0.246 C 
ATOM      9  C   UNL A   1      35.626  22.963  23.339  1.00  0.00     0.094 C 
ATOM     10  C   UNL A   1      34.381  23.379  24.167  1.00  0.00     0.240 C 
ATOM     11  O   UNL A   1      33.461  22.350  23.782  1.00  0.00    -0.322 OA
ATOM     12  C   UNL A   1      34.188  23.579  25.803  1.00  0.00     0.158 C 
ATOM     13  C   UNL A   1      33.905  22.301  26.734  1.00  0.00     0.128 C 
ATOM     14  C   UNL A   1      32.918  24.447  26.047  1.00  0.00     0.053 C 
ATOM     15  C   UNL A   1      33.031  21.277  25.974  1.00  0.00     0.129 C 
ATOM     16  C   UNL A   1      33.465  22.640  28.196  1.00  0.00     0.049 C 
ATOM     17  C   UNL A   1      31.540  21.645  25.873  1.00  0.00     0.049 C 
BRANCH  10  18
ATOM     18  O   UNL A   1      34.435  24.715  23.521  1.00  0.00    -0.457 OA
BRANCH  18  19
ATOM     19  C   UNL A   1      33.439  25.218  22.791  1.00  0.00     0.150 A 
ATOM     20  C   UNL A   1      32.931  24.673  21.644  1.00  0.00     0.130 A 
ATOM     21  C   UNL A   1      32.785  26.462  23.047  1.00  0.00     0.061 A 
ATOM     22  N   UNL A   1      31.856  25.449  21.291  1.00  0.00    -0.358 N 
ATOM     23  C   UNL A   1      31.641  26.424  22.248  1.00  0.00     0.051 A 
ATOM     24  C   UNL A   1      32.904  27.490  24.010  1.00  0.00     0.068 A 
ATOM     25  H   UNL A   1      31.315  25.329  20.477  1.00  0.00     0.166 HD
ATOM     26  C   UNL A   1      30.536  27.247  22.492  1.00  0.00     0.028 A 
ATOM     27  C   UNL A   1      31.778  28.248  24.338  1.00  0.00     0.037 A 
ATOM     28  Cl  UNL A   1      34.416  27.601  24.810  1.00  0.00    -0.082 Cl
ATOM     29  C   UNL A   1      30.601  28.101  23.601  1.00  0.00     0.019 A 
ATOM     30  Br  UNL A   1      31.734  29.374  25.869  1.00  0.00    -0.049 Br
ENDBRANCH  18  19
ENDBRANCH  10  18
BRANCH  12  31
ATOM     31  O   UNL A   1      35.308  24.292  26.351  1.00  0.00    -0.380 OA
ATOM     32  H   UNL A   1      35.085  25.234  26.428  1.00  0.00     0.211 HD
ENDBRANCH  12  31
BRANCH  13  33
ATOM     33  O   UNL A   1      35.103  21.578  27.024  1.00  0.00    -0.384 OA
ATOM     34  H   UNL A   1      34.888  20.646  27.185  1.00  0.00     0.211 HD
ENDBRANCH  13  33
BRANCH  15  35
ATOM     35  O   UNL A   1      33.020  20.034  26.714  1.00  0.00    -0.384 OA
ATOM     36  H   UNL A   1      32.421  20.116  27.473  1.00  0.00     0.211 HD
ENDBRANCH  15  35
ENDBRANCH   5   8
ENDBRANCH   3   4
ENDBRANCH   2   3
ENDBRANCH   1   2
BRANCH   1  37
ATOM     37  C   UNL A   1      40.043  22.777  27.231  1.00  0.00     0.116 C 
BRANCH  37  38
ATOM     38  N   UNL A   1      41.258  22.419  26.511  1.00  0.00    -0.352 N 
ATOM     39  C   UNL A   1      42.163  23.322  25.965  1.00  0.00     0.251 C 
ATOM     40  H   UNL A   1      41.455  21.460  26.403  1.00  0.00     0.163 HD
ATOM     41  O   UNL A   1      42.920  23.013  25.070  1.00  0.00    -0.269 OA
BRANCH  39  42
ATOM     42  C   UNL A   1      42.162  24.689  26.528  1.00  0.00     0.039 A 
ATOM     43  C   UNL A   1      41.511  25.736  25.874  1.00  0.00     0.014 A 
ATOM     44  C   UNL A   1      42.754  24.872  27.781  1.00  0.00     0.014 A 
ATOM     45  C   UNL A   1      41.387  26.957  26.533  1.00  0.00     0.010 A 
ATOM     46  C   UNL A   1      42.554  26.052  28.465  1.00  0.00     0.010 A 
ATOM     47  C   UNL A   1      41.889  27.105  27.839  1.00  0.00    -0.014 A 
BRANCH  47  48
ATOM     48  C   UNL A   1      41.619  28.335  28.580  1.00  0.00     0.031 A 
ATOM     49  C   UNL A   1      42.679  29.380  28.496  1.00  0.00     0.074 A 
ATOM     50  C   UNL A   1      40.440  28.610  29.176  1.00  0.00     0.049 A 
ATOM     51  N   UNL A   1      43.510  29.742  29.418  1.00  0.00    -0.248 NA
ATOM     52  C   UNL A   1      42.925  30.020  27.194  1.00  0.00     0.031 C 
ATOM     53  C   UNL A   1      39.182  27.859  29.100  1.00  0.00     0.029 A 
ATOM     54  N   UNL A   1      40.103  29.694  29.928  1.00  0.00    -0.354 N 
ATOM     55  C   UNL A   1      44.236  30.809  28.890  1.00  0.00     0.074 A 
ATOM     56  C   UNL A   1      43.959  30.816  27.477  1.00  0.00     0.031 C 
ATOM     57  C   UNL A   1      38.176  28.610  29.603  1.00  0.00     0.029 A 
ATOM     58  C   UNL A   1      38.745  29.807  30.194  1.00  0.00     0.049 A 
ATOM     59  H   UNL A   1      40.767  30.342  30.257  1.00  0.00     0.167 HD
ATOM     60  C   UNL A   1      44.827  31.734  29.699  1.00  0.00     0.037 A 
ATOM     61  C   UNL A   1      38.128  30.816  30.856  1.00  0.00     0.037 A 
ATOM     62  C   UNL A   1      44.881  31.268  31.062  1.00  0.00     0.049 A 
ATOM     63  C   UNL A   1      39.159  31.456  31.712  1.00  0.00     0.074 A 
ATOM     64  C   UNL A   1      45.481  30.212  31.718  1.00  0.00     0.029 A 
ATOM     65  N   UNL A   1      43.925  31.755  31.920  1.00  0.00    -0.354 N 
ATOM     66  N   UNL A   1      39.755  30.859  32.709  1.00  0.00    -0.248 NA
ATOM     67  C   UNL A   1      39.824  32.648  31.214  1.00  0.00     0.031 C 
ATOM     68  C   UNL A   1      44.553  29.833  32.735  1.00  0.00     0.029 A 
ATOM     69  C   UNL A   1      43.468  30.711  32.680  1.00  0.00     0.049 A 
ATOM     70  H   UNL A   1      43.622  32.689  31.978  1.00  0.00     0.167 HD
ATOM     71  C   UNL A   1      41.055  31.338  32.684  1.00  0.00     0.074 A 
ATOM     72  C   UNL A   1      41.003  32.519  31.827  1.00  0.00     0.031 C 
ATOM     73  C   UNL A   1      42.099  30.583  33.139  1.00  0.00     0.037 A 
BRANCH  60  74
ATOM     74  C   UNL A   1      45.008  33.202  29.364  1.00  0.00     0.058 A 
ATOM     75  C   UNL A   1      43.876  33.976  29.024  1.00  0.00     0.135 A 
ATOM     76  C   UNL A   1      46.254  33.796  29.069  1.00  0.00     0.135 A 
ATOM     77  F   UNL A   1      42.636  33.517  29.260  1.00  0.00    -0.206 F 
ATOM     78  C   UNL A   1      43.973  35.200  28.359  1.00  0.00     0.059 A 
ATOM     79  C   UNL A   1      46.375  35.039  28.455  1.00  0.00     0.059 A 
ATOM     80  F   UNL A   1      47.414  33.162  29.270  1.00  0.00    -0.206 F 
ATOM     81  C   UNL A   1      45.231  35.713  28.060  1.00  0.00     0.060 A 
BRANCH  81  82
ATOM     82  S   UNL A   1      45.362  37.226  27.092  1.00  0.00     0.124 S 
ATOM     83  O   UNL A   1      45.915  38.152  28.075  1.00  0.00    -0.237 OA
ATOM     84  O   UNL A   1      46.262  36.820  26.017  1.00  0.00    -0.237 OA
ATOM     85  O   UNL A   1      43.985  37.484  26.685  1.00  0.00    -0.744 OA
ENDBRANCH  81  82
ENDBRANCH  60  74
BRANCH  61  86
ATOM     86  C   UNL A   1      36.842  31.476  30.508  1.00  0.00     0.058 A 
ATOM     87  C   UNL A   1      35.946  31.883  31.513  1.00  0.00     0.135 A 
ATOM     88  C   UNL A   1      36.607  31.992  29.217  1.00  0.00     0.135 A 
ATOM     89  F   UNL A   1      36.103  31.448  32.773  1.00  0.00    -0.206 F 
ATOM     90  C   UNL A   1      34.920  32.801  31.269  1.00  0.00     0.059 A 
ATOM     91  C   UNL A   1      35.585  32.902  28.948  1.00  0.00     0.059 A 
ATOM     92  F   UNL A   1      37.425  31.700  28.195  1.00  0.00    -0.206 F 
ATOM     93  C   UNL A   1      34.764  33.326  29.987  1.00  0.00     0.060 A 
BRANCH  93  94
ATOM     94  S   UNL A   1      33.560  34.648  29.711  1.00  0.00     0.124 S 
ATOM     95  O   UNL A   1      34.394  35.703  29.146  1.00  0.00    -0.237 OA
ATOM     96  O   UNL A   1      32.618  34.018  28.792  1.00  0.00    -0.237 OA
ATOM     97  O   UNL A   1      33.038  34.916  31.049  1.00  0.00    -0.744 OA
ENDBRANCH  93  94
ENDBRANCH  61  86
BRANCH  73  98
ATOM     98  C   UNL A   1      41.797  29.394  34.016  1.00  0.00     0.058 A 
ATOM     99  C   UNL A   1      41.595  28.083  33.552  1.00  0.00     0.135 A 
ATOM    100  C   UNL A   1      41.887  29.575  35.406  1.00  0.00     0.135 A 
ATOM    101  F   UNL A   1      41.580  27.808  32.240  1.00  0.00    -0.206 F 
ATOM    102  C   UNL A   1      41.474  27.004  34.433  1.00  0.00     0.059 A 
ATOM    103  C   UNL A   1      41.800  28.511  36.299  1.00  0.00     0.059 A 
ATOM    104  F   UNL A   1      42.131  30.796  35.909  1.00  0.00    -0.206 F 
ATOM    105  C   UNL A   1      41.588  27.227  35.806  1.00  0.00     0.060 A 
BRANCH 105 106
ATOM    106  S   UNL A   1      41.536  25.819  36.937  1.00  0.00     0.124 S 
ATOM    107  O   UNL A   1      40.294  26.054  37.666  1.00  0.00    -0.237 OA
ATOM    108  O   UNL A   1      41.531  24.680  36.025  1.00  0.00    -0.237 OA
ATOM    109  O   UNL A   1      42.757  25.969  37.726  1.00  0.00    -0.744 OA
ENDBRANCH 105 106
ENDBRANCH  73  98
ENDBRANCH  47  48
ENDBRANCH  39  42
ENDBRANCH  37  38
ENDBRANCH   1  37
TORSDOF 19
ENDMDL
MODEL 3
REMARK VINA RESULT:     -13.1      2.263      2.903
REMARK SMILES C[C@@]1(Oc2c[nH]c3ccc(Br)c(Cl)c23)O[C@@H](C(=O)NCCCCNC(=O)c2ccc(-c3c4nc(c(-c5c(F)cc(S(=O)(=O)[O-])cc5F)c5ccc([nH]5)c(-c5c(F)cc(S(=O)(=O)[O-])cc5F)c5nc(c(-c6c(F)cc(S(=O)(=O)[O-])cc6F)c6ccc3[nH]6)C=C5)C=C4)cc2)[C@@](C)(O)[C@@](C)(O)[C@@]1(C)O
REMARK SMILES IDX 22 1 21 2 20 3 19 4 17 5 18 6 16 8 1 9 2 10 15 11 99 12
REMARK SMILES IDX 96 13 100 14 93 15 97 16 94 17 3 18 4 19 5 20 14 21 6 22
REMARK SMILES IDX 7 23 12 24 8 26 10 27 13 28 9 29 11 30 101 31 98 33 95 35
REMARK SMILES IDX 23 37 24 38 25 39 26 41 27 42 28 43 92 44 29 45 91 46 30 47
REMARK SMILES IDX 31 48 32 49 85 50 33 51 90 52 84 53 86 54 34 55 89 56 83 57
REMARK SMILES IDX 82 58 35 60 69 61 48 62 68 63 49 64 52 65 67 66 87 67 50 68
REMARK SMILES IDX 51 69 66 71 88 72 53 73 36 74 37 75 46 76 38 77 39 78 45 79
REMARK SMILES IDX 47 80 40 81 41 82 42 83 43 84 44 85 70 86 71 87 80 88 72 89
REMARK SMILES IDX 73 90 79 91 81 92 74 93 75 94 76 95 77 96 78 97 54 98 55 99
REMARK SMILES IDX 64 100 56 101 57 102 63 103 65 104 58 105 59 106 60 107
REMARK SMILES IDX 61 108 62 109
REMARK H PARENT 19 7 6 25 101 32 98 34 95 36 24 40 86 59 52 70
REMARK Flexibility Score: inf
ROOT
ATOM      1  C   UNL A   1      39.627  20.292  25.744  1.00  0.00     0.023 C 
ENDROOT
BRANCH   1   2
ATOM      2  C   UNL A   1      38.882  21.622  25.836  1.00  0.00     0.023 C 
BRANCH   2   3
ATOM      3  C   UNL A   1      37.482  21.699  25.197  1.00  0.00     0.116 C 
BRANCH   3   4
ATOM      4  N   UNL A   1      36.700  20.442  25.091  1.00  0.00    -0.354 N 
ATOM      5  C   UNL A   1      35.436  20.061  24.708  1.00  0.00     0.252 C 
ATOM      6  O   UNL A   1      35.328  18.825  24.587  1.00  0.00    -0.272 OA
ATOM      7  H   UNL A   1      37.234  19.665  25.373  1.00  0.00     0.163 HD
BRANCH   5   8
ATOM      8  C   UNL A   1      34.060  20.936  24.516  1.00  0.00     0.246 C 
ATOM      9  C   UNL A   1      35.980  22.955  23.551  1.00  0.00     0.094 C 
ATOM     10  C   UNL A   1      34.612  23.252  24.223  1.00  0.00     0.240 C 
ATOM     11  O   UNL A   1      33.841  22.148  23.734  1.00  0.00    -0.322 OA
ATOM     12  C   UNL A   1      34.208  23.421  25.823  1.00  0.00     0.158 C 
ATOM     13  C   UNL A   1      33.931  22.116  26.718  1.00  0.00     0.128 C 
ATOM     14  C   UNL A   1      32.846  24.171  25.911  1.00  0.00     0.053 C 
ATOM     15  C   UNL A   1      33.250  21.024  25.861  1.00  0.00     0.129 C 
ATOM     16  C   UNL A   1      33.291  22.403  28.116  1.00  0.00     0.049 C 
ATOM     17  C   UNL A   1      31.754  21.259  25.582  1.00  0.00     0.049 C 
BRANCH  10  18
ATOM     18  O   UNL A   1      34.624  24.592  23.584  1.00  0.00    -0.457 OA
BRANCH  18  19
ATOM     19  C   UNL A   1      33.621  25.058  22.838  1.00  0.00     0.150 A 
ATOM     20  C   UNL A   1      33.157  24.499  21.680  1.00  0.00     0.130 A 
ATOM     21  C   UNL A   1      32.913  26.274  23.088  1.00  0.00     0.061 A 
ATOM     22  N   UNL A   1      32.057  25.232  21.311  1.00  0.00    -0.358 N 
ATOM     23  C   UNL A   1      31.786  26.194  22.268  1.00  0.00     0.051 A 
ATOM     24  C   UNL A   1      32.974  27.300  24.057  1.00  0.00     0.068 A 
ATOM     25  H   UNL A   1      31.536  25.095  20.487  1.00  0.00     0.166 HD
ATOM     26  C   UNL A   1      30.645  26.970  22.495  1.00  0.00     0.028 A 
ATOM     27  C   UNL A   1      31.812  28.012  24.368  1.00  0.00     0.037 A 
ATOM     28  Cl  UNL A   1      34.465  27.469  24.885  1.00  0.00    -0.082 Cl
ATOM     29  C   UNL A   1      30.655  27.821  23.610  1.00  0.00     0.019 A 
ATOM     30  Br  UNL A   1      31.696  29.127  25.902  1.00  0.00    -0.049 Br
ENDBRANCH  18  19
ENDBRANCH  10  18
BRANCH  12  31
ATOM     31  O   UNL A   1      35.187  24.227  26.499  1.00  0.00    -0.380 OA
ATOM     32  H   UNL A   1      35.959  24.347  25.924  1.00  0.00     0.211 HD
ENDBRANCH  12  31
BRANCH  13  33
ATOM     33  O   UNL A   1      35.146  21.500  27.152  1.00  0.00    -0.384 OA
ATOM     34  H   UNL A   1      35.002  20.548  27.268  1.00  0.00     0.211 HD
ENDBRANCH  13  33
BRANCH  15  35
ATOM     35  O   UNL A   1      33.260  19.780  26.599  1.00  0.00    -0.384 OA
ATOM     36  H   UNL A   1      32.635  19.836  27.338  1.00  0.00     0.211 HD
ENDBRANCH  15  35
ENDBRANCH   5   8
ENDBRANCH   3   4
ENDBRANCH   2   3
ENDBRANCH   1   2
BRANCH   1  37
ATOM     37  C   UNL A   1      40.716  20.056  26.783  1.00  0.00     0.116 C 
BRANCH  37  38
ATOM     38  N   UNL A   1      41.942  19.460  26.269  1.00  0.00    -0.352 N 
ATOM     39  C   UNL A   1      43.001  20.163  25.708  1.00  0.00     0.251 C 
ATOM     40  H   UNL A   1      42.028  18.481  26.324  1.00  0.00     0.163 HD
ATOM     41  O   UNL A   1      43.798  19.637  24.961  1.00  0.00    -0.269 OA
BRANCH  39  42
ATOM     42  C   UNL A   1      43.115  21.594  26.063  1.00  0.00     0.039 A 
ATOM     43  C   UNL A   1      42.686  22.590  25.185  1.00  0.00     0.014 A 
ATOM     44  C   UNL A   1      43.578  21.906  27.344  1.00  0.00     0.014 A 
ATOM     45  C   UNL A   1      42.648  23.906  25.639  1.00  0.00     0.010 A 
ATOM     46  C   UNL A   1      43.457  23.195  27.819  1.00  0.00     0.010 A 
ATOM     47  C   UNL A   1      43.011  24.202  26.966  1.00  0.00    -0.014 A 
BRANCH  47  48
ATOM     48  C   UNL A   1      42.821  25.557  27.479  1.00  0.00     0.031 A 
ATOM     49  C   UNL A   1      43.866  26.544  27.086  1.00  0.00     0.074 A 
ATOM     50  C   UNL A   1      41.712  25.965  28.130  1.00  0.00     0.049 A 
ATOM     51  N   UNL A   1      44.791  27.060  27.829  1.00  0.00    -0.248 NA
ATOM     52  C   UNL A   1      43.973  26.918  25.667  1.00  0.00     0.031 C 
ATOM     53  C   UNL A   1      40.452  25.240  28.331  1.00  0.00     0.029 A 
ATOM     54  N   UNL A   1      41.456  27.180  28.690  1.00  0.00    -0.354 N 
ATOM     55  C   UNL A   1      45.457  27.990  27.033  1.00  0.00     0.074 A 
ATOM     56  C   UNL A   1      45.031  27.732  25.682  1.00  0.00     0.031 C 
ATOM     57  C   UNL A   1      39.506  26.094  28.782  1.00  0.00     0.029 A 
ATOM     58  C   UNL A   1      40.134  27.370  29.069  1.00  0.00     0.049 A 
ATOM     59  H   UNL A   1      42.151  27.865  28.817  1.00  0.00     0.167 HD
ATOM     60  C   UNL A   1      46.130  29.040  27.583  1.00  0.00     0.037 A 
ATOM     61  C   UNL A   1      39.591  28.499  29.584  1.00  0.00     0.037 A 
ATOM     62  C   UNL A   1      46.328  28.844  28.997  1.00  0.00     0.049 A 
ATOM     63  C   UNL A   1      40.706  29.270  30.189  1.00  0.00     0.074 A 
ATOM     64  C   UNL A   1      46.994  27.921  29.779  1.00  0.00     0.029 A 
ATOM     65  N   UNL A   1      45.469  29.505  29.840  1.00  0.00    -0.354 N 
ATOM     66  N   UNL A   1      41.405  28.863  31.215  1.00  0.00    -0.248 NA
ATOM     67  C   UNL A   1      41.315  30.330  29.404  1.00  0.00     0.031 C 
ATOM     68  C   UNL A   1      46.179  27.763  30.941  1.00  0.00     0.029 A 
ATOM     69  C   UNL A   1      45.094  28.636  30.830  1.00  0.00     0.049 A 
ATOM     70  H   UNL A   1      45.173  30.440  29.748  1.00  0.00     0.167 HD
ATOM     71  C   UNL A   1      42.695  29.302  30.963  1.00  0.00     0.074 A 
ATOM     72  C   UNL A   1      42.553  30.297  29.905  1.00  0.00     0.031 C 
ATOM     73  C   UNL A   1      43.781  28.627  31.445  1.00  0.00     0.037 A 
BRANCH  60  74
ATOM     74  C   UNL A   1      46.275  30.413  26.954  1.00  0.00     0.058 A 
ATOM     75  C   UNL A   1      47.549  31.024  26.919  1.00  0.00     0.135 A 
ATOM     76  C   UNL A   1      45.190  31.268  26.666  1.00  0.00     0.135 A 
ATOM     77  F   UNL A   1      48.659  30.310  27.172  1.00  0.00    -0.206 F 
ATOM     78  C   UNL A   1      47.722  32.393  26.708  1.00  0.00     0.059 A 
ATOM     79  C   UNL A   1      45.344  32.626  26.400  1.00  0.00     0.059 A 
ATOM     80  F   UNL A   1      43.919  30.856  26.724  1.00  0.00    -0.206 F 
ATOM     81  C   UNL A   1      46.607  33.189  26.470  1.00  0.00     0.060 A 
BRANCH  81  82
ATOM     82  S   UNL A   1      46.809  34.973  26.323  1.00  0.00     0.124 S 
ATOM     83  O   UNL A   1      47.502  35.082  25.044  1.00  0.00    -0.237 OA
ATOM     84  O   UNL A   1      45.426  35.437  26.345  1.00  0.00    -0.237 OA
ATOM     85  O   UNL A   1      47.598  35.319  27.501  1.00  0.00    -0.744 OA
ENDBRANCH  81  82
ENDBRANCH  60  74
BRANCH  61  86
ATOM     86  C   UNL A   1      38.276  29.107  29.251  1.00  0.00     0.058 A 
ATOM     87  C   UNL A   1      37.349  29.418  30.261  1.00  0.00     0.135 A 
ATOM     88  C   UNL A   1      38.027  29.671  27.982  1.00  0.00     0.135 A 
ATOM     89  F   UNL A   1      37.515  28.933  31.502  1.00  0.00    -0.206 F 
ATOM     90  C   UNL A   1      36.278  30.292  30.047  1.00  0.00     0.059 A 
ATOM     91  C   UNL A   1      36.961  30.538  27.743  1.00  0.00     0.059 A 
ATOM     92  F   UNL A   1      38.870  29.471  26.959  1.00  0.00    -0.206 F 
ATOM     93  C   UNL A   1      36.108  30.868  28.789  1.00  0.00     0.060 A 
BRANCH  93  94
ATOM     94  S   UNL A   1      34.839  32.137  28.561  1.00  0.00     0.124 S 
ATOM     95  O   UNL A   1      35.507  33.074  27.665  1.00  0.00    -0.237 OA
ATOM     96  O   UNL A   1      33.741  31.370  27.980  1.00  0.00    -0.237 OA
ATOM     97  O   UNL A   1      34.603  32.629  29.916  1.00  0.00    -0.744 OA
ENDBRANCH  93  94
ENDBRANCH  61  86
BRANCH  73  98
ATOM     98  C   UNL A   1      43.573  27.635  32.561  1.00  0.00     0.058 A 
ATOM     99  C   UNL A   1      43.615  26.237  32.413  1.00  0.00     0.135 A 
ATOM    100  C   UNL A   1      43.497  28.139  33.869  1.00  0.00     0.135 A 
ATOM    101  F   UNL A   1      43.772  25.674  31.208  1.00  0.00    -0.206 F 
ATOM    102  C   UNL A   1      43.569  25.382  33.518  1.00  0.00     0.059 A 
ATOM    103  C   UNL A   1      43.480  27.306  34.985  1.00  0.00     0.059 A 
ATOM    104  F   UNL A   1      43.506  29.465  34.079  1.00  0.00    -0.206 F 
ATOM    105  C   UNL A   1      43.511  25.926  34.802  1.00  0.00     0.060 A 
BRANCH 105 106
ATOM    106  S   UNL A   1      43.557  24.824  36.232  1.00  0.00     0.124 S 
ATOM    107  O   UNL A   1      44.520  25.489  37.104  1.00  0.00    -0.237 OA
ATOM    108  O   UNL A   1      42.171  24.839  36.688  1.00  0.00    -0.237 OA
ATOM    109  O   UNL A   1      44.004  23.551  35.669  1.00  0.00    -0.744 OA
ENDBRANCH 105 106
ENDBRANCH  73  98
ENDBRANCH  47  48
ENDBRANCH  39  42
ENDBRANCH  37  38
ENDBRANCH   1  37
TORSDOF 19
ENDMDL
