MODEL 1
REMARK VINA RESULT:     -11.8      0.000      0.000
REMARK SMILES Cc1cc(N(C)C2CCC(C)(C)CC2)cc(C(=O)NCCCCNC(=O)c2ccc(-c3c4nc(c(-c5c(F)cc(S(=O)(=O)[O-])cc5F)c5ccc([nH]5)c(-c5c(F)cc(S(=O)(=O)[O-])cc5F)c5nc(c(-c6c(F)cc(S(=O)(=O)[O-])cc6F)c6ccc3[nH]6)C=C5)C=C4)cc2)c1N
REMARK SMILES IDX 22 1 21 2 20 3 19 4 17 5 18 6 16 8 1 9 2 10 3 11 93 12 4 13
REMARK SMILES IDX 15 14 94 15 5 18 6 19 7 20 8 21 14 22 9 23 13 24 10 25 11 26
REMARK SMILES IDX 12 27 23 28 24 29 25 30 26 32 27 33 28 34 92 35 29 36 91 37
REMARK SMILES IDX 30 38 31 39 32 40 85 41 33 42 90 43 84 44 86 45 34 46 89 47
REMARK SMILES IDX 83 48 82 49 35 51 69 52 48 53 68 54 49 55 52 56 67 57 87 58
REMARK SMILES IDX 50 59 51 60 66 62 88 63 53 64 36 65 37 66 46 67 38 68 39 69
REMARK SMILES IDX 45 70 47 71 40 72 41 73 42 74 43 75 44 76 70 77 71 78 80 79
REMARK SMILES IDX 72 80 73 81 79 82 81 83 74 84 75 85 76 86 77 87 78 88 54 89
REMARK SMILES IDX 55 90 64 91 56 92 57 93 63 94 65 95 58 96 59 97 60 98 61 99
REMARK SMILES IDX 62 100
REMARK H PARENT 19 7 94 16 94 17 24 31 86 50 52 61
REMARK Flexibility Score: inf
ROOT
ATOM      1  C   UNL A   1      32.933  28.330  25.960  1.00  0.00     0.023 C 
ENDROOT
BRANCH   1   2
ATOM      2  C   UNL A   1      33.941  28.319  24.810  1.00  0.00     0.023 C 
BRANCH   2   3
ATOM      3  C   UNL A   1      33.429  29.022  23.551  1.00  0.00     0.116 C 
BRANCH   3   4
ATOM      4  N   UNL A   1      33.653  28.162  22.406  1.00  0.00    -0.352 N 
ATOM      5  C   UNL A   1      33.254  26.869  22.164  1.00  0.00     0.253 C 
ATOM      6  O   UNL A   1      33.685  26.313  21.153  1.00  0.00    -0.269 OA
ATOM      7  H   UNL A   1      34.179  28.572  21.682  1.00  0.00     0.163 HD
BRANCH   5   8
ATOM      8  C   UNL A   1      32.219  26.211  23.014  1.00  0.00     0.065 A 
ATOM      9  C   UNL A   1      28.586  26.664  24.015  1.00  0.00     0.046 C 
ATOM     10  C   UNL A   1      30.054  26.338  24.033  1.00  0.00    -0.025 A 
ATOM     11  C   UNL A   1      30.531  25.479  25.035  1.00  0.00     0.031 A 
ATOM     12  C   UNL A   1      30.915  26.740  23.011  1.00  0.00     0.047 A 
ATOM     13  C   UNL A   1      31.655  24.680  24.845  1.00  0.00     0.038 A 
ATOM     14  C   UNL A   1      32.513  25.098  23.823  1.00  0.00     0.042 A 
BRANCH  12  15
ATOM     15  N   UNL A   1      30.463  27.571  21.995  1.00  0.00    -0.398 N 
ATOM     16  H   UNL A   1      31.039  28.295  21.657  1.00  0.00     0.156 HD
ATOM     17  H   UNL A   1      29.566  27.436  21.611  1.00  0.00     0.156 HD
ENDBRANCH  12  15
BRANCH  13  18
ATOM     18  N   UNL A   1      31.876  23.506  25.559  1.00  0.00    -0.372 N 
ATOM     19  C   UNL A   1      31.008  22.366  25.234  1.00  0.00     0.144 C 
BRANCH  18  20
ATOM     20  C   UNL A   1      33.062  23.210  26.435  1.00  0.00     0.082 C 
ATOM     21  C   UNL A   1      33.831  21.908  26.210  1.00  0.00     0.025 C 
ATOM     22  C   UNL A   1      34.129  24.332  26.414  1.00  0.00     0.025 C 
ATOM     23  C   UNL A   1      34.464  21.881  24.825  1.00  0.00     0.008 C 
ATOM     24  C   UNL A   1      35.308  24.225  25.414  1.00  0.00     0.008 C 
ATOM     25  C   UNL A   1      35.629  22.864  24.729  1.00  0.00    -0.035 C 
ATOM     26  C   UNL A   1      35.932  23.117  23.235  1.00  0.00     0.011 C 
ATOM     27  C   UNL A   1      36.867  22.182  25.345  1.00  0.00     0.011 C 
ENDBRANCH  18  20
ENDBRANCH  13  18
ENDBRANCH   5   8
ENDBRANCH   3   4
ENDBRANCH   2   3
ENDBRANCH   1   2
BRANCH   1  28
ATOM     28  C   UNL A   1      33.555  28.572  27.327  1.00  0.00     0.116 C 
BRANCH  28  29
ATOM     29  N   UNL A   1      33.506  29.970  27.734  1.00  0.00    -0.352 N 
ATOM     30  C   UNL A   1      34.522  30.713  28.283  1.00  0.00     0.251 C 
ATOM     31  H   UNL A   1      32.648  30.435  27.599  1.00  0.00     0.163 HD
ATOM     32  O   UNL A   1      34.327  31.856  28.684  1.00  0.00    -0.269 OA
BRANCH  30  33
ATOM     33  C   UNL A   1      35.842  30.073  28.419  1.00  0.00     0.039 A 
ATOM     34  C   UNL A   1      36.729  30.124  27.344  1.00  0.00     0.014 A 
ATOM     35  C   UNL A   1      36.233  29.552  29.656  1.00  0.00     0.014 A 
ATOM     36  C   UNL A   1      38.046  29.708  27.533  1.00  0.00     0.010 A 
ATOM     37  C   UNL A   1      37.563  29.206  29.858  1.00  0.00     0.010 A 
ATOM     38  C   UNL A   1      38.482  29.287  28.800  1.00  0.00    -0.014 A 
BRANCH  38  39
ATOM     39  C   UNL A   1      39.903  28.944  29.047  1.00  0.00     0.031 A 
ATOM     40  C   UNL A   1      40.836  29.980  29.605  1.00  0.00     0.074 A 
ATOM     41  C   UNL A   1      40.363  27.726  28.700  1.00  0.00     0.049 A 
ATOM     42  N   UNL A   1      42.120  29.894  29.834  1.00  0.00    -0.248 NA
ATOM     43  C   UNL A   1      40.256  31.296  29.917  1.00  0.00     0.031 C 
ATOM     44  C   UNL A   1      39.562  26.659  28.092  1.00  0.00     0.029 A 
ATOM     45  N   UNL A   1      41.618  27.181  28.797  1.00  0.00    -0.354 N 
ATOM     46  C   UNL A   1      42.503  31.144  30.304  1.00  0.00     0.074 A 
ATOM     47  C   UNL A   1      41.328  31.987  30.274  1.00  0.00     0.031 C 
ATOM     48  C   UNL A   1      40.340  25.583  27.892  1.00  0.00     0.029 A 
ATOM     49  C   UNL A   1      41.699  25.892  28.326  1.00  0.00     0.049 A 
ATOM     50  H   UNL A   1      42.388  27.668  29.169  1.00  0.00     0.167 HD
ATOM     51  C   UNL A   1      43.719  31.545  30.745  1.00  0.00     0.037 A 
ATOM     52  C   UNL A   1      42.752  25.055  28.249  1.00  0.00     0.037 A 
ATOM     53  C   UNL A   1      44.877  30.691  30.793  1.00  0.00     0.049 A 
ATOM     54  C   UNL A   1      44.090  25.517  28.758  1.00  0.00     0.074 A 
ATOM     55  C   UNL A   1      46.139  30.980  31.279  1.00  0.00     0.029 A 
ATOM     56  N   UNL A   1      44.913  29.381  30.337  1.00  0.00    -0.354 N 
ATOM     57  N   UNL A   1      44.420  26.680  29.267  1.00  0.00    -0.248 NA
ATOM     58  C   UNL A   1      45.197  24.554  28.690  1.00  0.00     0.031 C 
ATOM     59  C   UNL A   1      46.950  29.857  31.081  1.00  0.00     0.029 A 
ATOM     60  C   UNL A   1      46.181  28.853  30.514  1.00  0.00     0.049 A 
ATOM     61  H   UNL A   1      44.150  28.898  29.945  1.00  0.00     0.167 HD
ATOM     62  C   UNL A   1      45.765  26.580  29.605  1.00  0.00     0.074 A 
ATOM     63  C   UNL A   1      46.184  25.239  29.251  1.00  0.00     0.031 C 
ATOM     64  C   UNL A   1      46.578  27.512  30.162  1.00  0.00     0.037 A 
BRANCH  51  65
ATOM     65  C   UNL A   1      43.851  32.967  31.213  1.00  0.00     0.058 A 
ATOM     66  C   UNL A   1      44.160  34.009  30.322  1.00  0.00     0.135 A 
ATOM     67  C   UNL A   1      43.649  33.299  32.562  1.00  0.00     0.135 A 
ATOM     68  F   UNL A   1      44.380  33.746  29.024  1.00  0.00    -0.206 F 
ATOM     69  C   UNL A   1      44.302  35.322  30.759  1.00  0.00     0.059 A 
ATOM     70  C   UNL A   1      43.756  34.610  33.016  1.00  0.00     0.059 A 
ATOM     71  F   UNL A   1      43.352  32.343  33.456  1.00  0.00    -0.206 F 
ATOM     72  C   UNL A   1      44.101  35.612  32.109  1.00  0.00     0.060 A 
BRANCH  72  73
ATOM     73  S   UNL A   1      44.293  37.320  32.661  1.00  0.00     0.124 S 
ATOM     74  O   UNL A   1      43.141  37.468  33.546  1.00  0.00    -0.237 OA
ATOM     75  O   UNL A   1      45.596  37.292  33.317  1.00  0.00    -0.237 OA
ATOM     76  O   UNL A   1      44.233  38.087  31.421  1.00  0.00    -0.744 OA
ENDBRANCH  72  73
ENDBRANCH  51  65
BRANCH  52  77
ATOM     77  C   UNL A   1      42.572  23.685  27.700  1.00  0.00     0.058 A 
ATOM     78  C   UNL A   1      42.620  23.450  26.318  1.00  0.00     0.135 A 
ATOM     79  C   UNL A   1      42.374  22.581  28.545  1.00  0.00     0.135 A 
ATOM     80  F   UNL A   1      42.801  24.475  25.471  1.00  0.00    -0.206 F 
ATOM     81  C   UNL A   1      42.467  22.173  25.790  1.00  0.00     0.059 A 
ATOM     82  C   UNL A   1      42.243  21.290  28.041  1.00  0.00     0.059 A 
ATOM     83  F   UNL A   1      42.339  22.750  29.876  1.00  0.00    -0.206 F 
ATOM     84  C   UNL A   1      42.281  21.097  26.661  1.00  0.00     0.060 A 
BRANCH  84  85
ATOM     85  S   UNL A   1      42.143  19.435  25.967  1.00  0.00     0.124 S 
ATOM     86  O   UNL A   1      42.996  19.538  24.789  1.00  0.00    -0.237 OA
ATOM     87  O   UNL A   1      42.652  18.606  27.055  1.00  0.00    -0.237 OA
ATOM     88  O   UNL A   1      40.713  19.301  25.704  1.00  0.00    -0.744 OA
ENDBRANCH  84  85
ENDBRANCH  52  77
BRANCH  64  89
ATOM     89  C   UNL A   1      47.996  27.107  30.454  1.00  0.00     0.058 A 
ATOM     90  C   UNL A   1      49.036  27.358  29.547  1.00  0.00     0.135 A 
ATOM     91  C   UNL A   1      48.323  26.514  31.684  1.00  0.00     0.135 A 
ATOM     92  F   UNL A   1      48.775  27.917  28.355  1.00  0.00    -0.206 F 
ATOM     93  C   UNL A   1      50.352  27.016  29.842  1.00  0.00     0.059 A 
ATOM     94  C   UNL A   1      49.635  26.188  32.010  1.00  0.00     0.059 A 
ATOM     95  F   UNL A   1      47.365  26.263  32.591  1.00  0.00    -0.206 F 
ATOM     96  C   UNL A   1      50.642  26.433  31.078  1.00  0.00     0.060 A 
BRANCH  96  97
ATOM     97  S   UNL A   1      52.358  26.031  31.464  1.00  0.00     0.124 S 
ATOM     98  O   UNL A   1      52.696  27.073  32.427  1.00  0.00    -0.237 OA
ATOM     99  O   UNL A   1      52.251  24.678  32.003  1.00  0.00    -0.237 OA
ATOM    100  O   UNL A   1      53.029  26.131  30.170  1.00  0.00    -0.744 OA
ENDBRANCH  96  97
ENDBRANCH  64  89
ENDBRANCH  38  39
ENDBRANCH  30  33
ENDBRANCH  28  29
ENDBRANCH   1  28
TORSDOF 17
ENDMDL
MODEL 2
REMARK VINA RESULT:     -11.7      2.730      3.721
REMARK SMILES Cc1cc(N(C)C2CCC(C)(C)CC2)cc(C(=O)NCCCCNC(=O)c2ccc(-c3c4nc(c(-c5c(F)cc(S(=O)(=O)[O-])cc5F)c5ccc([nH]5)c(-c5c(F)cc(S(=O)(=O)[O-])cc5F)c5nc(c(-c6c(F)cc(S(=O)(=O)[O-])cc6F)c6ccc3[nH]6)C=C5)C=C4)cc2)c1N
REMARK SMILES IDX 22 1 21 2 20 3 19 4 17 5 18 6 16 8 1 9 2 10 3 11 93 12 4 13
REMARK SMILES IDX 15 14 94 15 5 18 6 19 7 20 8 21 14 22 9 23 13 24 10 25 11 26
REMARK SMILES IDX 12 27 23 28 24 29 25 30 26 32 27 33 28 34 92 35 29 36 91 37
REMARK SMILES IDX 30 38 31 39 32 40 85 41 33 42 90 43 84 44 86 45 34 46 89 47
REMARK SMILES IDX 83 48 82 49 35 51 69 52 48 53 68 54 49 55 52 56 67 57 87 58
REMARK SMILES IDX 50 59 51 60 66 62 88 63 53 64 36 65 37 66 46 67 38 68 39 69
REMARK SMILES IDX 45 70 47 71 40 72 41 73 42 74 43 75 44 76 70 77 71 78 80 79
REMARK SMILES IDX 72 80 73 81 79 82 81 83 74 84 75 85 76 86 77 87 78 88 54 89
REMARK SMILES IDX 55 90 64 91 56 92 57 93 63 94 65 95 58 96 59 97 60 98 61 99
REMARK SMILES IDX 62 100
REMARK H PARENT 19 7 94 16 94 17 24 31 86 50 52 61
REMARK Flexibility Score: inf
ROOT
ATOM      1  C   UNL A   1      34.925  31.502  27.637  1.00  0.00     0.023 C 
ENDROOT
BRANCH   1   2
ATOM      2  C   UNL A   1      34.256  30.138  27.823  1.00  0.00     0.023 C 
BRANCH   2   3
ATOM      3  C   UNL A   1      34.683  29.109  26.775  1.00  0.00     0.116 C 
BRANCH   3   4
ATOM      4  N   UNL A   1      33.929  29.333  25.558  1.00  0.00    -0.352 N 
ATOM      5  C   UNL A   1      33.419  28.443  24.642  1.00  0.00     0.253 C 
ATOM      6  O   UNL A   1      32.917  28.899  23.615  1.00  0.00    -0.269 OA
ATOM      7  H   UNL A   1      33.752  30.280  25.353  1.00  0.00     0.163 HD
BRANCH   5   8
ATOM      8  C   UNL A   1      33.342  26.984  24.948  1.00  0.00     0.065 A 
ATOM      9  C   UNL A   1      30.933  24.471  26.458  1.00  0.00     0.046 C 
ATOM     10  C   UNL A   1      32.182  25.204  26.056  1.00  0.00    -0.025 A 
ATOM     11  C   UNL A   1      33.407  24.523  26.136  1.00  0.00     0.031 A 
ATOM     12  C   UNL A   1      32.142  26.473  25.476  1.00  0.00     0.047 A 
ATOM     13  C   UNL A   1      34.481  24.842  25.308  1.00  0.00     0.038 A 
ATOM     14  C   UNL A   1      34.432  26.118  24.739  1.00  0.00     0.042 A 
BRANCH  12  15
ATOM     15  N   UNL A   1      30.941  27.159  25.364  1.00  0.00    -0.398 N 
ATOM     16  H   UNL A   1      30.558  27.613  26.150  1.00  0.00     0.156 HD
ATOM     17  H   UNL A   1      30.472  27.192  24.499  1.00  0.00     0.156 HD
ENDBRANCH  12  15
BRANCH  13  18
ATOM     18  N   UNL A   1      35.490  23.935  24.999  1.00  0.00    -0.372 N 
ATOM     19  C   UNL A   1      36.636  23.889  25.917  1.00  0.00     0.144 C 
BRANCH  18  20
ATOM     20  C   UNL A   1      35.411  22.832  23.979  1.00  0.00     0.082 C 
ATOM     21  C   UNL A   1      35.402  21.384  24.467  1.00  0.00     0.025 C 
ATOM     22  C   UNL A   1      34.188  22.961  23.039  1.00  0.00     0.025 C 
ATOM     23  C   UNL A   1      34.169  21.101  25.315  1.00  0.00     0.008 C 
ATOM     24  C   UNL A   1      32.880  22.214  23.405  1.00  0.00     0.008 C 
ATOM     25  C   UNL A   1      32.904  21.070  24.460  1.00  0.00    -0.035 C 
ATOM     26  C   UNL A   1      31.681  21.225  25.391  1.00  0.00     0.011 C 
ATOM     27  C   UNL A   1      32.817  19.675  23.807  1.00  0.00     0.011 C 
ENDBRANCH  18  20
ENDBRANCH  13  18
ENDBRANCH   5   8
ENDBRANCH   3   4
ENDBRANCH   2   3
ENDBRANCH   1   2
BRANCH   1  28
ATOM     28  C   UNL A   1      35.891  31.874  28.751  1.00  0.00     0.116 C 
BRANCH  28  29
ATOM     29  N   UNL A   1      35.629  31.160  29.993  1.00  0.00    -0.352 N 
ATOM     30  C   UNL A   1      36.499  30.361  30.693  1.00  0.00     0.251 C 
ATOM     31  H   UNL A   1      34.726  31.261  30.373  1.00  0.00     0.163 HD
ATOM     32  O   UNL A   1      36.127  29.725  31.675  1.00  0.00    -0.269 OA
BRANCH  30  33
ATOM     33  C   UNL A   1      37.883  30.256  30.197  1.00  0.00     0.039 A 
ATOM     34  C   UNL A   1      38.934  30.350  31.109  1.00  0.00     0.014 A 
ATOM     35  C   UNL A   1      38.113  29.930  28.858  1.00  0.00     0.014 A 
ATOM     36  C   UNL A   1      40.227  30.047  30.686  1.00  0.00     0.010 A 
ATOM     37  C   UNL A   1      39.391  29.561  28.459  1.00  0.00     0.010 A 
ATOM     38  C   UNL A   1      40.457  29.610  29.370  1.00  0.00    -0.014 A 
BRANCH  38  39
ATOM     39  C   UNL A   1      41.806  29.179  28.932  1.00  0.00     0.031 A 
ATOM     40  C   UNL A   1      42.923  30.181  28.858  1.00  0.00     0.074 A 
ATOM     41  C   UNL A   1      42.002  27.908  28.533  1.00  0.00     0.049 A 
ATOM     42  N   UNL A   1      44.153  30.015  28.444  1.00  0.00    -0.248 NA
ATOM     43  C   UNL A   1      42.609  31.557  29.275  1.00  0.00     0.031 C 
ATOM     44  C   UNL A   1      40.975  26.862  28.502  1.00  0.00     0.029 A 
ATOM     45  N   UNL A   1      43.128  27.278  28.065  1.00  0.00    -0.354 N 
ATOM     46  C   UNL A   1      44.753  31.265  28.538  1.00  0.00     0.074 A 
ATOM     47  C   UNL A   1      43.739  32.190  28.994  1.00  0.00     0.031 C 
ATOM     48  C   UNL A   1      41.524  25.718  28.063  1.00  0.00     0.029 A 
ATOM     49  C   UNL A   1      42.929  25.955  27.749  1.00  0.00     0.049 A 
ATOM     50  H   UNL A   1      43.995  27.731  27.965  1.00  0.00     0.167 HD
ATOM     51  C   UNL A   1      46.041  31.604  28.292  1.00  0.00     0.037 A 
ATOM     52  C   UNL A   1      43.785  25.037  27.259  1.00  0.00     0.037 A 
ATOM     53  C   UNL A   1      47.048  30.671  27.860  1.00  0.00     0.049 A 
ATOM     54  C   UNL A   1      45.214  25.433  27.005  1.00  0.00     0.074 A 
ATOM     55  C   UNL A   1      48.394  30.899  27.642  1.00  0.00     0.029 A 
ATOM     56  N   UNL A   1      46.818  29.331  27.581  1.00  0.00    -0.354 N 
ATOM     57  N   UNL A   1      45.785  26.603  27.168  1.00  0.00    -0.248 NA
ATOM     58  C   UNL A   1      46.117  24.386  26.509  1.00  0.00     0.031 C 
ATOM     59  C   UNL A   1      48.972  29.706  27.192  1.00  0.00     0.029 A 
ATOM     60  C   UNL A   1      47.994  28.723  27.176  1.00  0.00     0.049 A 
ATOM     61  H   UNL A   1      45.947  28.879  27.660  1.00  0.00     0.167 HD
ATOM     62  C   UNL A   1      47.120  26.426  26.822  1.00  0.00     0.074 A 
ATOM     63  C   UNL A   1      47.272  25.035  26.448  1.00  0.00     0.031 C 
ATOM     64  C   UNL A   1      48.128  27.333  26.815  1.00  0.00     0.037 A 
BRANCH  51  65
ATOM     65  C   UNL A   1      46.426  33.043  28.488  1.00  0.00     0.058 A 
ATOM     66  C   UNL A   1      46.350  33.975  27.439  1.00  0.00     0.135 A 
ATOM     67  C   UNL A   1      46.860  33.504  29.742  1.00  0.00     0.135 A 
ATOM     68  F   UNL A   1      45.958  33.585  26.215  1.00  0.00    -0.206 F 
ATOM     69  C   UNL A   1      46.726  35.302  27.616  1.00  0.00     0.059 A 
ATOM     70  C   UNL A   1      47.213  34.834  29.949  1.00  0.00     0.059 A 
ATOM     71  F   UNL A   1      46.952  32.657  30.778  1.00  0.00    -0.206 F 
ATOM     72  C   UNL A   1      47.159  35.721  28.874  1.00  0.00     0.060 A 
BRANCH  72  73
ATOM     73  S   UNL A   1      47.648  37.446  29.087  1.00  0.00     0.124 S 
ATOM     74  O   UNL A   1      47.331  38.000  27.774  1.00  0.00    -0.237 OA
ATOM     75  O   UNL A   1      46.788  37.882  30.182  1.00  0.00    -0.237 OA
ATOM     76  O   UNL A   1      49.070  37.360  29.405  1.00  0.00    -0.744 OA
ENDBRANCH  72  73
ENDBRANCH  51  65
BRANCH  52  77
ATOM     77  C   UNL A   1      43.319  23.646  27.010  1.00  0.00     0.058 A 
ATOM     78  C   UNL A   1      43.025  23.207  25.711  1.00  0.00     0.135 A 
ATOM     79  C   UNL A   1      43.184  22.724  28.060  1.00  0.00     0.135 A 
ATOM     80  F   UNL A   1      43.135  24.054  24.677  1.00  0.00    -0.206 F 
ATOM     81  C   UNL A   1      42.602  21.906  25.460  1.00  0.00     0.059 A 
ATOM     82  C   UNL A   1      42.785  21.410  27.831  1.00  0.00     0.059 A 
ATOM     83  F   UNL A   1      43.471  23.091  29.318  1.00  0.00    -0.206 F 
ATOM     84  C   UNL A   1      42.487  21.013  26.527  1.00  0.00     0.060 A 
BRANCH  84  85
ATOM     85  S   UNL A   1      41.993  19.310  26.183  1.00  0.00     0.124 S 
ATOM     86  O   UNL A   1      40.567  19.466  25.923  1.00  0.00    -0.237 OA
ATOM     87  O   UNL A   1      42.821  18.979  25.027  1.00  0.00    -0.237 OA
ATOM     88  O   UNL A   1      42.340  18.606  27.413  1.00  0.00    -0.744 OA
ENDBRANCH  84  85
ENDBRANCH  52  77
BRANCH  64  89
ATOM     89  C   UNL A   1      49.495  26.845  26.424  1.00  0.00     0.058 A 
ATOM     90  C   UNL A   1      50.367  26.267  27.358  1.00  0.00     0.135 A 
ATOM     91  C   UNL A   1      49.909  26.902  25.084  1.00  0.00     0.135 A 
ATOM     92  F   UNL A   1      50.021  26.194  28.653  1.00  0.00    -0.206 F 
ATOM     93  C   UNL A   1      51.614  25.781  26.981  1.00  0.00     0.059 A 
ATOM     94  C   UNL A   1      51.142  26.399  24.679  1.00  0.00     0.059 A 
ATOM     95  F   UNL A   1      49.107  27.436  24.149  1.00  0.00    -0.206 F 
ATOM     96  C   UNL A   1      51.992  25.849  25.637  1.00  0.00     0.060 A 
BRANCH  96  97
ATOM     97  S   UNL A   1      53.596  25.179  25.153  1.00  0.00     0.124 S 
ATOM     98  O   UNL A   1      54.475  25.764  26.160  1.00  0.00    -0.237 OA
ATOM     99  O   UNL A   1      53.380  23.739  25.258  1.00  0.00    -0.237 OA
ATOM    100  O   UNL A   1      53.778  25.681  23.794  1.00  0.00    -0.744 OA
ENDBRANCH  96  97
ENDBRANCH  64  89
ENDBRANCH  38  39
ENDBRANCH  30  33
ENDBRANCH  28  29
ENDBRANCH   1  28
TORSDOF 17
ENDMDL
MODEL 3
REMARK VINA RESULT:     -11.6      2.613      3.539
REMARK SMILES Cc1cc(N(C)C2CCC(C)(C)CC2)cc(C(=O)NCCCCNC(=O)c2ccc(-c3c4nc(c(-c5c(F)cc(S(=O)(=O)[O-])cc5F)c5ccc([nH]5)c(-c5c(F)cc(S(=O)(=O)[O-])cc5F)c5nc(c(-c6c(F)cc(S(=O)(=O)[O-])cc6F)c6ccc3[nH]6)C=C5)C=C4)cc2)c1N
REMARK SMILES IDX 22 1 21 2 20 3 19 4 17 5 18 6 16 8 1 9 2 10 3 11 93 12 4 13
REMARK SMILES IDX 15 14 94 15 5 18 6 19 7 20 8 21 14 22 9 23 13 24 10 25 11 26
REMARK SMILES IDX 12 27 23 28 24 29 25 30 26 32 27 33 28 34 92 35 29 36 91 37
REMARK SMILES IDX 30 38 31 39 32 40 85 41 33 42 90 43 84 44 86 45 34 46 89 47
REMARK SMILES IDX 83 48 82 49 35 51 69 52 48 53 68 54 49 55 52 56 67 57 87 58
REMARK SMILES IDX 50 59 51 60 66 62 88 63 53 64 36 65 37 66 46 67 38 68 39 69
REMARK SMILES IDX 45 70 47 71 40 72 41 73 42 74 43 75 44 76 70 77 71 78 80 79
REMARK SMILES IDX 72 80 73 81 79 82 81 83 74 84 75 85 76 86 77 87 78 88 54 89
REMARK SMILES IDX 55 90 64 91 56 92 57 93 63 94 65 95 58 96 59 97 60 98 61 99
REMARK SMILES IDX 62 100
REMARK H PARENT 19 7 94 16 94 17 24 31 86 50 52 61
REMARK Flexibility Score: inf
ROOT
ATOM      1  C   UNL A   1      34.986  30.061  27.293  1.00  0.00     0.023 C 
ENDROOT
BRANCH   1   2
ATOM      2  C   UNL A   1      34.316  29.000  26.417  1.00  0.00     0.023 C 
BRANCH   2   3
ATOM      3  C   UNL A   1      33.279  29.579  25.453  1.00  0.00     0.116 C 
BRANCH   3   4
ATOM      4  N   UNL A   1      33.775  29.456  24.097  1.00  0.00    -0.352 N 
ATOM      5  C   UNL A   1      33.353  28.662  23.057  1.00  0.00     0.253 C 
ATOM      6  O   UNL A   1      34.029  28.654  22.028  1.00  0.00    -0.269 OA
ATOM      7  H   UNL A   1      34.541  30.037  23.885  1.00  0.00     0.163 HD
BRANCH   5   8
ATOM      8  C   UNL A   1      32.042  27.950  23.115  1.00  0.00     0.065 A 
ATOM      9  C   UNL A   1      28.346  28.654  22.625  1.00  0.00     0.046 C 
ATOM     10  C   UNL A   1      29.652  28.104  23.127  1.00  0.00    -0.025 A 
ATOM     11  C   UNL A   1      29.628  26.910  23.864  1.00  0.00     0.031 A 
ATOM     12  C   UNL A   1      30.879  28.659  22.763  1.00  0.00     0.047 A 
ATOM     13  C   UNL A   1      30.714  26.038  23.885  1.00  0.00     0.038 A 
ATOM     14  C   UNL A   1      31.939  26.607  23.525  1.00  0.00     0.042 A 
BRANCH  12  15
ATOM     15  N   UNL A   1      30.930  29.827  22.016  1.00  0.00    -0.398 N 
ATOM     16  H   UNL A   1      30.445  30.628  22.319  1.00  0.00     0.156 HD
ATOM     17  H   UNL A   1      31.453  29.855  21.181  1.00  0.00     0.156 HD
ENDBRANCH  12  15
BRANCH  13  18
ATOM     18  N   UNL A   1      30.586  24.680  24.162  1.00  0.00    -0.372 N 
ATOM     19  C   UNL A   1      30.388  23.789  23.011  1.00  0.00     0.144 C 
BRANCH  18  20
ATOM     20  C   UNL A   1      30.882  24.011  25.477  1.00  0.00     0.082 C 
ATOM     21  C   UNL A   1      31.735  22.743  25.476  1.00  0.00     0.025 C 
ATOM     22  C   UNL A   1      31.547  24.959  26.505  1.00  0.00     0.025 C 
ATOM     23  C   UNL A   1      33.139  23.030  24.960  1.00  0.00     0.008 C 
ATOM     24  C   UNL A   1      33.093  24.996  26.597  1.00  0.00     0.008 C 
ATOM     25  C   UNL A   1      33.941  23.854  25.965  1.00  0.00    -0.035 C 
ATOM     26  C   UNL A   1      35.149  24.478  25.232  1.00  0.00     0.011 C 
ATOM     27  C   UNL A   1      34.493  22.884  27.029  1.00  0.00     0.011 C 
ENDBRANCH  18  20
ENDBRANCH  13  18
ENDBRANCH   5   8
ENDBRANCH   3   4
ENDBRANCH   2   3
ENDBRANCH   1   2
BRANCH   1  28
ATOM     28  C   UNL A   1      35.875  29.490  28.386  1.00  0.00     0.116 C 
BRANCH  28  29
ATOM     29  N   UNL A   1      35.607  30.069  29.696  1.00  0.00    -0.352 N 
ATOM     30  C   UNL A   1      36.526  30.426  30.652  1.00  0.00     0.251 C 
ATOM     31  H   UNL A   1      34.661  30.221  29.921  1.00  0.00     0.163 HD
ATOM     32  O   UNL A   1      36.170  30.806  31.763  1.00  0.00    -0.269 OA
BRANCH  30  33
ATOM     33  C   UNL A   1      37.954  30.290  30.314  1.00  0.00     0.039 A 
ATOM     34  C   UNL A   1      38.820  29.742  31.259  1.00  0.00     0.014 A 
ATOM     35  C   UNL A   1      38.387  30.581  29.018  1.00  0.00     0.014 A 
ATOM     36  C   UNL A   1      40.122  29.419  30.878  1.00  0.00     0.010 A 
ATOM     37  C   UNL A   1      39.661  30.193  28.623  1.00  0.00     0.010 A 
ATOM     38  C   UNL A   1      40.537  29.603  29.548  1.00  0.00    -0.014 A 
BRANCH  38  39
ATOM     39  C   UNL A   1      41.880  29.166  29.098  1.00  0.00     0.031 A 
ATOM     40  C   UNL A   1      43.007  30.157  29.038  1.00  0.00     0.074 A 
ATOM     41  C   UNL A   1      42.060  27.900  28.676  1.00  0.00     0.049 A 
ATOM     42  N   UNL A   1      44.233  29.986  28.617  1.00  0.00    -0.248 NA
ATOM     43  C   UNL A   1      42.709  31.529  29.481  1.00  0.00     0.031 C 
ATOM     44  C   UNL A   1      41.022  26.866  28.629  1.00  0.00     0.029 A 
ATOM     45  N   UNL A   1      43.178  27.266  28.193  1.00  0.00    -0.354 N 
ATOM     46  C   UNL A   1      44.847  31.227  28.732  1.00  0.00     0.074 A 
ATOM     47  C   UNL A   1      43.844  32.154  29.207  1.00  0.00     0.031 C 
ATOM     48  C   UNL A   1      41.558  25.724  28.168  1.00  0.00     0.029 A 
ATOM     49  C   UNL A   1      42.965  25.952  27.854  1.00  0.00     0.049 A 
ATOM     50  H   UNL A   1      44.050  27.713  28.098  1.00  0.00     0.167 HD
ATOM     51  C   UNL A   1      46.138  31.557  28.487  1.00  0.00     0.037 A 
ATOM     52  C   UNL A   1      43.809  25.033  27.345  1.00  0.00     0.037 A 
ATOM     53  C   UNL A   1      47.133  30.621  28.036  1.00  0.00     0.049 A 
ATOM     54  C   UNL A   1      45.241  25.419  27.094  1.00  0.00     0.074 A 
ATOM     55  C   UNL A   1      48.482  30.839  27.818  1.00  0.00     0.029 A 
ATOM     56  N   UNL A   1      46.889  29.289  27.734  1.00  0.00    -0.354 N 
ATOM     57  N   UNL A   1      45.826  26.580  27.276  1.00  0.00    -0.248 NA
ATOM     58  C   UNL A   1      46.132  24.371  26.577  1.00  0.00     0.031 C 
ATOM     59  C   UNL A   1      49.045  29.648  27.345  1.00  0.00     0.029 A 
ATOM     60  C   UNL A   1      48.057  28.676  27.314  1.00  0.00     0.049 A 
ATOM     61  H   UNL A   1      46.013  28.845  27.807  1.00  0.00     0.167 HD
ATOM     62  C   UNL A   1      47.157  26.395  26.922  1.00  0.00     0.074 A 
ATOM     63  C   UNL A   1      47.294  25.009  26.523  1.00  0.00     0.031 C 
ATOM     64  C   UNL A   1      48.175  27.291  26.928  1.00  0.00     0.037 A 
BRANCH  51  65
ATOM     65  C   UNL A   1      46.539  32.988  28.708  1.00  0.00     0.058 A 
ATOM     66  C   UNL A   1      47.001  33.439  29.956  1.00  0.00     0.135 A 
ATOM     67  C   UNL A   1      46.479  33.919  27.658  1.00  0.00     0.135 A 
ATOM     68  F   UNL A   1      47.063  32.595  30.999  1.00  0.00    -0.206 F 
ATOM     69  C   UNL A   1      47.354  34.768  30.165  1.00  0.00     0.059 A 
ATOM     70  C   UNL A   1      46.855  35.247  27.837  1.00  0.00     0.059 A 
ATOM     71  F   UNL A   1      46.045  33.543  26.445  1.00  0.00    -0.206 F 
ATOM     72  C   UNL A   1      47.274  35.665  29.100  1.00  0.00     0.060 A 
BRANCH  72  73
ATOM     73  S   UNL A   1      47.730  37.388  29.388  1.00  0.00     0.124 S 
ATOM     74  O   UNL A   1      48.688  37.617  28.311  1.00  0.00    -0.237 OA
ATOM     75  O   UNL A   1      46.451  38.077  29.254  1.00  0.00    -0.237 OA
ATOM     76  O   UNL A   1      48.292  37.370  30.735  1.00  0.00    -0.744 OA
ENDBRANCH  72  73
ENDBRANCH  51  65
BRANCH  52  77
ATOM     77  C   UNL A   1      43.327  23.653  27.073  1.00  0.00     0.058 A 
ATOM     78  C   UNL A   1      42.975  23.256  25.775  1.00  0.00     0.135 A 
ATOM     79  C   UNL A   1      43.235  22.698  28.098  1.00  0.00     0.135 A 
ATOM     80  F   UNL A   1      43.043  24.135  24.764  1.00  0.00    -0.206 F 
ATOM     81  C   UNL A   1      42.537  21.964  25.502  1.00  0.00     0.059 A 
ATOM     82  C   UNL A   1      42.821  21.393  27.845  1.00  0.00     0.059 A 
ATOM     83  F   UNL A   1      43.578  23.024  29.353  1.00  0.00    -0.206 F 
ATOM     84  C   UNL A   1      42.466  21.038  26.544  1.00  0.00     0.060 A 
BRANCH  84  85
ATOM     85  S   UNL A   1      41.951  19.348  26.167  1.00  0.00     0.124 S 
ATOM     86  O   UNL A   1      42.331  18.647  27.387  1.00  0.00    -0.237 OA
ATOM     87  O   UNL A   1      40.517  19.508  25.942  1.00  0.00    -0.237 OA
ATOM     88  O   UNL A   1      42.729  19.018  24.978  1.00  0.00    -0.744 OA
ENDBRANCH  84  85
ENDBRANCH  52  77
BRANCH  64  89
ATOM     89  C   UNL A   1      49.535  26.795  26.524  1.00  0.00     0.058 A 
ATOM     90  C   UNL A   1      50.416  26.218  27.451  1.00  0.00     0.135 A 
ATOM     91  C   UNL A   1      49.935  26.845  25.179  1.00  0.00     0.135 A 
ATOM     92  F   UNL A   1      50.083  26.153  28.750  1.00  0.00    -0.206 F 
ATOM     93  C   UNL A   1      51.656  25.725  27.062  1.00  0.00     0.059 A 
ATOM     94  C   UNL A   1      51.161  26.335  24.763  1.00  0.00     0.059 A 
ATOM     95  F   UNL A   1      49.124  27.378  24.251  1.00  0.00    -0.206 F 
ATOM     96  C   UNL A   1      52.019  25.786  25.713  1.00  0.00     0.060 A 
BRANCH  96  97
ATOM     97  S   UNL A   1      53.615  25.107  25.215  1.00  0.00     0.124 S 
ATOM     98  O   UNL A   1      53.343  23.673  25.232  1.00  0.00    -0.237 OA
ATOM     99  O   UNL A   1      53.812  25.700  23.896  1.00  0.00    -0.237 OA
ATOM    100  O   UNL A   1      54.526  25.585  26.252  1.00  0.00    -0.744 OA
ENDBRANCH  96  97
ENDBRANCH  64  89
ENDBRANCH  38  39
ENDBRANCH  30  33
ENDBRANCH  28  29
ENDBRANCH   1  28
TORSDOF 17
ENDMDL
