MODEL 1
REMARK VINA RESULT:     -12.9      0.000      0.000
REMARK SMILES O=C(NCCCCNC(=O)c1cc(Cl)c2c(c1)[C@H]1C=CC[C@H]1[C@H](c1ccc(S(=O)(=O)N3CCOCC3)cc1)N2)c1ccc(-c2c3nc(c(-c4c(F)cc(S(=O)(=O)[O-])cc4F)c4ccc([nH]4)c(-c4c(F)cc(S(=O)(=O)[O-])cc4F)c4nc(c(-c5c(F)cc(S(=O)(=O)[O-])cc5F)c5ccc2[nH]5)C=C4)C=C3)cc1
REMARK SMILES IDX 5 1 4 2 3 3 1 4 2 5 40 7 41 8 105 9 42 10 104 11 43 12 44 13
REMARK SMILES IDX 45 14 98 15 46 16 103 17 97 18 99 19 47 20 102 21 96 22
REMARK SMILES IDX 95 23 48 25 82 26 61 27 81 28 62 29 65 30 80 31 100 32 63 33
REMARK SMILES IDX 64 34 79 36 101 37 66 38 49 39 50 40 59 41 51 42 52 43 58 44
REMARK SMILES IDX 60 45 53 46 54 47 55 48 56 49 57 50 83 51 84 52 93 53 85 54
REMARK SMILES IDX 86 55 92 56 94 57 87 58 88 59 89 60 90 61 91 62 67 63 68 64
REMARK SMILES IDX 77 65 69 66 70 67 76 68 78 69 71 70 72 71 73 72 74 73 75 74
REMARK SMILES IDX 6 75 7 76 8 77 9 78 10 80 11 81 12 82 17 83 13 84 16 85
REMARK SMILES IDX 14 86 15 87 18 88 39 89 19 90 22 91 23 92 20 94 21 95 24 96
REMARK SMILES IDX 25 97 38 98 26 99 37 100 27 101 28 102 29 103 30 104 31 105
REMARK SMILES IDX 32 106 36 107 33 108 35 109 34 110
REMARK H PARENT 3 6 99 24 65 35 8 79 39 93
REMARK Flexibility Score: inf
ROOT
ATOM      1  C   UNL A   1      45.160  23.446  26.590  1.00  0.00     0.023 C 
ENDROOT
BRANCH   1   2
ATOM      2  C   UNL A   1      45.078  24.965  26.497  1.00  0.00     0.116 C 
BRANCH   2   3
ATOM      3  N   UNL A   1      44.125  25.418  25.495  1.00  0.00    -0.352 N 
ATOM      4  O   UNL A   1      42.260  26.445  24.737  1.00  0.00    -0.269 OA
ATOM      5  C   UNL A   1      43.051  26.262  25.656  1.00  0.00     0.251 C 
ATOM      6  H   UNL A   1      44.266  25.075  24.584  1.00  0.00     0.163 HD
BRANCH   5   7
ATOM      7  C   UNL A   1      42.846  26.915  26.964  1.00  0.00     0.039 A 
ATOM      8  C   UNL A   1      42.031  26.318  27.932  1.00  0.00     0.014 A 
ATOM      9  C   UNL A   1      43.434  28.160  27.198  1.00  0.00     0.014 A 
ATOM     10  C   UNL A   1      41.704  27.025  29.084  1.00  0.00     0.010 A 
ATOM     11  C   UNL A   1      43.141  28.847  28.378  1.00  0.00     0.010 A 
ATOM     12  C   UNL A   1      42.245  28.300  29.311  1.00  0.00    -0.014 A 
BRANCH  12  13
ATOM     13  C   UNL A   1      41.861  29.060  30.525  1.00  0.00     0.031 A 
ATOM     14  C   UNL A   1      40.672  29.982  30.500  1.00  0.00     0.074 A 
ATOM     15  C   UNL A   1      42.561  28.880  31.661  1.00  0.00     0.049 A 
ATOM     16  N   UNL A   1      40.198  30.741  31.455  1.00  0.00    -0.248 NA
ATOM     17  C   UNL A   1      39.909  30.055  29.242  1.00  0.00     0.031 C 
ATOM     18  C   UNL A   1      43.709  27.983  31.812  1.00  0.00     0.029 A 
ATOM     19  N   UNL A   1      42.402  29.432  32.906  1.00  0.00    -0.354 N 
ATOM     20  C   UNL A   1      39.079  31.371  30.922  1.00  0.00     0.074 A 
ATOM     21  C   UNL A   1      38.965  30.935  29.547  1.00  0.00     0.031 C 
ATOM     22  C   UNL A   1      44.134  28.026  33.085  1.00  0.00     0.029 A 
ATOM     23  C   UNL A   1      43.320  28.985  33.825  1.00  0.00     0.049 A 
ATOM     24  H   UNL A   1      41.698  30.085  33.120  1.00  0.00     0.167 HD
ATOM     25  C   UNL A   1      38.218  32.220  31.532  1.00  0.00     0.037 A 
ATOM     26  C   UNL A   1      43.494  29.323  35.117  1.00  0.00     0.037 A 
ATOM     27  C   UNL A   1      38.341  32.655  32.900  1.00  0.00     0.049 A 
ATOM     28  C   UNL A   1      42.581  30.345  35.735  1.00  0.00     0.074 A 
ATOM     29  C   UNL A   1      37.535  33.538  33.598  1.00  0.00     0.029 A 
ATOM     30  N   UNL A   1      39.326  32.235  33.780  1.00  0.00    -0.354 N 
ATOM     31  N   UNL A   1      41.547  30.956  35.208  1.00  0.00    -0.248 NA
ATOM     32  C   UNL A   1      42.867  30.733  37.124  1.00  0.00     0.031 C 
ATOM     33  C   UNL A   1      38.049  33.674  34.892  1.00  0.00     0.029 A 
ATOM     34  C   UNL A   1      39.154  32.847  35.011  1.00  0.00     0.049 A 
ATOM     35  H   UNL A   1      40.043  31.595  33.562  1.00  0.00     0.167 HD
ATOM     36  C   UNL A   1      41.047  31.782  36.207  1.00  0.00     0.074 A 
ATOM     37  C   UNL A   1      41.882  31.583  37.374  1.00  0.00     0.031 C 
ATOM     38  C   UNL A   1      39.993  32.633  36.161  1.00  0.00     0.037 A 
BRANCH  25  39
ATOM     39  C   UNL A   1      37.051  32.732  30.736  1.00  0.00     0.058 A 
ATOM     40  C   UNL A   1      35.773  32.171  30.879  1.00  0.00     0.135 A 
ATOM     41  C   UNL A   1      37.188  33.848  29.894  1.00  0.00     0.135 A 
ATOM     42  F   UNL A   1      35.593  31.091  31.656  1.00  0.00    -0.206 F 
ATOM     43  C   UNL A   1      34.669  32.699  30.218  1.00  0.00     0.059 A 
ATOM     44  C   UNL A   1      36.094  34.405  29.237  1.00  0.00     0.059 A 
ATOM     45  F   UNL A   1      38.390  34.418  29.719  1.00  0.00    -0.206 F 
ATOM     46  C   UNL A   1      34.839  33.821  29.404  1.00  0.00     0.060 A 
BRANCH  46  47
ATOM     47  S   UNL A   1      33.386  34.518  28.588  1.00  0.00     0.124 S 
ATOM     48  O   UNL A   1      32.531  34.828  29.730  1.00  0.00    -0.237 OA
ATOM     49  O   UNL A   1      33.946  35.668  27.885  1.00  0.00    -0.237 OA
ATOM     50  O   UNL A   1      32.919  33.430  27.735  1.00  0.00    -0.744 OA
ENDBRANCH  46  47
ENDBRANCH  25  39
BRANCH  26  51
ATOM     51  C   UNL A   1      44.580  28.701  35.917  1.00  0.00     0.058 A 
ATOM     52  C   UNL A   1      44.338  27.553  36.684  1.00  0.00     0.135 A 
ATOM     53  C   UNL A   1      45.868  29.257  35.954  1.00  0.00     0.135 A 
ATOM     54  F   UNL A   1      43.121  26.991  36.684  1.00  0.00    -0.206 F 
ATOM     55  C   UNL A   1      45.328  26.992  37.483  1.00  0.00     0.059 A 
ATOM     56  C   UNL A   1      46.881  28.699  36.726  1.00  0.00     0.059 A 
ATOM     57  F   UNL A   1      46.152  30.348  35.226  1.00  0.00    -0.206 F 
ATOM     58  C   UNL A   1      46.595  27.576  37.501  1.00  0.00     0.060 A 
BRANCH  58  59
ATOM     59  S   UNL A   1      47.876  26.836  38.536  1.00  0.00     0.124 S 
ATOM     60  O   UNL A   1      47.636  25.414  38.325  1.00  0.00    -0.237 OA
ATOM     61  O   UNL A   1      49.098  27.373  37.944  1.00  0.00    -0.237 OA
ATOM     62  O   UNL A   1      47.562  27.340  39.870  1.00  0.00    -0.744 OA
ENDBRANCH  58  59
ENDBRANCH  26  51
BRANCH  38  63
ATOM     63  C   UNL A   1      39.672  33.392  37.418  1.00  0.00     0.058 A 
ATOM     64  C   UNL A   1      40.346  34.577  37.750  1.00  0.00     0.135 A 
ATOM     65  C   UNL A   1      38.663  32.942  38.284  1.00  0.00     0.135 A 
ATOM     66  F   UNL A   1      41.324  35.043  36.957  1.00  0.00    -0.206 F 
ATOM     67  C   UNL A   1      40.049  35.277  38.914  1.00  0.00     0.059 A 
ATOM     68  C   UNL A   1      38.333  33.640  39.442  1.00  0.00     0.059 A 
ATOM     69  F   UNL A   1      37.982  31.819  38.005  1.00  0.00    -0.206 F 
ATOM     70  C   UNL A   1      39.043  34.799  39.755  1.00  0.00     0.060 A 
BRANCH  70  71
ATOM     71  S   UNL A   1      38.655  35.726  41.255  1.00  0.00     0.124 S 
ATOM     72  O   UNL A   1      38.529  37.085  40.736  1.00  0.00    -0.237 OA
ATOM     73  O   UNL A   1      37.413  35.099  41.698  1.00  0.00    -0.237 OA
ATOM     74  O   UNL A   1      39.811  35.486  42.112  1.00  0.00    -0.744 OA
ENDBRANCH  70  71
ENDBRANCH  38  63
ENDBRANCH  12  13
ENDBRANCH   5   7
ENDBRANCH   2   3
ENDBRANCH   1   2
BRANCH   1  75
ATOM     75  C   UNL A   1      44.631  22.691  25.372  1.00  0.00     0.023 C 
BRANCH  75  76
ATOM     76  C   UNL A   1      43.141  22.371  25.409  1.00  0.00     0.116 C 
BRANCH  76  77
ATOM     77  N   UNL A   1      42.868  20.988  25.771  1.00  0.00    -0.352 N 
ATOM     78  C   UNL A   1      41.670  20.419  26.121  1.00  0.00     0.251 C 
ATOM     79  H   UNL A   1      43.644  20.383  25.763  1.00  0.00     0.163 HD
ATOM     80  O   UNL A   1      41.592  19.257  26.498  1.00  0.00    -0.269 OA
BRANCH  78  81
ATOM     81  C   UNL A   1      40.464  21.258  26.080  1.00  0.00     0.041 A 
ATOM     82  C   UNL A   1      40.410  22.455  26.789  1.00  0.00     0.036 A 
ATOM     83  C   UNL A   1      39.358  20.792  25.373  1.00  0.00     0.020 A 
ATOM     84  C   UNL A   1      39.196  23.126  26.880  1.00  0.00     0.065 A 
ATOM     85  C   UNL A   1      38.142  21.485  25.441  1.00  0.00    -0.015 A 
ATOM     86  Cl  UNL A   1      39.128  24.562  27.843  1.00  0.00    -0.082 Cl
ATOM     87  C   UNL A   1      38.036  22.629  26.249  1.00  0.00     0.057 A 
ATOM     88  C   UNL A   1      36.982  21.002  24.621  1.00  0.00     0.049 C 
ATOM     89  N   UNL A   1      36.825  23.297  26.364  1.00  0.00    -0.376 N 
ATOM     90  C   UNL A   1      36.355  19.716  25.092  1.00  0.00    -0.023 C 
ATOM     91  C   UNL A   1      35.769  21.955  24.580  1.00  0.00     0.031 C 
ATOM     92  C   UNL A   1      35.587  22.658  25.949  1.00  0.00     0.114 C 
ATOM     93  H   UNL A   1      36.805  24.212  26.728  1.00  0.00     0.161 HD
ATOM     94  C   UNL A   1      35.039  19.712  24.849  1.00  0.00    -0.030 C 
ATOM     95  C   UNL A   1      34.618  20.995  24.206  1.00  0.00     0.034 C 
BRANCH  92  96
ATOM     96  C   UNL A   1      34.482  23.707  25.912  1.00  0.00    -0.025 A 
ATOM     97  C   UNL A   1      34.591  24.918  25.199  1.00  0.00     0.007 A 
ATOM     98  C   UNL A   1      33.289  23.442  26.587  1.00  0.00     0.007 A 
ATOM     99  C   UNL A   1      33.521  25.818  25.141  1.00  0.00     0.022 A 
ATOM    100  C   UNL A   1      32.213  24.314  26.491  1.00  0.00     0.022 A 
ATOM    101  C   UNL A   1      32.320  25.499  25.772  1.00  0.00     0.082 A 
BRANCH 101 102
ATOM    102  S   UNL A   1      30.935  26.604  25.612  1.00  0.00     0.243 S 
ATOM    103  O   UNL A   1      30.703  26.764  24.190  1.00  0.00    -0.207 OA
ATOM    104  O   UNL A   1      29.910  26.108  26.501  1.00  0.00    -0.207 OA
BRANCH 102 105
ATOM    105  N   UNL A   1      31.472  28.071  26.219  1.00  0.00    -0.193 NA
ATOM    106  C   UNL A   1      31.534  29.294  25.394  1.00  0.00     0.131 C 
ATOM    107  C   UNL A   1      31.956  28.210  27.605  1.00  0.00     0.131 C 
ATOM    108  C   UNL A   1      32.864  30.044  25.580  1.00  0.00     0.177 C 
ATOM    109  C   UNL A   1      33.304  28.933  27.627  1.00  0.00     0.177 C 
ATOM    110  O   UNL A   1      33.225  30.200  26.959  1.00  0.00    -0.379 OA
ENDBRANCH 102 105
ENDBRANCH 101 102
ENDBRANCH  92  96
ENDBRANCH  78  81
ENDBRANCH  76  77
ENDBRANCH  75  76
ENDBRANCH   1  75
TORSDOF 17
ENDMDL
MODEL 2
REMARK VINA RESULT:     -12.1      7.821     14.909
REMARK SMILES O=C(NCCCCNC(=O)c1cc(Cl)c2c(c1)[C@H]1C=CC[C@H]1[C@H](c1ccc(S(=O)(=O)N3CCOCC3)cc1)N2)c1ccc(-c2c3nc(c(-c4c(F)cc(S(=O)(=O)[O-])cc4F)c4ccc([nH]4)c(-c4c(F)cc(S(=O)(=O)[O-])cc4F)c4nc(c(-c5c(F)cc(S(=O)(=O)[O-])cc5F)c5ccc2[nH]5)C=C4)C=C3)cc1
REMARK SMILES IDX 5 1 4 2 3 3 1 4 2 5 40 7 41 8 105 9 42 10 104 11 43 12 44 13
REMARK SMILES IDX 45 14 98 15 46 16 103 17 97 18 99 19 47 20 102 21 96 22
REMARK SMILES IDX 95 23 48 25 82 26 61 27 81 28 62 29 65 30 80 31 100 32 63 33
REMARK SMILES IDX 64 34 79 36 101 37 66 38 49 39 50 40 59 41 51 42 52 43 58 44
REMARK SMILES IDX 60 45 53 46 54 47 55 48 56 49 57 50 83 51 84 52 93 53 85 54
REMARK SMILES IDX 86 55 92 56 94 57 87 58 88 59 89 60 90 61 91 62 67 63 68 64
REMARK SMILES IDX 77 65 69 66 70 67 76 68 78 69 71 70 72 71 73 72 74 73 75 74
REMARK SMILES IDX 6 75 7 76 8 77 9 78 10 80 11 81 12 82 17 83 13 84 16 85
REMARK SMILES IDX 14 86 15 87 18 88 39 89 19 90 22 91 23 92 20 94 21 95 24 96
REMARK SMILES IDX 25 97 38 98 26 99 37 100 27 101 28 102 29 103 30 104 31 105
REMARK SMILES IDX 32 106 36 107 33 108 35 109 34 110
REMARK H PARENT 3 6 99 24 65 35 8 79 39 93
REMARK Flexibility Score: inf
ROOT
ATOM      1  C   UNL A   1      38.975  33.774  32.898  1.00  0.00     0.023 C 
ENDROOT
BRANCH   1   2
ATOM      2  C   UNL A   1      38.088  33.607  31.669  1.00  0.00     0.116 C 
BRANCH   2   3
ATOM      3  N   UNL A   1      37.033  32.623  31.864  1.00  0.00    -0.352 N 
ATOM      4  O   UNL A   1      36.002  30.629  31.616  1.00  0.00    -0.269 OA
ATOM      5  C   UNL A   1      37.022  31.297  31.498  1.00  0.00     0.251 C 
ATOM      6  H   UNL A   1      36.222  32.949  32.316  1.00  0.00     0.163 HD
BRANCH   5   7
ATOM      7  C   UNL A   1      38.248  30.704  30.928  1.00  0.00     0.039 A 
ATOM      8  C   UNL A   1      39.260  30.231  31.768  1.00  0.00     0.014 A 
ATOM      9  C   UNL A   1      38.401  30.673  29.540  1.00  0.00     0.014 A 
ATOM     10  C   UNL A   1      40.479  29.841  31.222  1.00  0.00     0.010 A 
ATOM     11  C   UNL A   1      39.609  30.236  28.992  1.00  0.00     0.010 A 
ATOM     12  C   UNL A   1      40.668  29.853  29.831  1.00  0.00    -0.014 A 
BRANCH  12  13
ATOM     13  C   UNL A   1      41.983  29.471  29.261  1.00  0.00     0.031 A 
ATOM     14  C   UNL A   1      42.231  28.059  28.802  1.00  0.00     0.074 A 
ATOM     15  C   UNL A   1      42.936  30.411  29.120  1.00  0.00     0.049 A 
ATOM     16  N   UNL A   1      43.319  27.536  28.300  1.00  0.00    -0.248 NA
ATOM     17  C   UNL A   1      41.107  27.114  28.914  1.00  0.00     0.031 C 
ATOM     18  C   UNL A   1      42.794  31.820  29.495  1.00  0.00     0.029 A 
ATOM     19  N   UNL A   1      44.206  30.328  28.611  1.00  0.00    -0.354 N 
ATOM     20  C   UNL A   1      43.012  26.208  28.023  1.00  0.00     0.074 A 
ATOM     21  C   UNL A   1      41.646  25.994  28.449  1.00  0.00     0.031 C 
ATOM     22  C   UNL A   1      43.923  32.474  29.178  1.00  0.00     0.029 A 
ATOM     23  C   UNL A   1      44.882  31.524  28.622  1.00  0.00     0.049 A 
ATOM     24  H   UNL A   1      44.596  29.491  28.269  1.00  0.00     0.167 HD
ATOM     25  C   UNL A   1      43.795  25.263  27.451  1.00  0.00     0.037 A 
ATOM     26  C   UNL A   1      46.139  31.817  28.241  1.00  0.00     0.037 A 
ATOM     27  C   UNL A   1      45.157  25.480  27.035  1.00  0.00     0.049 A 
ATOM     28  C   UNL A   1      47.015  30.720  27.702  1.00  0.00     0.074 A 
ATOM     29  C   UNL A   1      46.041  24.575  26.473  1.00  0.00     0.029 A 
ATOM     30  N   UNL A   1      45.831  26.688  27.128  1.00  0.00    -0.354 N 
ATOM     31  N   UNL A   1      46.719  29.463  27.476  1.00  0.00    -0.248 NA
ATOM     32  C   UNL A   1      48.401  31.082  27.374  1.00  0.00     0.031 C 
ATOM     33  C   UNL A   1      47.258  25.228  26.252  1.00  0.00     0.029 A 
ATOM     34  C   UNL A   1      47.121  26.549  26.643  1.00  0.00     0.049 A 
ATOM     35  H   UNL A   1      45.449  27.522  27.487  1.00  0.00     0.167 HD
ATOM     36  C   UNL A   1      47.876  28.890  26.961  1.00  0.00     0.074 A 
ATOM     37  C   UNL A   1      48.871  29.940  26.895  1.00  0.00     0.031 C 
ATOM     38  C   UNL A   1      48.096  27.607  26.581  1.00  0.00     0.037 A 
BRANCH  25  39
ATOM     39  C   UNL A   1      43.201  23.902  27.221  1.00  0.00     0.058 A 
ATOM     40  C   UNL A   1      42.814  23.486  25.938  1.00  0.00     0.135 A 
ATOM     41  C   UNL A   1      43.103  22.973  28.269  1.00  0.00     0.135 A 
ATOM     42  F   UNL A   1      42.870  24.342  24.905  1.00  0.00    -0.206 F 
ATOM     43  C   UNL A   1      42.352  22.196  25.701  1.00  0.00     0.059 A 
ATOM     44  C   UNL A   1      42.661  21.670  28.052  1.00  0.00     0.059 A 
ATOM     45  F   UNL A   1      43.456  23.322  29.517  1.00  0.00    -0.206 F 
ATOM     46  C   UNL A   1      42.286  21.293  26.763  1.00  0.00     0.060 A 
BRANCH  46  47
ATOM     47  S   UNL A   1      41.724  19.609  26.426  1.00  0.00     0.124 S 
ATOM     48  O   UNL A   1      40.276  19.788  26.385  1.00  0.00    -0.237 OA
ATOM     49  O   UNL A   1      42.363  19.320  25.146  1.00  0.00    -0.237 OA
ATOM     50  O   UNL A   1      42.228  18.847  27.564  1.00  0.00    -0.744 OA
ENDBRANCH  46  47
ENDBRANCH  25  39
BRANCH  26  51
ATOM     51  C   UNL A   1      46.656  33.204  28.360  1.00  0.00     0.058 A 
ATOM     52  C   UNL A   1      47.303  33.630  29.528  1.00  0.00     0.135 A 
ATOM     53  C   UNL A   1      46.489  34.137  27.324  1.00  0.00     0.135 A 
ATOM     54  F   UNL A   1      47.480  32.775  30.547  1.00  0.00    -0.206 F 
ATOM     55  C   UNL A   1      47.743  34.941  29.679  1.00  0.00     0.059 A 
ATOM     56  C   UNL A   1      46.942  35.446  27.442  1.00  0.00     0.059 A 
ATOM     57  F   UNL A   1      45.888  33.772  26.182  1.00  0.00    -0.206 F 
ATOM     58  C   UNL A   1      47.552  35.843  28.631  1.00  0.00     0.060 A 
BRANCH  58  59
ATOM     59  S   UNL A   1      48.133  37.540  28.832  1.00  0.00     0.124 S 
ATOM     60  O   UNL A   1      48.475  37.896  27.460  1.00  0.00    -0.237 OA
ATOM     61  O   UNL A   1      46.958  38.203  29.391  1.00  0.00    -0.237 OA
ATOM     62  O   UNL A   1      49.260  37.401  29.750  1.00  0.00    -0.744 OA
ENDBRANCH  58  59
ENDBRANCH  26  51
BRANCH  38  63
ATOM     63  C   UNL A   1      49.457  27.279  26.037  1.00  0.00     0.058 A 
ATOM     64  C   UNL A   1      49.724  27.319  24.659  1.00  0.00     0.135 A 
ATOM     65  C   UNL A   1      50.511  26.948  26.903  1.00  0.00     0.135 A 
ATOM     66  F   UNL A   1      48.746  27.622  23.790  1.00  0.00    -0.206 F 
ATOM     67  C   UNL A   1      50.984  27.014  24.156  1.00  0.00     0.059 A 
ATOM     68  C   UNL A   1      51.785  26.663  26.423  1.00  0.00     0.059 A 
ATOM     69  F   UNL A   1      50.309  26.907  28.229  1.00  0.00    -0.206 F 
ATOM     70  C   UNL A   1      52.008  26.684  25.046  1.00  0.00     0.060 A 
BRANCH  70  71
ATOM     71  S   UNL A   1      53.643  26.307  24.382  1.00  0.00     0.124 S 
ATOM     72  O   UNL A   1      53.616  27.021  23.110  1.00  0.00    -0.237 OA
ATOM     73  O   UNL A   1      54.530  26.861  25.401  1.00  0.00    -0.237 OA
ATOM     74  O   UNL A   1      53.643  24.851  24.285  1.00  0.00    -0.744 OA
ENDBRANCH  70  71
ENDBRANCH  38  63
ENDBRANCH  12  13
ENDBRANCH   5   7
ENDBRANCH   2   3
ENDBRANCH   1   2
BRANCH   1  75
ATOM     75  C   UNL A   1      40.473  33.851  32.612  1.00  0.00     0.023 C 
BRANCH  75  76
ATOM     76  C   UNL A   1      41.212  34.968  33.340  1.00  0.00     0.116 C 
BRANCH  76  77
ATOM     77  N   UNL A   1      42.478  34.531  33.909  1.00  0.00    -0.352 N 
ATOM     78  C   UNL A   1      43.749  34.869  33.521  1.00  0.00     0.251 C 
ATOM     79  H   UNL A   1      42.413  33.913  34.673  1.00  0.00     0.163 HD
ATOM     80  O   UNL A   1      44.738  34.354  34.026  1.00  0.00    -0.269 OA
BRANCH  78  81
ATOM     81  C   UNL A   1      43.907  35.845  32.434  1.00  0.00     0.041 A 
ATOM     82  C   UNL A   1      44.236  37.169  32.714  1.00  0.00     0.036 A 
ATOM     83  C   UNL A   1      43.652  35.430  31.129  1.00  0.00     0.020 A 
ATOM     84  C   UNL A   1      44.192  38.103  31.685  1.00  0.00     0.065 A 
ATOM     85  C   UNL A   1      43.637  36.368  30.087  1.00  0.00    -0.015 A 
ATOM     86  Cl  UNL A   1      44.512  39.759  32.073  1.00  0.00    -0.082 Cl
ATOM     87  C   UNL A   1      43.848  37.727  30.370  1.00  0.00     0.057 A 
ATOM     88  C   UNL A   1      43.425  35.889  28.681  1.00  0.00     0.049 C 
ATOM     89  N   UNL A   1      43.788  38.672  29.355  1.00  0.00    -0.376 N 
ATOM     90  C   UNL A   1      42.029  35.416  28.368  1.00  0.00    -0.023 C 
ATOM     91  C   UNL A   1      43.657  36.952  27.587  1.00  0.00     0.031 C 
ATOM     92  C   UNL A   1      43.180  38.343  28.076  1.00  0.00     0.114 C 
ATOM     93  H   UNL A   1      44.161  39.571  29.503  1.00  0.00     0.161 HD
ATOM     94  C   UNL A   1      41.710  35.684  27.097  1.00  0.00    -0.030 C 
ATOM     95  C   UNL A   1      42.838  36.384  26.408  1.00  0.00     0.034 C 
BRANCH  92  96
ATOM     96  C   UNL A   1      43.513  39.446  27.078  1.00  0.00    -0.025 A 
ATOM     97  C   UNL A   1      42.572  40.397  26.636  1.00  0.00     0.007 A 
ATOM     98  C   UNL A   1      44.823  39.542  26.604  1.00  0.00     0.007 A 
ATOM     99  C   UNL A   1      42.946  41.431  25.770  1.00  0.00     0.022 A 
ATOM    100  C   UNL A   1      45.203  40.594  25.782  1.00  0.00     0.022 A 
ATOM    101  C   UNL A   1      44.274  41.540  25.363  1.00  0.00     0.082 A 
BRANCH 101 102
ATOM    102  S   UNL A   1      44.760  42.912  24.340  1.00  0.00     0.243 S 
ATOM    103  O   UNL A   1      44.178  44.095  24.943  1.00  0.00    -0.207 OA
ATOM    104  O   UNL A   1      46.183  42.784  24.131  1.00  0.00    -0.207 OA
BRANCH 102 105
ATOM    105  N   UNL A   1      44.001  42.652  22.868  1.00  0.00    -0.193 NA
ATOM    106  C   UNL A   1      44.741  42.627  21.590  1.00  0.00     0.131 C 
ATOM    107  C   UNL A   1      42.541  42.480  22.765  1.00  0.00     0.131 C 
ATOM    108  C   UNL A   1      44.032  43.450  20.501  1.00  0.00     0.177 C 
ATOM    109  C   UNL A   1      41.974  43.392  21.675  1.00  0.00     0.177 C 
ATOM    110  O   UNL A   1      42.629  43.169  20.419  1.00  0.00    -0.379 OA
ENDBRANCH 102 105
ENDBRANCH 101 102
ENDBRANCH  92  96
ENDBRANCH  78  81
ENDBRANCH  76  77
ENDBRANCH  75  76
ENDBRANCH   1  75
TORSDOF 17
ENDMDL
MODEL 3
REMARK VINA RESULT:     -12.0      8.120     15.335
REMARK SMILES O=C(NCCCCNC(=O)c1cc(Cl)c2c(c1)[C@H]1C=CC[C@H]1[C@H](c1ccc(S(=O)(=O)N3CCOCC3)cc1)N2)c1ccc(-c2c3nc(c(-c4c(F)cc(S(=O)(=O)[O-])cc4F)c4ccc([nH]4)c(-c4c(F)cc(S(=O)(=O)[O-])cc4F)c4nc(c(-c5c(F)cc(S(=O)(=O)[O-])cc5F)c5ccc2[nH]5)C=C4)C=C3)cc1
REMARK SMILES IDX 5 1 4 2 3 3 1 4 2 5 40 7 41 8 105 9 42 10 104 11 43 12 44 13
REMARK SMILES IDX 45 14 98 15 46 16 103 17 97 18 99 19 47 20 102 21 96 22
REMARK SMILES IDX 95 23 48 25 82 26 61 27 81 28 62 29 65 30 80 31 100 32 63 33
REMARK SMILES IDX 64 34 79 36 101 37 66 38 49 39 50 40 59 41 51 42 52 43 58 44
REMARK SMILES IDX 60 45 53 46 54 47 55 48 56 49 57 50 83 51 84 52 93 53 85 54
REMARK SMILES IDX 86 55 92 56 94 57 87 58 88 59 89 60 90 61 91 62 67 63 68 64
REMARK SMILES IDX 77 65 69 66 70 67 76 68 78 69 71 70 72 71 73 72 74 73 75 74
REMARK SMILES IDX 6 75 7 76 8 77 9 78 10 80 11 81 12 82 17 83 13 84 16 85
REMARK SMILES IDX 14 86 15 87 18 88 39 89 19 90 22 91 23 92 20 94 21 95 24 96
REMARK SMILES IDX 25 97 38 98 26 99 37 100 27 101 28 102 29 103 30 104 31 105
REMARK SMILES IDX 32 106 36 107 33 108 35 109 34 110
REMARK H PARENT 3 6 99 24 65 35 8 79 39 93
REMARK Flexibility Score: inf
ROOT
ATOM      1  C   UNL A   1      38.693  33.391  31.977  1.00  0.00     0.023 C 
ENDROOT
BRANCH   1   2
ATOM      2  C   UNL A   1      37.644  33.041  30.928  1.00  0.00     0.116 C 
BRANCH   2   3
ATOM      3  N   UNL A   1      36.732  31.997  31.369  1.00  0.00    -0.352 N 
ATOM      4  O   UNL A   1      35.933  29.890  31.532  1.00  0.00    -0.269 OA
ATOM      5  C   UNL A   1      36.856  30.635  31.221  1.00  0.00     0.251 C 
ATOM      6  H   UNL A   1      35.921  32.305  31.832  1.00  0.00     0.163 HD
BRANCH   5   7
ATOM      7  C   UNL A   1      38.102  30.089  30.648  1.00  0.00     0.039 A 
ATOM      8  C   UNL A   1      39.122  29.628  31.485  1.00  0.00     0.014 A 
ATOM      9  C   UNL A   1      38.265  30.091  29.261  1.00  0.00     0.014 A 
ATOM     10  C   UNL A   1      40.355  29.286  30.940  1.00  0.00     0.010 A 
ATOM     11  C   UNL A   1      39.489  29.701  28.713  1.00  0.00     0.010 A 
ATOM     12  C   UNL A   1      40.553  29.332  29.551  1.00  0.00    -0.014 A 
BRANCH  12  13
ATOM     13  C   UNL A   1      41.883  28.999  28.984  1.00  0.00     0.031 A 
ATOM     14  C   UNL A   1      42.182  27.599  28.519  1.00  0.00     0.074 A 
ATOM     15  C   UNL A   1      42.801  29.974  28.850  1.00  0.00     0.049 A 
ATOM     16  N   UNL A   1      43.290  27.118  28.018  1.00  0.00    -0.248 NA
ATOM     17  C   UNL A   1      41.092  26.614  28.623  1.00  0.00     0.031 C 
ATOM     18  C   UNL A   1      42.608  31.374  29.232  1.00  0.00     0.029 A 
ATOM     19  N   UNL A   1      44.075  29.938  28.344  1.00  0.00    -0.354 N 
ATOM     20  C   UNL A   1      43.031  25.781  27.734  1.00  0.00     0.074 A 
ATOM     21  C   UNL A   1      41.672  25.516  28.155  1.00  0.00     0.031 C 
ATOM     22  C   UNL A   1      43.714  32.070  28.921  1.00  0.00     0.029 A 
ATOM     23  C   UNL A   1      44.708  31.157  28.363  1.00  0.00     0.049 A 
ATOM     24  H   UNL A   1      44.496  29.118  28.000  1.00  0.00     0.167 HD
ATOM     25  C   UNL A   1      43.849  24.868  27.159  1.00  0.00     0.037 A 
ATOM     26  C   UNL A   1      45.954  31.497  27.987  1.00  0.00     0.037 A 
ATOM     27  C   UNL A   1      45.203  25.135  26.748  1.00  0.00     0.049 A 
ATOM     28  C   UNL A   1      46.871  30.435  27.445  1.00  0.00     0.074 A 
ATOM     29  C   UNL A   1      46.120  24.265  26.184  1.00  0.00     0.029 A 
ATOM     30  N   UNL A   1      45.834  26.366  26.849  1.00  0.00    -0.354 N 
ATOM     31  N   UNL A   1      46.621  29.169  27.212  1.00  0.00    -0.248 NA
ATOM     32  C   UNL A   1      48.244  30.848  27.123  1.00  0.00     0.031 C 
ATOM     33  C   UNL A   1      47.314  24.962  25.969  1.00  0.00     0.029 A 
ATOM     34  C   UNL A   1      47.129  26.276  26.366  1.00  0.00     0.049 A 
ATOM     35  H   UNL A   1      45.420  27.184  27.210  1.00  0.00     0.167 HD
ATOM     36  C   UNL A   1      47.798  28.640  26.698  1.00  0.00     0.074 A 
ATOM     37  C   UNL A   1      48.756  29.726  26.639  1.00  0.00     0.031 C 
ATOM     38  C   UNL A   1      48.065  27.368  26.312  1.00  0.00     0.037 A 
BRANCH  25  39
ATOM     39  C   UNL A   1      43.304  23.487  26.921  1.00  0.00     0.058 A 
ATOM     40  C   UNL A   1      43.015  23.035  25.624  1.00  0.00     0.135 A 
ATOM     41  C   UNL A   1      43.158  22.578  27.981  1.00  0.00     0.135 A 
ATOM     42  F   UNL A   1      43.120  23.870  24.579  1.00  0.00    -0.206 F 
ATOM     43  C   UNL A   1      42.601  21.728  25.386  1.00  0.00     0.059 A 
ATOM     44  C   UNL A   1      42.763  21.261  27.764  1.00  0.00     0.059 A 
ATOM     45  F   UNL A   1      43.418  22.963  29.241  1.00  0.00    -0.206 F 
ATOM     46  C   UNL A   1      42.485  20.846  26.463  1.00  0.00     0.060 A 
BRANCH  46  47
ATOM     47  S   UNL A   1      41.988  19.142  26.127  1.00  0.00     0.124 S 
ATOM     48  O   UNL A   1      42.846  18.806  24.995  1.00  0.00    -0.237 OA
ATOM     49  O   UNL A   1      42.306  18.473  27.384  1.00  0.00    -0.237 OA
ATOM     50  O   UNL A   1      40.565  19.256  25.821  1.00  0.00    -0.744 OA
ENDBRANCH  46  47
ENDBRANCH  25  39
BRANCH  26  51
ATOM     51  C   UNL A   1      46.422  32.902  28.114  1.00  0.00     0.058 A 
ATOM     52  C   UNL A   1      47.208  33.300  29.204  1.00  0.00     0.135 A 
ATOM     53  C   UNL A   1      46.069  33.876  27.168  1.00  0.00     0.135 A 
ATOM     54  F   UNL A   1      47.565  32.403  30.136  1.00  0.00    -0.206 F 
ATOM     55  C   UNL A   1      47.606  34.622  29.369  1.00  0.00     0.059 A 
ATOM     56  C   UNL A   1      46.475  35.199  27.298  1.00  0.00     0.059 A 
ATOM     57  F   UNL A   1      45.329  33.540  26.100  1.00  0.00    -0.206 F 
ATOM     58  C   UNL A   1      47.229  35.565  28.412  1.00  0.00     0.060 A 
BRANCH  58  59
ATOM     59  S   UNL A   1      47.757  37.278  28.630  1.00  0.00     0.124 S 
ATOM     60  O   UNL A   1      47.016  37.949  27.568  1.00  0.00    -0.237 OA
ATOM     61  O   UNL A   1      47.320  37.564  29.993  1.00  0.00    -0.237 OA
ATOM     62  O   UNL A   1      49.203  37.208  28.445  1.00  0.00    -0.744 OA
ENDBRANCH  58  59
ENDBRANCH  26  51
BRANCH  38  63
ATOM     63  C   UNL A   1      49.439  27.092  25.771  1.00  0.00     0.058 A 
ATOM     64  C   UNL A   1      50.459  26.580  26.588  1.00  0.00     0.135 A 
ATOM     65  C   UNL A   1      49.730  27.317  24.416  1.00  0.00     0.135 A 
ATOM     66  F   UNL A   1      50.231  26.356  27.892  1.00  0.00    -0.206 F 
ATOM     67  C   UNL A   1      51.730  26.326  26.086  1.00  0.00     0.059 A 
ATOM     68  C   UNL A   1      50.989  27.048  23.887  1.00  0.00     0.059 A 
ATOM     69  F   UNL A   1      48.785  27.797  23.592  1.00  0.00    -0.206 F 
ATOM     70  C   UNL A   1      51.986  26.566  24.735  1.00  0.00     0.060 A 
BRANCH  70  71
ATOM     71  S   UNL A   1      53.637  26.216  24.091  1.00  0.00     0.124 S 
ATOM     72  O   UNL A   1      54.338  27.461  24.390  1.00  0.00    -0.237 OA
ATOM     73  O   UNL A   1      54.041  25.056  24.880  1.00  0.00    -0.237 OA
ATOM     74  O   UNL A   1      53.401  25.952  22.676  1.00  0.00    -0.744 OA
ENDBRANCH  70  71
ENDBRANCH  38  63
ENDBRANCH  12  13
ENDBRANCH   5   7
ENDBRANCH   2   3
ENDBRANCH   1   2
BRANCH   1  75
ATOM     75  C   UNL A   1      40.143  33.195  31.537  1.00  0.00     0.023 C 
BRANCH  75  76
ATOM     76  C   UNL A   1      40.977  34.470  31.480  1.00  0.00     0.116 C 
BRANCH  76  77
ATOM     77  N   UNL A   1      42.375  34.247  31.817  1.00  0.00    -0.352 N 
ATOM     78  C   UNL A   1      43.491  34.781  31.225  1.00  0.00     0.251 C 
ATOM     79  H   UNL A   1      42.541  33.632  32.569  1.00  0.00     0.163 HD
ATOM     80  O   UNL A   1      44.621  34.436  31.544  1.00  0.00    -0.269 OA
BRANCH  78  81
ATOM     81  C   UNL A   1      43.303  35.761  30.146  1.00  0.00     0.041 A 
ATOM     82  C   UNL A   1      43.054  35.339  28.842  1.00  0.00     0.036 A 
ATOM     83  C   UNL A   1      43.447  37.113  30.448  1.00  0.00     0.020 A 
ATOM     84  C   UNL A   1      43.069  36.280  27.820  1.00  0.00     0.065 A 
ATOM     85  C   UNL A   1      43.432  38.064  29.418  1.00  0.00    -0.015 A 
ATOM     86  Cl  UNL A   1      42.851  35.722  26.195  1.00  0.00    -0.082 Cl
ATOM     87  C   UNL A   1      43.303  37.646  28.084  1.00  0.00     0.057 A 
ATOM     88  C   UNL A   1      43.526  39.520  29.772  1.00  0.00     0.049 C 
ATOM     89  N   UNL A   1      43.336  38.573  27.052  1.00  0.00    -0.376 N 
ATOM     90  C   UNL A   1      44.873  39.975  30.267  1.00  0.00    -0.023 C 
ATOM     91  C   UNL A   1      43.266  40.494  28.603  1.00  0.00     0.031 C 
ATOM     92  C   UNL A   1      43.838  39.917  27.283  1.00  0.00     0.114 C 
ATOM     93  H   UNL A   1      43.015  38.318  26.157  1.00  0.00     0.161 HD
ATOM     94  C   UNL A   1      45.116  41.236  29.894  1.00  0.00    -0.030 C 
ATOM     95  C   UNL A   1      43.976  41.776  29.090  1.00  0.00     0.034 C 
BRANCH  92  96
ATOM     96  C   UNL A   1      43.487  40.785  26.080  1.00  0.00    -0.025 A 
ATOM     97  C   UNL A   1      42.194  40.845  25.523  1.00  0.00     0.007 A 
ATOM     98  C   UNL A   1      44.485  41.587  25.523  1.00  0.00     0.007 A 
ATOM     99  C   UNL A   1      41.907  41.710  24.461  1.00  0.00     0.022 A 
ATOM    100  C   UNL A   1      44.189  42.477  24.500  1.00  0.00     0.022 A 
ATOM    101  C   UNL A   1      42.908  42.545  23.966  1.00  0.00     0.082 A 
BRANCH 101 102
ATOM    102  S   UNL A   1      42.510  43.708  22.680  1.00  0.00     0.243 S 
ATOM    103  O   UNL A   1      41.341  43.184  22.003  1.00  0.00    -0.207 OA
ATOM    104  O   UNL A   1      42.511  45.016  23.295  1.00  0.00    -0.207 OA
BRANCH 102 105
ATOM    105  N   UNL A   1      43.801  43.643  21.614  1.00  0.00    -0.193 NA
ATOM    106  C   UNL A   1      44.259  42.380  21.002  1.00  0.00     0.131 C 
ATOM    107  C   UNL A   1      44.582  44.843  21.263  1.00  0.00     0.131 C 
ATOM    108  C   UNL A   1      45.791  42.238  21.057  1.00  0.00     0.177 C 
ATOM    109  C   UNL A   1      46.079  44.565  21.408  1.00  0.00     0.177 C 
ATOM    110  O   UNL A   1      46.473  43.425  20.632  1.00  0.00    -0.379 OA
ENDBRANCH 102 105
ENDBRANCH 101 102
ENDBRANCH  92  96
ENDBRANCH  78  81
ENDBRANCH  76  77
ENDBRANCH  75  76
ENDBRANCH   1  75
TORSDOF 17
ENDMDL
