MODEL 1
REMARK VINA RESULT:     -11.0      0.000      0.000
REMARK SMILES CCC[NH2+][C@@]1(C(=O)NCCCCNC(=O)c2ccc(-c3c4nc(c(-c5c(F)cc(S(=O)(=O)[O-])cc5F)c5ccc([nH]5)c(-c5c(F)cc(S(=O)(=O)[O-])cc5F)c5nc(c(-c6c(F)cc(S(=O)(=O)[O-])cc6F)c6ccc3[nH]6)C=C5)C=C4)cc2)CC[C@@H](SC2CCCC2)C1
REMARK SMILES IDX 10 1 9 2 8 3 6 4 7 5 5 7 82 8 91 9 83 10 84 11 4 12 3 15
REMARK SMILES IDX 2 16 1 17 85 18 86 19 87 20 90 21 88 22 89 23 11 24 12 25
REMARK SMILES IDX 13 26 14 27 15 29 16 30 17 31 81 32 18 33 80 34 19 35 20 36
REMARK SMILES IDX 21 37 74 38 22 39 79 40 73 41 75 42 23 43 78 44 72 45 71 46
REMARK SMILES IDX 24 48 58 49 37 50 57 51 38 52 41 53 56 54 76 55 39 56 40 57
REMARK SMILES IDX 55 59 77 60 42 61 25 62 26 63 35 64 27 65 28 66 34 67 36 68
REMARK SMILES IDX 29 69 30 70 31 71 32 72 33 73 59 74 60 75 69 76 61 77 62 78
REMARK SMILES IDX 68 79 70 80 63 81 64 82 65 83 66 84 67 85 43 86 44 87 53 88
REMARK SMILES IDX 45 89 46 90 52 91 54 92 47 93 48 94 49 95 50 96 51 97
REMARK H PARENT 8 6 4 13 4 14 13 28 75 47 41 58
REMARK Flexibility Score: inf
ROOT
ATOM      1  C   UNL A   1      38.809  23.200  26.389  1.00  0.00     0.023 C 
ENDROOT
BRANCH   1   2
ATOM      2  C   UNL A   1      37.661  22.379  25.805  1.00  0.00     0.116 C 
BRANCH   2   3
ATOM      3  N   UNL A   1      37.428  22.698  24.421  1.00  0.00    -0.351 N 
ATOM      4  C   UNL A   1      36.302  22.846  23.687  1.00  0.00     0.281 C 
ATOM      5  O   UNL A   1      36.501  22.981  22.468  1.00  0.00    -0.268 OA
ATOM      6  H   UNL A   1      38.255  22.835  23.903  1.00  0.00     0.163 HD
BRANCH   4   7
ATOM      7  C   UNL A   1      34.804  22.813  24.239  1.00  0.00     0.176 C 
ATOM      8  C   UNL A   1      33.740  22.627  23.141  1.00  0.00     0.080 C 
ATOM      9  C   UNL A   1      34.446  24.123  24.967  1.00  0.00     0.093 C 
ATOM     10  C   UNL A   1      32.974  23.941  22.973  1.00  0.00     0.022 C 
ATOM     11  C   UNL A   1      33.420  24.859  24.101  1.00  0.00     0.054 C 
BRANCH   7  12
ATOM     12  N   UNL A   1      34.801  21.577  25.082  1.00  0.00    -0.334 N 
ATOM     13  H   UNL A   1      35.480  20.936  24.669  1.00  0.00     0.347 HD
ATOM     14  H   UNL A   1      34.999  21.930  26.017  1.00  0.00     0.347 HD
BRANCH  12  15
ATOM     15  C   UNL A   1      33.574  20.826  25.263  1.00  0.00     0.261 C 
BRANCH  15  16
ATOM     16  C   UNL A   1      33.683  19.428  24.638  1.00  0.00     0.058 C 
ATOM     17  C   UNL A   1      32.565  19.138  23.642  1.00  0.00     0.010 C 
ENDBRANCH  15  16
ENDBRANCH  12  15
ENDBRANCH   7  12
BRANCH  11  18
ATOM     18  S   UNL A   1      32.138  25.841  24.975  1.00  0.00    -0.155 SA
BRANCH  18  19
ATOM     19  C   UNL A   1      32.756  27.545  25.207  1.00  0.00     0.047 C 
ATOM     20  C   UNL A   1      31.797  28.666  25.573  1.00  0.00     0.014 C 
ATOM     21  C   UNL A   1      33.918  27.727  26.179  1.00  0.00     0.014 C 
ATOM     22  C   UNL A   1      32.736  29.841  25.794  1.00  0.00     0.001 C 
ATOM     23  C   UNL A   1      33.941  29.228  26.503  1.00  0.00     0.001 C 
ENDBRANCH  18  19
ENDBRANCH  11  18
ENDBRANCH   4   7
ENDBRANCH   2   3
ENDBRANCH   1   2
BRANCH   1  24
ATOM     24  C   UNL A   1      40.030  22.373  26.788  1.00  0.00     0.023 C 
BRANCH  24  25
ATOM     25  C   UNL A   1      41.303  23.179  27.034  1.00  0.00     0.116 C 
BRANCH  25  26
ATOM     26  N   UNL A   1      41.697  24.026  25.917  1.00  0.00    -0.352 N 
ATOM     27  C   UNL A   1      41.919  25.384  25.937  1.00  0.00     0.251 C 
ATOM     28  H   UNL A   1      41.817  23.578  25.050  1.00  0.00     0.163 HD
ATOM     29  O   UNL A   1      42.174  25.994  24.903  1.00  0.00    -0.269 OA
BRANCH  27  30
ATOM     30  C   UNL A   1      41.790  26.097  27.223  1.00  0.00     0.039 A 
ATOM     31  C   UNL A   1      42.785  27.003  27.593  1.00  0.00     0.014 A 
ATOM     32  C   UNL A   1      40.642  25.939  28.003  1.00  0.00     0.014 A 
ATOM     33  C   UNL A   1      42.590  27.810  28.715  1.00  0.00     0.010 A 
ATOM     34  C   UNL A   1      40.416  26.799  29.071  1.00  0.00     0.010 A 
ATOM     35  C   UNL A   1      41.386  27.742  29.438  1.00  0.00    -0.014 A 
BRANCH  35  36
ATOM     36  C   UNL A   1      41.127  28.653  30.580  1.00  0.00     0.031 A 
ATOM     37  C   UNL A   1      41.960  28.550  31.828  1.00  0.00     0.074 A 
ATOM     38  C   UNL A   1      40.105  29.531  30.514  1.00  0.00     0.049 A 
ATOM     39  N   UNL A   1      41.867  29.231  32.940  1.00  0.00    -0.248 NA
ATOM     40  C   UNL A   1      43.016  27.523  31.839  1.00  0.00     0.031 C 
ATOM     41  C   UNL A   1      39.181  29.673  29.387  1.00  0.00     0.029 A 
ATOM     42  N   UNL A   1      39.669  30.465  31.418  1.00  0.00    -0.354 N 
ATOM     43  C   UNL A   1      42.838  28.707  33.785  1.00  0.00     0.074 A 
ATOM     44  C   UNL A   1      43.467  27.612  33.081  1.00  0.00     0.031 C 
ATOM     45  C   UNL A   1      38.309  30.659  29.653  1.00  0.00     0.029 A 
ATOM     46  C   UNL A   1      38.595  31.201  30.978  1.00  0.00     0.049 A 
ATOM     47  H   UNL A   1      40.087  30.598  32.300  1.00  0.00     0.167 HD
ATOM     48  C   UNL A   1      43.194  29.120  35.025  1.00  0.00     0.037 A 
ATOM     49  C   UNL A   1      37.922  32.205  31.573  1.00  0.00     0.037 A 
ATOM     50  C   UNL A   1      42.590  30.235  35.705  1.00  0.00     0.049 A 
ATOM     51  C   UNL A   1      38.364  32.676  32.931  1.00  0.00     0.074 A 
ATOM     52  C   UNL A   1      42.919  30.776  36.935  1.00  0.00     0.029 A 
ATOM     53  N   UNL A   1      41.532  30.983  35.208  1.00  0.00    -0.354 N 
ATOM     54  N   UNL A   1      39.332  32.214  33.688  1.00  0.00    -0.248 NA
ATOM     55  C   UNL A   1      37.633  33.810  33.512  1.00  0.00     0.031 C 
ATOM     56  C   UNL A   1      42.042  31.835  37.195  1.00  0.00     0.029 A 
ATOM     57  C   UNL A   1      41.191  31.977  36.111  1.00  0.00     0.049 A 
ATOM     58  H   UNL A   1      41.090  30.831  34.342  1.00  0.00     0.167 HD
ATOM     59  C   UNL A   1      39.342  33.019  34.823  1.00  0.00     0.074 A 
ATOM     60  C   UNL A   1      38.293  34.003  34.645  1.00  0.00     0.031 C 
ATOM     61  C   UNL A   1      40.146  32.949  35.912  1.00  0.00     0.037 A 
BRANCH  48  62
ATOM     62  C   UNL A   1      44.301  28.371  35.712  1.00  0.00     0.058 A 
ATOM     63  C   UNL A   1      45.650  28.713  35.517  1.00  0.00     0.135 A 
ATOM     64  C   UNL A   1      44.015  27.309  36.584  1.00  0.00     0.135 A 
ATOM     65  F   UNL A   1      45.981  29.708  34.679  1.00  0.00    -0.206 F 
ATOM     66  C   UNL A   1      46.676  28.008  36.136  1.00  0.00     0.059 A 
ATOM     67  C   UNL A   1      45.025  26.607  37.236  1.00  0.00     0.059 A 
ATOM     68  F   UNL A   1      42.744  26.938  36.804  1.00  0.00    -0.206 F 
ATOM     69  C   UNL A   1      46.354  26.953  36.991  1.00  0.00     0.060 A 
BRANCH  69  70
ATOM     70  S   UNL A   1      47.698  26.045  37.784  1.00  0.00     0.124 S 
ATOM     71  O   UNL A   1      47.660  26.594  39.136  1.00  0.00    -0.237 OA
ATOM     72  O   UNL A   1      47.261  24.658  37.652  1.00  0.00    -0.237 OA
ATOM     73  O   UNL A   1      48.868  26.408  36.990  1.00  0.00    -0.744 OA
ENDBRANCH  69  70
ENDBRANCH  48  62
BRANCH  49  74
ATOM     74  C   UNL A   1      36.791  32.864  30.867  1.00  0.00     0.058 A 
ATOM     75  C   UNL A   1      37.026  33.772  29.823  1.00  0.00     0.135 A 
ATOM     76  C   UNL A   1      35.458  32.590  31.208  1.00  0.00     0.135 A 
ATOM     77  F   UNL A   1      38.285  34.069  29.465  1.00  0.00    -0.206 F 
ATOM     78  C   UNL A   1      35.982  34.400  29.153  1.00  0.00     0.059 A 
ATOM     79  C   UNL A   1      34.396  33.188  30.537  1.00  0.00     0.059 A 
ATOM     80  F   UNL A   1      35.180  31.713  32.185  1.00  0.00    -0.206 F 
ATOM     81  C   UNL A   1      34.668  34.100  29.517  1.00  0.00     0.060 A 
BRANCH  81  82
ATOM     82  S   UNL A   1      33.317  34.882  28.608  1.00  0.00     0.124 S 
ATOM     83  O   UNL A   1      33.977  36.060  28.058  1.00  0.00    -0.237 OA
ATOM     84  O   UNL A   1      32.952  33.846  27.646  1.00  0.00    -0.237 OA
ATOM     85  O   UNL A   1      32.323  35.140  29.646  1.00  0.00    -0.744 OA
ENDBRANCH  81  82
ENDBRANCH  49  74
BRANCH  61  86
ATOM     86  C   UNL A   1      39.944  33.986  36.981  1.00  0.00     0.058 A 
ATOM     87  C   UNL A   1      39.145  33.733  38.107  1.00  0.00     0.135 A 
ATOM     88  C   UNL A   1      40.586  35.230  36.895  1.00  0.00     0.135 A 
ATOM     89  F   UNL A   1      38.505  32.559  38.233  1.00  0.00    -0.206 F 
ATOM     90  C   UNL A   1      38.966  34.691  39.098  1.00  0.00     0.059 A 
ATOM     91  C   UNL A   1      40.442  36.194  37.887  1.00  0.00     0.059 A 
ATOM     92  F   UNL A   1      41.370  35.516  35.844  1.00  0.00    -0.206 F 
ATOM     93  C   UNL A   1      39.618  35.922  38.978  1.00  0.00     0.060 A 
BRANCH  93  94
ATOM     94  S   UNL A   1      39.395  37.152  40.280  1.00  0.00     0.124 S 
ATOM     95  O   UNL A   1      40.778  37.484  40.609  1.00  0.00    -0.237 OA
ATOM     96  O   UNL A   1      38.637  38.197  39.599  1.00  0.00    -0.237 OA
ATOM     97  O   UNL A   1      38.660  36.425  41.311  1.00  0.00    -0.744 OA
ENDBRANCH  93  94
ENDBRANCH  61  86
ENDBRANCH  35  36
ENDBRANCH  27  30
ENDBRANCH  25  26
ENDBRANCH  24  25
ENDBRANCH   1  24
TORSDOF 19
ENDMDL
MODEL 2
REMARK VINA RESULT:     -11.0      6.283      8.969
REMARK SMILES CCC[NH2+][C@@]1(C(=O)NCCCCNC(=O)c2ccc(-c3c4nc(c(-c5c(F)cc(S(=O)(=O)[O-])cc5F)c5ccc([nH]5)c(-c5c(F)cc(S(=O)(=O)[O-])cc5F)c5nc(c(-c6c(F)cc(S(=O)(=O)[O-])cc6F)c6ccc3[nH]6)C=C5)C=C4)cc2)CC[C@@H](SC2CCCC2)C1
REMARK SMILES IDX 10 1 9 2 8 3 6 4 7 5 5 7 82 8 91 9 83 10 84 11 4 12 3 15
REMARK SMILES IDX 2 16 1 17 85 18 86 19 87 20 90 21 88 22 89 23 11 24 12 25
REMARK SMILES IDX 13 26 14 27 15 29 16 30 17 31 81 32 18 33 80 34 19 35 20 36
REMARK SMILES IDX 21 37 74 38 22 39 79 40 73 41 75 42 23 43 78 44 72 45 71 46
REMARK SMILES IDX 24 48 58 49 37 50 57 51 38 52 41 53 56 54 76 55 39 56 40 57
REMARK SMILES IDX 55 59 77 60 42 61 25 62 26 63 35 64 27 65 28 66 34 67 36 68
REMARK SMILES IDX 29 69 30 70 31 71 32 72 33 73 59 74 60 75 69 76 61 77 62 78
REMARK SMILES IDX 68 79 70 80 63 81 64 82 65 83 66 84 67 85 43 86 44 87 53 88
REMARK SMILES IDX 45 89 46 90 52 91 54 92 47 93 48 94 49 95 50 96 51 97
REMARK H PARENT 8 6 4 13 4 14 13 28 75 47 41 58
REMARK Flexibility Score: inf
ROOT
ATOM      1  C   UNL A   1      39.387  22.868  26.372  1.00  0.00     0.023 C 
ENDROOT
BRANCH   1   2
ATOM      2  C   UNL A   1      38.061  23.564  26.073  1.00  0.00     0.116 C 
BRANCH   2   3
ATOM      3  N   UNL A   1      37.740  23.518  24.670  1.00  0.00    -0.351 N 
ATOM      4  C   UNL A   1      36.583  23.327  23.997  1.00  0.00     0.281 C 
ATOM      5  O   UNL A   1      36.721  23.204  22.767  1.00  0.00    -0.268 OA
ATOM      6  H   UNL A   1      38.519  23.650  24.083  1.00  0.00     0.163 HD
BRANCH   4   7
ATOM      7  C   UNL A   1      35.125  23.206  24.638  1.00  0.00     0.176 C 
ATOM      8  C   UNL A   1      35.133  22.970  26.160  1.00  0.00     0.080 C 
ATOM      9  C   UNL A   1      34.340  22.030  24.025  1.00  0.00     0.093 C 
ATOM     10  C   UNL A   1      34.680  21.536  26.436  1.00  0.00     0.022 C 
ATOM     11  C   UNL A   1      34.197  20.962  25.112  1.00  0.00     0.054 C 
BRANCH   7  12
ATOM     12  N   UNL A   1      34.555  24.567  24.396  1.00  0.00    -0.334 N 
ATOM     13  H   UNL A   1      34.146  24.877  25.279  1.00  0.00     0.347 HD
ATOM     14  H   UNL A   1      35.351  25.095  24.038  1.00  0.00     0.347 HD
BRANCH  12  15
ATOM     15  C   UNL A   1      33.543  24.760  23.377  1.00  0.00     0.261 C 
BRANCH  15  16
ATOM     16  C   UNL A   1      33.575  26.191  22.826  1.00  0.00     0.058 C 
ATOM     17  C   UNL A   1      32.380  26.508  21.934  1.00  0.00     0.010 C 
ENDBRANCH  15  16
ENDBRANCH  12  15
ENDBRANCH   7  12
BRANCH  11  18
ATOM     18  S   UNL A   1      32.653  19.968  25.112  1.00  0.00    -0.155 SA
BRANCH  18  19
ATOM     19  C   UNL A   1      33.042  18.274  24.547  1.00  0.00     0.047 C 
ATOM     20  C   UNL A   1      34.478  17.876  24.249  1.00  0.00     0.014 C 
ATOM     21  C   UNL A   1      32.514  17.127  25.402  1.00  0.00     0.014 C 
ATOM     22  C   UNL A   1      34.352  16.389  23.954  1.00  0.00     0.001 C 
ATOM     23  C   UNL A   1      33.321  15.895  24.966  1.00  0.00     0.001 C 
ENDBRANCH  18  19
ENDBRANCH  11  18
ENDBRANCH   4   7
ENDBRANCH   2   3
ENDBRANCH   1   2
BRANCH   1  24
ATOM     24  C   UNL A   1      39.481  21.441  25.834  1.00  0.00     0.023 C 
BRANCH  24  25
ATOM     25  C   UNL A   1      39.969  20.402  26.839  1.00  0.00     0.116 C 
BRANCH  25  26
ATOM     26  N   UNL A   1      40.838  19.383  26.268  1.00  0.00    -0.352 N 
ATOM     27  C   UNL A   1      42.164  19.513  25.926  1.00  0.00     0.251 C 
ATOM     28  H   UNL A   1      40.431  18.501  26.108  1.00  0.00     0.163 HD
ATOM     29  O   UNL A   1      42.765  18.593  25.379  1.00  0.00    -0.269 OA
BRANCH  27  30
ATOM     30  C   UNL A   1      42.832  20.804  26.183  1.00  0.00     0.039 A 
ATOM     31  C   UNL A   1      43.183  21.608  25.098  1.00  0.00     0.014 A 
ATOM     32  C   UNL A   1      43.015  21.253  27.493  1.00  0.00     0.014 A 
ATOM     33  C   UNL A   1      43.651  22.902  25.331  1.00  0.00     0.010 A 
ATOM     34  C   UNL A   1      43.405  22.567  27.719  1.00  0.00     0.010 A 
ATOM     35  C   UNL A   1      43.727  23.405  26.642  1.00  0.00    -0.014 A 
BRANCH  35  36
ATOM     36  C   UNL A   1      44.140  24.806  26.900  1.00  0.00     0.031 A 
ATOM     37  C   UNL A   1      45.581  25.208  26.736  1.00  0.00     0.074 A 
ATOM     38  C   UNL A   1      43.231  25.699  27.341  1.00  0.00     0.049 A 
ATOM     39  N   UNL A   1      46.142  26.369  26.946  1.00  0.00    -0.248 NA
ATOM     40  C   UNL A   1      46.519  24.156  26.312  1.00  0.00     0.031 C 
ATOM     41  C   UNL A   1      41.820  25.409  27.609  1.00  0.00     0.029 A 
ATOM     42  N   UNL A   1      43.358  27.030  27.645  1.00  0.00    -0.354 N 
ATOM     43  C   UNL A   1      47.496  26.186  26.695  1.00  0.00     0.074 A 
ATOM     44  C   UNL A   1      47.682  24.787  26.377  1.00  0.00     0.031 C 
ATOM     45  C   UNL A   1      41.207  26.536  28.007  1.00  0.00     0.029 A 
ATOM     46  C   UNL A   1      42.183  27.620  28.046  1.00  0.00     0.049 A 
ATOM     47  H   UNL A   1      44.211  27.518  27.581  1.00  0.00     0.167 HD
ATOM     48  C   UNL A   1      48.491  27.105  26.698  1.00  0.00     0.037 A 
ATOM     49  C   UNL A   1      41.922  28.895  28.396  1.00  0.00     0.037 A 
ATOM     50  C   UNL A   1      48.292  28.502  26.979  1.00  0.00     0.049 A 
ATOM     51  C   UNL A   1      43.033  29.907  28.350  1.00  0.00     0.074 A 
ATOM     52  C   UNL A   1      49.220  29.528  26.946  1.00  0.00     0.029 A 
ATOM     53  N   UNL A   1      47.079  29.070  27.338  1.00  0.00    -0.354 N 
ATOM     54  N   UNL A   1      44.297  29.729  28.041  1.00  0.00    -0.248 NA
ATOM     55  C   UNL A   1      42.684  31.293  28.688  1.00  0.00     0.031 C 
ATOM     56  C   UNL A   1      48.573  30.713  27.314  1.00  0.00     0.029 A 
ATOM     57  C   UNL A   1      47.235  30.432  27.539  1.00  0.00     0.049 A 
ATOM     58  H   UNL A   1      46.231  28.579  27.436  1.00  0.00     0.167 HD
ATOM     59  C   UNL A   1      44.887  30.986  28.122  1.00  0.00     0.074 A 
ATOM     60  C   UNL A   1      43.839  31.915  28.496  1.00  0.00     0.031 C 
ATOM     61  C   UNL A   1      46.178  31.339  27.906  1.00  0.00     0.037 A 
BRANCH  48  62
ATOM     62  C   UNL A   1      49.877  26.625  26.371  1.00  0.00     0.058 A 
ATOM     63  C   UNL A   1      50.750  26.166  27.371  1.00  0.00     0.135 A 
ATOM     64  C   UNL A   1      50.335  26.608  25.044  1.00  0.00     0.135 A 
ATOM     65  F   UNL A   1      50.369  26.178  28.659  1.00  0.00    -0.206 F 
ATOM     66  C   UNL A   1      52.039  25.741  27.072  1.00  0.00     0.059 A 
ATOM     67  C   UNL A   1      51.613  26.160  24.718  1.00  0.00     0.059 A 
ATOM     68  F   UNL A   1      49.543  27.037  24.049  1.00  0.00    -0.206 F 
ATOM     69  C   UNL A   1      52.463  25.745  25.743  1.00  0.00     0.060 A 
BRANCH  69  70
ATOM     70  S   UNL A   1      54.141  25.193  25.371  1.00  0.00     0.124 S 
ATOM     71  O   UNL A   1      54.811  25.420  26.647  1.00  0.00    -0.237 OA
ATOM     72  O   UNL A   1      53.939  23.795  25.002  1.00  0.00    -0.237 OA
ATOM     73  O   UNL A   1      54.554  26.072  24.280  1.00  0.00    -0.744 OA
ENDBRANCH  69  70
ENDBRANCH  48  62
BRANCH  49  74
ATOM     74  C   UNL A   1      40.541  29.294  28.775  1.00  0.00     0.058 A 
ATOM     75  C   UNL A   1      40.196  29.502  30.119  1.00  0.00     0.135 A 
ATOM     76  C   UNL A   1      39.545  29.491  27.806  1.00  0.00     0.135 A 
ATOM     77  F   UNL A   1      41.113  29.322  31.081  1.00  0.00    -0.206 F 
ATOM     78  C   UNL A   1      38.909  29.874  30.493  1.00  0.00     0.059 A 
ATOM     79  C   UNL A   1      38.257  29.885  28.153  1.00  0.00     0.059 A 
ATOM     80  F   UNL A   1      39.830  29.325  26.505  1.00  0.00    -0.206 F 
ATOM     81  C   UNL A   1      37.945  30.064  29.501  1.00  0.00     0.060 A 
BRANCH  81  82
ATOM     82  S   UNL A   1      36.290  30.596  29.991  1.00  0.00     0.124 S 
ATOM     83  O   UNL A   1      36.489  32.025  30.195  1.00  0.00    -0.237 OA
ATOM     84  O   UNL A   1      35.489  30.221  28.830  1.00  0.00    -0.237 OA
ATOM     85  O   UNL A   1      36.033  29.815  31.198  1.00  0.00    -0.744 OA
ENDBRANCH  81  82
ENDBRANCH  49  74
BRANCH  61  86
ATOM     86  C   UNL A   1      46.522  32.796  28.038  1.00  0.00     0.058 A 
ATOM     87  C   UNL A   1      47.054  33.321  29.226  1.00  0.00     0.135 A 
ATOM     88  C   UNL A   1      46.351  33.668  26.952  1.00  0.00     0.135 A 
ATOM     89  F   UNL A   1      47.232  32.529  30.295  1.00  0.00    -0.206 F 
ATOM     90  C   UNL A   1      47.378  34.668  29.342  1.00  0.00     0.059 A 
ATOM     91  C   UNL A   1      46.692  35.013  27.037  1.00  0.00     0.059 A 
ATOM     92  F   UNL A   1      45.856  33.212  25.790  1.00  0.00    -0.206 F 
ATOM     93  C   UNL A   1      47.191  35.508  28.241  1.00  0.00     0.060 A 
BRANCH  93  94
ATOM     94  S   UNL A   1      47.634  37.251  28.395  1.00  0.00     0.124 S 
ATOM     95  O   UNL A   1      46.478  37.785  29.108  1.00  0.00    -0.237 OA
ATOM     96  O   UNL A   1      48.878  37.194  29.156  1.00  0.00    -0.237 OA
ATOM     97  O   UNL A   1      47.774  37.688  27.008  1.00  0.00    -0.744 OA
ENDBRANCH  93  94
ENDBRANCH  61  86
ENDBRANCH  35  36
ENDBRANCH  27  30
ENDBRANCH  25  26
ENDBRANCH  24  25
ENDBRANCH   1  24
TORSDOF 19
ENDMDL
MODEL 3
REMARK VINA RESULT:     -10.9      6.404     12.062
REMARK SMILES CCC[NH2+][C@@]1(C(=O)NCCCCNC(=O)c2ccc(-c3c4nc(c(-c5c(F)cc(S(=O)(=O)[O-])cc5F)c5ccc([nH]5)c(-c5c(F)cc(S(=O)(=O)[O-])cc5F)c5nc(c(-c6c(F)cc(S(=O)(=O)[O-])cc6F)c6ccc3[nH]6)C=C5)C=C4)cc2)CC[C@@H](SC2CCCC2)C1
REMARK SMILES IDX 10 1 9 2 8 3 6 4 7 5 5 7 82 8 91 9 83 10 84 11 4 12 3 15
REMARK SMILES IDX 2 16 1 17 85 18 86 19 87 20 90 21 88 22 89 23 11 24 12 25
REMARK SMILES IDX 13 26 14 27 15 29 16 30 17 31 81 32 18 33 80 34 19 35 20 36
REMARK SMILES IDX 21 37 74 38 22 39 79 40 73 41 75 42 23 43 78 44 72 45 71 46
REMARK SMILES IDX 24 48 58 49 37 50 57 51 38 52 41 53 56 54 76 55 39 56 40 57
REMARK SMILES IDX 55 59 77 60 42 61 25 62 26 63 35 64 27 65 28 66 34 67 36 68
REMARK SMILES IDX 29 69 30 70 31 71 32 72 33 73 59 74 60 75 69 76 61 77 62 78
REMARK SMILES IDX 68 79 70 80 63 81 64 82 65 83 66 84 67 85 43 86 44 87 53 88
REMARK SMILES IDX 45 89 46 90 52 91 54 92 47 93 48 94 49 95 50 96 51 97
REMARK H PARENT 8 6 4 13 4 14 13 28 75 47 41 58
REMARK Flexibility Score: inf
ROOT
ATOM      1  C   UNL A   1      33.989  31.287  27.666  1.00  0.00     0.023 C 
ENDROOT
BRANCH   1   2
ATOM      2  C   UNL A   1      33.538  30.123  26.785  1.00  0.00     0.116 C 
BRANCH   2   3
ATOM      3  N   UNL A   1      32.620  29.256  27.477  1.00  0.00    -0.351 N 
ATOM      4  C   UNL A   1      32.027  28.088  27.141  1.00  0.00     0.281 C 
ATOM      5  O   UNL A   1      31.167  27.701  27.951  1.00  0.00    -0.268 OA
ATOM      6  H   UNL A   1      32.374  29.578  28.375  1.00  0.00     0.163 HD
BRANCH   4   7
ATOM      7  C   UNL A   1      32.300  27.235  25.819  1.00  0.00     0.176 C 
ATOM      8  C   UNL A   1      31.425  25.973  25.701  1.00  0.00     0.080 C 
ATOM      9  C   UNL A   1      33.762  26.752  25.758  1.00  0.00     0.093 C 
ATOM     10  C   UNL A   1      32.308  24.742  25.913  1.00  0.00     0.022 C 
ATOM     11  C   UNL A   1      33.748  25.234  25.951  1.00  0.00     0.054 C 
BRANCH   7  12
ATOM     12  N   UNL A   1      31.879  28.178  24.738  1.00  0.00    -0.334 N 
ATOM     13  H   UNL A   1      32.124  29.117  25.053  1.00  0.00     0.347 HD
ATOM     14  H   UNL A   1      32.359  27.820  23.913  1.00  0.00     0.347 HD
BRANCH  12  15
ATOM     15  C   UNL A   1      30.492  28.227  24.318  1.00  0.00     0.261 C 
BRANCH  15  16
ATOM     16  C   UNL A   1      30.362  28.014  22.804  1.00  0.00     0.058 C 
ATOM     17  C   UNL A   1      31.458  27.118  22.238  1.00  0.00     0.010 C 
ENDBRANCH  15  16
ENDBRANCH  12  15
ENDBRANCH   7  12
BRANCH  11  18
ATOM     18  S   UNL A   1      35.017  24.262  25.047  1.00  0.00    -0.155 SA
BRANCH  18  19
ATOM     19  C   UNL A   1      34.188  22.912  24.136  1.00  0.00     0.047 C 
ATOM     20  C   UNL A   1      33.374  21.869  24.884  1.00  0.00     0.014 C 
ATOM     21  C   UNL A   1      33.283  23.320  22.978  1.00  0.00     0.014 C 
ATOM     22  C   UNL A   1      32.773  21.050  23.753  1.00  0.00     0.001 C 
ATOM     23  C   UNL A   1      32.415  22.086  22.690  1.00  0.00     0.001 C 
ENDBRANCH  18  19
ENDBRANCH  11  18
ENDBRANCH   4   7
ENDBRANCH   2   3
ENDBRANCH   1   2
BRANCH   1  24
ATOM     24  C   UNL A   1      35.502  31.492  27.706  1.00  0.00     0.023 C 
BRANCH  24  25
ATOM     25  C   UNL A   1      36.039  32.090  29.003  1.00  0.00     0.116 C 
BRANCH  25  26
ATOM     26  N   UNL A   1      35.757  31.293  30.188  1.00  0.00    -0.352 N 
ATOM     27  C   UNL A   1      36.605  30.417  30.826  1.00  0.00     0.251 C 
ATOM     28  H   UNL A   1      34.859  31.391  30.578  1.00  0.00     0.163 HD
ATOM     29  O   UNL A   1      36.216  29.746  31.777  1.00  0.00    -0.269 OA
BRANCH  27  30
ATOM     30  C   UNL A   1      37.978  30.264  30.305  1.00  0.00     0.039 A 
ATOM     31  C   UNL A   1      39.042  30.235  31.207  1.00  0.00     0.014 A 
ATOM     32  C   UNL A   1      38.193  30.052  28.941  1.00  0.00     0.014 A 
ATOM     33  C   UNL A   1      40.320  29.916  30.746  1.00  0.00     0.010 A 
ATOM     34  C   UNL A   1      39.449  29.657  28.498  1.00  0.00     0.010 A 
ATOM     35  C   UNL A   1      40.525  29.585  29.395  1.00  0.00    -0.014 A 
BRANCH  35  36
ATOM     36  C   UNL A   1      41.859  29.159  28.907  1.00  0.00     0.031 A 
ATOM     37  C   UNL A   1      42.982  30.157  28.821  1.00  0.00     0.074 A 
ATOM     38  C   UNL A   1      42.042  27.892  28.485  1.00  0.00     0.049 A 
ATOM     39  N   UNL A   1      44.204  29.988  28.390  1.00  0.00    -0.248 NA
ATOM     40  C   UNL A   1      42.679  31.535  29.243  1.00  0.00     0.031 C 
ATOM     41  C   UNL A   1      41.010  26.853  28.450  1.00  0.00     0.029 A 
ATOM     42  N   UNL A   1      43.159  27.262  27.999  1.00  0.00    -0.354 N 
ATOM     43  C   UNL A   1      44.811  31.235  28.476  1.00  0.00     0.074 A 
ATOM     44  C   UNL A   1      43.805  32.164  28.941  1.00  0.00     0.031 C 
ATOM     45  C   UNL A   1      41.550  25.709  28.000  1.00  0.00     0.029 A 
ATOM     46  C   UNL A   1      42.958  25.938  27.690  1.00  0.00     0.049 A 
ATOM     47  H   UNL A   1      44.026  27.716  27.883  1.00  0.00     0.167 HD
ATOM     48  C   UNL A   1      46.098  31.571  28.220  1.00  0.00     0.037 A 
ATOM     49  C   UNL A   1      43.816  25.011  27.220  1.00  0.00     0.037 A 
ATOM     50  C   UNL A   1      47.103  30.633  27.794  1.00  0.00     0.049 A 
ATOM     51  C   UNL A   1      45.250  25.397  26.985  1.00  0.00     0.074 A 
ATOM     52  C   UNL A   1      48.450  30.857  27.569  1.00  0.00     0.029 A 
ATOM     53  N   UNL A   1      46.870  29.291  27.534  1.00  0.00    -0.354 N 
ATOM     54  N   UNL A   1      45.824  26.567  27.139  1.00  0.00    -0.248 NA
ATOM     55  C   UNL A   1      46.157  24.336  26.524  1.00  0.00     0.031 C 
ATOM     56  C   UNL A   1      49.027  29.655  27.145  1.00  0.00     0.029 A 
ATOM     57  C   UNL A   1      48.047  28.674  27.142  1.00  0.00     0.049 A 
ATOM     58  H   UNL A   1      45.998  28.842  27.615  1.00  0.00     0.167 HD
ATOM     59  C   UNL A   1      47.165  26.376  26.820  1.00  0.00     0.074 A 
ATOM     60  C   UNL A   1      47.317  24.977  26.477  1.00  0.00     0.031 C 
ATOM     61  C   UNL A   1      48.177  27.278  26.810  1.00  0.00     0.037 A 
BRANCH  48  62
ATOM     62  C   UNL A   1      46.489  33.009  28.414  1.00  0.00     0.058 A 
ATOM     63  C   UNL A   1      46.969  33.479  29.648  1.00  0.00     0.135 A 
ATOM     64  C   UNL A   1      46.398  33.926  27.356  1.00  0.00     0.135 A 
ATOM     65  F   UNL A   1      47.059  32.648  30.700  1.00  0.00    -0.206 F 
ATOM     66  C   UNL A   1      47.311  34.813  29.835  1.00  0.00     0.059 A 
ATOM     67  C   UNL A   1      46.761  35.261  27.512  1.00  0.00     0.059 A 
ATOM     68  F   UNL A   1      45.943  33.531  26.156  1.00  0.00    -0.206 F 
ATOM     69  C   UNL A   1      47.201  35.698  28.762  1.00  0.00     0.060 A 
BRANCH  69  70
ATOM     70  S   UNL A   1      47.646  37.428  29.021  1.00  0.00     0.124 S 
ATOM     71  O   UNL A   1      47.370  37.589  30.445  1.00  0.00    -0.237 OA
ATOM     72  O   UNL A   1      49.056  37.450  28.643  1.00  0.00    -0.237 OA
ATOM     73  O   UNL A   1      46.749  38.148  28.122  1.00  0.00    -0.744 OA
ENDBRANCH  69  70
ENDBRANCH  48  62
BRANCH  49  74
ATOM     74  C   UNL A   1      43.351  23.619  26.985  1.00  0.00     0.058 A 
ATOM     75  C   UNL A   1      43.151  22.737  28.059  1.00  0.00     0.135 A 
ATOM     76  C   UNL A   1      43.082  23.146  25.692  1.00  0.00     0.135 A 
ATOM     77  F   UNL A   1      43.398  23.143  29.313  1.00  0.00    -0.206 F 
ATOM     78  C   UNL A   1      42.720  21.430  27.859  1.00  0.00     0.059 A 
ATOM     79  C   UNL A   1      42.628  21.849  25.469  1.00  0.00     0.059 A 
ATOM     80  F   UNL A   1      43.238  23.956  24.633  1.00  0.00    -0.206 F 
ATOM     81  C   UNL A   1      42.459  20.996  26.558  1.00  0.00     0.060 A 
BRANCH  81  82
ATOM     82  S   UNL A   1      41.851  19.313  26.312  1.00  0.00     0.124 S 
ATOM     83  O   UNL A   1      40.419  19.539  26.159  1.00  0.00    -0.237 OA
ATOM     84  O   UNL A   1      42.565  18.899  25.108  1.00  0.00    -0.237 OA
ATOM     85  O   UNL A   1      42.255  18.630  27.538  1.00  0.00    -0.744 OA
ENDBRANCH  81  82
ENDBRANCH  49  74
BRANCH  61  86
ATOM     86  C   UNL A   1      49.545  26.770  26.449  1.00  0.00     0.058 A 
ATOM     87  C   UNL A   1      50.385  26.178  27.404  1.00  0.00     0.135 A 
ATOM     88  C   UNL A   1      50.002  26.843  25.124  1.00  0.00     0.135 A 
ATOM     89  F   UNL A   1      49.995  26.090  28.686  1.00  0.00    -0.206 F 
ATOM     90  C   UNL A   1      51.646  25.702  27.065  1.00  0.00     0.059 A 
ATOM     91  C   UNL A   1      51.250  26.350  24.756  1.00  0.00     0.059 A 
ATOM     92  F   UNL A   1      49.231  27.389  24.171  1.00  0.00    -0.206 F 
ATOM     93  C   UNL A   1      52.071  25.795  25.737  1.00  0.00     0.060 A 
BRANCH  93  94
ATOM     94  S   UNL A   1      53.702  25.156  25.301  1.00  0.00     0.124 S 
ATOM     95  O   UNL A   1      53.924  25.780  24.001  1.00  0.00    -0.237 OA
ATOM     96  O   UNL A   1      54.536  25.650  26.393  1.00  0.00    -0.237 OA
ATOM     97  O   UNL A   1      53.504  23.709  25.279  1.00  0.00    -0.744 OA
ENDBRANCH  93  94
ENDBRANCH  61  86
ENDBRANCH  35  36
ENDBRANCH  27  30
ENDBRANCH  25  26
ENDBRANCH  24  25
ENDBRANCH   1  24
TORSDOF 19
ENDMDL
