MODEL 1
REMARK VINA RESULT:     -12.3      0.000      0.000
REMARK SMILES O=C(NCCCCNC(=O)c1ccc(-c2c3nc(c(-c4c(F)cc(S(=O)(=O)[O-])cc4F)c4ccc([nH]4)c(-c4c(F)cc(S(=O)(=O)[O-])cc4F)c4nc(c(-c5c(F)cc(S(=O)(=O)[O-])cc5F)c5ccc2[nH]5)C=C4)C=C3)cc1)C1=Cc2cc(C(F)(F)F)ccc2O[C@@H]1C(F)(F)F
REMARK SMILES IDX 6 1 5 2 4 3 3 4 1 5 2 6 77 8 78 9 90 10 79 11 89 12 80 13
REMARK SMILES IDX 88 14 81 15 87 16 86 17 91 18 92 19 93 20 94 21 82 22 83 23
REMARK SMILES IDX 84 24 85 25 7 26 8 27 9 28 10 30 11 31 12 32 76 33 13 34
REMARK SMILES IDX 75 35 14 36 15 37 16 38 69 39 17 40 74 41 68 42 70 43 18 44
REMARK SMILES IDX 73 45 67 46 66 47 19 49 53 50 32 51 52 52 33 53 36 54 51 55
REMARK SMILES IDX 71 56 34 57 35 58 50 60 72 61 37 62 20 63 21 64 30 65 22 66
REMARK SMILES IDX 23 67 29 68 31 69 24 70 25 71 26 72 27 73 28 74 54 75 55 76
REMARK SMILES IDX 64 77 56 78 57 79 63 80 65 81 58 82 59 83 60 84 61 85 62 86
REMARK SMILES IDX 38 87 39 88 48 89 40 90 41 91 47 92 49 93 42 94 43 95 44 96
REMARK SMILES IDX 45 97 46 98
REMARK H PARENT 3 7 8 29 70 48 36 59
REMARK Flexibility Score: inf
ROOT
ATOM      1  C   UNL A   1      32.081  28.255  26.814  1.00  0.00     0.023 C 
ENDROOT
BRANCH   1   2
ATOM      2  C   UNL A   1      32.048  26.728  26.768  1.00  0.00     0.023 C 
BRANCH   2   3
ATOM      3  C   UNL A   1      30.732  26.123  26.277  1.00  0.00     0.116 C 
BRANCH   3   4
ATOM      4  N   UNL A   1      30.667  24.664  26.380  1.00  0.00    -0.352 N 
ATOM      5  O   UNL A   1      31.235  22.527  25.903  1.00  0.00    -0.270 OA
ATOM      6  C   UNL A   1      31.125  23.687  25.523  1.00  0.00     0.251 C 
ATOM      7  H   UNL A   1      30.225  24.327  27.193  1.00  0.00     0.163 HD
BRANCH   6   8
ATOM      8  C   UNL A   1      31.638  24.099  24.194  1.00  0.00     0.067 C 
ATOM      9  C   UNL A   1      30.888  24.690  23.252  1.00  0.00     0.025 C 
ATOM     10  C   UNL A   1      33.127  24.105  24.018  1.00  0.00     0.314 C 
ATOM     11  C   UNL A   1      31.414  26.027  22.920  1.00  0.00     0.018 A 
ATOM     12  O   UNL A   1      33.638  25.436  23.759  1.00  0.00    -0.475 OA
ATOM     13  C   UNL A   1      30.517  27.065  22.613  1.00  0.00     0.025 A 
ATOM     14  C   UNL A   1      32.742  26.347  23.254  1.00  0.00     0.128 A 
ATOM     15  C   UNL A   1      30.926  28.411  22.683  1.00  0.00     0.056 A 
ATOM     16  C   UNL A   1      33.175  27.672  23.245  1.00  0.00     0.048 A 
ATOM     17  C   UNL A   1      32.268  28.700  22.978  1.00  0.00     0.017 A 
BRANCH  10  18
ATOM     18  C   UNL A   1      33.540  23.135  22.888  1.00  0.00     0.429 C 
ATOM     19  F   UNL A   1      34.858  22.831  22.958  1.00  0.00    -0.167 F 
ATOM     20  F   UNL A   1      32.866  21.961  22.947  1.00  0.00    -0.167 F 
ATOM     21  F   UNL A   1      33.320  23.651  21.652  1.00  0.00    -0.167 F 
ENDBRANCH  10  18
BRANCH  15  22
ATOM     22  C   UNL A   1      29.911  29.520  22.509  1.00  0.00     0.416 C 
ATOM     23  F   UNL A   1      29.806  30.307  23.614  1.00  0.00    -0.166 F 
ATOM     24  F   UNL A   1      30.237  30.355  21.481  1.00  0.00    -0.166 F 
ATOM     25  F   UNL A   1      28.657  29.071  22.240  1.00  0.00    -0.166 F 
ENDBRANCH  15  22
ENDBRANCH   6   8
ENDBRANCH   3   4
ENDBRANCH   2   3
ENDBRANCH   1   2
BRANCH   1  26
ATOM     26  C   UNL A   1      33.455  28.909  26.960  1.00  0.00     0.116 C 
BRANCH  26  27
ATOM     27  N   UNL A   1      33.456  30.190  27.655  1.00  0.00    -0.352 N 
ATOM     28  C   UNL A   1      34.494  30.793  28.332  1.00  0.00     0.251 C 
ATOM     29  H   UNL A   1      32.607  30.688  27.639  1.00  0.00     0.163 HD
ATOM     30  O   UNL A   1      34.329  31.885  28.878  1.00  0.00    -0.269 OA
BRANCH  28  31
ATOM     31  C   UNL A   1      35.791  30.093  28.447  1.00  0.00     0.039 A 
ATOM     32  C   UNL A   1      36.650  30.078  27.345  1.00  0.00     0.014 A 
ATOM     33  C   UNL A   1      36.198  29.551  29.668  1.00  0.00     0.014 A 
ATOM     34  C   UNL A   1      37.962  29.626  27.502  1.00  0.00     0.010 A 
ATOM     35  C   UNL A   1      37.528  29.175  29.841  1.00  0.00     0.010 A 
ATOM     36  C   UNL A   1      38.429  29.231  28.767  1.00  0.00    -0.014 A 
BRANCH  36  37
ATOM     37  C   UNL A   1      39.866  28.926  28.999  1.00  0.00     0.031 A 
ATOM     38  C   UNL A   1      40.782  29.974  29.566  1.00  0.00     0.074 A 
ATOM     39  C   UNL A   1      40.362  27.732  28.618  1.00  0.00     0.049 A 
ATOM     40  N   UNL A   1      42.073  29.918  29.773  1.00  0.00    -0.248 NA
ATOM     41  C   UNL A   1      40.172  31.265  29.919  1.00  0.00     0.031 C 
ATOM     42  C   UNL A   1      39.591  26.651  27.996  1.00  0.00     0.029 A 
ATOM     43  N   UNL A   1      41.637  27.226  28.687  1.00  0.00    -0.354 N 
ATOM     44  C   UNL A   1      42.433  31.170  30.256  1.00  0.00     0.074 A 
ATOM     45  C   UNL A   1      41.233  31.979  30.267  1.00  0.00     0.031 C 
ATOM     46  C   UNL A   1      40.399  25.602  27.776  1.00  0.00     0.029 A 
ATOM     47  C   UNL A   1      41.751  25.942  28.205  1.00  0.00     0.049 A 
ATOM     48  H   UNL A   1      42.398  27.734  29.049  1.00  0.00     0.167 HD
ATOM     49  C   UNL A   1      43.648  31.600  30.677  1.00  0.00     0.037 A 
ATOM     50  C   UNL A   1      42.823  25.130  28.123  1.00  0.00     0.037 A 
ATOM     51  C   UNL A   1      44.832  30.782  30.697  1.00  0.00     0.049 A 
ATOM     52  C   UNL A   1      44.156  25.622  28.616  1.00  0.00     0.074 A 
ATOM     53  C   UNL A   1      46.092  31.103  31.170  1.00  0.00     0.029 A 
ATOM     54  N   UNL A   1      44.900  29.479  30.227  1.00  0.00    -0.354 N 
ATOM     55  N   UNL A   1      44.463  26.788  29.134  1.00  0.00    -0.248 NA
ATOM     56  C   UNL A   1      45.286  24.688  28.517  1.00  0.00     0.031 C 
ATOM     57  C   UNL A   1      46.932  30.003  30.957  1.00  0.00     0.029 A 
ATOM     58  C   UNL A   1      46.185  28.986  30.383  1.00  0.00     0.049 A 
ATOM     59  H   UNL A   1      44.146  28.979  29.838  1.00  0.00     0.167 HD
ATOM     60  C   UNL A   1      45.816  26.717  29.448  1.00  0.00     0.074 A 
ATOM     61  C   UNL A   1      46.266  25.393  29.067  1.00  0.00     0.031 C 
ATOM     62  C   UNL A   1      46.613  27.663  30.005  1.00  0.00     0.037 A 
BRANCH  49  63
ATOM     63  C   UNL A   1      43.743  33.023  31.152  1.00  0.00     0.058 A 
ATOM     64  C   UNL A   1      43.975  34.083  30.260  1.00  0.00     0.135 A 
ATOM     65  C   UNL A   1      43.609  33.332  32.515  1.00  0.00     0.135 A 
ATOM     66  F   UNL A   1      44.126  33.840  28.948  1.00  0.00    -0.206 F 
ATOM     67  C   UNL A   1      44.120  35.391  30.706  1.00  0.00     0.059 A 
ATOM     68  C   UNL A   1      43.724  34.638  32.982  1.00  0.00     0.059 A 
ATOM     69  F   UNL A   1      43.383  32.358  33.411  1.00  0.00    -0.206 F 
ATOM     70  C   UNL A   1      44.003  35.657  32.072  1.00  0.00     0.060 A 
BRANCH  70  71
ATOM     71  S   UNL A   1      44.228  37.354  32.645  1.00  0.00     0.124 S 
ATOM     72  O   UNL A   1      45.581  37.296  33.190  1.00  0.00    -0.237 OA
ATOM     73  O   UNL A   1      44.074  38.126  31.416  1.00  0.00    -0.237 OA
ATOM     74  O   UNL A   1      43.162  37.524  33.626  1.00  0.00    -0.744 OA
ENDBRANCH  70  71
ENDBRANCH  49  63
BRANCH  50  75
ATOM     75  C   UNL A   1      42.671  23.749  27.596  1.00  0.00     0.058 A 
ATOM     76  C   UNL A   1      42.470  22.670  28.471  1.00  0.00     0.135 A 
ATOM     77  C   UNL A   1      42.704  23.478  26.220  1.00  0.00     0.135 A 
ATOM     78  F   UNL A   1      42.437  22.880  29.797  1.00  0.00    -0.206 F 
ATOM     79  C   UNL A   1      42.320  21.370  28.003  1.00  0.00     0.059 A 
ATOM     80  C   UNL A   1      42.537  22.188  25.727  1.00  0.00     0.059 A 
ATOM     81  F   UNL A   1      42.876  24.478  25.342  1.00  0.00    -0.206 F 
ATOM     82  C   UNL A   1      42.353  21.139  26.627  1.00  0.00     0.060 A 
BRANCH  82  83
ATOM     83  S   UNL A   1      42.100  19.454  26.025  1.00  0.00     0.124 S 
ATOM     84  O   UNL A   1      42.566  18.665  27.160  1.00  0.00    -0.237 OA
ATOM     85  O   UNL A   1      40.663  19.428  25.776  1.00  0.00    -0.237 OA
ATOM     86  O   UNL A   1      42.936  19.398  24.829  1.00  0.00    -0.744 OA
ENDBRANCH  82  83
ENDBRANCH  50  75
BRANCH  62  87
ATOM     87  C   UNL A   1      48.044  27.288  30.265  1.00  0.00     0.058 A 
ATOM     88  C   UNL A   1      49.033  27.432  29.281  1.00  0.00     0.135 A 
ATOM     89  C   UNL A   1      48.436  26.818  31.529  1.00  0.00     0.135 A 
ATOM     90  F   UNL A   1      48.707  27.870  28.054  1.00  0.00    -0.206 F 
ATOM     91  C   UNL A   1      50.361  27.106  29.535  1.00  0.00     0.059 A 
ATOM     92  C   UNL A   1      49.762  26.507  31.812  1.00  0.00     0.059 A 
ATOM     93  F   UNL A   1      47.528  26.671  32.507  1.00  0.00    -0.206 F 
ATOM     94  C   UNL A   1      50.715  26.643  30.803  1.00  0.00     0.060 A 
BRANCH  94  95
ATOM     95  S   UNL A   1      52.448  26.253  31.133  1.00  0.00     0.124 S 
ATOM     96  O   UNL A   1      52.337  24.943  31.765  1.00  0.00    -0.237 OA
ATOM     97  O   UNL A   1      53.034  26.266  29.797  1.00  0.00    -0.237 OA
ATOM     98  O   UNL A   1      52.876  27.339  32.009  1.00  0.00    -0.744 OA
ENDBRANCH  94  95
ENDBRANCH  62  87
ENDBRANCH  36  37
ENDBRANCH  28  31
ENDBRANCH  26  27
ENDBRANCH   1  26
TORSDOF 16
ENDMDL
MODEL 2
REMARK VINA RESULT:     -12.1      3.211      9.169
REMARK SMILES O=C(NCCCCNC(=O)c1ccc(-c2c3nc(c(-c4c(F)cc(S(=O)(=O)[O-])cc4F)c4ccc([nH]4)c(-c4c(F)cc(S(=O)(=O)[O-])cc4F)c4nc(c(-c5c(F)cc(S(=O)(=O)[O-])cc5F)c5ccc2[nH]5)C=C4)C=C3)cc1)C1=Cc2cc(C(F)(F)F)ccc2O[C@@H]1C(F)(F)F
REMARK SMILES IDX 6 1 5 2 4 3 3 4 1 5 2 6 77 8 78 9 90 10 79 11 89 12 80 13
REMARK SMILES IDX 88 14 81 15 87 16 86 17 91 18 92 19 93 20 94 21 82 22 83 23
REMARK SMILES IDX 84 24 85 25 7 26 8 27 9 28 10 30 11 31 12 32 76 33 13 34
REMARK SMILES IDX 75 35 14 36 15 37 16 38 69 39 17 40 74 41 68 42 70 43 18 44
REMARK SMILES IDX 73 45 67 46 66 47 19 49 53 50 32 51 52 52 33 53 36 54 51 55
REMARK SMILES IDX 71 56 34 57 35 58 50 60 72 61 37 62 20 63 21 64 30 65 22 66
REMARK SMILES IDX 23 67 29 68 31 69 24 70 25 71 26 72 27 73 28 74 54 75 55 76
REMARK SMILES IDX 64 77 56 78 57 79 63 80 65 81 58 82 59 83 60 84 61 85 62 86
REMARK SMILES IDX 38 87 39 88 48 89 40 90 41 91 47 92 49 93 42 94 43 95 44 96
REMARK SMILES IDX 45 97 46 98
REMARK H PARENT 3 7 8 29 70 48 36 59
REMARK Flexibility Score: inf
ROOT
ATOM      1  C   UNL A   1      35.951  22.606  24.441  1.00  0.00     0.023 C 
ENDROOT
BRANCH   1   2
ATOM      2  C   UNL A   1      35.459  23.263  23.151  1.00  0.00     0.023 C 
BRANCH   2   3
ATOM      3  C   UNL A   1      33.979  23.041  22.835  1.00  0.00     0.116 C 
BRANCH   3   4
ATOM      4  N   UNL A   1      33.276  24.242  22.382  1.00  0.00    -0.352 N 
ATOM      5  O   UNL A   1      32.469  26.350  22.533  1.00  0.00    -0.270 OA
ATOM      6  C   UNL A   1      32.773  25.306  23.098  1.00  0.00     0.251 C 
ATOM      7  H   UNL A   1      33.142  24.300  21.408  1.00  0.00     0.163 HD
BRANCH   6   8
ATOM      8  C   UNL A   1      32.768  25.220  24.579  1.00  0.00     0.067 C 
ATOM      9  C   UNL A   1      33.749  25.694  25.361  1.00  0.00     0.025 C 
ATOM     10  C   UNL A   1      31.471  24.839  25.227  1.00  0.00     0.314 C 
ATOM     11  C   UNL A   1      33.242  26.737  26.271  1.00  0.00     0.018 A 
ATOM     12  O   UNL A   1      30.950  25.899  26.067  1.00  0.00    -0.475 OA
ATOM     13  C   UNL A   1      34.063  27.833  26.592  1.00  0.00     0.025 A 
ATOM     14  C   UNL A   1      31.861  26.823  26.520  1.00  0.00     0.128 A 
ATOM     15  C   UNL A   1      33.508  29.018  27.112  1.00  0.00     0.056 A 
ATOM     16  C   UNL A   1      31.317  27.961  27.111  1.00  0.00     0.048 A 
ATOM     17  C   UNL A   1      32.132  29.061  27.389  1.00  0.00     0.017 A 
BRANCH  10  18
ATOM     18  C   UNL A   1      31.638  23.535  26.041  1.00  0.00     0.429 C 
ATOM     19  F   UNL A   1      32.592  22.738  25.502  1.00  0.00    -0.167 F 
ATOM     20  F   UNL A   1      32.007  23.774  27.322  1.00  0.00    -0.167 F 
ATOM     21  F   UNL A   1      30.497  22.802  26.092  1.00  0.00    -0.167 F 
ENDBRANCH  10  18
BRANCH  15  22
ATOM     22  C   UNL A   1      34.378  30.242  27.299  1.00  0.00     0.416 C 
ATOM     23  F   UNL A   1      33.798  31.371  26.811  1.00  0.00    -0.166 F 
ATOM     24  F   UNL A   1      34.636  30.489  28.615  1.00  0.00    -0.166 F 
ATOM     25  F   UNL A   1      35.591  30.144  26.694  1.00  0.00    -0.166 F 
ENDBRANCH  15  22
ENDBRANCH   6   8
ENDBRANCH   3   4
ENDBRANCH   2   3
ENDBRANCH   1   2
BRANCH   1  26
ATOM     26  C   UNL A   1      37.060  23.333  25.202  1.00  0.00     0.116 C 
BRANCH  26  27
ATOM     27  N   UNL A   1      38.287  22.568  25.380  1.00  0.00    -0.352 N 
ATOM     28  C   UNL A   1      39.417  22.919  26.086  1.00  0.00     0.251 C 
ATOM     29  H   UNL A   1      38.312  21.688  24.940  1.00  0.00     0.163 HD
ATOM     30  O   UNL A   1      40.384  22.156  26.133  1.00  0.00    -0.269 OA
BRANCH  28  31
ATOM     31  C   UNL A   1      39.484  24.244  26.737  1.00  0.00     0.039 A 
ATOM     32  C   UNL A   1      38.921  24.402  28.006  1.00  0.00     0.014 A 
ATOM     33  C   UNL A   1      40.195  25.291  26.145  1.00  0.00     0.014 A 
ATOM     34  C   UNL A   1      39.171  25.570  28.730  1.00  0.00     0.010 A 
ATOM     35  C   UNL A   1      40.508  26.419  26.898  1.00  0.00     0.010 A 
ATOM     36  C   UNL A   1      40.020  26.560  28.207  1.00  0.00    -0.014 A 
BRANCH  36  37
ATOM     37  C   UNL A   1      40.452  27.721  29.029  1.00  0.00     0.031 A 
ATOM     38  C   UNL A   1      41.781  27.701  29.731  1.00  0.00     0.074 A 
ATOM     39  C   UNL A   1      39.608  28.756  29.213  1.00  0.00     0.049 A 
ATOM     40  N   UNL A   1      42.298  28.584  30.545  1.00  0.00    -0.248 NA
ATOM     41  C   UNL A   1      42.627  26.518  29.512  1.00  0.00     0.031 C 
ATOM     42  C   UNL A   1      38.264  28.868  28.639  1.00  0.00     0.029 A 
ATOM     43  N   UNL A   1      39.750  29.911  29.943  1.00  0.00    -0.354 N 
ATOM     44  C   UNL A   1      43.516  28.056  30.954  1.00  0.00     0.074 A 
ATOM     45  C   UNL A   1      43.638  26.753  30.335  1.00  0.00     0.031 C 
ATOM     46  C   UNL A   1      37.722  30.040  29.009  1.00  0.00     0.029 A 
ATOM     47  C   UNL A   1      38.660  30.748  29.873  1.00  0.00     0.049 A 
ATOM     48  H   UNL A   1      40.556  30.120  30.467  1.00  0.00     0.167 HD
ATOM     49  C   UNL A   1      44.459  28.613  31.752  1.00  0.00     0.037 A 
ATOM     50  C   UNL A   1      38.444  31.952  30.437  1.00  0.00     0.037 A 
ATOM     51  C   UNL A   1      44.350  29.923  32.337  1.00  0.00     0.049 A 
ATOM     52  C   UNL A   1      39.514  32.561  31.302  1.00  0.00     0.074 A 
ATOM     53  C   UNL A   1      45.280  30.605  33.102  1.00  0.00     0.029 A 
ATOM     54  N   UNL A   1      43.243  30.751  32.221  1.00  0.00    -0.354 N 
ATOM     55  N   UNL A   1      40.689  32.074  31.622  1.00  0.00    -0.248 NA
ATOM     56  C   UNL A   1      39.230  33.882  31.878  1.00  0.00     0.031 C 
ATOM     57  C   UNL A   1      44.723  31.835  33.473  1.00  0.00     0.029 A 
ATOM     58  C   UNL A   1      43.460  31.932  32.911  1.00  0.00     0.049 A 
ATOM     59  H   UNL A   1      42.424  30.531  31.721  1.00  0.00     0.167 HD
ATOM     60  C   UNL A   1      41.297  33.042  32.414  1.00  0.00     0.074 A 
ATOM     61  C   UNL A   1      40.361  34.143  32.520  1.00  0.00     0.031 C 
ATOM     62  C   UNL A   1      42.520  33.021  32.999  1.00  0.00     0.037 A 
BRANCH  49  63
ATOM     63  C   UNL A   1      45.691  27.798  32.027  1.00  0.00     0.058 A 
ATOM     64  C   UNL A   1      45.776  26.945  33.140  1.00  0.00     0.135 A 
ATOM     65  C   UNL A   1      46.805  27.874  31.175  1.00  0.00     0.135 A 
ATOM     66  F   UNL A   1      44.745  26.846  33.995  1.00  0.00    -0.206 F 
ATOM     67  C   UNL A   1      46.936  26.235  33.427  1.00  0.00     0.059 A 
ATOM     68  C   UNL A   1      47.968  27.152  31.428  1.00  0.00     0.059 A 
ATOM     69  F   UNL A   1      46.777  28.671  30.096  1.00  0.00    -0.206 F 
ATOM     70  C   UNL A   1      48.032  26.354  32.569  1.00  0.00     0.060 A 
BRANCH  70  71
ATOM     71  S   UNL A   1      49.546  25.455  32.969  1.00  0.00     0.124 S 
ATOM     72  O   UNL A   1      50.043  25.124  31.637  1.00  0.00    -0.237 OA
ATOM     73  O   UNL A   1      50.319  26.451  33.704  1.00  0.00    -0.237 OA
ATOM     74  O   UNL A   1      49.069  24.326  33.761  1.00  0.00    -0.744 OA
ENDBRANCH  70  71
ENDBRANCH  49  63
BRANCH  50  75
ATOM     75  C   UNL A   1      37.181  32.686  30.164  1.00  0.00     0.058 A 
ATOM     76  C   UNL A   1      37.116  33.633  29.130  1.00  0.00     0.135 A 
ATOM     77  C   UNL A   1      36.016  32.449  30.908  1.00  0.00     0.135 A 
ATOM     78  F   UNL A   1      38.207  33.897  28.394  1.00  0.00    -0.206 F 
ATOM     79  C   UNL A   1      35.945  34.328  28.851  1.00  0.00     0.059 A 
ATOM     80  C   UNL A   1      34.827  33.118  30.635  1.00  0.00     0.059 A 
ATOM     81  F   UNL A   1      36.023  31.541  31.896  1.00  0.00    -0.206 F 
ATOM     82  C   UNL A   1      34.804  34.062  29.609  1.00  0.00     0.060 A 
BRANCH  82  83
ATOM     83  S   UNL A   1      33.272  34.929  29.202  1.00  0.00     0.124 S 
ATOM     84  O   UNL A   1      32.580  34.919  30.486  1.00  0.00    -0.237 OA
ATOM     85  O   UNL A   1      33.763  36.228  28.752  1.00  0.00    -0.237 OA
ATOM     86  O   UNL A   1      32.684  34.096  28.159  1.00  0.00    -0.744 OA
ENDBRANCH  82  83
ENDBRANCH  50  75
BRANCH  62  87
ATOM     87  C   UNL A   1      42.929  34.238  33.778  1.00  0.00     0.058 A 
ATOM     88  C   UNL A   1      42.732  34.326  35.163  1.00  0.00     0.135 A 
ATOM     89  C   UNL A   1      43.565  35.312  33.134  1.00  0.00     0.135 A 
ATOM     90  F   UNL A   1      42.121  33.329  35.824  1.00  0.00    -0.206 F 
ATOM     91  C   UNL A   1      43.134  35.446  35.884  1.00  0.00     0.059 A 
ATOM     92  C   UNL A   1      43.995  36.432  33.837  1.00  0.00     0.059 A 
ATOM     93  F   UNL A   1      43.785  35.272  31.810  1.00  0.00    -0.206 F 
ATOM     94  C   UNL A   1      43.764  36.495  35.211  1.00  0.00     0.060 A 
BRANCH  94  95
ATOM     95  S   UNL A   1      44.313  37.930  36.160  1.00  0.00     0.124 S 
ATOM     96  O   UNL A   1      45.732  37.639  36.336  1.00  0.00    -0.237 OA
ATOM     97  O   UNL A   1      43.999  39.039  35.264  1.00  0.00    -0.237 OA
ATOM     98  O   UNL A   1      43.502  37.864  37.371  1.00  0.00    -0.744 OA
ENDBRANCH  94  95
ENDBRANCH  62  87
ENDBRANCH  36  37
ENDBRANCH  28  31
ENDBRANCH  26  27
ENDBRANCH   1  26
TORSDOF 16
ENDMDL
MODEL 3
REMARK VINA RESULT:     -12.0      3.181      8.985
REMARK SMILES O=C(NCCCCNC(=O)c1ccc(-c2c3nc(c(-c4c(F)cc(S(=O)(=O)[O-])cc4F)c4ccc([nH]4)c(-c4c(F)cc(S(=O)(=O)[O-])cc4F)c4nc(c(-c5c(F)cc(S(=O)(=O)[O-])cc5F)c5ccc2[nH]5)C=C4)C=C3)cc1)C1=Cc2cc(C(F)(F)F)ccc2O[C@@H]1C(F)(F)F
REMARK SMILES IDX 6 1 5 2 4 3 3 4 1 5 2 6 77 8 78 9 90 10 79 11 89 12 80 13
REMARK SMILES IDX 88 14 81 15 87 16 86 17 91 18 92 19 93 20 94 21 82 22 83 23
REMARK SMILES IDX 84 24 85 25 7 26 8 27 9 28 10 30 11 31 12 32 76 33 13 34
REMARK SMILES IDX 75 35 14 36 15 37 16 38 69 39 17 40 74 41 68 42 70 43 18 44
REMARK SMILES IDX 73 45 67 46 66 47 19 49 53 50 32 51 52 52 33 53 36 54 51 55
REMARK SMILES IDX 71 56 34 57 35 58 50 60 72 61 37 62 20 63 21 64 30 65 22 66
REMARK SMILES IDX 23 67 29 68 31 69 24 70 25 71 26 72 27 73 28 74 54 75 55 76
REMARK SMILES IDX 64 77 56 78 57 79 63 80 65 81 58 82 59 83 60 84 61 85 62 86
REMARK SMILES IDX 38 87 39 88 48 89 40 90 41 91 47 92 49 93 42 94 43 95 44 96
REMARK SMILES IDX 45 97 46 98
REMARK H PARENT 3 7 8 29 70 48 36 59
REMARK Flexibility Score: inf
ROOT
ATOM      1  C   UNL A   1      35.716  22.484  24.815  1.00  0.00     0.023 C 
ENDROOT
BRANCH   1   2
ATOM      2  C   UNL A   1      35.395  23.289  23.555  1.00  0.00     0.023 C 
BRANCH   2   3
ATOM      3  C   UNL A   1      33.952  23.788  23.457  1.00  0.00     0.116 C 
BRANCH   3   4
ATOM      4  N   UNL A   1      33.808  25.075  22.775  1.00  0.00    -0.352 N 
ATOM      5  O   UNL A   1      33.645  27.326  22.612  1.00  0.00    -0.270 OA
ATOM      6  C   UNL A   1      33.439  26.309  23.265  1.00  0.00     0.251 C 
ATOM      7  H   UNL A   1      34.009  25.057  21.811  1.00  0.00     0.163 HD
BRANCH   6   8
ATOM      8  C   UNL A   1      32.945  26.395  24.661  1.00  0.00     0.067 C 
ATOM      9  C   UNL A   1      33.735  26.615  25.722  1.00  0.00     0.025 C 
ATOM     10  C   UNL A   1      31.463  26.522  24.845  1.00  0.00     0.314 C 
ATOM     11  C   UNL A   1      33.355  27.859  26.415  1.00  0.00     0.018 A 
ATOM     12  O   UNL A   1      31.098  27.780  25.466  1.00  0.00    -0.475 OA
ATOM     13  C   UNL A   1      34.355  28.664  26.989  1.00  0.00     0.025 A 
ATOM     14  C   UNL A   1      32.079  28.409  26.194  1.00  0.00     0.128 A 
ATOM     15  C   UNL A   1      34.101  30.015  27.296  1.00  0.00     0.056 A 
ATOM     16  C   UNL A   1      31.797  29.720  26.573  1.00  0.00     0.048 A 
ATOM     17  C   UNL A   1      32.807  30.525  27.105  1.00  0.00     0.017 A 
BRANCH  10  18
ATOM     18  C   UNL A   1      30.918  25.332  25.667  1.00  0.00     0.429 C 
ATOM     19  F   UNL A   1      29.609  25.504  25.972  1.00  0.00    -0.167 F 
ATOM     20  F   UNL A   1      31.011  24.159  24.996  1.00  0.00    -0.167 F 
ATOM     21  F   UNL A   1      31.577  25.165  26.841  1.00  0.00    -0.167 F 
ENDBRANCH  10  18
BRANCH  15  22
ATOM     22  C   UNL A   1      35.230  30.909  27.760  1.00  0.00     0.416 C 
ATOM     23  F   UNL A   1      35.010  32.218  27.465  1.00  0.00    -0.166 F 
ATOM     24  F   UNL A   1      35.405  30.853  29.112  1.00  0.00    -0.166 F 
ATOM     25  F   UNL A   1      36.433  30.592  27.216  1.00  0.00    -0.166 F 
ENDBRANCH  15  22
ENDBRANCH   6   8
ENDBRANCH   3   4
ENDBRANCH   2   3
ENDBRANCH   1   2
BRANCH   1  26
ATOM     26  C   UNL A   1      36.770  23.070  25.754  1.00  0.00     0.116 C 
BRANCH  26  27
ATOM     27  N   UNL A   1      37.926  22.215  25.992  1.00  0.00    -0.352 N 
ATOM     28  C   UNL A   1      39.146  22.559  26.531  1.00  0.00     0.251 C 
ATOM     29  H   UNL A   1      37.821  21.271  25.734  1.00  0.00     0.163 HD
ATOM     30  O   UNL A   1      40.031  21.711  26.660  1.00  0.00    -0.269 OA
BRANCH  28  31
ATOM     31  C   UNL A   1      39.406  23.967  26.901  1.00  0.00     0.039 A 
ATOM     32  C   UNL A   1      39.241  24.357  28.233  1.00  0.00     0.014 A 
ATOM     33  C   UNL A   1      39.914  24.865  25.959  1.00  0.00     0.014 A 
ATOM     34  C   UNL A   1      39.698  25.611  28.644  1.00  0.00     0.010 A 
ATOM     35  C   UNL A   1      40.438  26.082  26.387  1.00  0.00     0.010 A 
ATOM     36  C   UNL A   1      40.358  26.457  27.737  1.00  0.00    -0.014 A 
BRANCH  36  37
ATOM     37  C   UNL A   1      41.016  27.711  28.189  1.00  0.00     0.031 A 
ATOM     38  C   UNL A   1      42.512  27.848  28.125  1.00  0.00     0.074 A 
ATOM     39  C   UNL A   1      40.273  28.692  28.739  1.00  0.00     0.049 A 
ATOM     40  N   UNL A   1      43.269  28.832  28.537  1.00  0.00    -0.248 NA
ATOM     41  C   UNL A   1      43.256  26.718  27.550  1.00  0.00     0.031 C 
ATOM     42  C   UNL A   1      38.818  28.656  28.918  1.00  0.00     0.029 A 
ATOM     43  N   UNL A   1      40.636  29.910  29.259  1.00  0.00    -0.354 N 
ATOM     44  C   UNL A   1      44.577  28.431  28.293  1.00  0.00     0.074 A 
ATOM     45  C   UNL A   1      44.511  27.095  27.742  1.00  0.00     0.031 C 
ATOM     46  C   UNL A   1      38.412  29.810  29.472  1.00  0.00     0.029 A 
ATOM     47  C   UNL A   1      39.575  30.655  29.720  1.00  0.00     0.049 A 
ATOM     48  H   UNL A   1      41.569  30.222  29.297  1.00  0.00     0.167 HD
ATOM     49  C   UNL A   1      45.727  29.122  28.488  1.00  0.00     0.037 A 
ATOM     50  C   UNL A   1      39.543  31.882  30.275  1.00  0.00     0.037 A 
ATOM     51  C   UNL A   1      45.786  30.464  29.004  1.00  0.00     0.049 A 
ATOM     52  C   UNL A   1      40.830  32.638  30.461  1.00  0.00     0.074 A 
ATOM     53  C   UNL A   1      46.895  31.274  29.171  1.00  0.00     0.029 A 
ATOM     54  N   UNL A   1      44.688  31.194  29.434  1.00  0.00    -0.354 N 
ATOM     55  N   UNL A   1      42.052  32.268  30.161  1.00  0.00    -0.248 NA
ATOM     56  C   UNL A   1      40.733  33.978  31.057  1.00  0.00     0.031 C 
ATOM     57  C   UNL A   1      46.471  32.485  29.732  1.00  0.00     0.029 A 
ATOM     58  C   UNL A   1      45.094  32.441  29.880  1.00  0.00     0.049 A 
ATOM     59  H   UNL A   1      43.758  30.873  29.423  1.00  0.00     0.167 HD
ATOM     60  C   UNL A   1      42.867  33.341  30.506  1.00  0.00     0.074 A 
ATOM     61  C   UNL A   1      41.998  34.375  31.032  1.00  0.00     0.031 C 
ATOM     62  C   UNL A   1      44.214  33.460  30.394  1.00  0.00     0.037 A 
BRANCH  49  63
ATOM     63  C   UNL A   1      47.011  28.426  28.131  1.00  0.00     0.058 A 
ATOM     64  C   UNL A   1      47.490  28.397  26.811  1.00  0.00     0.135 A 
ATOM     65  C   UNL A   1      47.768  27.773  29.117  1.00  0.00     0.135 A 
ATOM     66  F   UNL A   1      46.796  28.993  25.828  1.00  0.00    -0.206 F 
ATOM     67  C   UNL A   1      48.647  27.705  26.472  1.00  0.00     0.059 A 
ATOM     68  C   UNL A   1      48.943  27.096  28.804  1.00  0.00     0.059 A 
ATOM     69  F   UNL A   1      47.358  27.772  30.395  1.00  0.00    -0.206 F 
ATOM     70  C   UNL A   1      49.361  27.048  27.475  1.00  0.00     0.060 A 
BRANCH  70  71
ATOM     71  S   UNL A   1      50.843  26.123  27.018  1.00  0.00     0.124 S 
ATOM     72  O   UNL A   1      50.995  26.500  25.616  1.00  0.00    -0.237 OA
ATOM     73  O   UNL A   1      51.846  26.663  27.930  1.00  0.00    -0.237 OA
ATOM     74  O   UNL A   1      50.463  24.736  27.258  1.00  0.00    -0.744 OA
ENDBRANCH  70  71
ENDBRANCH  49  63
BRANCH  50  75
ATOM     75  C   UNL A   1      38.242  32.494  30.652  1.00  0.00     0.058 A 
ATOM     76  C   UNL A   1      37.737  32.350  31.953  1.00  0.00     0.135 A 
ATOM     77  C   UNL A   1      37.488  33.243  29.736  1.00  0.00     0.135 A 
ATOM     78  F   UNL A   1      38.421  31.637  32.862  1.00  0.00    -0.206 F 
ATOM     79  C   UNL A   1      36.525  32.917  32.332  1.00  0.00     0.059 A 
ATOM     80  C   UNL A   1      36.282  33.836  30.097  1.00  0.00     0.059 A 
ATOM     81  F   UNL A   1      37.936  33.423  28.484  1.00  0.00    -0.206 F 
ATOM     82  C   UNL A   1      35.805  33.660  31.396  1.00  0.00     0.060 A 
BRANCH  82  83
ATOM     83  S   UNL A   1      34.259  34.440  31.913  1.00  0.00     0.124 S 
ATOM     84  O   UNL A   1      34.744  35.671  32.528  1.00  0.00    -0.237 OA
ATOM     85  O   UNL A   1      33.553  34.595  30.645  1.00  0.00    -0.237 OA
ATOM     86  O   UNL A   1      33.680  33.460  32.826  1.00  0.00    -0.744 OA
ENDBRANCH  82  83
ENDBRANCH  50  75
BRANCH  62  87
ATOM     87  C   UNL A   1      44.825  34.765  30.818  1.00  0.00     0.058 A 
ATOM     88  C   UNL A   1      45.295  34.966  32.124  1.00  0.00     0.135 A 
ATOM     89  C   UNL A   1      44.979  35.810  29.894  1.00  0.00     0.135 A 
ATOM     90  F   UNL A   1      45.164  34.000  33.046  1.00  0.00    -0.206 F 
ATOM     91  C   UNL A   1      45.883  36.168  32.505  1.00  0.00     0.059 A 
ATOM     92  C   UNL A   1      45.582  37.012  30.247  1.00  0.00     0.059 A 
ATOM     93  F   UNL A   1      44.552  35.663  28.629  1.00  0.00    -0.206 F 
ATOM     94  C   UNL A   1      46.020  37.186  31.560  1.00  0.00     0.060 A 
BRANCH  94  95
ATOM     95  S   UNL A   1      46.813  38.731  32.055  1.00  0.00     0.124 S 
ATOM     96  O   UNL A   1      48.027  38.243  32.701  1.00  0.00    -0.237 OA
ATOM     97  O   UNL A   1      47.003  39.412  30.779  1.00  0.00    -0.237 OA
ATOM     98  O   UNL A   1      45.831  39.344  32.945  1.00  0.00    -0.744 OA
ENDBRANCH  94  95
ENDBRANCH  62  87
ENDBRANCH  36  37
ENDBRANCH  28  31
ENDBRANCH  26  27
ENDBRANCH   1  26
TORSDOF 16
ENDMDL
