MODEL 1
REMARK VINA RESULT:     -12.1      0.000      0.000
REMARK SMILES COc1ccc(NS(=O)(=O)c2ccc(NC(=O)[C@H]3CCCC[C@@H]3C(=O)NCCCCNC(=O)c3ccc(-c4c5nc(c(-c6c(F)cc(S(=O)(=O)[O-])cc6F)c6ccc([nH]6)c(-c6c(F)cc(S(=O)(=O)[O-])cc6F)c6nc(c(-c7c(F)cc(S(=O)(=O)[O-])cc7F)c7ccc4[nH]7)C=C6)C=C5)cc3)cc2)cc1
REMARK SMILES IDX 27 1 26 2 24 3 25 4 23 6 18 7 19 8 20 9 22 10 21 11 16 12
REMARK SMILES IDX 15 13 17 15 14 16 11 17 12 18 101 19 13 20 100 21 8 22 9 23
REMARK SMILES IDX 10 24 7 25 6 27 3 28 4 29 103 30 5 31 102 32 2 33 1 34 28 35
REMARK SMILES IDX 29 36 30 37 31 38 32 39 33 41 34 42 35 43 99 44 36 45 98 46
REMARK SMILES IDX 37 47 38 48 39 49 92 50 40 51 97 52 91 53 93 54 41 55 96 56
REMARK SMILES IDX 90 57 89 58 42 60 76 61 55 62 75 63 56 64 59 65 74 66 94 67
REMARK SMILES IDX 57 68 58 69 73 71 95 72 60 73 43 74 44 75 53 76 45 77 46 78
REMARK SMILES IDX 52 79 54 80 47 81 48 82 49 83 50 84 51 85 77 86 78 87 87 88
REMARK SMILES IDX 79 89 80 90 86 91 88 92 81 93 82 94 83 95 84 96 85 97 61 98
REMARK SMILES IDX 62 99 71 100 63 101 64 102 70 103 72 104 65 105 66 106
REMARK SMILES IDX 67 107 68 108 69 109
REMARK H PARENT 26 5 15 14 7 26 31 40 93 59 59 70
REMARK Flexibility Score: inf
ROOT
ATOM      1  C   UNL A   1      37.178  22.893  25.565  1.00  0.00     0.116 C 
ENDROOT
BRANCH   1   2
ATOM      2  N   UNL A   1      36.164  22.471  26.511  1.00  0.00    -0.356 N 
ATOM      3  C   UNL A   1      35.025  21.742  26.271  1.00  0.00     0.223 C 
ATOM      4  O   UNL A   1      34.355  21.387  27.238  1.00  0.00    -0.275 OA
ATOM      5  H   UNL A   1      36.311  22.740  27.446  1.00  0.00     0.163 HD
BRANCH   3   6
ATOM      6  C   UNL A   1      34.613  21.441  24.818  1.00  0.00     0.091 C 
ATOM      7  C   UNL A   1      33.089  21.537  24.660  1.00  0.00     0.091 C 
ATOM      8  C   UNL A   1      32.444  20.298  25.354  1.00  0.00     0.014 C 
ATOM      9  C   UNL A   1      32.973  18.963  24.821  1.00  0.00     0.001 C 
ATOM     10  C   UNL A   1      35.145  20.101  24.282  1.00  0.00     0.014 C 
ATOM     11  C   UNL A   1      34.489  18.873  24.889  1.00  0.00     0.001 C 
BRANCH   7  12
ATOM     12  C   UNL A   1      32.442  21.711  23.262  1.00  0.00     0.228 C 
ATOM     13  N   UNL A   1      32.234  22.863  22.573  1.00  0.00    -0.326 N 
ATOM     14  H   UNL A   1      31.931  22.699  21.651  1.00  0.00     0.169 HD
ATOM     15  O   UNL A   1      32.094  20.691  22.643  1.00  0.00    -0.274 OA
BRANCH  13  16
ATOM     16  C   UNL A   1      32.350  24.222  22.863  1.00  0.00     0.041 A 
ATOM     17  C   UNL A   1      32.162  26.957  23.361  1.00  0.00     0.087 A 
ATOM     18  C   UNL A   1      32.955  26.503  22.307  1.00  0.00     0.024 A 
ATOM     19  C   UNL A   1      31.597  26.045  24.259  1.00  0.00     0.024 A 
ATOM     20  C   UNL A   1      33.066  25.125  22.080  1.00  0.00     0.027 A 
ATOM     21  C   UNL A   1      31.719  24.677  24.023  1.00  0.00     0.027 A 
BRANCH  17  22
ATOM     22  S   UNL A   1      31.698  28.668  23.530  1.00  0.00     0.261 S 
ATOM     23  O   UNL A   1      32.276  29.351  22.392  1.00  0.00    -0.201 OA
ATOM     24  O   UNL A   1      32.012  29.064  24.885  1.00  0.00    -0.201 OA
BRANCH  22  25
ATOM     25  N   UNL A   1      30.043  28.729  23.318  1.00  0.00    -0.280 N 
ATOM     26  H   UNL A   1      29.543  27.905  23.519  1.00  0.00     0.180 HD
BRANCH  25  27
ATOM     27  C   UNL A   1      29.280  29.848  22.877  1.00  0.00     0.049 A 
ATOM     28  C   UNL A   1      28.180  32.291  22.020  1.00  0.00     0.119 A 
ATOM     29  C   UNL A   1      28.104  31.158  21.218  1.00  0.00     0.048 A 
ATOM     30  C   UNL A   1      28.718  32.186  23.297  1.00  0.00     0.048 A 
ATOM     31  C   UNL A   1      28.667  29.943  21.630  1.00  0.00     0.030 A 
ATOM     32  C   UNL A   1      29.269  30.969  23.718  1.00  0.00     0.030 A 
BRANCH  28  33
ATOM     33  O   UNL A   1      27.682  33.437  21.474  1.00  0.00    -0.497 OA
ATOM     34  C   UNL A   1      27.350  33.350  20.091  1.00  0.00     0.278 C 
ENDBRANCH  28  33
ENDBRANCH  25  27
ENDBRANCH  22  25
ENDBRANCH  17  22
ENDBRANCH  13  16
ENDBRANCH   7  12
ENDBRANCH   3   6
ENDBRANCH   1   2
BRANCH   1  35
ATOM     35  C   UNL A   1      38.565  23.102  26.174  1.00  0.00     0.023 C 
BRANCH  35  36
ATOM     36  C   UNL A   1      39.324  21.824  26.540  1.00  0.00     0.023 C 
BRANCH  36  37
ATOM     37  C   UNL A   1      39.220  20.686  25.524  1.00  0.00     0.116 C 
BRANCH  37  38
ATOM     38  N   UNL A   1      40.122  19.579  25.814  1.00  0.00    -0.352 N 
ATOM     39  C   UNL A   1      41.454  19.569  26.161  1.00  0.00     0.251 C 
ATOM     40  H   UNL A   1      39.709  18.688  25.750  1.00  0.00     0.163 HD
ATOM     41  O   UNL A   1      42.050  18.494  26.201  1.00  0.00    -0.269 OA
BRANCH  39  42
ATOM     42  C   UNL A   1      42.185  20.823  26.460  1.00  0.00     0.039 A 
ATOM     43  C   UNL A   1      42.618  21.620  25.394  1.00  0.00     0.014 A 
ATOM     44  C   UNL A   1      42.482  21.204  27.770  1.00  0.00     0.014 A 
ATOM     45  C   UNL A   1      43.261  22.838  25.645  1.00  0.00     0.010 A 
ATOM     46  C   UNL A   1      43.064  22.447  28.020  1.00  0.00     0.010 A 
ATOM     47  C   UNL A   1      43.446  23.286  26.961  1.00  0.00    -0.014 A 
BRANCH  47  48
ATOM     48  C   UNL A   1      43.990  24.640  27.253  1.00  0.00     0.031 A 
ATOM     49  C   UNL A   1      43.081  25.758  27.688  1.00  0.00     0.074 A 
ATOM     50  C   UNL A   1      45.298  24.889  27.037  1.00  0.00     0.049 A 
ATOM     51  N   UNL A   1      43.360  27.023  27.873  1.00  0.00    -0.248 NA
ATOM     52  C   UNL A   1      41.671  25.413  27.922  1.00  0.00     0.031 C 
ATOM     53  C   UNL A   1      46.281  23.907  26.571  1.00  0.00     0.029 A 
ATOM     54  N   UNL A   1      46.024  26.048  27.160  1.00  0.00    -0.354 N 
ATOM     55  C   UNL A   1      42.160  27.631  28.225  1.00  0.00     0.074 A 
ATOM     56  C   UNL A   1      41.144  26.600  28.193  1.00  0.00     0.031 C 
ATOM     57  C   UNL A   1      47.479  24.502  26.457  1.00  0.00     0.029 A 
ATOM     58  C   UNL A   1      47.346  25.913  26.805  1.00  0.00     0.049 A 
ATOM     59  H   UNL A   1      45.635  26.896  27.474  1.00  0.00     0.167 HD
ATOM     60  C   UNL A   1      41.929  28.924  28.558  1.00  0.00     0.037 A 
ATOM     61  C   UNL A   1      48.340  26.822  26.748  1.00  0.00     0.037 A 
ATOM     62  C   UNL A   1      42.946  29.942  28.623  1.00  0.00     0.049 A 
ATOM     63  C   UNL A   1      48.060  28.248  27.132  1.00  0.00     0.074 A 
ATOM     64  C   UNL A   1      42.817  31.262  29.020  1.00  0.00     0.029 A 
ATOM     65  N   UNL A   1      44.277  29.758  28.284  1.00  0.00    -0.354 N 
ATOM     66  N   UNL A   1      46.929  28.790  27.516  1.00  0.00    -0.248 NA
ATOM     67  C   UNL A   1      49.190  29.186  27.076  1.00  0.00     0.031 C 
ATOM     68  C   UNL A   1      44.063  31.885  28.888  1.00  0.00     0.029 A 
ATOM     69  C   UNL A   1      44.976  30.943  28.443  1.00  0.00     0.049 A 
ATOM     70  H   UNL A   1      44.669  28.908  27.974  1.00  0.00     0.167 HD
ATOM     71  C   UNL A   1      47.216  30.127  27.767  1.00  0.00     0.074 A 
ATOM     72  C   UNL A   1      48.628  30.310  27.502  1.00  0.00     0.031 C 
ATOM     73  C   UNL A   1      46.383  31.114  28.179  1.00  0.00     0.037 A 
BRANCH  60  74
ATOM     74  C   UNL A   1      40.515  29.316  28.885  1.00  0.00     0.058 A 
ATOM     75  C   UNL A   1      39.544  29.465  27.883  1.00  0.00     0.135 A 
ATOM     76  C   UNL A   1      40.117  29.509  30.217  1.00  0.00     0.135 A 
ATOM     77  F   UNL A   1      39.875  29.305  26.592  1.00  0.00    -0.206 F 
ATOM     78  C   UNL A   1      38.234  29.820  28.187  1.00  0.00     0.059 A 
ATOM     79  C   UNL A   1      38.805  29.840  30.548  1.00  0.00     0.059 A 
ATOM     80  F   UNL A   1      41.005  29.378  31.215  1.00  0.00    -0.206 F 
ATOM     81  C   UNL A   1      37.875  30.009  29.522  1.00  0.00     0.060 A 
BRANCH  81  82
ATOM     82  S   UNL A   1      36.172  30.474  29.902  1.00  0.00     0.124 S 
ATOM     83  O   UNL A   1      35.921  29.687  31.105  1.00  0.00    -0.237 OA
ATOM     84  O   UNL A   1      36.278  31.917  30.100  1.00  0.00    -0.237 OA
ATOM     85  O   UNL A   1      35.434  30.060  28.714  1.00  0.00    -0.744 OA
ENDBRANCH  81  82
ENDBRANCH  60  74
BRANCH  61  86
ATOM     86  C   UNL A   1      49.699  26.403  26.321  1.00  0.00     0.058 A 
ATOM     87  C   UNL A   1      50.117  26.563  24.992  1.00  0.00     0.135 A 
ATOM     88  C   UNL A   1      50.613  25.853  27.235  1.00  0.00     0.135 A 
ATOM     89  F   UNL A   1      49.274  27.078  24.083  1.00  0.00    -0.206 F 
ATOM     90  C   UNL A   1      51.389  26.184  24.578  1.00  0.00     0.059 A 
ATOM     91  C   UNL A   1      51.898  25.486  26.848  1.00  0.00     0.059 A 
ATOM     92  F   UNL A   1      50.265  25.696  28.522  1.00  0.00    -0.206 F 
ATOM     93  C   UNL A   1      52.274  25.649  25.516  1.00  0.00     0.060 A 
BRANCH  93  94
ATOM     94  S   UNL A   1      53.945  25.216  24.984  1.00  0.00     0.124 S 
ATOM     95  O   UNL A   1      54.749  25.765  26.068  1.00  0.00    -0.237 OA
ATOM     96  O   UNL A   1      53.878  23.759  24.913  1.00  0.00    -0.237 OA
ATOM     97  O   UNL A   1      54.069  25.892  23.696  1.00  0.00    -0.744 OA
ENDBRANCH  93  94
ENDBRANCH  61  86
BRANCH  73  98
ATOM     98  C   UNL A   1      46.978  32.477  28.392  1.00  0.00     0.058 A 
ATOM     99  C   UNL A   1      46.923  33.464  27.397  1.00  0.00     0.135 A 
ATOM    100  C   UNL A   1      47.561  32.815  29.623  1.00  0.00     0.135 A 
ATOM    101  F   UNL A   1      46.383  33.188  26.199  1.00  0.00    -0.206 F 
ATOM    102  C   UNL A   1      47.442  34.737  27.609  1.00  0.00     0.059 A 
ATOM    103  C   UNL A   1      48.066  34.089  29.865  1.00  0.00     0.059 A 
ATOM    104  F   UNL A   1      47.631  31.908  30.611  1.00  0.00    -0.206 F 
ATOM    105  C   UNL A   1      48.010  35.041  28.848  1.00  0.00     0.060 A 
BRANCH 105 106
ATOM    106  S   UNL A   1      48.644  36.708  29.127  1.00  0.00     0.124 S 
ATOM    107  O   UNL A   1      48.674  36.771  30.585  1.00  0.00    -0.237 OA
ATOM    108  O   UNL A   1      49.945  36.666  28.467  1.00  0.00    -0.237 OA
ATOM    109  O   UNL A   1      47.650  37.561  28.482  1.00  0.00    -0.744 OA
ENDBRANCH 105 106
ENDBRANCH  73  98
ENDBRANCH  47  48
ENDBRANCH  39  42
ENDBRANCH  37  38
ENDBRANCH  36  37
ENDBRANCH  35  36
ENDBRANCH   1  35
TORSDOF 20
ENDMDL
MODEL 2
REMARK VINA RESULT:     -11.8      8.752     16.434
REMARK SMILES COc1ccc(NS(=O)(=O)c2ccc(NC(=O)[C@H]3CCCC[C@@H]3C(=O)NCCCCNC(=O)c3ccc(-c4c5nc(c(-c6c(F)cc(S(=O)(=O)[O-])cc6F)c6ccc([nH]6)c(-c6c(F)cc(S(=O)(=O)[O-])cc6F)c6nc(c(-c7c(F)cc(S(=O)(=O)[O-])cc7F)c7ccc4[nH]7)C=C6)C=C5)cc3)cc2)cc1
REMARK SMILES IDX 27 1 26 2 24 3 25 4 23 6 18 7 19 8 20 9 22 10 21 11 16 12
REMARK SMILES IDX 15 13 17 15 14 16 11 17 12 18 101 19 13 20 100 21 8 22 9 23
REMARK SMILES IDX 10 24 7 25 6 27 3 28 4 29 103 30 5 31 102 32 2 33 1 34 28 35
REMARK SMILES IDX 29 36 30 37 31 38 32 39 33 41 34 42 35 43 99 44 36 45 98 46
REMARK SMILES IDX 37 47 38 48 39 49 92 50 40 51 97 52 91 53 93 54 41 55 96 56
REMARK SMILES IDX 90 57 89 58 42 60 76 61 55 62 75 63 56 64 59 65 74 66 94 67
REMARK SMILES IDX 57 68 58 69 73 71 95 72 60 73 43 74 44 75 53 76 45 77 46 78
REMARK SMILES IDX 52 79 54 80 47 81 48 82 49 83 50 84 51 85 77 86 78 87 87 88
REMARK SMILES IDX 79 89 80 90 86 91 88 92 81 93 82 94 83 95 84 96 85 97 61 98
REMARK SMILES IDX 62 99 71 100 63 101 64 102 70 103 72 104 65 105 66 106
REMARK SMILES IDX 67 107 68 108 69 109
REMARK H PARENT 26 5 15 14 7 26 31 40 93 59 59 70
REMARK Flexibility Score: inf
ROOT
ATOM      1  C   UNL A   1      45.295  23.923  39.154  1.00  0.00     0.116 C 
ENDROOT
BRANCH   1   2
ATOM      2  N   UNL A   1      44.260  24.408  38.263  1.00  0.00    -0.356 N 
ATOM      3  C   UNL A   1      44.062  24.101  36.939  1.00  0.00     0.223 C 
ATOM      4  O   UNL A   1      43.049  24.532  36.393  1.00  0.00    -0.275 OA
ATOM      5  H   UNL A   1      43.616  25.039  38.657  1.00  0.00     0.163 HD
BRANCH   3   6
ATOM      6  C   UNL A   1      45.125  23.277  36.188  1.00  0.00     0.091 C 
ATOM      7  C   UNL A   1      46.163  24.203  35.538  1.00  0.00     0.091 C 
ATOM      8  C   UNL A   1      45.495  24.905  34.315  1.00  0.00     0.014 C 
ATOM      9  C   UNL A   1      44.915  23.921  33.296  1.00  0.00     0.001 C 
ATOM     10  C   UNL A   1      44.542  22.288  35.166  1.00  0.00     0.014 C 
ATOM     11  C   UNL A   1      43.945  22.938  33.929  1.00  0.00     0.001 C 
BRANCH   7  12
ATOM     12  C   UNL A   1      47.548  23.664  35.100  1.00  0.00     0.228 C 
ATOM     13  N   UNL A   1      48.271  22.659  35.661  1.00  0.00    -0.326 N 
ATOM     14  H   UNL A   1      49.057  22.414  35.121  1.00  0.00     0.169 HD
ATOM     15  O   UNL A   1      48.081  24.156  34.091  1.00  0.00    -0.274 OA
BRANCH  13  16
ATOM     16  C   UNL A   1      48.163  21.892  36.821  1.00  0.00     0.041 A 
ATOM     17  C   UNL A   1      47.527  20.375  39.070  1.00  0.00     0.087 A 
ATOM     18  C   UNL A   1      48.147  21.615  39.229  1.00  0.00     0.024 A 
ATOM     19  C   UNL A   1      47.374  19.826  37.793  1.00  0.00     0.024 A 
ATOM     20  C   UNL A   1      48.488  22.360  38.093  1.00  0.00     0.027 A 
ATOM     21  C   UNL A   1      47.721  20.576  36.671  1.00  0.00     0.027 A 
BRANCH  17  22
ATOM     22  S   UNL A   1      46.767  19.512  40.430  1.00  0.00     0.261 S 
ATOM     23  O   UNL A   1      45.445  20.084  40.575  1.00  0.00    -0.201 OA
ATOM     24  O   UNL A   1      47.715  19.518  41.522  1.00  0.00    -0.201 OA
BRANCH  22  25
ATOM     25  N   UNL A   1      46.540  17.938  39.919  1.00  0.00    -0.280 N 
ATOM     26  H   UNL A   1      47.341  17.457  39.608  1.00  0.00     0.180 HD
BRANCH  25  27
ATOM     27  C   UNL A   1      45.310  17.221  39.887  1.00  0.00     0.049 A 
ATOM     28  C   UNL A   1      43.124  15.476  39.591  1.00  0.00     0.119 A 
ATOM     29  C   UNL A   1      43.568  15.849  40.855  1.00  0.00     0.048 A 
ATOM     30  C   UNL A   1      43.705  16.051  38.468  1.00  0.00     0.048 A 
ATOM     31  C   UNL A   1      44.669  16.702  41.009  1.00  0.00     0.030 A 
ATOM     32  C   UNL A   1      44.796  16.915  38.619  1.00  0.00     0.030 A 
BRANCH  28  33
ATOM     33  O   UNL A   1      42.106  14.568  39.567  1.00  0.00    -0.497 OA
ATOM     34  C   UNL A   1      41.632  14.160  40.848  1.00  0.00     0.278 C 
ENDBRANCH  28  33
ENDBRANCH  25  27
ENDBRANCH  22  25
ENDBRANCH  17  22
ENDBRANCH  13  16
ENDBRANCH   7  12
ENDBRANCH   3   6
ENDBRANCH   1   2
BRANCH   1  35
ATOM     35  C   UNL A   1      46.292  24.990  39.607  1.00  0.00     0.023 C 
BRANCH  35  36
ATOM     36  C   UNL A   1      45.695  26.161  40.394  1.00  0.00     0.023 C 
BRANCH  36  37
ATOM     37  C   UNL A   1      46.400  27.504  40.205  1.00  0.00     0.116 C 
BRANCH  37  38
ATOM     38  N   UNL A   1      47.576  27.415  39.350  1.00  0.00    -0.352 N 
ATOM     39  C   UNL A   1      47.714  27.564  37.988  1.00  0.00     0.251 C 
ATOM     40  H   UNL A   1      48.414  27.215  39.826  1.00  0.00     0.163 HD
ATOM     41  O   UNL A   1      48.791  27.283  37.465  1.00  0.00    -0.269 OA
BRANCH  39  42
ATOM     42  C   UNL A   1      46.588  28.028  37.143  1.00  0.00     0.039 A 
ATOM     43  C   UNL A   1      45.381  27.320  37.182  1.00  0.00     0.014 A 
ATOM     44  C   UNL A   1      46.717  29.123  36.287  1.00  0.00     0.014 A 
ATOM     45  C   UNL A   1      44.282  27.766  36.439  1.00  0.00     0.010 A 
ATOM     46  C   UNL A   1      45.604  29.605  35.597  1.00  0.00     0.010 A 
ATOM     47  C   UNL A   1      44.369  28.942  35.678  1.00  0.00    -0.014 A 
BRANCH  47  48
ATOM     48  C   UNL A   1      43.177  29.518  34.999  1.00  0.00     0.031 A 
ATOM     49  C   UNL A   1      42.749  29.025  33.642  1.00  0.00     0.074 A 
ATOM     50  C   UNL A   1      42.528  30.555  35.566  1.00  0.00     0.049 A 
ATOM     51  N   UNL A   1      41.811  29.485  32.855  1.00  0.00    -0.248 NA
ATOM     52  C   UNL A   1      43.488  27.880  33.091  1.00  0.00     0.031 C 
ATOM     53  C   UNL A   1      42.867  31.162  36.857  1.00  0.00     0.029 A 
ATOM     54  N   UNL A   1      41.461  31.299  35.124  1.00  0.00    -0.354 N 
ATOM     55  C   UNL A   1      41.858  28.703  31.707  1.00  0.00     0.074 A 
ATOM     56  C   UNL A   1      42.943  27.760  31.888  1.00  0.00     0.031 C 
ATOM     57  C   UNL A   1      42.021  32.174  37.104  1.00  0.00     0.029 A 
ATOM     58  C   UNL A   1      41.103  32.316  35.978  1.00  0.00     0.049 A 
ATOM     59  H   UNL A   1      40.996  31.119  34.276  1.00  0.00     0.167 HD
ATOM     60  C   UNL A   1      41.063  28.755  30.611  1.00  0.00     0.037 A 
ATOM     61  C   UNL A   1      40.156  33.268  35.864  1.00  0.00     0.037 A 
ATOM     62  C   UNL A   1      39.964  29.671  30.445  1.00  0.00     0.049 A 
ATOM     63  C   UNL A   1      39.280  33.298  34.643  1.00  0.00     0.074 A 
ATOM     64  C   UNL A   1      39.059  29.749  29.400  1.00  0.00     0.029 A 
ATOM     65  N   UNL A   1      39.616  30.666  31.346  1.00  0.00    -0.354 N 
ATOM     66  N   UNL A   1      39.306  32.514  33.593  1.00  0.00    -0.248 NA
ATOM     67  C   UNL A   1      38.247  34.343  34.590  1.00  0.00     0.031 C 
ATOM     68  C   UNL A   1      38.187  30.813  29.652  1.00  0.00     0.029 A 
ATOM     69  C   UNL A   1      38.525  31.375  30.872  1.00  0.00     0.049 A 
ATOM     70  H   UNL A   1      40.078  30.843  32.198  1.00  0.00     0.167 HD
ATOM     71  C   UNL A   1      38.281  32.956  32.764  1.00  0.00     0.074 A 
ATOM     72  C   UNL A   1      37.647  34.070  33.439  1.00  0.00     0.031 C 
ATOM     73  C   UNL A   1      37.900  32.481  31.554  1.00  0.00     0.037 A 
BRANCH  60  74
ATOM     74  C   UNL A   1      41.351  27.788  29.496  1.00  0.00     0.058 A 
ATOM     75  C   UNL A   1      40.529  26.676  29.258  1.00  0.00     0.135 A 
ATOM     76  C   UNL A   1      42.438  27.997  28.632  1.00  0.00     0.135 A 
ATOM     77  F   UNL A   1      39.484  26.423  30.063  1.00  0.00    -0.206 F 
ATOM     78  C   UNL A   1      40.791  25.787  28.222  1.00  0.00     0.059 A 
ATOM     79  C   UNL A   1      42.705  27.134  27.573  1.00  0.00     0.059 A 
ATOM     80  F   UNL A   1      43.255  29.046  28.814  1.00  0.00    -0.206 F 
ATOM     81  C   UNL A   1      41.884  26.021  27.386  1.00  0.00     0.060 A 
BRANCH  81  82
ATOM     82  S   UNL A   1      42.216  24.857  26.047  1.00  0.00     0.124 S 
ATOM     83  O   UNL A   1      43.467  24.253  26.495  1.00  0.00    -0.237 OA
ATOM     84  O   UNL A   1      41.043  23.988  26.089  1.00  0.00    -0.237 OA
ATOM     85  O   UNL A   1      42.316  25.713  24.870  1.00  0.00    -0.744 OA
ENDBRANCH  81  82
ENDBRANCH  60  74
BRANCH  61  86
ATOM     86  C   UNL A   1      39.978  34.265  36.951  1.00  0.00     0.058 A 
ATOM     87  C   UNL A   1      40.615  35.513  36.893  1.00  0.00     0.135 A 
ATOM     88  C   UNL A   1      39.155  33.999  38.057  1.00  0.00     0.135 A 
ATOM     89  F   UNL A   1      41.417  35.808  35.858  1.00  0.00    -0.206 F 
ATOM     90  C   UNL A   1      40.453  36.460  37.898  1.00  0.00     0.059 A 
ATOM     91  C   UNL A   1      38.961  34.938  39.064  1.00  0.00     0.059 A 
ATOM     92  F   UNL A   1      38.511  32.824  38.149  1.00  0.00    -0.206 F 
ATOM     93  C   UNL A   1      39.620  36.164  38.979  1.00  0.00     0.060 A 
BRANCH  93  94
ATOM     94  S   UNL A   1      39.366  37.423  40.249  1.00  0.00     0.124 S 
ATOM     95  O   UNL A   1      38.759  36.641  41.319  1.00  0.00    -0.237 OA
ATOM     96  O   UNL A   1      40.726  37.893  40.494  1.00  0.00    -0.237 OA
ATOM     97  O   UNL A   1      38.489  38.386  39.590  1.00  0.00    -0.744 OA
ENDBRANCH  93  94
ENDBRANCH  61  86
BRANCH  73  98
ATOM     98  C   UNL A   1      36.731  33.148  30.886  1.00  0.00     0.058 A 
ATOM     99  C   UNL A   1      36.905  34.019  29.800  1.00  0.00     0.135 A 
ATOM    100  C   UNL A   1      35.419  32.870  31.302  1.00  0.00     0.135 A 
ATOM    101  F   UNL A   1      38.140  34.324  29.369  1.00  0.00    -0.206 F 
ATOM    102  C   UNL A   1      35.819  34.607  29.160  1.00  0.00     0.059 A 
ATOM    103  C   UNL A   1      34.318  33.429  30.663  1.00  0.00     0.059 A 
ATOM    104  F   UNL A   1      35.199  32.036  32.332  1.00  0.00    -0.206 F 
ATOM    105  C   UNL A   1      34.528  34.304  29.598  1.00  0.00     0.060 A 
BRANCH 105 106
ATOM    106  S   UNL A   1      33.124  35.041  28.734  1.00  0.00     0.124 S 
ATOM    107  O   UNL A   1      32.232  35.362  29.844  1.00  0.00    -0.237 OA
ATOM    108  O   UNL A   1      33.733  36.182  28.058  1.00  0.00    -0.237 OA
ATOM    109  O   UNL A   1      32.669  33.969  27.853  1.00  0.00    -0.744 OA
ENDBRANCH 105 106
ENDBRANCH  73  98
ENDBRANCH  47  48
ENDBRANCH  39  42
ENDBRANCH  37  38
ENDBRANCH  36  37
ENDBRANCH  35  36
ENDBRANCH   1  35
TORSDOF 20
ENDMDL
MODEL 3
REMARK VINA RESULT:     -11.8      5.907     10.371
REMARK SMILES COc1ccc(NS(=O)(=O)c2ccc(NC(=O)[C@H]3CCCC[C@@H]3C(=O)NCCCCNC(=O)c3ccc(-c4c5nc(c(-c6c(F)cc(S(=O)(=O)[O-])cc6F)c6ccc([nH]6)c(-c6c(F)cc(S(=O)(=O)[O-])cc6F)c6nc(c(-c7c(F)cc(S(=O)(=O)[O-])cc7F)c7ccc4[nH]7)C=C6)C=C5)cc3)cc2)cc1
REMARK SMILES IDX 27 1 26 2 24 3 25 4 23 6 18 7 19 8 20 9 22 10 21 11 16 12
REMARK SMILES IDX 15 13 17 15 14 16 11 17 12 18 101 19 13 20 100 21 8 22 9 23
REMARK SMILES IDX 10 24 7 25 6 27 3 28 4 29 103 30 5 31 102 32 2 33 1 34 28 35
REMARK SMILES IDX 29 36 30 37 31 38 32 39 33 41 34 42 35 43 99 44 36 45 98 46
REMARK SMILES IDX 37 47 38 48 39 49 92 50 40 51 97 52 91 53 93 54 41 55 96 56
REMARK SMILES IDX 90 57 89 58 42 60 76 61 55 62 75 63 56 64 59 65 74 66 94 67
REMARK SMILES IDX 57 68 58 69 73 71 95 72 60 73 43 74 44 75 53 76 45 77 46 78
REMARK SMILES IDX 52 79 54 80 47 81 48 82 49 83 50 84 51 85 77 86 78 87 87 88
REMARK SMILES IDX 79 89 80 90 86 91 88 92 81 93 82 94 83 95 84 96 85 97 61 98
REMARK SMILES IDX 62 99 71 100 63 101 64 102 70 103 72 104 65 105 66 106
REMARK SMILES IDX 67 107 68 108 69 109
REMARK H PARENT 26 5 15 14 7 26 31 40 93 59 59 70
REMARK Flexibility Score: inf
ROOT
ATOM      1  C   UNL A   1      36.908  22.582  25.944  1.00  0.00     0.116 C 
ENDROOT
BRANCH   1   2
ATOM      2  N   UNL A   1      35.693  22.435  26.720  1.00  0.00    -0.356 N 
ATOM      3  C   UNL A   1      34.506  21.857  26.344  1.00  0.00     0.223 C 
ATOM      4  O   UNL A   1      33.631  21.729  27.198  1.00  0.00    -0.275 OA
ATOM      5  H   UNL A   1      35.722  22.795  27.635  1.00  0.00     0.163 HD
BRANCH   3   6
ATOM      6  C   UNL A   1      34.301  21.439  24.875  1.00  0.00     0.091 C 
ATOM      7  C   UNL A   1      32.820  21.552  24.485  1.00  0.00     0.091 C 
ATOM      8  C   UNL A   1      32.041  20.390  25.176  1.00  0.00     0.014 C 
ATOM      9  C   UNL A   1      32.598  19.005  24.839  1.00  0.00     0.001 C 
ATOM     10  C   UNL A   1      34.862  20.048  24.537  1.00  0.00     0.014 C 
ATOM     11  C   UNL A   1      34.084  18.891  25.139  1.00  0.00     0.001 C 
BRANCH   7  12
ATOM     12  C   UNL A   1      32.391  21.617  22.997  1.00  0.00     0.228 C 
ATOM     13  N   UNL A   1      32.169  22.720  22.237  1.00  0.00    -0.326 N 
ATOM     14  H   UNL A   1      32.037  22.502  21.286  1.00  0.00     0.169 HD
ATOM     15  O   UNL A   1      32.262  20.549  22.374  1.00  0.00    -0.274 OA
BRANCH  13  16
ATOM     16  C   UNL A   1      32.084  24.090  22.485  1.00  0.00     0.041 A 
ATOM     17  C   UNL A   1      31.541  26.808  22.773  1.00  0.00     0.087 A 
ATOM     18  C   UNL A   1      32.657  26.403  22.040  1.00  0.00     0.024 A 
ATOM     19  C   UNL A   1      30.795  25.869  23.492  1.00  0.00     0.024 A 
ATOM     20  C   UNL A   1      32.938  25.036  21.922  1.00  0.00     0.027 A 
ATOM     21  C   UNL A   1      31.088  24.512  23.369  1.00  0.00     0.027 A 
BRANCH  17  22
ATOM     22  S   UNL A   1      30.919  28.475  22.710  1.00  0.00     0.261 S 
ATOM     23  O   UNL A   1      29.546  28.371  22.261  1.00  0.00    -0.201 OA
ATOM     24  O   UNL A   1      31.890  29.267  21.988  1.00  0.00    -0.201 OA
BRANCH  22  25
ATOM     25  N   UNL A   1      30.851  29.011  24.290  1.00  0.00    -0.280 N 
ATOM     26  H   UNL A   1      29.953  29.144  24.672  1.00  0.00     0.180 HD
BRANCH  25  27
ATOM     27  C   UNL A   1      31.956  29.295  25.143  1.00  0.00     0.049 A 
ATOM     28  C   UNL A   1      33.886  29.644  27.160  1.00  0.00     0.119 A 
ATOM     29  C   UNL A   1      34.185  28.925  26.008  1.00  0.00     0.048 A 
ATOM     30  C   UNL A   1      32.653  30.277  27.266  1.00  0.00     0.048 A 
ATOM     31  C   UNL A   1      33.222  28.731  25.009  1.00  0.00     0.030 A 
ATOM     32  C   UNL A   1      31.694  30.097  26.263  1.00  0.00     0.030 A 
BRANCH  28  33
ATOM     33  O   UNL A   1      34.870  29.686  28.104  1.00  0.00    -0.497 OA
ATOM     34  C   UNL A   1      36.087  30.292  27.676  1.00  0.00     0.278 C 
ENDBRANCH  28  33
ENDBRANCH  25  27
ENDBRANCH  22  25
ENDBRANCH  17  22
ENDBRANCH  13  16
ENDBRANCH   7  12
ENDBRANCH   3   6
ENDBRANCH   1   2
BRANCH   1  35
ATOM     35  C   UNL A   1      37.313  24.030  25.669  1.00  0.00     0.023 C 
BRANCH  35  36
ATOM     36  C   UNL A   1      38.440  24.579  26.548  1.00  0.00     0.023 C 
BRANCH  36  37
ATOM     37  C   UNL A   1      39.589  23.609  26.822  1.00  0.00     0.116 C 
BRANCH  37  38
ATOM     38  N   UNL A   1      40.779  23.898  26.033  1.00  0.00    -0.352 N 
ATOM     39  C   UNL A   1      41.720  24.895  26.154  1.00  0.00     0.251 C 
ATOM     40  H   UNL A   1      40.936  23.275  25.287  1.00  0.00     0.163 HD
ATOM     41  O   UNL A   1      42.558  25.033  25.264  1.00  0.00    -0.269 OA
BRANCH  39  42
ATOM     42  C   UNL A   1      41.727  25.816  27.315  1.00  0.00     0.039 A 
ATOM     43  C   UNL A   1      42.013  27.169  27.100  1.00  0.00     0.014 A 
ATOM     44  C   UNL A   1      41.494  25.359  28.614  1.00  0.00     0.014 A 
ATOM     45  C   UNL A   1      41.971  28.073  28.167  1.00  0.00     0.010 A 
ATOM     46  C   UNL A   1      41.389  26.270  29.666  1.00  0.00     0.010 A 
ATOM     47  C   UNL A   1      41.610  27.640  29.452  1.00  0.00    -0.014 A 
BRANCH  47  48
ATOM     48  C   UNL A   1      41.414  28.602  30.571  1.00  0.00     0.031 A 
ATOM     49  C   UNL A   1      42.243  28.506  31.823  1.00  0.00     0.074 A 
ATOM     50  C   UNL A   1      40.421  29.511  30.496  1.00  0.00     0.049 A 
ATOM     51  N   UNL A   1      42.134  29.181  32.939  1.00  0.00    -0.248 NA
ATOM     52  C   UNL A   1      43.320  27.505  31.830  1.00  0.00     0.031 C 
ATOM     53  C   UNL A   1      39.512  29.681  29.359  1.00  0.00     0.029 A 
ATOM     54  N   UNL A   1      39.992  30.450  31.401  1.00  0.00    -0.354 N 
ATOM     55  C   UNL A   1      43.111  28.676  33.789  1.00  0.00     0.074 A 
ATOM     56  C   UNL A   1      43.781  27.612  33.069  1.00  0.00     0.031 C 
ATOM     57  C   UNL A   1      38.644  30.668  29.631  1.00  0.00     0.029 A 
ATOM     58  C   UNL A   1      38.906  31.178  30.973  1.00  0.00     0.049 A 
ATOM     59  H   UNL A   1      40.424  30.591  32.275  1.00  0.00     0.167 HD
ATOM     60  C   UNL A   1      43.430  29.070  35.045  1.00  0.00     0.037 A 
ATOM     61  C   UNL A   1      38.189  32.136  31.592  1.00  0.00     0.037 A 
ATOM     62  C   UNL A   1      42.786  30.150  35.747  1.00  0.00     0.049 A 
ATOM     63  C   UNL A   1      38.569  32.563  32.982  1.00  0.00     0.074 A 
ATOM     64  C   UNL A   1      43.091  30.667  36.995  1.00  0.00     0.029 A 
ATOM     65  N   UNL A   1      41.710  30.880  35.267  1.00  0.00    -0.354 N 
ATOM     66  N   UNL A   1      39.533  32.109  33.747  1.00  0.00    -0.248 NA
ATOM     67  C   UNL A   1      37.766  33.631  33.594  1.00  0.00     0.031 C 
ATOM     68  C   UNL A   1      42.177  31.686  37.284  1.00  0.00     0.029 A 
ATOM     69  C   UNL A   1      41.326  31.829  36.200  1.00  0.00     0.049 A 
ATOM     70  H   UNL A   1      41.281  30.744  34.391  1.00  0.00     0.167 HD
ATOM     71  C   UNL A   1      39.465  32.851  34.922  1.00  0.00     0.074 A 
ATOM     72  C   UNL A   1      38.374  33.789  34.763  1.00  0.00     0.031 C 
ATOM     73  C   UNL A   1      40.239  32.761  36.031  1.00  0.00     0.037 A 
BRANCH  60  74
ATOM     74  C   UNL A   1      44.534  28.329  35.747  1.00  0.00     0.058 A 
ATOM     75  C   UNL A   1      45.873  28.737  35.645  1.00  0.00     0.135 A 
ATOM     76  C   UNL A   1      44.246  27.223  36.562  1.00  0.00     0.135 A 
ATOM     77  F   UNL A   1      46.204  29.781  34.868  1.00  0.00    -0.206 F 
ATOM     78  C   UNL A   1      46.893  28.057  36.302  1.00  0.00     0.059 A 
ATOM     79  C   UNL A   1      45.247  26.541  37.249  1.00  0.00     0.059 A 
ATOM     80  F   UNL A   1      42.982  26.792  36.696  1.00  0.00    -0.206 F 
ATOM     81  C   UNL A   1      46.570  26.957  37.099  1.00  0.00     0.060 A 
BRANCH  81  82
ATOM     82  S   UNL A   1      47.903  26.079  37.942  1.00  0.00     0.124 S 
ATOM     83  O   UNL A   1      47.480  26.182  39.335  1.00  0.00    -0.237 OA
ATOM     84  O   UNL A   1      47.824  24.746  37.353  1.00  0.00    -0.237 OA
ATOM     85  O   UNL A   1      49.092  26.848  37.588  1.00  0.00    -0.744 OA
ENDBRANCH  81  82
ENDBRANCH  60  74
BRANCH  61  86
ATOM     86  C   UNL A   1      37.042  32.768  30.891  1.00  0.00     0.058 A 
ATOM     87  C   UNL A   1      37.240  33.838  30.008  1.00  0.00     0.135 A 
ATOM     88  C   UNL A   1      35.730  32.303  31.076  1.00  0.00     0.135 A 
ATOM     89  F   UNL A   1      38.476  34.320  29.807  1.00  0.00    -0.206 F 
ATOM     90  C   UNL A   1      36.178  34.435  29.338  1.00  0.00     0.059 A 
ATOM     91  C   UNL A   1      34.654  32.870  30.401  1.00  0.00     0.059 A 
ATOM     92  F   UNL A   1      35.492  31.269  31.899  1.00  0.00    -0.206 F 
ATOM     93  C   UNL A   1      34.888  33.941  29.539  1.00  0.00     0.060 A 
BRANCH  93  94
ATOM     94  S   UNL A   1      33.521  34.681  28.619  1.00  0.00     0.124 S 
ATOM     95  O   UNL A   1      34.156  35.864  28.052  1.00  0.00    -0.237 OA
ATOM     96  O   UNL A   1      33.179  33.624  27.672  1.00  0.00    -0.237 OA
ATOM     97  O   UNL A   1      32.522  34.931  29.653  1.00  0.00    -0.744 OA
ENDBRANCH  93  94
ENDBRANCH  61  86
BRANCH  73  98
ATOM     98  C   UNL A   1      39.949  33.714  37.155  1.00  0.00     0.058 A 
ATOM     99  C   UNL A   1      38.998  33.417  38.142  1.00  0.00     0.135 A 
ATOM    100  C   UNL A   1      40.669  34.913  37.275  1.00  0.00     0.135 A 
ATOM    101  F   UNL A   1      38.277  32.287  38.068  1.00  0.00    -0.206 F 
ATOM    102  C   UNL A   1      38.757  34.285  39.202  1.00  0.00     0.059 A 
ATOM    103  C   UNL A   1      40.461  35.786  38.338  1.00  0.00     0.059 A 
ATOM    104  F   UNL A   1      41.597  35.240  36.360  1.00  0.00    -0.206 F 
ATOM    105  C   UNL A   1      39.495  35.467  39.293  1.00  0.00     0.060 A 
BRANCH 105 106
ATOM    106  S   UNL A   1      39.204  36.567  40.694  1.00  0.00     0.124 S 
ATOM    107  O   UNL A   1      40.567  36.913  41.085  1.00  0.00    -0.237 OA
ATOM    108  O   UNL A   1      38.424  37.645  40.092  1.00  0.00    -0.237 OA
ATOM    109  O   UNL A   1      38.473  35.727  41.638  1.00  0.00    -0.744 OA
ENDBRANCH 105 106
ENDBRANCH  73  98
ENDBRANCH  47  48
ENDBRANCH  39  42
ENDBRANCH  37  38
ENDBRANCH  36  37
ENDBRANCH  35  36
ENDBRANCH   1  35
TORSDOF 20
ENDMDL
