MODEL 1
REMARK VINA RESULT:     -10.6      0.000      0.000
REMARK SMILES O=C(Cc1c(F)cc(Cl)cc1F)NCCCCNC(=O)c1ccc(-c2c3nc(c(-c4c(F)cc(S(=O)(=O)[O-])cc4F)c4ccc([nH]4)c(-c4c(F)cc(S(=O)(=O)[O-])cc4F)c4nc(c(-c5c(F)cc(S(=O)(=O)[O-])cc5F)c5ccc2[nH]5)C=C4)C=C3)cc1
REMARK SMILES IDX 16 1 15 2 14 3 13 4 1 5 2 6 3 8 4 9 5 10 11 11 6 12 7 13
REMARK SMILES IDX 10 14 12 15 8 16 9 17 17 18 18 19 19 20 20 22 21 23 22 24
REMARK SMILES IDX 86 25 23 26 85 27 24 28 25 29 26 30 79 31 27 32 84 33 78 34
REMARK SMILES IDX 80 35 28 36 83 37 77 38 76 39 29 41 63 42 42 43 62 44 43 45
REMARK SMILES IDX 46 46 61 47 81 48 44 49 45 50 60 52 82 53 47 54 30 55 31 56
REMARK SMILES IDX 40 57 32 58 33 59 39 60 41 61 34 62 35 63 36 64 37 65 38 66
REMARK SMILES IDX 64 67 65 68 74 69 66 70 67 71 73 72 75 73 68 74 69 75 70 76
REMARK SMILES IDX 71 77 72 78 48 79 49 80 58 81 50 82 51 83 57 84 59 85 52 86
REMARK SMILES IDX 53 87 54 88 55 89 56 90
REMARK H PARENT 13 7 18 21 80 40 46 51
REMARK Flexibility Score: inf
ROOT
ATOM      1  C   UNL A   1      45.574  23.260  26.558  1.00  0.00     0.023 C 
ENDROOT
BRANCH   1   2
ATOM      2  C   UNL A   1      45.323  22.596  25.200  1.00  0.00     0.023 C 
BRANCH   2   3
ATOM      3  C   UNL A   1      44.818  21.155  25.261  1.00  0.00     0.116 C 
BRANCH   3   4
ATOM      4  N   UNL A   1      43.689  21.014  26.156  1.00  0.00    -0.356 N 
ATOM      5  O   UNL A   1      42.683  19.257  25.068  1.00  0.00    -0.275 OA
ATOM      6  C   UNL A   1      42.704  20.065  25.991  1.00  0.00     0.224 C 
ATOM      7  H   UNL A   1      43.622  21.627  26.923  1.00  0.00     0.163 HD
BRANCH   6   8
ATOM      8  C   UNL A   1      41.626  20.108  27.062  1.00  0.00     0.141 C 
BRANCH   8   9
ATOM      9  C   UNL A   1      40.525  21.082  26.740  1.00  0.00     0.033 A 
ATOM     10  C   UNL A   1      40.569  22.399  27.197  1.00  0.00     0.131 A 
ATOM     11  C   UNL A   1      39.433  20.699  25.958  1.00  0.00     0.131 A 
ATOM     12  F   UNL A   1      41.593  22.811  27.956  1.00  0.00    -0.207 F 
ATOM     13  C   UNL A   1      39.558  23.308  26.892  1.00  0.00     0.060 A 
ATOM     14  C   UNL A   1      38.414  21.590  25.636  1.00  0.00     0.060 A 
ATOM     15  F   UNL A   1      39.361  19.442  25.493  1.00  0.00    -0.207 F 
ATOM     16  C   UNL A   1      38.483  22.897  26.108  1.00  0.00     0.046 A 
ATOM     17  Cl  UNL A   1      37.234  24.013  25.722  1.00  0.00    -0.084 Cl
ENDBRANCH   8   9
ENDBRANCH   6   8
ENDBRANCH   3   4
ENDBRANCH   2   3
ENDBRANCH   1   2
BRANCH   1  18
ATOM     18  C   UNL A   1      44.962  24.647  26.736  1.00  0.00     0.116 C 
BRANCH  18  19
ATOM     19  N   UNL A   1      43.917  24.925  25.765  1.00  0.00    -0.352 N 
ATOM     20  C   UNL A   1      42.768  25.668  25.902  1.00  0.00     0.251 C 
ATOM     21  H   UNL A   1      44.052  24.522  24.876  1.00  0.00     0.163 HD
ATOM     22  O   UNL A   1      41.925  25.650  25.007  1.00  0.00    -0.269 OA
BRANCH  20  23
ATOM     23  C   UNL A   1      42.529  26.464  27.126  1.00  0.00     0.039 A 
ATOM     24  C   UNL A   1      43.066  27.752  27.209  1.00  0.00     0.014 A 
ATOM     25  C   UNL A   1      41.795  25.946  28.197  1.00  0.00     0.014 A 
ATOM     26  C   UNL A   1      42.813  28.543  28.333  1.00  0.00     0.010 A 
ATOM     27  C   UNL A   1      41.490  26.758  29.291  1.00  0.00     0.010 A 
ATOM     28  C   UNL A   1      41.994  28.064  29.369  1.00  0.00    -0.014 A 
BRANCH  28  29
ATOM     29  C   UNL A   1      41.658  28.919  30.538  1.00  0.00     0.031 A 
ATOM     30  C   UNL A   1      42.475  28.833  31.800  1.00  0.00     0.074 A 
ATOM     31  C   UNL A   1      40.593  29.744  30.480  1.00  0.00     0.049 A 
ATOM     32  N   UNL A   1      42.301  29.452  32.939  1.00  0.00    -0.248 NA
ATOM     33  C   UNL A   1      43.629  27.919  31.784  1.00  0.00     0.031 C 
ATOM     34  C   UNL A   1      39.704  29.898  29.326  1.00  0.00     0.029 A 
ATOM     35  N   UNL A   1      40.073  30.606  31.414  1.00  0.00    -0.354 N 
ATOM     36  C   UNL A   1      43.317  29.004  33.774  1.00  0.00     0.074 A 
ATOM     37  C   UNL A   1      44.074  28.022  33.029  1.00  0.00     0.031 C 
ATOM     38  C   UNL A   1      38.769  30.819  29.610  1.00  0.00     0.029 A 
ATOM     39  C   UNL A   1      38.964  31.294  30.977  1.00  0.00     0.049 A 
ATOM     40  H   UNL A   1      40.457  30.720  32.314  1.00  0.00     0.167 HD
ATOM     41  C   UNL A   1      43.611  29.397  35.036  1.00  0.00     0.037 A 
ATOM     42  C   UNL A   1      38.192  32.201  31.605  1.00  0.00     0.037 A 
ATOM     43  C   UNL A   1      42.873  30.393  35.768  1.00  0.00     0.049 A 
ATOM     44  C   UNL A   1      38.522  32.597  33.020  1.00  0.00     0.074 A 
ATOM     45  C   UNL A   1      43.117  30.881  37.040  1.00  0.00     0.029 A 
ATOM     46  N   UNL A   1      41.752  31.057  35.293  1.00  0.00    -0.354 N 
ATOM     47  N   UNL A   1      39.507  32.186  33.780  1.00  0.00    -0.248 NA
ATOM     48  C   UNL A   1      37.635  33.579  33.661  1.00  0.00     0.031 C 
ATOM     49  C   UNL A   1      42.123  31.815  37.349  1.00  0.00     0.029 A 
ATOM     50  C   UNL A   1      41.283  31.940  36.253  1.00  0.00     0.049 A 
ATOM     51  H   UNL A   1      41.349  30.922  34.405  1.00  0.00     0.167 HD
ATOM     52  C   UNL A   1      39.372  32.875  34.981  1.00  0.00     0.074 A 
ATOM     53  C   UNL A   1      38.217  33.738  34.842  1.00  0.00     0.031 C 
ATOM     54  C   UNL A   1      40.136  32.797  36.099  1.00  0.00     0.037 A 
BRANCH  41  55
ATOM     55  C   UNL A   1      44.799  28.766  35.707  1.00  0.00     0.058 A 
ATOM     56  C   UNL A   1      46.082  29.324  35.595  1.00  0.00     0.135 A 
ATOM     57  C   UNL A   1      44.647  27.631  36.520  1.00  0.00     0.135 A 
ATOM     58  F   UNL A   1      46.287  30.398  34.817  1.00  0.00    -0.206 F 
ATOM     59  C   UNL A   1      47.175  28.772  36.255  1.00  0.00     0.059 A 
ATOM     60  C   UNL A   1      45.722  27.076  37.209  1.00  0.00     0.059 A 
ATOM     61  F   UNL A   1      43.441  27.056  36.659  1.00  0.00    -0.206 F 
ATOM     62  C   UNL A   1      46.984  27.651  37.063  1.00  0.00     0.060 A 
BRANCH  62  63
ATOM     63  S   UNL A   1      48.411  26.966  37.931  1.00  0.00     0.124 S 
ATOM     64  O   UNL A   1      49.083  26.239  36.858  1.00  0.00    -0.237 OA
ATOM     65  O   UNL A   1      49.091  28.166  38.407  1.00  0.00    -0.237 OA
ATOM     66  O   UNL A   1      47.811  26.134  38.970  1.00  0.00    -0.744 OA
ENDBRANCH  62  63
ENDBRANCH  41  55
BRANCH  42  67
ATOM     67  C   UNL A   1      37.041  32.819  30.895  1.00  0.00     0.058 A 
ATOM     68  C   UNL A   1      35.733  32.358  31.112  1.00  0.00     0.135 A 
ATOM     69  C   UNL A   1      37.218  33.882  29.997  1.00  0.00     0.135 A 
ATOM     70  F   UNL A   1      35.513  31.339  31.956  1.00  0.00    -0.206 F 
ATOM     71  C   UNL A   1      34.643  32.919  30.452  1.00  0.00     0.059 A 
ATOM     72  C   UNL A   1      36.142  34.475  29.343  1.00  0.00     0.059 A 
ATOM     73  F   UNL A   1      38.448  34.368  29.765  1.00  0.00    -0.206 F 
ATOM     74  C   UNL A   1      34.859  33.980  29.571  1.00  0.00     0.060 A 
BRANCH  74  75
ATOM     75  S   UNL A   1      33.432  34.730  28.756  1.00  0.00     0.124 S 
ATOM     76  O   UNL A   1      34.029  35.915  28.153  1.00  0.00    -0.237 OA
ATOM     77  O   UNL A   1      33.021  33.678  27.831  1.00  0.00    -0.237 OA
ATOM     78  O   UNL A   1      32.509  34.979  29.860  1.00  0.00    -0.744 OA
ENDBRANCH  74  75
ENDBRANCH  42  67
BRANCH  54  79
ATOM     79  C   UNL A   1      39.766  33.679  37.259  1.00  0.00     0.058 A 
ATOM     80  C   UNL A   1      38.898  33.235  38.268  1.00  0.00     0.135 A 
ATOM     81  C   UNL A   1      40.345  34.950  37.400  1.00  0.00     0.135 A 
ATOM     82  F   UNL A   1      38.314  32.030  38.175  1.00  0.00    -0.206 F 
ATOM     83  C   UNL A   1      38.609  34.026  39.375  1.00  0.00     0.059 A 
ATOM     84  C   UNL A   1      40.088  35.748  38.511  1.00  0.00     0.059 A 
ATOM     85  F   UNL A   1      41.189  35.417  36.467  1.00  0.00    -0.206 F 
ATOM     86  C   UNL A   1      39.214  35.280  39.491  1.00  0.00     0.060 A 
BRANCH  86  87
ATOM     87  S   UNL A   1      38.867  36.272  40.958  1.00  0.00     0.124 S 
ATOM     88  O   UNL A   1      37.747  35.546  41.547  1.00  0.00    -0.237 OA
ATOM     89  O   UNL A   1      40.128  36.196  41.690  1.00  0.00    -0.237 OA
ATOM     90  O   UNL A   1      38.545  37.587  40.411  1.00  0.00    -0.744 OA
ENDBRANCH  86  87
ENDBRANCH  54  79
ENDBRANCH  28  29
ENDBRANCH  20  23
ENDBRANCH  18  19
ENDBRANCH   1  18
TORSDOF 15
ENDMDL
MODEL 2
REMARK VINA RESULT:     -10.6      3.528      4.926
REMARK SMILES O=C(Cc1c(F)cc(Cl)cc1F)NCCCCNC(=O)c1ccc(-c2c3nc(c(-c4c(F)cc(S(=O)(=O)[O-])cc4F)c4ccc([nH]4)c(-c4c(F)cc(S(=O)(=O)[O-])cc4F)c4nc(c(-c5c(F)cc(S(=O)(=O)[O-])cc5F)c5ccc2[nH]5)C=C4)C=C3)cc1
REMARK SMILES IDX 16 1 15 2 14 3 13 4 1 5 2 6 3 8 4 9 5 10 11 11 6 12 7 13
REMARK SMILES IDX 10 14 12 15 8 16 9 17 17 18 18 19 19 20 20 22 21 23 22 24
REMARK SMILES IDX 86 25 23 26 85 27 24 28 25 29 26 30 79 31 27 32 84 33 78 34
REMARK SMILES IDX 80 35 28 36 83 37 77 38 76 39 29 41 63 42 42 43 62 44 43 45
REMARK SMILES IDX 46 46 61 47 81 48 44 49 45 50 60 52 82 53 47 54 30 55 31 56
REMARK SMILES IDX 40 57 32 58 33 59 39 60 41 61 34 62 35 63 36 64 37 65 38 66
REMARK SMILES IDX 64 67 65 68 74 69 66 70 67 71 73 72 75 73 68 74 69 75 70 76
REMARK SMILES IDX 71 77 72 78 48 79 49 80 58 81 50 82 51 83 57 84 59 85 52 86
REMARK SMILES IDX 53 87 54 88 55 89 56 90
REMARK H PARENT 13 7 18 21 80 40 46 51
REMARK Flexibility Score: inf
ROOT
ATOM      1  C   UNL A   1      41.466  21.359  26.067  1.00  0.00     0.023 C 
ENDROOT
BRANCH   1   2
ATOM      2  C   UNL A   1      42.161  20.006  26.265  1.00  0.00     0.023 C 
BRANCH   2   3
ATOM      3  C   UNL A   1      43.526  19.868  25.592  1.00  0.00     0.116 C 
BRANCH   3   4
ATOM      4  N   UNL A   1      43.867  21.041  24.814  1.00  0.00    -0.356 N 
ATOM      5  O   UNL A   1      45.985  21.332  25.659  1.00  0.00    -0.275 OA
ATOM      6  C   UNL A   1      45.082  21.684  24.906  1.00  0.00     0.224 C 
ATOM      7  H   UNL A   1      43.197  21.396  24.187  1.00  0.00     0.163 HD
BRANCH   6   8
ATOM      8  C   UNL A   1      45.210  22.887  23.986  1.00  0.00     0.141 C 
BRANCH   8   9
ATOM      9  C   UNL A   1      45.164  24.195  24.729  1.00  0.00     0.033 A 
ATOM     10  C   UNL A   1      46.330  24.899  25.027  1.00  0.00     0.131 A 
ATOM     11  C   UNL A   1      43.946  24.753  25.127  1.00  0.00     0.131 A 
ATOM     12  F   UNL A   1      47.522  24.402  24.672  1.00  0.00    -0.207 F 
ATOM     13  C   UNL A   1      46.292  26.116  25.704  1.00  0.00     0.060 A 
ATOM     14  C   UNL A   1      43.881  25.969  25.799  1.00  0.00     0.060 A 
ATOM     15  F   UNL A   1      42.802  24.108  24.850  1.00  0.00    -0.207 F 
ATOM     16  C   UNL A   1      45.062  26.647  26.085  1.00  0.00     0.046 A 
ATOM     17  Cl  UNL A   1      45.004  28.152  26.915  1.00  0.00    -0.084 Cl
ENDBRANCH   8   9
ENDBRANCH   6   8
ENDBRANCH   3   4
ENDBRANCH   2   3
ENDBRANCH   1   2
BRANCH   1  18
ATOM     18  C   UNL A   1      40.148  21.538  26.817  1.00  0.00     0.116 C 
BRANCH  18  19
ATOM     19  N   UNL A   1      39.089  22.055  25.967  1.00  0.00    -0.352 N 
ATOM     20  C   UNL A   1      38.518  23.306  25.942  1.00  0.00     0.251 C 
ATOM     21  H   UNL A   1      38.726  21.416  25.311  1.00  0.00     0.163 HD
ATOM     22  O   UNL A   1      37.517  23.501  25.256  1.00  0.00    -0.269 OA
BRANCH  20  23
ATOM     23  C   UNL A   1      39.082  24.407  26.755  1.00  0.00     0.039 A 
ATOM     24  C   UNL A   1      39.946  25.321  26.144  1.00  0.00     0.014 A 
ATOM     25  C   UNL A   1      38.781  24.535  28.114  1.00  0.00     0.014 A 
ATOM     26  C   UNL A   1      40.453  26.397  26.877  1.00  0.00     0.010 A 
ATOM     27  C   UNL A   1      39.235  25.644  28.828  1.00  0.00     0.010 A 
ATOM     28  C   UNL A   1      40.074  26.588  28.216  1.00  0.00    -0.014 A 
BRANCH  28  29
ATOM     29  C   UNL A   1      40.549  27.766  28.988  1.00  0.00     0.031 A 
ATOM     30  C   UNL A   1      41.935  27.779  29.578  1.00  0.00     0.074 A 
ATOM     31  C   UNL A   1      39.720  28.810  29.193  1.00  0.00     0.049 A 
ATOM     32  N   UNL A   1      42.503  28.686  30.328  1.00  0.00    -0.248 NA
ATOM     33  C   UNL A   1      42.785  26.610  29.301  1.00  0.00     0.031 C 
ATOM     34  C   UNL A   1      38.345  28.907  28.699  1.00  0.00     0.029 A 
ATOM     35  N   UNL A   1      39.910  29.987  29.874  1.00  0.00    -0.354 N 
ATOM     36  C   UNL A   1      43.773  28.202  30.615  1.00  0.00     0.074 A 
ATOM     37  C   UNL A   1      43.874  26.895  30.002  1.00  0.00     0.031 C 
ATOM     38  C   UNL A   1      37.827  30.090  29.068  1.00  0.00     0.029 A 
ATOM     39  C   UNL A   1      38.815  30.820  29.857  1.00  0.00     0.049 A 
ATOM     40  H   UNL A   1      40.751  30.213  30.333  1.00  0.00     0.167 HD
ATOM     41  C   UNL A   1      44.774  28.802  31.301  1.00  0.00     0.037 A 
ATOM     42  C   UNL A   1      38.627  32.032  30.414  1.00  0.00     0.037 A 
ATOM     43  C   UNL A   1      44.681  30.113  31.890  1.00  0.00     0.049 A 
ATOM     44  C   UNL A   1      39.746  32.664  31.199  1.00  0.00     0.074 A 
ATOM     45  C   UNL A   1      45.655  30.818  32.575  1.00  0.00     0.029 A 
ATOM     46  N   UNL A   1      43.553  30.918  31.858  1.00  0.00    -0.354 N 
ATOM     47  N   UNL A   1      40.951  32.203  31.431  1.00  0.00    -0.248 NA
ATOM     48  C   UNL A   1      39.479  33.980  31.798  1.00  0.00     0.031 C 
ATOM     49  C   UNL A   1      45.105  32.035  32.989  1.00  0.00     0.029 A 
ATOM     50  C   UNL A   1      43.801  32.107  32.525  1.00  0.00     0.049 A 
ATOM     51  H   UNL A   1      42.701  30.681  31.424  1.00  0.00     0.167 HD
ATOM     52  C   UNL A   1      41.593  33.180  32.184  1.00  0.00     0.074 A 
ATOM     53  C   UNL A   1      40.647  34.264  32.358  1.00  0.00     0.031 C 
ATOM     54  C   UNL A   1      42.852  33.179  32.686  1.00  0.00     0.037 A 
BRANCH  41  55
ATOM     55  C   UNL A   1      46.073  28.058  31.439  1.00  0.00     0.058 A 
ATOM     56  C   UNL A   1      46.304  27.185  32.514  1.00  0.00     0.135 A 
ATOM     57  C   UNL A   1      47.072  28.167  30.458  1.00  0.00     0.135 A 
ATOM     58  F   UNL A   1      45.389  27.057  33.489  1.00  0.00    -0.206 F 
ATOM     59  C   UNL A   1      47.483  26.457  32.619  1.00  0.00     0.059 A 
ATOM     60  C   UNL A   1      48.250  27.430  30.530  1.00  0.00     0.059 A 
ATOM     61  F   UNL A   1      46.903  28.990  29.410  1.00  0.00    -0.206 F 
ATOM     62  C   UNL A   1      48.449  26.583  31.620  1.00  0.00     0.060 A 
BRANCH  62  63
ATOM     63  S   UNL A   1      49.963  25.608  31.762  1.00  0.00     0.124 S 
ATOM     64  O   UNL A   1      50.099  25.085  30.405  1.00  0.00    -0.237 OA
ATOM     65  O   UNL A   1      50.944  26.614  32.155  1.00  0.00    -0.237 OA
ATOM     66  O   UNL A   1      49.637  24.620  32.784  1.00  0.00    -0.744 OA
ENDBRANCH  62  63
ENDBRANCH  41  55
BRANCH  42  67
ATOM     67  C   UNL A   1      37.334  32.744  30.232  1.00  0.00     0.058 A 
ATOM     68  C   UNL A   1      37.149  33.633  29.162  1.00  0.00     0.135 A 
ATOM     69  C   UNL A   1      36.259  32.546  31.111  1.00  0.00     0.135 A 
ATOM     70  F   UNL A   1      38.150  33.861  28.300  1.00  0.00    -0.206 F 
ATOM     71  C   UNL A   1      35.948  34.313  28.979  1.00  0.00     0.059 A 
ATOM     72  C   UNL A   1      35.041  33.196  30.935  1.00  0.00     0.059 A 
ATOM     73  F   UNL A   1      36.381  31.695  32.142  1.00  0.00    -0.206 F 
ATOM     74  C   UNL A   1      34.899  34.085  29.870  1.00  0.00     0.060 A 
BRANCH  74  75
ATOM     75  S   UNL A   1      33.331  34.938  29.595  1.00  0.00     0.124 S 
ATOM     76  O   UNL A   1      32.677  34.048  28.642  1.00  0.00    -0.237 OA
ATOM     77  O   UNL A   1      32.760  34.969  30.937  1.00  0.00    -0.237 OA
ATOM     78  O   UNL A   1      33.743  36.235  29.067  1.00  0.00    -0.744 OA
ENDBRANCH  74  75
ENDBRANCH  42  67
BRANCH  54  79
ATOM     79  C   UNL A   1      43.296  34.390  33.458  1.00  0.00     0.058 A 
ATOM     80  C   UNL A   1      43.867  35.499  32.815  1.00  0.00     0.135 A 
ATOM     81  C   UNL A   1      43.080  34.470  34.843  1.00  0.00     0.135 A 
ATOM     82  F   UNL A   1      44.100  35.469  31.494  1.00  0.00    -0.206 F 
ATOM     83  C   UNL A   1      44.217  36.644  33.522  1.00  0.00     0.059 A 
ATOM     84  C   UNL A   1      43.401  35.615  35.565  1.00  0.00     0.059 A 
ATOM     85  F   UNL A   1      42.530  33.439  35.503  1.00  0.00    -0.206 F 
ATOM     86  C   UNL A   1      43.975  36.696  34.897  1.00  0.00     0.060 A 
BRANCH  86  87
ATOM     87  S   UNL A   1      44.389  38.210  35.789  1.00  0.00     0.124 S 
ATOM     88  O   UNL A   1      43.734  37.984  37.073  1.00  0.00    -0.237 OA
ATOM     89  O   UNL A   1      45.849  38.171  35.807  1.00  0.00    -0.237 OA
ATOM     90  O   UNL A   1      43.806  39.263  34.963  1.00  0.00    -0.744 OA
ENDBRANCH  86  87
ENDBRANCH  54  79
ENDBRANCH  28  29
ENDBRANCH  20  23
ENDBRANCH  18  19
ENDBRANCH   1  18
TORSDOF 15
ENDMDL
MODEL 3
REMARK VINA RESULT:     -10.6      5.206     10.982
REMARK SMILES O=C(Cc1c(F)cc(Cl)cc1F)NCCCCNC(=O)c1ccc(-c2c3nc(c(-c4c(F)cc(S(=O)(=O)[O-])cc4F)c4ccc([nH]4)c(-c4c(F)cc(S(=O)(=O)[O-])cc4F)c4nc(c(-c5c(F)cc(S(=O)(=O)[O-])cc5F)c5ccc2[nH]5)C=C4)C=C3)cc1
REMARK SMILES IDX 16 1 15 2 14 3 13 4 1 5 2 6 3 8 4 9 5 10 11 11 6 12 7 13
REMARK SMILES IDX 10 14 12 15 8 16 9 17 17 18 18 19 19 20 20 22 21 23 22 24
REMARK SMILES IDX 86 25 23 26 85 27 24 28 25 29 26 30 79 31 27 32 84 33 78 34
REMARK SMILES IDX 80 35 28 36 83 37 77 38 76 39 29 41 63 42 42 43 62 44 43 45
REMARK SMILES IDX 46 46 61 47 81 48 44 49 45 50 60 52 82 53 47 54 30 55 31 56
REMARK SMILES IDX 40 57 32 58 33 59 39 60 41 61 34 62 35 63 36 64 37 65 38 66
REMARK SMILES IDX 64 67 65 68 74 69 66 70 67 71 73 72 75 73 68 74 69 75 70 76
REMARK SMILES IDX 71 77 72 78 48 79 49 80 58 81 50 82 51 83 57 84 59 85 52 86
REMARK SMILES IDX 53 87 54 88 55 89 56 90
REMARK H PARENT 13 7 18 21 80 40 46 51
REMARK Flexibility Score: inf
ROOT
ATOM      1  C   UNL A   1      34.028  28.202  25.647  1.00  0.00     0.023 C 
ENDROOT
BRANCH   1   2
ATOM      2  C   UNL A   1      33.270  29.083  24.648  1.00  0.00     0.023 C 
BRANCH   2   3
ATOM      3  C   UNL A   1      32.261  28.350  23.764  1.00  0.00     0.116 C 
BRANCH   3   4
ATOM      4  N   UNL A   1      32.250  26.926  24.022  1.00  0.00    -0.356 N 
ATOM      5  O   UNL A   1      33.551  26.305  22.231  1.00  0.00    -0.275 OA
ATOM      6  C   UNL A   1      32.905  26.007  23.231  1.00  0.00     0.224 C 
ATOM      7  H   UNL A   1      31.750  26.597  24.804  1.00  0.00     0.163 HD
BRANCH   6   8
ATOM      8  C   UNL A   1      32.755  24.572  23.707  1.00  0.00     0.141 C 
BRANCH   8   9
ATOM      9  C   UNL A   1      34.054  23.974  24.176  1.00  0.00     0.033 A 
ATOM     10  C   UNL A   1      34.502  24.152  25.485  1.00  0.00     0.131 A 
ATOM     11  C   UNL A   1      34.844  23.207  23.315  1.00  0.00     0.131 A 
ATOM     12  F   UNL A   1      33.783  24.886  26.344  1.00  0.00    -0.207 F 
ATOM     13  C   UNL A   1      35.698  23.592  25.926  1.00  0.00     0.060 A 
ATOM     14  C   UNL A   1      36.039  22.632  23.735  1.00  0.00     0.060 A 
ATOM     15  F   UNL A   1      34.441  23.006  22.051  1.00  0.00    -0.207 F 
ATOM     16  C   UNL A   1      36.461  22.829  25.046  1.00  0.00     0.046 A 
ATOM     17  Cl  UNL A   1      37.936  22.128  25.583  1.00  0.00    -0.084 Cl
ENDBRANCH   8   9
ENDBRANCH   6   8
ENDBRANCH   3   4
ENDBRANCH   2   3
ENDBRANCH   1   2
BRANCH   1  18
ATOM     18  C   UNL A   1      33.619  28.363  27.109  1.00  0.00     0.116 C 
BRANCH  18  19
ATOM     19  N   UNL A   1      33.497  29.756  27.505  1.00  0.00    -0.352 N 
ATOM     20  C   UNL A   1      34.409  30.571  28.132  1.00  0.00     0.251 C 
ATOM     21  H   UNL A   1      32.634  30.179  27.292  1.00  0.00     0.163 HD
ATOM     22  O   UNL A   1      34.057  31.680  28.530  1.00  0.00    -0.269 OA
BRANCH  20  23
ATOM     23  C   UNL A   1      35.799  30.114  28.355  1.00  0.00     0.039 A 
ATOM     24  C   UNL A   1      36.709  30.182  27.296  1.00  0.00     0.014 A 
ATOM     25  C   UNL A   1      36.207  29.604  29.591  1.00  0.00     0.014 A 
ATOM     26  C   UNL A   1      38.040  29.803  27.494  1.00  0.00     0.010 A 
ATOM     27  C   UNL A   1      37.548  29.285  29.806  1.00  0.00     0.010 A 
ATOM     28  C   UNL A   1      38.479  29.383  28.761  1.00  0.00    -0.014 A 
BRANCH  28  29
ATOM     29  C   UNL A   1      39.905  29.044  29.005  1.00  0.00     0.031 A 
ATOM     30  C   UNL A   1      40.838  30.068  29.597  1.00  0.00     0.074 A 
ATOM     31  C   UNL A   1      40.373  27.828  28.657  1.00  0.00     0.049 A 
ATOM     32  N   UNL A   1      42.122  29.978  29.827  1.00  0.00    -0.248 NA
ATOM     33  C   UNL A   1      40.252  31.368  29.962  1.00  0.00     0.031 C 
ATOM     34  C   UNL A   1      39.578  26.759  28.049  1.00  0.00     0.029 A 
ATOM     35  N   UNL A   1      41.630  27.287  28.760  1.00  0.00    -0.354 N 
ATOM     36  C   UNL A   1      42.500  31.204  30.360  1.00  0.00     0.074 A 
ATOM     37  C   UNL A   1      41.319  32.040  30.371  1.00  0.00     0.031 C 
ATOM     38  C   UNL A   1      40.358  25.682  27.861  1.00  0.00     0.029 A 
ATOM     39  C   UNL A   1      41.717  25.994  28.297  1.00  0.00     0.049 A 
ATOM     40  H   UNL A   1      42.399  27.778  29.130  1.00  0.00     0.167 HD
ATOM     41  C   UNL A   1      43.712  31.588  30.826  1.00  0.00     0.037 A 
ATOM     42  C   UNL A   1      42.770  25.156  28.228  1.00  0.00     0.037 A 
ATOM     43  C   UNL A   1      44.880  30.746  30.837  1.00  0.00     0.049 A 
ATOM     44  C   UNL A   1      44.114  25.619  28.723  1.00  0.00     0.074 A 
ATOM     45  C   UNL A   1      46.143  31.038  31.320  1.00  0.00     0.029 A 
ATOM     46  N   UNL A   1      44.927  29.449  30.350  1.00  0.00    -0.354 N 
ATOM     47  N   UNL A   1      44.442  26.772  29.255  1.00  0.00    -0.248 NA
ATOM     48  C   UNL A   1      45.230  24.669  28.608  1.00  0.00     0.031 C 
ATOM     49  C   UNL A   1      46.965  29.929  31.093  1.00  0.00     0.029 A 
ATOM     50  C   UNL A   1      46.203  28.932  30.506  1.00  0.00     0.049 A 
ATOM     51  H   UNL A   1      44.166  28.966  29.952  1.00  0.00     0.167 HD
ATOM     52  C   UNL A   1      45.797  26.678  29.558  1.00  0.00     0.074 A 
ATOM     53  C   UNL A   1      46.224  25.351  29.162  1.00  0.00     0.031 C 
ATOM     54  C   UNL A   1      46.612  27.607  30.113  1.00  0.00     0.037 A 
BRANCH  41  55
ATOM     55  C   UNL A   1      43.839  32.978  31.385  1.00  0.00     0.058 A 
ATOM     56  C   UNL A   1      44.079  34.081  30.551  1.00  0.00     0.135 A 
ATOM     57  C   UNL A   1      43.656  33.220  32.756  1.00  0.00     0.135 A 
ATOM     58  F   UNL A   1      44.278  33.903  29.235  1.00  0.00    -0.206 F 
ATOM     59  C   UNL A   1      44.147  35.374  31.058  1.00  0.00     0.059 A 
ATOM     60  C   UNL A   1      43.697  34.508  33.282  1.00  0.00     0.059 A 
ATOM     61  F   UNL A   1      43.427  32.200  33.599  1.00  0.00    -0.206 F 
ATOM     62  C   UNL A   1      43.950  35.578  32.424  1.00  0.00     0.060 A 
BRANCH  62  63
ATOM     63  S   UNL A   1      44.017  37.268  33.057  1.00  0.00     0.124 S 
ATOM     64  O   UNL A   1      45.322  37.281  33.711  1.00  0.00    -0.237 OA
ATOM     65  O   UNL A   1      43.910  38.062  31.838  1.00  0.00    -0.237 OA
ATOM     66  O   UNL A   1      42.867  37.341  33.953  1.00  0.00    -0.744 OA
ENDBRANCH  62  63
ENDBRANCH  41  55
BRANCH  42  67
ATOM     67  C   UNL A   1      42.594  23.781  27.690  1.00  0.00     0.058 A 
ATOM     68  C   UNL A   1      42.426  22.688  28.553  1.00  0.00     0.135 A 
ATOM     69  C   UNL A   1      42.581  23.531  26.309  1.00  0.00     0.135 A 
ATOM     70  F   UNL A   1      42.439  22.876  29.882  1.00  0.00    -0.206 F 
ATOM     71  C   UNL A   1      42.266  21.394  28.069  1.00  0.00     0.059 A 
ATOM     72  C   UNL A   1      42.399  22.249  25.800  1.00  0.00     0.059 A 
ATOM     73  F   UNL A   1      42.724  24.544  25.440  1.00  0.00    -0.206 F 
ATOM     74  C   UNL A   1      42.252  21.184  26.689  1.00  0.00     0.060 A 
BRANCH  74  75
ATOM     75  S   UNL A   1      41.997  19.506  26.072  1.00  0.00     0.124 S 
ATOM     76  O   UNL A   1      42.357  18.708  27.238  1.00  0.00    -0.237 OA
ATOM     77  O   UNL A   1      40.581  19.522  25.719  1.00  0.00    -0.237 OA
ATOM     78  O   UNL A   1      42.916  19.422  24.941  1.00  0.00    -0.744 OA
ENDBRANCH  74  75
ENDBRANCH  42  67
BRANCH  54  79
ATOM     79  C   UNL A   1      48.047  27.226  30.346  1.00  0.00     0.058 A 
ATOM     80  C   UNL A   1      49.052  27.555  29.423  1.00  0.00     0.135 A 
ATOM     81  C   UNL A   1      48.431  26.593  31.540  1.00  0.00     0.135 A 
ATOM     82  F   UNL A   1      48.735  28.155  28.265  1.00  0.00    -0.206 F 
ATOM     83  C   UNL A   1      50.388  27.261  29.671  1.00  0.00     0.059 A 
ATOM     84  C   UNL A   1      49.765  26.311  31.818  1.00  0.00     0.059 A 
ATOM     85  F   UNL A   1      47.510  26.265  32.458  1.00  0.00    -0.206 F 
ATOM     86  C   UNL A   1      50.736  26.643  30.874  1.00  0.00     0.060 A 
BRANCH  86  87
ATOM     87  S   UNL A   1      52.481  26.314  31.202  1.00  0.00     0.124 S 
ATOM     88  O   UNL A   1      52.416  25.022  31.875  1.00  0.00    -0.237 OA
ATOM     89  O   UNL A   1      53.052  26.300  29.858  1.00  0.00    -0.237 OA
ATOM     90  O   UNL A   1      52.889  27.439  32.038  1.00  0.00    -0.744 OA
ENDBRANCH  86  87
ENDBRANCH  54  79
ENDBRANCH  28  29
ENDBRANCH  20  23
ENDBRANCH  18  19
ENDBRANCH   1  18
TORSDOF 15
ENDMDL
