MODEL 1
REMARK VINA RESULT:     -10.9      0.000      0.000
REMARK SMILES COCC[C@H]([NH3+])C(=O)N1CC(n2cc(C(=O)NCCCCNC(=O)c3ccc(-c4c5nc(c(-c6c(F)cc(S(=O)(=O)[O-])cc6F)c6ccc([nH]6)c(-c6c(F)cc(S(=O)(=O)[O-])cc6F)c6nc(c(-c7c(F)cc(S(=O)(=O)[O-])cc7F)c7ccc4[nH]7)C=C6)C=C5)cc3)nn2)C1
REMARK SMILES IDX 18 1 17 2 15 3 16 4 14 6 12 7 13 8 92 9 91 10 11 11 7 12
REMARK SMILES IDX 8 13 9 14 10 15 93 16 5 17 4 18 3 19 2 20 1 21 6 22 19 26
REMARK SMILES IDX 20 27 21 28 22 29 23 30 24 32 25 33 26 34 90 35 27 36 89 37
REMARK SMILES IDX 28 38 29 39 30 40 83 41 31 42 88 43 82 44 84 45 32 46 87 47
REMARK SMILES IDX 81 48 80 49 33 51 67 52 46 53 66 54 47 55 50 56 65 57 85 58
REMARK SMILES IDX 48 59 49 60 64 62 86 63 51 64 34 65 35 66 44 67 36 68 37 69
REMARK SMILES IDX 43 70 45 71 38 72 39 73 40 74 41 75 42 76 68 77 69 78 78 79
REMARK SMILES IDX 70 80 71 81 77 82 79 83 72 84 73 85 74 86 75 87 76 88 52 89
REMARK SMILES IDX 53 90 62 91 54 92 55 93 61 94 63 95 56 96 57 97 58 98 59 99
REMARK SMILES IDX 60 100
REMARK H PARENT 17 5 6 23 6 24 6 25 22 31 84 50 50 61
REMARK Flexibility Score: inf
ROOT
ATOM      1  C   UNL A   1      34.205  34.591  27.984  1.00  0.00     0.116 C 
ENDROOT
BRANCH   1   2
ATOM      2  N   UNL A   1      35.566  34.225  28.318  1.00  0.00    -0.351 N 
ATOM      3  C   UNL A   1      36.222  33.011  28.345  1.00  0.00     0.273 C 
ATOM      4  O   UNL A   1      37.420  33.039  28.604  1.00  0.00    -0.267 OA
ATOM      5  H   UNL A   1      36.132  34.988  28.575  1.00  0.00     0.163 HD
BRANCH   3   6
ATOM      6  C   UNL A   1      35.526  31.757  28.067  1.00  0.00     0.170 A 
ATOM      7  N   UNL A   1      34.214  30.149  27.434  1.00  0.00    -0.245 N 
ATOM      8  C   UNL A   1      34.291  31.510  27.507  1.00  0.00     0.145 A 
ATOM      9  N   UNL A   1      35.278  29.567  27.991  1.00  0.00    -0.066 NA
ATOM     10  N   UNL A   1      36.082  30.537  28.408  1.00  0.00    -0.125 NA
BRANCH   7  11
ATOM     11  C   UNL A   1      33.132  29.468  26.805  1.00  0.00     0.148 C 
ATOM     12  C   UNL A   1      31.379  28.504  24.241  1.00  0.00     0.280 C 
ATOM     13  O   UNL A   1      31.248  27.277  24.222  1.00  0.00    -0.268 OA
ATOM     14  N   UNL A   1      32.382  29.088  24.960  1.00  0.00    -0.333 N 
ATOM     15  C   UNL A   1      33.472  28.458  25.706  1.00  0.00     0.149 C 
ATOM     16  C   UNL A   1      32.511  30.337  25.684  1.00  0.00     0.149 C 
BRANCH  12  17
ATOM     17  C   UNL A   1      30.489  29.387  23.338  1.00  0.00     0.273 C 
BRANCH  17  18
ATOM     18  C   UNL A   1      29.102  28.742  23.173  1.00  0.00     0.104 C 
BRANCH  18  19
ATOM     19  C   UNL A   1      28.203  29.518  22.204  1.00  0.00     0.166 C 
BRANCH  19  20
ATOM     20  O   UNL A   1      27.175  30.261  22.864  1.00  0.00    -0.384 OA
ATOM     21  C   UNL A   1      27.629  31.414  23.556  1.00  0.00     0.194 C 
ENDBRANCH  19  20
ENDBRANCH  18  19
ENDBRANCH  17  18
BRANCH  17  22
ATOM     22  N   UNL A   1      31.080  29.683  22.024  1.00  0.00    -0.347 N 
ATOM     23  H   UNL A   1      30.464  30.310  21.507  1.00  0.00     0.345 HD
ATOM     24  H   UNL A   1      31.199  28.815  21.502  1.00  0.00     0.345 HD
ATOM     25  H   UNL A   1      31.989  30.130  22.153  1.00  0.00     0.345 HD
ENDBRANCH  17  22
ENDBRANCH  12  17
ENDBRANCH   7  11
ENDBRANCH   3   6
ENDBRANCH   1   2
BRANCH   1  26
ATOM     26  C   UNL A   1      33.703  35.757  28.841  1.00  0.00     0.023 C 
BRANCH  26  27
ATOM     27  C   UNL A   1      33.299  35.386  30.278  1.00  0.00     0.023 C 
BRANCH  27  28
ATOM     28  C   UNL A   1      34.181  34.335  30.950  1.00  0.00     0.116 C 
BRANCH  28  29
ATOM     29  N   UNL A   1      34.515  34.671  32.331  1.00  0.00    -0.352 N 
ATOM     30  C   UNL A   1      35.407  34.022  33.167  1.00  0.00     0.251 C 
ATOM     31  H   UNL A   1      34.053  35.452  32.713  1.00  0.00     0.163 HD
ATOM     32  O   UNL A   1      35.284  34.105  34.383  1.00  0.00    -0.269 OA
BRANCH  30  33
ATOM     33  C   UNL A   1      36.512  33.245  32.574  1.00  0.00     0.039 A 
ATOM     34  C   UNL A   1      37.731  33.846  32.254  1.00  0.00     0.014 A 
ATOM     35  C   UNL A   1      36.312  31.882  32.351  1.00  0.00     0.014 A 
ATOM     36  C   UNL A   1      38.771  33.043  31.787  1.00  0.00     0.010 A 
ATOM     37  C   UNL A   1      37.371  31.074  32.010  1.00  0.00     0.010 A 
ATOM     38  C   UNL A   1      38.595  31.650  31.694  1.00  0.00    -0.014 A 
BRANCH  38  39
ATOM     39  C   UNL A   1      39.743  30.773  31.466  1.00  0.00     0.031 A 
ATOM     40  C   UNL A   1      40.487  30.470  32.719  1.00  0.00     0.074 A 
ATOM     41  C   UNL A   1      39.991  30.123  30.304  1.00  0.00     0.049 A 
ATOM     42  N   UNL A   1      41.622  30.962  33.087  1.00  0.00    -0.248 NA
ATOM     43  C   UNL A   1      39.800  29.716  33.784  1.00  0.00     0.031 C 
ATOM     44  C   UNL A   1      39.160  30.111  29.095  1.00  0.00     0.029 A 
ATOM     45  N   UNL A   1      40.992  29.254  29.979  1.00  0.00    -0.354 N 
ATOM     46  C   UNL A   1      41.929  30.323  34.283  1.00  0.00     0.074 A 
ATOM     47  C   UNL A   1      40.687  29.800  34.780  1.00  0.00     0.031 C 
ATOM     48  C   UNL A   1      39.558  29.112  28.276  1.00  0.00     0.029 A 
ATOM     49  C   UNL A   1      40.766  28.515  28.814  1.00  0.00     0.049 A 
ATOM     50  H   UNL A   1      41.807  29.155  30.521  1.00  0.00     0.167 HD
ATOM     51  C   UNL A   1      43.221  29.987  34.564  1.00  0.00     0.037 A 
ATOM     52  C   UNL A   1      41.512  27.486  28.327  1.00  0.00     0.037 A 
ATOM     53  C   UNL A   1      44.126  30.700  33.691  1.00  0.00     0.049 A 
ATOM     54  C   UNL A   1      42.862  27.626  28.924  1.00  0.00     0.074 A 
ATOM     55  C   UNL A   1      44.385  32.026  33.404  1.00  0.00     0.029 A 
ATOM     56  N   UNL A   1      44.653  29.972  32.654  1.00  0.00    -0.354 N 
ATOM     57  N   UNL A   1      43.668  28.619  28.667  1.00  0.00    -0.248 NA
ATOM     58  C   UNL A   1      43.149  26.887  30.142  1.00  0.00     0.031 C 
ATOM     59  C   UNL A   1      44.684  32.056  32.008  1.00  0.00     0.029 A 
ATOM     60  C   UNL A   1      44.682  30.745  31.528  1.00  0.00     0.049 A 
ATOM     61  H   UNL A   1      44.963  29.039  32.713  1.00  0.00     0.167 HD
ATOM     62  C   UNL A   1      44.249  28.917  29.889  1.00  0.00     0.074 A 
ATOM     63  C   UNL A   1      43.992  27.744  30.722  1.00  0.00     0.031 C 
ATOM     64  C   UNL A   1      44.611  30.201  30.188  1.00  0.00     0.037 A 
BRANCH  51  65
ATOM     65  C   UNL A   1      43.643  28.693  35.245  1.00  0.00     0.058 A 
ATOM     66  C   UNL A   1      44.591  28.760  36.290  1.00  0.00     0.135 A 
ATOM     67  C   UNL A   1      43.410  27.398  34.731  1.00  0.00     0.135 A 
ATOM     68  F   UNL A   1      44.899  29.937  36.860  1.00  0.00    -0.206 F 
ATOM     69  C   UNL A   1      45.317  27.649  36.722  1.00  0.00     0.059 A 
ATOM     70  C   UNL A   1      44.085  26.268  35.182  1.00  0.00     0.059 A 
ATOM     71  F   UNL A   1      42.588  27.159  33.705  1.00  0.00    -0.206 F 
ATOM     72  C   UNL A   1      45.063  26.408  36.150  1.00  0.00     0.060 A 
BRANCH  72  73
ATOM     73  S   UNL A   1      46.037  24.982  36.656  1.00  0.00     0.124 S 
ATOM     74  O   UNL A   1      45.256  24.482  37.780  1.00  0.00    -0.237 OA
ATOM     75  O   UNL A   1      46.020  24.166  35.446  1.00  0.00    -0.237 OA
ATOM     76  O   UNL A   1      47.332  25.565  36.992  1.00  0.00    -0.744 OA
ENDBRANCH  72  73
ENDBRANCH  51  65
BRANCH  52  77
ATOM     77  C   UNL A   1      41.073  26.227  27.652  1.00  0.00     0.058 A 
ATOM     78  C   UNL A   1      41.907  25.568  26.725  1.00  0.00     0.135 A 
ATOM     79  C   UNL A   1      39.978  25.480  28.127  1.00  0.00     0.135 A 
ATOM     80  F   UNL A   1      42.979  26.195  26.215  1.00  0.00    -0.206 F 
ATOM     81  C   UNL A   1      41.717  24.228  26.358  1.00  0.00     0.059 A 
ATOM     82  C   UNL A   1      39.762  24.147  27.769  1.00  0.00     0.059 A 
ATOM     83  F   UNL A   1      39.133  25.991  29.033  1.00  0.00    -0.206 F 
ATOM     84  C   UNL A   1      40.654  23.516  26.910  1.00  0.00     0.060 A 
BRANCH  84  85
ATOM     85  S   UNL A   1      40.519  21.736  26.611  1.00  0.00     0.124 S 
ATOM     86  O   UNL A   1      40.749  21.186  27.942  1.00  0.00    -0.237 OA
ATOM     87  O   UNL A   1      39.160  21.609  26.095  1.00  0.00    -0.237 OA
ATOM     88  O   UNL A   1      41.577  21.476  25.637  1.00  0.00    -0.744 OA
ENDBRANCH  84  85
ENDBRANCH  52  77
BRANCH  64  89
ATOM     89  C   UNL A   1      44.792  31.173  29.052  1.00  0.00     0.058 A 
ATOM     90  C   UNL A   1      45.909  31.243  28.200  1.00  0.00     0.135 A 
ATOM     91  C   UNL A   1      43.697  31.996  28.739  1.00  0.00     0.135 A 
ATOM     92  F   UNL A   1      46.962  30.429  28.369  1.00  0.00    -0.206 F 
ATOM     93  C   UNL A   1      45.945  32.118  27.111  1.00  0.00     0.059 A 
ATOM     94  C   UNL A   1      43.698  32.846  27.642  1.00  0.00     0.059 A 
ATOM     95  F   UNL A   1      42.581  31.938  29.484  1.00  0.00    -0.206 F 
ATOM     96  C   UNL A   1      44.831  32.914  26.837  1.00  0.00     0.060 A 
BRANCH  96  97
ATOM     97  S   UNL A   1      44.846  33.995  25.391  1.00  0.00     0.124 S 
ATOM     98  O   UNL A   1      46.243  34.414  25.335  1.00  0.00    -0.237 OA
ATOM     99  O   UNL A   1      44.407  33.102  24.323  1.00  0.00    -0.237 OA
ATOM    100  O   UNL A   1      43.894  35.047  25.742  1.00  0.00    -0.744 OA
ENDBRANCH  96  97
ENDBRANCH  64  89
ENDBRANCH  38  39
ENDBRANCH  30  33
ENDBRANCH  28  29
ENDBRANCH  27  28
ENDBRANCH  26  27
ENDBRANCH   1  26
TORSDOF 20
ENDMDL
MODEL 2
REMARK VINA RESULT:     -10.6      5.214     12.802
REMARK SMILES COCC[C@H]([NH3+])C(=O)N1CC(n2cc(C(=O)NCCCCNC(=O)c3ccc(-c4c5nc(c(-c6c(F)cc(S(=O)(=O)[O-])cc6F)c6ccc([nH]6)c(-c6c(F)cc(S(=O)(=O)[O-])cc6F)c6nc(c(-c7c(F)cc(S(=O)(=O)[O-])cc7F)c7ccc4[nH]7)C=C6)C=C5)cc3)nn2)C1
REMARK SMILES IDX 18 1 17 2 15 3 16 4 14 6 12 7 13 8 92 9 91 10 11 11 7 12
REMARK SMILES IDX 8 13 9 14 10 15 93 16 5 17 4 18 3 19 2 20 1 21 6 22 19 26
REMARK SMILES IDX 20 27 21 28 22 29 23 30 24 32 25 33 26 34 90 35 27 36 89 37
REMARK SMILES IDX 28 38 29 39 30 40 83 41 31 42 88 43 82 44 84 45 32 46 87 47
REMARK SMILES IDX 81 48 80 49 33 51 67 52 46 53 66 54 47 55 50 56 65 57 85 58
REMARK SMILES IDX 48 59 49 60 64 62 86 63 51 64 34 65 35 66 44 67 36 68 37 69
REMARK SMILES IDX 43 70 45 71 38 72 39 73 40 74 41 75 42 76 68 77 69 78 78 79
REMARK SMILES IDX 70 80 71 81 77 82 79 83 72 84 73 85 74 86 75 87 76 88 52 89
REMARK SMILES IDX 53 90 62 91 54 92 55 93 61 94 63 95 56 96 57 97 58 98 59 99
REMARK SMILES IDX 60 100
REMARK H PARENT 17 5 6 23 6 24 6 25 22 31 84 50 50 61
REMARK Flexibility Score: inf
ROOT
ATOM      1  C   UNL A   1      46.072  25.169  25.325  1.00  0.00     0.116 C 
ENDROOT
BRANCH   1   2
ATOM      2  N   UNL A   1      46.938  26.080  26.045  1.00  0.00    -0.351 N 
ATOM      3  C   UNL A   1      47.727  27.133  25.632  1.00  0.00     0.273 C 
ATOM      4  O   UNL A   1      48.297  27.771  26.511  1.00  0.00    -0.267 OA
ATOM      5  H   UNL A   1      46.970  25.916  27.015  1.00  0.00     0.163 HD
BRANCH   3   6
ATOM      6  C   UNL A   1      47.867  27.479  24.219  1.00  0.00     0.170 A 
ATOM      7  N   UNL A   1      48.435  27.748  22.142  1.00  0.00    -0.245 N 
ATOM      8  C   UNL A   1      48.909  27.289  23.338  1.00  0.00     0.145 A 
ATOM      9  N   UNL A   1      47.216  28.275  22.268  1.00  0.00    -0.066 NA
ATOM     10  N   UNL A   1      46.861  28.144  23.541  1.00  0.00    -0.125 NA
BRANCH   7  11
ATOM     11  C   UNL A   1      49.164  27.630  20.925  1.00  0.00     0.148 C 
ATOM     12  C   UNL A   1      51.511  26.417  19.027  1.00  0.00     0.280 C 
ATOM     13  O   UNL A   1      51.047  25.950  17.982  1.00  0.00    -0.268 OA
ATOM     14  N   UNL A   1      50.717  26.601  20.122  1.00  0.00    -0.333 N 
ATOM     15  C   UNL A   1      49.315  26.231  20.319  1.00  0.00     0.149 C 
ATOM     16  C   UNL A   1      50.688  27.573  21.198  1.00  0.00     0.149 C 
BRANCH  12  17
ATOM     17  C   UNL A   1      53.030  26.672  19.148  1.00  0.00     0.273 C 
BRANCH  17  18
ATOM     18  C   UNL A   1      53.353  28.123  18.754  1.00  0.00     0.104 C 
BRANCH  18  19
ATOM     19  C   UNL A   1      52.276  28.744  17.856  1.00  0.00     0.166 C 
BRANCH  19  20
ATOM     20  O   UNL A   1      52.744  29.035  16.537  1.00  0.00    -0.384 OA
ATOM     21  C   UNL A   1      51.744  28.986  15.531  1.00  0.00     0.194 C 
ENDBRANCH  19  20
ENDBRANCH  18  19
ENDBRANCH  17  18
BRANCH  17  22
ATOM     22  N   UNL A   1      53.856  25.731  18.378  1.00  0.00    -0.347 N 
ATOM     23  H   UNL A   1      54.566  26.247  17.858  1.00  0.00     0.345 HD
ATOM     24  H   UNL A   1      53.265  25.215  17.726  1.00  0.00     0.345 HD
ATOM     25  H   UNL A   1      54.311  25.077  19.015  1.00  0.00     0.345 HD
ENDBRANCH  17  22
ENDBRANCH  12  17
ENDBRANCH   7  11
ENDBRANCH   3   6
ENDBRANCH   1   2
BRANCH   1  26
ATOM     26  C   UNL A   1      46.826  23.926  24.843  1.00  0.00     0.023 C 
BRANCH  26  27
ATOM     27  C   UNL A   1      45.936  22.766  24.365  1.00  0.00     0.023 C 
BRANCH  27  28
ATOM     28  C   UNL A   1      44.464  23.118  24.158  1.00  0.00     0.116 C 
BRANCH  28  29
ATOM     29  N   UNL A   1      43.561  22.030  24.526  1.00  0.00    -0.352 N 
ATOM     30  C   UNL A   1      42.942  21.822  25.746  1.00  0.00     0.251 C 
ATOM     31  H   UNL A   1      43.370  21.368  23.824  1.00  0.00     0.163 HD
ATOM     32  O   UNL A   1      42.585  20.696  26.071  1.00  0.00    -0.269 OA
BRANCH  30  33
ATOM     33  C   UNL A   1      42.705  22.973  26.637  1.00  0.00     0.039 A 
ATOM     34  C   UNL A   1      43.551  23.243  27.715  1.00  0.00     0.014 A 
ATOM     35  C   UNL A   1      41.612  23.798  26.369  1.00  0.00     0.014 A 
ATOM     36  C   UNL A   1      43.334  24.399  28.464  1.00  0.00     0.010 A 
ATOM     37  C   UNL A   1      41.472  24.997  27.027  1.00  0.00     0.010 A 
ATOM     38  C   UNL A   1      42.308  25.290  28.098  1.00  0.00    -0.014 A 
BRANCH  38  39
ATOM     39  C   UNL A   1      42.235  26.622  28.698  1.00  0.00     0.031 A 
ATOM     40  C   UNL A   1      43.377  27.489  28.301  1.00  0.00     0.074 A 
ATOM     41  C   UNL A   1      41.157  27.105  29.359  1.00  0.00     0.049 A 
ATOM     42  N   UNL A   1      44.398  27.810  29.024  1.00  0.00    -0.248 NA
ATOM     43  C   UNL A   1      43.524  27.859  26.881  1.00  0.00     0.031 C 
ATOM     44  C   UNL A   1      39.861  26.446  29.553  1.00  0.00     0.029 A 
ATOM     45  N   UNL A   1      40.949  28.330  29.925  1.00  0.00    -0.354 N 
ATOM     46  C   UNL A   1      45.143  28.685  28.241  1.00  0.00     0.074 A 
ATOM     47  C   UNL A   1      44.717  28.461  26.887  1.00  0.00     0.031 C 
ATOM     48  C   UNL A   1      38.946  27.348  29.972  1.00  0.00     0.029 A 
ATOM     49  C   UNL A   1      39.614  28.609  30.233  1.00  0.00     0.049 A 
ATOM     50  H   UNL A   1      41.679  28.965  30.101  1.00  0.00     0.167 HD
ATOM     51  C   UNL A   1      45.776  29.745  28.818  1.00  0.00     0.037 A 
ATOM     52  C   UNL A   1      39.093  29.789  30.667  1.00  0.00     0.037 A 
ATOM     53  C   UNL A   1      45.854  29.564  30.250  1.00  0.00     0.049 A 
ATOM     54  C   UNL A   1      40.217  30.552  31.261  1.00  0.00     0.074 A 
ATOM     55  C   UNL A   1      46.377  28.609  31.100  1.00  0.00     0.029 A 
ATOM     56  N   UNL A   1      44.960  30.292  30.995  1.00  0.00    -0.354 N 
ATOM     57  N   UNL A   1      40.851  30.185  32.341  1.00  0.00    -0.248 NA
ATOM     58  C   UNL A   1      40.922  31.498  30.414  1.00  0.00     0.031 C 
ATOM     59  C   UNL A   1      45.465  28.541  32.196  1.00  0.00     0.029 A 
ATOM     60  C   UNL A   1      44.481  29.515  32.012  1.00  0.00     0.049 A 
ATOM     61  H   UNL A   1      44.703  31.226  30.823  1.00  0.00     0.167 HD
ATOM     62  C   UNL A   1      42.180  30.472  32.075  1.00  0.00     0.074 A 
ATOM     63  C   UNL A   1      42.145  31.392  30.938  1.00  0.00     0.031 C 
ATOM     64  C   UNL A   1      43.175  29.701  32.608  1.00  0.00     0.037 A 
BRANCH  51  65
ATOM     65  C   UNL A   1      45.872  31.131  28.196  1.00  0.00     0.058 A 
ATOM     66  C   UNL A   1      44.683  31.763  27.771  1.00  0.00     0.135 A 
ATOM     67  C   UNL A   1      47.065  31.720  27.720  1.00  0.00     0.135 A 
ATOM     68  F   UNL A   1      43.484  31.294  28.156  1.00  0.00    -0.206 F 
ATOM     69  C   UNL A   1      44.676  32.831  26.872  1.00  0.00     0.059 A 
ATOM     70  C   UNL A   1      47.083  32.816  26.864  1.00  0.00     0.059 A 
ATOM     71  F   UNL A   1      48.277  31.219  27.978  1.00  0.00    -0.206 F 
ATOM     72  C   UNL A   1      45.885  33.342  26.416  1.00  0.00     0.060 A 
BRANCH  72  73
ATOM     73  S   UNL A   1      45.885  34.677  25.209  1.00  0.00     0.124 S 
ATOM     74  O   UNL A   1      45.336  35.776  25.993  1.00  0.00    -0.237 OA
ATOM     75  O   UNL A   1      47.302  34.772  24.871  1.00  0.00    -0.237 OA
ATOM     76  O   UNL A   1      45.027  34.165  24.145  1.00  0.00    -0.744 OA
ENDBRANCH  72  73
ENDBRANCH  51  65
BRANCH  52  77
ATOM     77  C   UNL A   1      37.790  30.438  30.327  1.00  0.00     0.058 A 
ATOM     78  C   UNL A   1      36.971  30.998  31.331  1.00  0.00     0.135 A 
ATOM     79  C   UNL A   1      37.470  30.801  29.005  1.00  0.00     0.135 A 
ATOM     80  F   UNL A   1      37.197  30.716  32.623  1.00  0.00    -0.206 F 
ATOM     81  C   UNL A   1      35.958  31.924  31.047  1.00  0.00     0.059 A 
ATOM     82  C   UNL A   1      36.458  31.713  28.697  1.00  0.00     0.059 A 
ATOM     83  F   UNL A   1      38.196  30.353  27.970  1.00  0.00    -0.206 F 
ATOM     84  C   UNL A   1      35.727  32.298  29.725  1.00  0.00     0.060 A 
BRANCH  84  85
ATOM     85  S   UNL A   1      34.570  33.641  29.363  1.00  0.00     0.124 S 
ATOM     86  O   UNL A   1      35.465  34.699  28.909  1.00  0.00    -0.237 OA
ATOM     87  O   UNL A   1      33.714  33.048  28.341  1.00  0.00    -0.237 OA
ATOM     88  O   UNL A   1      33.921  33.882  30.650  1.00  0.00    -0.744 OA
ENDBRANCH  84  85
ENDBRANCH  52  77
BRANCH  64  89
ATOM     89  C   UNL A   1      42.851  28.852  33.809  1.00  0.00     0.058 A 
ATOM     90  C   UNL A   1      42.638  29.325  35.117  1.00  0.00     0.135 A 
ATOM     91  C   UNL A   1      42.619  27.486  33.578  1.00  0.00     0.135 A 
ATOM     92  F   UNL A   1      42.747  30.629  35.408  1.00  0.00    -0.206 F 
ATOM     93  C   UNL A   1      42.248  28.468  36.150  1.00  0.00     0.059 A 
ATOM     94  C   UNL A   1      42.197  26.625  34.582  1.00  0.00     0.059 A 
ATOM     95  F   UNL A   1      42.756  26.983  32.339  1.00  0.00    -0.206 F 
ATOM     96  C   UNL A   1      42.026  27.119  35.871  1.00  0.00     0.060 A 
BRANCH  96  97
ATOM     97  S   UNL A   1      41.455  26.022  37.187  1.00  0.00     0.124 S 
ATOM     98  O   UNL A   1      42.593  26.020  38.101  1.00  0.00    -0.237 OA
ATOM     99  O   UNL A   1      40.255  26.701  37.668  1.00  0.00    -0.237 OA
ATOM    100  O   UNL A   1      41.209  24.759  36.496  1.00  0.00    -0.744 OA
ENDBRANCH  96  97
ENDBRANCH  64  89
ENDBRANCH  38  39
ENDBRANCH  30  33
ENDBRANCH  28  29
ENDBRANCH  27  28
ENDBRANCH  26  27
ENDBRANCH   1  26
TORSDOF 20
ENDMDL
MODEL 3
REMARK VINA RESULT:     -10.4      4.215      7.749
REMARK SMILES COCC[C@H]([NH3+])C(=O)N1CC(n2cc(C(=O)NCCCCNC(=O)c3ccc(-c4c5nc(c(-c6c(F)cc(S(=O)(=O)[O-])cc6F)c6ccc([nH]6)c(-c6c(F)cc(S(=O)(=O)[O-])cc6F)c6nc(c(-c7c(F)cc(S(=O)(=O)[O-])cc7F)c7ccc4[nH]7)C=C6)C=C5)cc3)nn2)C1
REMARK SMILES IDX 18 1 17 2 15 3 16 4 14 6 12 7 13 8 92 9 91 10 11 11 7 12
REMARK SMILES IDX 8 13 9 14 10 15 93 16 5 17 4 18 3 19 2 20 1 21 6 22 19 26
REMARK SMILES IDX 20 27 21 28 22 29 23 30 24 32 25 33 26 34 90 35 27 36 89 37
REMARK SMILES IDX 28 38 29 39 30 40 83 41 31 42 88 43 82 44 84 45 32 46 87 47
REMARK SMILES IDX 81 48 80 49 33 51 67 52 46 53 66 54 47 55 50 56 65 57 85 58
REMARK SMILES IDX 48 59 49 60 64 62 86 63 51 64 34 65 35 66 44 67 36 68 37 69
REMARK SMILES IDX 43 70 45 71 38 72 39 73 40 74 41 75 42 76 68 77 69 78 78 79
REMARK SMILES IDX 70 80 71 81 77 82 79 83 72 84 73 85 74 86 75 87 76 88 52 89
REMARK SMILES IDX 53 90 62 91 54 92 55 93 61 94 63 95 56 96 57 97 58 98 59 99
REMARK SMILES IDX 60 100
REMARK H PARENT 17 5 6 23 6 24 6 25 22 31 84 50 50 61
REMARK Flexibility Score: inf
ROOT
ATOM      1  C   UNL A   1      37.077  33.356  35.070  1.00  0.00     0.116 C 
ENDROOT
BRANCH   1   2
ATOM      2  N   UNL A   1      38.020  32.270  35.242  1.00  0.00    -0.351 N 
ATOM      3  C   UNL A   1      38.256  31.400  36.286  1.00  0.00     0.273 C 
ATOM      4  O   UNL A   1      39.091  30.522  36.093  1.00  0.00    -0.267 OA
ATOM      5  H   UNL A   1      38.605  32.124  34.463  1.00  0.00     0.163 HD
BRANCH   3   6
ATOM      6  C   UNL A   1      37.537  31.510  37.553  1.00  0.00     0.170 A 
ATOM      7  N   UNL A   1      36.474  32.103  39.350  1.00  0.00    -0.245 N 
ATOM      8  C   UNL A   1      37.208  32.610  38.317  1.00  0.00     0.145 A 
ATOM      9  N   UNL A   1      36.415  30.770  39.302  1.00  0.00    -0.066 NA
ATOM     10  N   UNL A   1      37.084  30.387  38.222  1.00  0.00    -0.125 NA
BRANCH   7  11
ATOM     11  C   UNL A   1      35.835  32.925  40.321  1.00  0.00     0.148 C 
ATOM     12  C   UNL A   1      33.393  33.750  42.305  1.00  0.00     0.280 C 
ATOM     13  O   UNL A   1      33.785  33.883  43.468  1.00  0.00    -0.268 OA
ATOM     14  N   UNL A   1      34.122  33.033  41.401  1.00  0.00    -0.333 N 
ATOM     15  C   UNL A   1      35.344  32.256  41.608  1.00  0.00     0.149 C 
ATOM     16  C   UNL A   1      34.341  33.134  39.971  1.00  0.00     0.149 C 
BRANCH  12  17
ATOM     17  C   UNL A   1      32.002  34.284  41.895  1.00  0.00     0.273 C 
BRANCH  17  18
ATOM     18  C   UNL A   1      31.478  35.261  42.962  1.00  0.00     0.104 C 
BRANCH  18  19
ATOM     19  C   UNL A   1      30.233  34.732  43.684  1.00  0.00     0.166 C 
BRANCH  19  20
ATOM     20  O   UNL A   1      29.012  35.257  43.157  1.00  0.00    -0.384 OA
ATOM     21  C   UNL A   1      27.922  34.350  43.174  1.00  0.00     0.194 C 
ENDBRANCH  19  20
ENDBRANCH  18  19
ENDBRANCH  17  18
BRANCH  17  22
ATOM     22  N   UNL A   1      31.013  33.228  41.631  1.00  0.00    -0.347 N 
ATOM     23  H   UNL A   1      31.302  32.367  42.092  1.00  0.00     0.345 HD
ATOM     24  H   UNL A   1      30.946  33.070  40.625  1.00  0.00     0.345 HD
ATOM     25  H   UNL A   1      30.103  33.518  41.990  1.00  0.00     0.345 HD
ENDBRANCH  17  22
ENDBRANCH  12  17
ENDBRANCH   7  11
ENDBRANCH   3   6
ENDBRANCH   1   2
BRANCH   1  26
ATOM     26  C   UNL A   1      37.183  33.988  33.680  1.00  0.00     0.023 C 
BRANCH  26  27
ATOM     27  C   UNL A   1      35.905  33.909  32.826  1.00  0.00     0.023 C 
BRANCH  27  28
ATOM     28  C   UNL A   1      35.299  32.514  32.692  1.00  0.00     0.116 C 
BRANCH  28  29
ATOM     29  N   UNL A   1      34.460  32.369  31.505  1.00  0.00    -0.352 N 
ATOM     30  C   UNL A   1      34.872  32.194  30.196  1.00  0.00     0.251 C 
ATOM     31  H   UNL A   1      33.488  32.399  31.654  1.00  0.00     0.163 HD
ATOM     32  O   UNL A   1      34.138  32.520  29.270  1.00  0.00    -0.269 OA
BRANCH  30  33
ATOM     33  C   UNL A   1      36.194  31.596  29.932  1.00  0.00     0.039 A 
ATOM     34  C   UNL A   1      37.307  32.391  29.649  1.00  0.00     0.014 A 
ATOM     35  C   UNL A   1      36.309  30.206  29.983  1.00  0.00     0.014 A 
ATOM     36  C   UNL A   1      38.550  31.776  29.505  1.00  0.00     0.010 A 
ATOM     37  C   UNL A   1      37.550  29.613  29.964  1.00  0.00     0.010 A 
ATOM     38  C   UNL A   1      38.672  30.387  29.691  1.00  0.00    -0.014 A 
BRANCH  38  39
ATOM     39  C   UNL A   1      39.992  29.768  29.807  1.00  0.00     0.031 A 
ATOM     40  C   UNL A   1      40.369  29.490  31.220  1.00  0.00     0.074 A 
ATOM     41  C   UNL A   1      40.710  29.294  28.762  1.00  0.00     0.049 A 
ATOM     42  N   UNL A   1      41.210  30.149  31.945  1.00  0.00    -0.248 NA
ATOM     43  C   UNL A   1      39.567  28.519  31.988  1.00  0.00     0.031 C 
ATOM     44  C   UNL A   1      40.305  29.245  27.353  1.00  0.00     0.029 A 
ATOM     45  N   UNL A   1      41.922  28.666  28.740  1.00  0.00    -0.354 N 
ATOM     46  C   UNL A   1      41.269  29.465  33.154  1.00  0.00     0.074 A 
ATOM     47  C   UNL A   1      40.073  28.671  33.215  1.00  0.00     0.031 C 
ATOM     48  C   UNL A   1      41.133  28.424  26.667  1.00  0.00     0.029 A 
ATOM     49  C   UNL A   1      42.219  28.016  27.539  1.00  0.00     0.049 A 
ATOM     50  H   UNL A   1      42.536  28.670  29.508  1.00  0.00     0.167 HD
ATOM     51  C   UNL A   1      42.455  29.353  33.816  1.00  0.00     0.037 A 
ATOM     52  C   UNL A   1      43.275  27.199  27.277  1.00  0.00     0.037 A 
ATOM     53  C   UNL A   1      43.411  30.306  33.299  1.00  0.00     0.049 A 
ATOM     54  C   UNL A   1      44.321  27.532  28.274  1.00  0.00     0.074 A 
ATOM     55  C   UNL A   1      43.461  31.679  33.154  1.00  0.00     0.029 A 
ATOM     56  N   UNL A   1      44.368  29.796  32.458  1.00  0.00    -0.354 N 
ATOM     57  N   UNL A   1      44.940  28.679  28.319  1.00  0.00    -0.248 NA
ATOM     58  C   UNL A   1      44.375  26.745  29.494  1.00  0.00     0.031 C 
ATOM     59  C   UNL A   1      44.154  31.902  31.926  1.00  0.00     0.029 A 
ATOM     60  C   UNL A   1      44.572  30.668  31.425  1.00  0.00     0.049 A 
ATOM     61  H   UNL A   1      44.833  28.938  32.579  1.00  0.00     0.167 HD
ATOM     62  C   UNL A   1      45.048  28.961  29.671  1.00  0.00     0.074 A 
ATOM     63  C   UNL A   1      44.804  27.684  30.340  1.00  0.00     0.031 C 
ATOM     64  C   UNL A   1      45.025  30.254  30.113  1.00  0.00     0.037 A 
BRANCH  51  65
ATOM     65  C   UNL A   1      42.914  28.102  34.551  1.00  0.00     0.058 A 
ATOM     66  C   UNL A   1      43.288  28.216  35.909  1.00  0.00     0.135 A 
ATOM     67  C   UNL A   1      43.294  26.893  33.926  1.00  0.00     0.135 A 
ATOM     68  F   UNL A   1      42.984  29.321  36.611  1.00  0.00    -0.206 F 
ATOM     69  C   UNL A   1      44.059  27.254  36.561  1.00  0.00     0.059 A 
ATOM     70  C   UNL A   1      44.019  25.897  34.574  1.00  0.00     0.059 A 
ATOM     71  F   UNL A   1      43.070  26.641  32.633  1.00  0.00    -0.206 F 
ATOM     72  C   UNL A   1      44.430  26.102  35.878  1.00  0.00     0.060 A 
BRANCH  72  73
ATOM     73  S   UNL A   1      45.476  24.885  36.692  1.00  0.00     0.124 S 
ATOM     74  O   UNL A   1      44.761  23.649  36.404  1.00  0.00    -0.237 OA
ATOM     75  O   UNL A   1      46.745  25.071  35.996  1.00  0.00    -0.237 OA
ATOM     76  O   UNL A   1      45.464  25.315  38.087  1.00  0.00    -0.744 OA
ENDBRANCH  72  73
ENDBRANCH  51  65
BRANCH  52  77
ATOM     77  C   UNL A   1      43.335  25.953  26.455  1.00  0.00     0.058 A 
ATOM     78  C   UNL A   1      44.324  25.780  25.464  1.00  0.00     0.135 A 
ATOM     79  C   UNL A   1      42.637  24.788  26.830  1.00  0.00     0.135 A 
ATOM     80  F   UNL A   1      45.047  26.828  25.040  1.00  0.00    -0.206 F 
ATOM     81  C   UNL A   1      44.656  24.522  24.941  1.00  0.00     0.059 A 
ATOM     82  C   UNL A   1      42.943  23.527  26.316  1.00  0.00     0.059 A 
ATOM     83  F   UNL A   1      41.695  24.825  27.783  1.00  0.00    -0.206 F 
ATOM     84  C   UNL A   1      43.977  23.394  25.396  1.00  0.00     0.060 A 
BRANCH  84  85
ATOM     85  S   UNL A   1      44.533  21.748  24.889  1.00  0.00     0.124 S 
ATOM     86  O   UNL A   1      44.647  21.898  23.443  1.00  0.00    -0.237 OA
ATOM     87  O   UNL A   1      45.790  21.607  25.616  1.00  0.00    -0.237 OA
ATOM     88  O   UNL A   1      43.454  20.873  25.343  1.00  0.00    -0.744 OA
ENDBRANCH  84  85
ENDBRANCH  52  77
BRANCH  64  89
ATOM     89  C   UNL A   1      45.332  31.349  29.126  1.00  0.00     0.058 A 
ATOM     90  C   UNL A   1      46.616  31.813  28.787  1.00  0.00     0.135 A 
ATOM     91  C   UNL A   1      44.251  31.864  28.392  1.00  0.00     0.135 A 
ATOM     92  F   UNL A   1      47.712  31.310  29.373  1.00  0.00    -0.206 F 
ATOM     93  C   UNL A   1      46.807  32.771  27.787  1.00  0.00     0.059 A 
ATOM     94  C   UNL A   1      44.422  32.790  27.371  1.00  0.00     0.059 A 
ATOM     95  F   UNL A   1      43.006  31.423  28.633  1.00  0.00    -0.206 F 
ATOM     96  C   UNL A   1      45.703  33.251  27.081  1.00  0.00     0.060 A 
BRANCH  96  97
ATOM     97  S   UNL A   1      45.951  34.437  25.742  1.00  0.00     0.124 S 
ATOM     98  O   UNL A   1      45.657  35.707  26.397  1.00  0.00    -0.237 OA
ATOM     99  O   UNL A   1      47.349  34.217  25.379  1.00  0.00    -0.237 OA
ATOM    100  O   UNL A   1      44.983  34.018  24.731  1.00  0.00    -0.744 OA
ENDBRANCH  96  97
ENDBRANCH  64  89
ENDBRANCH  38  39
ENDBRANCH  30  33
ENDBRANCH  28  29
ENDBRANCH  27  28
ENDBRANCH  26  27
ENDBRANCH   1  26
TORSDOF 20
ENDMDL
