MODEL 1
REMARK VINA RESULT:     -10.1      0.000      0.000
REMARK SMILES CC[NH2+][C@]1(C(=O)NCCCCNC(=O)c2ccc(-c3c4nc(c(-c5c(F)cc(S(=O)(=O)[O-])cc5F)c5ccc([nH]5)c(-c5c(F)cc(S(=O)(=O)[O-])cc5F)c5nc(c(-c6c(F)cc(S(=O)(=O)[O-])cc6F)c6ccc3[nH]6)C=C5)C=C4)cc2)CC[C@H](OCC)C1
REMARK SMILES IDX 10 1 9 2 8 3 7 4 5 5 6 6 4 8 81 9 87 10 82 11 83 12 3 13
REMARK SMILES IDX 2 16 1 17 84 18 85 19 86 20 11 21 12 22 13 23 14 25 15 26
REMARK SMILES IDX 16 27 80 28 17 29 79 30 18 31 19 32 20 33 73 34 21 35 78 36
REMARK SMILES IDX 72 37 74 38 22 39 77 40 71 41 70 42 23 44 57 45 36 46 56 47
REMARK SMILES IDX 37 48 40 49 55 50 75 51 38 52 39 53 54 55 76 56 41 57 24 58
REMARK SMILES IDX 25 59 34 60 26 61 27 62 33 63 35 64 28 65 29 66 30 67 31 68
REMARK SMILES IDX 32 69 58 70 59 71 68 72 60 73 61 74 67 75 69 76 62 77 63 78
REMARK SMILES IDX 64 79 65 80 66 81 42 82 43 83 52 84 44 85 45 86 51 87 53 88
REMARK SMILES IDX 46 89 47 90 48 91 49 92 50 93
REMARK H PARENT 7 7 3 14 3 15 12 24 74 43 40 54
REMARK Flexibility Score: inf
ROOT
ATOM      1  C   UNL A   1      32.546  28.189  26.078  1.00  0.00     0.023 C 
ENDROOT
BRANCH   1   2
ATOM      2  C   UNL A   1      31.408  27.378  26.700  1.00  0.00     0.023 C 
BRANCH   2   3
ATOM      3  C   UNL A   1      30.837  26.281  25.809  1.00  0.00     0.116 C 
BRANCH   3   4
ATOM      4  N   UNL A   1      30.417  25.119  26.568  1.00  0.00    -0.351 N 
ATOM      5  C   UNL A   1      30.958  23.879  26.731  1.00  0.00     0.281 C 
ATOM      6  O   UNL A   1      30.276  23.107  27.413  1.00  0.00    -0.268 OA
ATOM      7  H   UNL A   1      29.575  25.252  27.062  1.00  0.00     0.163 HD
BRANCH   5   8
ATOM      8  C   UNL A   1      32.303  23.452  26.058  1.00  0.00     0.178 C 
ATOM      9  C   UNL A   1      33.408  24.443  26.474  1.00  0.00     0.082 C 
ATOM     10  C   UNL A   1      32.855  22.076  26.480  1.00  0.00     0.111 C 
ATOM     11  C   UNL A   1      34.707  23.673  26.318  1.00  0.00     0.039 C 
ATOM     12  C   UNL A   1      34.369  22.233  26.707  1.00  0.00     0.125 C 
BRANCH   8  13
ATOM     13  N   UNL A   1      32.217  23.473  24.562  1.00  0.00    -0.334 N 
ATOM     14  H   UNL A   1      31.487  24.134  24.294  1.00  0.00     0.347 HD
ATOM     15  H   UNL A   1      33.140  23.741  24.221  1.00  0.00     0.347 HD
BRANCH  13  16
ATOM     16  C   UNL A   1      31.906  22.173  23.955  1.00  0.00     0.257 C 
ATOM     17  C   UNL A   1      32.477  22.098  22.546  1.00  0.00     0.071 C 
ENDBRANCH  13  16
ENDBRANCH   8  13
BRANCH  12  18
ATOM     18  O   UNL A   1      35.278  21.372  26.022  1.00  0.00    -0.378 OA
BRANCH  18  19
ATOM     19  C   UNL A   1      35.540  21.595  24.644  1.00  0.00     0.157 C 
ATOM     20  C   UNL A   1      37.021  21.716  24.324  1.00  0.00     0.035 C 
ENDBRANCH  18  19
ENDBRANCH  12  18
ENDBRANCH   5   8
ENDBRANCH   3   4
ENDBRANCH   2   3
ENDBRANCH   1   2
BRANCH   1  21
ATOM     21  C   UNL A   1      33.684  28.540  27.030  1.00  0.00     0.116 C 
BRANCH  21  22
ATOM     22  N   UNL A   1      33.614  29.915  27.501  1.00  0.00    -0.352 N 
ATOM     23  C   UNL A   1      34.546  30.650  28.197  1.00  0.00     0.251 C 
ATOM     24  H   UNL A   1      32.776  30.389  27.292  1.00  0.00     0.163 HD
ATOM     25  O   UNL A   1      34.240  31.736  28.670  1.00  0.00    -0.269 OA
BRANCH  23  26
ATOM     26  C   UNL A   1      35.908  30.105  28.393  1.00  0.00     0.039 A 
ATOM     27  C   UNL A   1      36.823  30.171  27.340  1.00  0.00     0.014 A 
ATOM     28  C   UNL A   1      36.286  29.554  29.620  1.00  0.00     0.014 A 
ATOM     29  C   UNL A   1      38.142  29.760  27.547  1.00  0.00     0.010 A 
ATOM     30  C   UNL A   1      37.619  29.231  29.849  1.00  0.00     0.010 A 
ATOM     31  C   UNL A   1      38.563  29.329  28.817  1.00  0.00    -0.014 A 
BRANCH  31  32
ATOM     32  C   UNL A   1      39.985  28.989  29.087  1.00  0.00     0.031 A 
ATOM     33  C   UNL A   1      40.919  30.028  29.648  1.00  0.00     0.074 A 
ATOM     34  C   UNL A   1      40.453  27.767  28.759  1.00  0.00     0.049 A 
ATOM     35  N   UNL A   1      42.205  29.945  29.876  1.00  0.00    -0.248 NA
ATOM     36  C   UNL A   1      40.338  31.343  29.966  1.00  0.00     0.031 C 
ATOM     37  C   UNL A   1      39.663  26.692  28.154  1.00  0.00     0.029 A 
ATOM     38  N   UNL A   1      41.710  27.226  28.875  1.00  0.00    -0.354 N 
ATOM     39  C   UNL A   1      42.587  31.195  30.347  1.00  0.00     0.074 A 
ATOM     40  C   UNL A   1      41.411  32.036  30.321  1.00  0.00     0.031 C 
ATOM     41  C   UNL A   1      40.445  25.617  27.973  1.00  0.00     0.029 A 
ATOM     42  C   UNL A   1      41.802  25.934  28.407  1.00  0.00     0.049 A 
ATOM     43  H   UNL A   1      42.473  27.715  29.258  1.00  0.00     0.167 HD
ATOM     44  C   UNL A   1      43.804  31.599  30.786  1.00  0.00     0.037 A 
ATOM     45  C   UNL A   1      42.860  25.105  28.324  1.00  0.00     0.037 A 
ATOM     46  C   UNL A   1      44.964  30.748  30.837  1.00  0.00     0.049 A 
ATOM     47  C   UNL A   1      44.200  25.573  28.827  1.00  0.00     0.074 A 
ATOM     48  C   UNL A   1      46.225  31.044  31.325  1.00  0.00     0.029 A 
ATOM     49  N   UNL A   1      45.010  29.438  30.382  1.00  0.00    -0.354 N 
ATOM     50  N   UNL A   1      44.528  26.738  29.334  1.00  0.00    -0.248 NA
ATOM     51  C   UNL A   1      45.311  24.614  28.756  1.00  0.00     0.031 C 
ATOM     52  C   UNL A   1      47.046  29.932  31.121  1.00  0.00     0.029 A 
ATOM     53  C   UNL A   1      46.283  28.921  30.558  1.00  0.00     0.049 A 
ATOM     54  H   UNL A   1      44.250  28.949  29.992  1.00  0.00     0.167 HD
ATOM     55  C   UNL A   1      45.875  26.643  29.664  1.00  0.00     0.074 A 
ATOM     56  C   UNL A   1      46.298  25.303  29.314  1.00  0.00     0.031 C 
ATOM     57  C   UNL A   1      46.688  27.581  30.209  1.00  0.00     0.037 A 
BRANCH  44  58
ATOM     58  C   UNL A   1      43.944  33.022  31.255  1.00  0.00     0.058 A 
ATOM     59  C   UNL A   1      44.278  34.061  30.371  1.00  0.00     0.135 A 
ATOM     60  C   UNL A   1      43.689  33.360  32.594  1.00  0.00     0.135 A 
ATOM     61  F   UNL A   1      44.549  33.794  29.084  1.00  0.00    -0.206 F 
ATOM     62  C   UNL A   1      44.373  35.380  30.802  1.00  0.00     0.059 A 
ATOM     63  C   UNL A   1      43.749  34.677  33.040  1.00  0.00     0.059 A 
ATOM     64  F   UNL A   1      43.369  32.407  33.483  1.00  0.00    -0.206 F 
ATOM     65  C   UNL A   1      44.104  35.679  32.138  1.00  0.00     0.060 A 
BRANCH  65  66
ATOM     66  S   UNL A   1      44.211  37.400  32.672  1.00  0.00     0.124 S 
ATOM     67  O   UNL A   1      43.088  37.487  33.601  1.00  0.00    -0.237 OA
ATOM     68  O   UNL A   1      45.538  37.456  33.276  1.00  0.00    -0.237 OA
ATOM     69  O   UNL A   1      44.057  38.153  31.431  1.00  0.00    -0.744 OA
ENDBRANCH  65  66
ENDBRANCH  44  58
BRANCH  45  70
ATOM     70  C   UNL A   1      42.690  23.739  27.757  1.00  0.00     0.058 A 
ATOM     71  C   UNL A   1      42.483  22.630  28.589  1.00  0.00     0.135 A 
ATOM     72  C   UNL A   1      42.710  23.520  26.370  1.00  0.00     0.135 A 
ATOM     73  F   UNL A   1      42.462  22.785  29.922  1.00  0.00    -0.206 F 
ATOM     74  C   UNL A   1      42.314  21.349  28.069  1.00  0.00     0.059 A 
ATOM     75  C   UNL A   1      42.516  22.255  25.826  1.00  0.00     0.059 A 
ATOM     76  F   UNL A   1      42.888  24.551  25.529  1.00  0.00    -0.206 F 
ATOM     77  C   UNL A   1      42.328  21.172  26.685  1.00  0.00     0.060 A 
BRANCH  77  78
ATOM     78  S   UNL A   1      42.050  19.517  26.021  1.00  0.00     0.124 S 
ATOM     79  O   UNL A   1      42.921  19.519  24.851  1.00  0.00    -0.237 OA
ATOM     80  O   UNL A   1      42.473  18.668  27.131  1.00  0.00    -0.237 OA
ATOM     81  O   UNL A   1      40.616  19.502  25.743  1.00  0.00    -0.744 OA
ENDBRANCH  77  78
ENDBRANCH  45  70
BRANCH  57  82
ATOM     82  C   UNL A   1      48.111  27.186  30.498  1.00  0.00     0.058 A 
ATOM     83  C   UNL A   1      49.119  27.287  29.525  1.00  0.00     0.135 A 
ATOM     84  C   UNL A   1      48.482  26.759  31.784  1.00  0.00     0.135 A 
ATOM     85  F   UNL A   1      48.818  27.685  28.279  1.00  0.00    -0.206 F 
ATOM     86  C   UNL A   1      50.439  26.954  29.812  1.00  0.00     0.059 A 
ATOM     87  C   UNL A   1      49.801  26.451  32.101  1.00  0.00     0.059 A 
ATOM     88  F   UNL A   1      47.560  26.656  32.754  1.00  0.00    -0.206 F 
ATOM     89  C   UNL A   1      50.771  26.540  31.103  1.00  0.00     0.060 A 
BRANCH  89  90
ATOM     90  S   UNL A   1      52.494  26.146  31.469  1.00  0.00     0.124 S 
ATOM     91  O   UNL A   1      52.385  24.775  31.957  1.00  0.00    -0.237 OA
ATOM     92  O   UNL A   1      53.134  26.306  30.167  1.00  0.00    -0.237 OA
ATOM     93  O   UNL A   1      52.866  27.141  32.470  1.00  0.00    -0.744 OA
ENDBRANCH  89  90
ENDBRANCH  57  82
ENDBRANCH  31  32
ENDBRANCH  23  26
ENDBRANCH  21  22
ENDBRANCH   1  21
TORSDOF 18
ENDMDL
MODEL 2
REMARK VINA RESULT:     -10.0      4.241      6.628
REMARK SMILES CC[NH2+][C@]1(C(=O)NCCCCNC(=O)c2ccc(-c3c4nc(c(-c5c(F)cc(S(=O)(=O)[O-])cc5F)c5ccc([nH]5)c(-c5c(F)cc(S(=O)(=O)[O-])cc5F)c5nc(c(-c6c(F)cc(S(=O)(=O)[O-])cc6F)c6ccc3[nH]6)C=C5)C=C4)cc2)CC[C@H](OCC)C1
REMARK SMILES IDX 10 1 9 2 8 3 7 4 5 5 6 6 4 8 81 9 87 10 82 11 83 12 3 13
REMARK SMILES IDX 2 16 1 17 84 18 85 19 86 20 11 21 12 22 13 23 14 25 15 26
REMARK SMILES IDX 16 27 80 28 17 29 79 30 18 31 19 32 20 33 73 34 21 35 78 36
REMARK SMILES IDX 72 37 74 38 22 39 77 40 71 41 70 42 23 44 57 45 36 46 56 47
REMARK SMILES IDX 37 48 40 49 55 50 75 51 38 52 39 53 54 55 76 56 41 57 24 58
REMARK SMILES IDX 25 59 34 60 26 61 27 62 33 63 35 64 28 65 29 66 30 67 31 68
REMARK SMILES IDX 32 69 58 70 59 71 68 72 60 73 61 74 67 75 69 76 62 77 63 78
REMARK SMILES IDX 64 79 65 80 66 81 42 82 43 83 52 84 44 85 45 86 51 87 53 88
REMARK SMILES IDX 46 89 47 90 48 91 49 92 50 93
REMARK H PARENT 7 7 3 14 3 15 12 24 74 43 40 54
REMARK Flexibility Score: inf
ROOT
ATOM      1  C   UNL A   1      34.612  34.520  27.998  1.00  0.00     0.023 C 
ENDROOT
BRANCH   1   2
ATOM      2  C   UNL A   1      33.350  34.669  28.849  1.00  0.00     0.023 C 
BRANCH   2   3
ATOM      3  C   UNL A   1      33.406  35.778  29.895  1.00  0.00     0.116 C 
BRANCH   3   4
ATOM      4  N   UNL A   1      32.599  35.476  31.061  1.00  0.00    -0.351 N 
ATOM      5  C   UNL A   1      32.862  34.800  32.215  1.00  0.00     0.281 C 
ATOM      6  O   UNL A   1      31.894  34.683  32.973  1.00  0.00    -0.268 OA
ATOM      7  H   UNL A   1      31.681  35.828  31.009  1.00  0.00     0.163 HD
BRANCH   5   8
ATOM      8  C   UNL A   1      34.260  34.174  32.523  1.00  0.00     0.178 C 
ATOM      9  C   UNL A   1      34.430  32.891  31.686  1.00  0.00     0.082 C 
ATOM     10  C   UNL A   1      35.480  35.036  32.140  1.00  0.00     0.111 C 
ATOM     11  C   UNL A   1      35.931  32.698  31.561  1.00  0.00     0.039 C 
ATOM     12  C   UNL A   1      36.511  34.110  31.472  1.00  0.00     0.125 C 
BRANCH   8  13
ATOM     13  N   UNL A   1      34.403  33.794  33.966  1.00  0.00    -0.334 N 
ATOM     14  H   UNL A   1      33.493  33.903  34.416  1.00  0.00     0.347 HD
ATOM     15  H   UNL A   1      34.741  32.832  33.983  1.00  0.00     0.347 HD
BRANCH  13  16
ATOM     16  C   UNL A   1      35.381  34.596  34.711  1.00  0.00     0.257 C 
ATOM     17  C   UNL A   1      36.463  33.700  35.297  1.00  0.00     0.071 C 
ENDBRANCH  13  16
ENDBRANCH   8  13
BRANCH  12  18
ATOM     18  O   UNL A   1      37.847  34.064  31.972  1.00  0.00    -0.378 OA
BRANCH  18  19
ATOM     19  C   UNL A   1      38.902  34.597  31.183  1.00  0.00     0.157 C 
ATOM     20  C   UNL A   1      38.861  34.143  29.734  1.00  0.00     0.035 C 
ENDBRANCH  18  19
ENDBRANCH  12  18
ENDBRANCH   5   8
ENDBRANCH   3   4
ENDBRANCH   2   3
ENDBRANCH   1   2
BRANCH   1  21
ATOM     21  C   UNL A   1      35.270  33.146  28.055  1.00  0.00     0.116 C 
BRANCH  21  22
ATOM     22  N   UNL A   1      34.371  32.079  27.642  1.00  0.00    -0.352 N 
ATOM     23  C   UNL A   1      34.594  30.722  27.577  1.00  0.00     0.251 C 
ATOM     24  H   UNL A   1      33.471  32.370  27.367  1.00  0.00     0.163 HD
ATOM     25  O   UNL A   1      33.778  29.994  27.030  1.00  0.00    -0.269 OA
BRANCH  23  26
ATOM     26  C   UNL A   1      35.839  30.159  28.147  1.00  0.00     0.039 A 
ATOM     27  C   UNL A   1      37.019  30.231  27.404  1.00  0.00     0.014 A 
ATOM     28  C   UNL A   1      35.843  29.586  29.421  1.00  0.00     0.014 A 
ATOM     29  C   UNL A   1      38.219  29.803  27.975  1.00  0.00     0.010 A 
ATOM     30  C   UNL A   1      37.051  29.244  30.019  1.00  0.00     0.010 A 
ATOM     31  C   UNL A   1      38.254  29.348  29.305  1.00  0.00    -0.014 A 
BRANCH  31  32
ATOM     32  C   UNL A   1      39.535  28.988  29.967  1.00  0.00     0.031 A 
ATOM     33  C   UNL A   1      40.020  29.775  31.156  1.00  0.00     0.074 A 
ATOM     34  C   UNL A   1      40.298  28.000  29.455  1.00  0.00     0.049 A 
ATOM     35  N   UNL A   1      41.144  29.663  31.817  1.00  0.00    -0.248 NA
ATOM     36  C   UNL A   1      39.140  30.847  31.648  1.00  0.00     0.031 C 
ATOM     37  C   UNL A   1      39.966  27.203  28.271  1.00  0.00     0.029 A 
ATOM     38  N   UNL A   1      41.515  27.506  29.854  1.00  0.00    -0.354 N 
ATOM     39  C   UNL A   1      41.113  30.657  32.787  1.00  0.00     0.074 A 
ATOM     40  C   UNL A   1      39.886  31.397  32.597  1.00  0.00     0.031 C 
ATOM     41  C   UNL A   1      40.943  26.308  28.054  1.00  0.00     0.029 A 
ATOM     42  C   UNL A   1      41.991  26.492  29.053  1.00  0.00     0.049 A 
ATOM     43  H   UNL A   1      42.002  27.845  30.639  1.00  0.00     0.167 HD
ATOM     44  C   UNL A   1      42.014  30.913  33.767  1.00  0.00     0.037 A 
ATOM     45  C   UNL A   1      43.144  25.799  29.109  1.00  0.00     0.037 A 
ATOM     46  C   UNL A   1      43.220  30.153  33.969  1.00  0.00     0.049 A 
ATOM     47  C   UNL A   1      44.126  26.095  30.211  1.00  0.00     0.074 A 
ATOM     48  C   UNL A   1      44.164  30.292  34.971  1.00  0.00     0.029 A 
ATOM     49  N   UNL A   1      43.652  29.114  33.156  1.00  0.00    -0.354 N 
ATOM     50  N   UNL A   1      44.047  26.994  31.163  1.00  0.00    -0.248 NA
ATOM     51  C   UNL A   1      45.347  25.279  30.254  1.00  0.00     0.031 C 
ATOM     52  C   UNL A   1      45.190  29.374  34.736  1.00  0.00     0.029 A 
ATOM     53  C   UNL A   1      44.859  28.620  33.621  1.00  0.00     0.049 A 
ATOM     54  H   UNL A   1      43.171  28.779  32.365  1.00  0.00     0.167 HD
ATOM     55  C   UNL A   1      45.195  26.835  31.932  1.00  0.00     0.074 A 
ATOM     56  C   UNL A   1      45.944  25.745  31.343  1.00  0.00     0.031 C 
ATOM     57  C   UNL A   1      45.592  27.529  33.027  1.00  0.00     0.037 A 
BRANCH  44  58
ATOM     58  C   UNL A   1      41.729  32.057  34.701  1.00  0.00     0.058 A 
ATOM     59  C   UNL A   1      41.004  31.878  35.889  1.00  0.00     0.135 A 
ATOM     60  C   UNL A   1      42.235  33.340  34.432  1.00  0.00     0.135 A 
ATOM     61  F   UNL A   1      40.482  30.677  36.189  1.00  0.00    -0.206 F 
ATOM     62  C   UNL A   1      40.771  32.931  36.767  1.00  0.00     0.059 A 
ATOM     63  C   UNL A   1      42.040  34.402  35.310  1.00  0.00     0.059 A 
ATOM     64  F   UNL A   1      42.933  33.570  33.309  1.00  0.00    -0.206 F 
ATOM     65  C   UNL A   1      41.296  34.190  36.470  1.00  0.00     0.060 A 
BRANCH  65  66
ATOM     66  S   UNL A   1      41.003  35.540  37.633  1.00  0.00     0.124 S 
ATOM     67  O   UNL A   1      40.153  34.889  38.626  1.00  0.00    -0.237 OA
ATOM     68  O   UNL A   1      42.354  35.869  38.074  1.00  0.00    -0.237 OA
ATOM     69  O   UNL A   1      40.347  36.556  36.815  1.00  0.00    -0.744 OA
ENDBRANCH  65  66
ENDBRANCH  44  58
BRANCH  45  70
ATOM     70  C   UNL A   1      43.425  24.743  28.097  1.00  0.00     0.058 A 
ATOM     71  C   UNL A   1      44.173  25.024  26.946  1.00  0.00     0.135 A 
ATOM     72  C   UNL A   1      42.966  23.427  28.273  1.00  0.00     0.135 A 
ATOM     73  F   UNL A   1      44.629  26.268  26.727  1.00  0.00    -0.206 F 
ATOM     74  C   UNL A   1      44.449  24.043  25.997  1.00  0.00     0.059 A 
ATOM     75  C   UNL A   1      43.253  22.424  27.354  1.00  0.00     0.059 A 
ATOM     76  F   UNL A   1      42.260  23.103  29.367  1.00  0.00    -0.206 F 
ATOM     77  C   UNL A   1      43.987  22.744  26.212  1.00  0.00     0.060 A 
BRANCH  77  78
ATOM     78  S   UNL A   1      44.399  21.467  25.004  1.00  0.00     0.124 S 
ATOM     79  O   UNL A   1      43.333  20.496  25.226  1.00  0.00    -0.237 OA
ATOM     80  O   UNL A   1      44.339  22.206  23.747  1.00  0.00    -0.237 OA
ATOM     81  O   UNL A   1      45.737  21.041  25.408  1.00  0.00    -0.744 OA
ENDBRANCH  77  78
ENDBRANCH  45  70
BRANCH  57  82
ATOM     82  C   UNL A   1      46.877  27.112  33.688  1.00  0.00     0.058 A 
ATOM     83  C   UNL A   1      46.912  26.118  34.679  1.00  0.00     0.135 A 
ATOM     84  C   UNL A   1      48.099  27.673  33.280  1.00  0.00     0.135 A 
ATOM     85  F   UNL A   1      45.773  25.553  35.109  1.00  0.00    -0.206 F 
ATOM     86  C   UNL A   1      48.110  25.713  35.259  1.00  0.00     0.059 A 
ATOM     87  C   UNL A   1      49.311  27.261  33.824  1.00  0.00     0.059 A 
ATOM     88  F   UNL A   1      48.124  28.619  32.328  1.00  0.00    -0.206 F 
ATOM     89  C   UNL A   1      49.305  26.288  34.822  1.00  0.00     0.060 A 
BRANCH  89  90
ATOM     90  S   UNL A   1      50.854  25.727  35.558  1.00  0.00     0.124 S 
ATOM     91  O   UNL A   1      51.344  24.800  34.544  1.00  0.00    -0.237 OA
ATOM     92  O   UNL A   1      51.604  26.973  35.693  1.00  0.00    -0.237 OA
ATOM     93  O   UNL A   1      50.433  25.117  36.815  1.00  0.00    -0.744 OA
ENDBRANCH  89  90
ENDBRANCH  57  82
ENDBRANCH  31  32
ENDBRANCH  23  26
ENDBRANCH  21  22
ENDBRANCH   1  21
TORSDOF 18
ENDMDL
MODEL 3
REMARK VINA RESULT:      -9.9      4.959     10.640
REMARK SMILES CC[NH2+][C@]1(C(=O)NCCCCNC(=O)c2ccc(-c3c4nc(c(-c5c(F)cc(S(=O)(=O)[O-])cc5F)c5ccc([nH]5)c(-c5c(F)cc(S(=O)(=O)[O-])cc5F)c5nc(c(-c6c(F)cc(S(=O)(=O)[O-])cc6F)c6ccc3[nH]6)C=C5)C=C4)cc2)CC[C@H](OCC)C1
REMARK SMILES IDX 10 1 9 2 8 3 7 4 5 5 6 6 4 8 81 9 87 10 82 11 83 12 3 13
REMARK SMILES IDX 2 16 1 17 84 18 85 19 86 20 11 21 12 22 13 23 14 25 15 26
REMARK SMILES IDX 16 27 80 28 17 29 79 30 18 31 19 32 20 33 73 34 21 35 78 36
REMARK SMILES IDX 72 37 74 38 22 39 77 40 71 41 70 42 23 44 57 45 36 46 56 47
REMARK SMILES IDX 37 48 40 49 55 50 75 51 38 52 39 53 54 55 76 56 41 57 24 58
REMARK SMILES IDX 25 59 34 60 26 61 27 62 33 63 35 64 28 65 29 66 30 67 31 68
REMARK SMILES IDX 32 69 58 70 59 71 68 72 60 73 61 74 67 75 69 76 62 77 63 78
REMARK SMILES IDX 64 79 65 80 66 81 42 82 43 83 52 84 44 85 45 86 51 87 53 88
REMARK SMILES IDX 46 89 47 90 48 91 49 92 50 93
REMARK H PARENT 7 7 3 14 3 15 12 24 74 43 40 54
REMARK Flexibility Score: inf
ROOT
ATOM      1  C   UNL A   1      39.936  22.324  26.875  1.00  0.00     0.023 C 
ENDROOT
BRANCH   1   2
ATOM      2  C   UNL A   1      38.735  22.995  26.206  1.00  0.00     0.023 C 
BRANCH   2   3
ATOM      3  C   UNL A   1      37.726  22.036  25.583  1.00  0.00     0.116 C 
BRANCH   3   4
ATOM      4  N   UNL A   1      37.359  22.422  24.235  1.00  0.00    -0.351 N 
ATOM      5  C   UNL A   1      36.218  22.944  23.703  1.00  0.00     0.281 C 
ATOM      6  O   UNL A   1      36.243  23.090  22.476  1.00  0.00    -0.268 OA
ATOM      7  H   UNL A   1      38.075  22.280  23.574  1.00  0.00     0.163 HD
BRANCH   5   8
ATOM      8  C   UNL A   1      34.959  23.273  24.569  1.00  0.00     0.178 C 
ATOM      9  C   UNL A   1      35.235  24.546  25.391  1.00  0.00     0.082 C 
ATOM     10  C   UNL A   1      33.674  23.604  23.784  1.00  0.00     0.111 C 
ATOM     11  C   UNL A   1      33.864  25.123  25.698  1.00  0.00     0.039 C 
ATOM     12  C   UNL A   1      33.016  24.819  24.463  1.00  0.00     0.125 C 
BRANCH   8  13
ATOM     13  N   UNL A   1      34.635  22.173  25.534  1.00  0.00    -0.334 N 
ATOM     14  H   UNL A   1      35.512  21.806  25.906  1.00  0.00     0.347 HD
ATOM     15  H   UNL A   1      34.039  22.582  26.253  1.00  0.00     0.347 HD
BRANCH  13  16
ATOM     16  C   UNL A   1      33.881  21.056  24.950  1.00  0.00     0.257 C 
ATOM     17  C   UNL A   1      34.760  19.818  24.852  1.00  0.00     0.071 C 
ENDBRANCH  13  16
ENDBRANCH   8  13
BRANCH  12  18
ATOM     18  O   UNL A   1      31.653  24.740  24.879  1.00  0.00    -0.378 OA
BRANCH  18  19
ATOM     19  C   UNL A   1      31.339  24.110  26.113  1.00  0.00     0.157 C 
ATOM     20  C   UNL A   1      30.766  22.713  25.947  1.00  0.00     0.035 C 
ENDBRANCH  18  19
ENDBRANCH  12  18
ENDBRANCH   5   8
ENDBRANCH   3   4
ENDBRANCH   2   3
ENDBRANCH   1   2
BRANCH   1  21
ATOM     21  C   UNL A   1      41.042  23.274  27.317  1.00  0.00     0.116 C 
BRANCH  21  22
ATOM     22  N   UNL A   1      41.693  23.935  26.195  1.00  0.00    -0.352 N 
ATOM     23  C   UNL A   1      41.849  25.279  25.942  1.00  0.00     0.251 C 
ATOM     24  H   UNL A   1      42.077  23.332  25.518  1.00  0.00     0.163 HD
ATOM     25  O   UNL A   1      42.263  25.651  24.853  1.00  0.00    -0.269 OA
BRANCH  23  26
ATOM     26  C   UNL A   1      41.485  26.265  26.983  1.00  0.00     0.039 A 
ATOM     27  C   UNL A   1      40.499  25.935  27.915  1.00  0.00     0.014 A 
ATOM     28  C   UNL A   1      42.134  27.500  27.053  1.00  0.00     0.014 A 
ATOM     29  C   UNL A   1      40.225  26.813  28.967  1.00  0.00     0.010 A 
ATOM     30  C   UNL A   1      41.924  28.329  28.150  1.00  0.00     0.010 A 
ATOM     31  C   UNL A   1      40.967  27.996  29.120  1.00  0.00    -0.014 A 
BRANCH  31  32
ATOM     32  C   UNL A   1      40.765  28.892  30.290  1.00  0.00     0.031 A 
ATOM     33  C   UNL A   1      41.583  28.700  31.539  1.00  0.00     0.074 A 
ATOM     34  C   UNL A   1      39.796  29.830  30.254  1.00  0.00     0.049 A 
ATOM     35  N   UNL A   1      41.499  29.326  32.686  1.00  0.00    -0.248 NA
ATOM     36  C   UNL A   1      42.611  27.647  31.508  1.00  0.00     0.031 C 
ATOM     37  C   UNL A   1      38.897  30.075  29.124  1.00  0.00     0.029 A 
ATOM     38  N   UNL A   1      39.395  30.743  31.198  1.00  0.00    -0.354 N 
ATOM     39  C   UNL A   1      42.446  28.734  33.511  1.00  0.00     0.074 A 
ATOM     40  C   UNL A   1      43.057  27.663  32.756  1.00  0.00     0.031 C 
ATOM     41  C   UNL A   1      38.067  31.084  29.432  1.00  0.00     0.029 A 
ATOM     42  C   UNL A   1      38.342  31.531  30.793  1.00  0.00     0.049 A 
ATOM     43  H   UNL A   1      39.821  30.825  32.082  1.00  0.00     0.167 HD
ATOM     44  C   UNL A   1      42.794  29.069  34.778  1.00  0.00     0.037 A 
ATOM     45  C   UNL A   1      37.666  32.495  31.447  1.00  0.00     0.037 A 
ATOM     46  C   UNL A   1      42.202  30.156  35.514  1.00  0.00     0.049 A 
ATOM     47  C   UNL A   1      38.077  32.857  32.850  1.00  0.00     0.074 A 
ATOM     48  C   UNL A   1      42.530  30.616  36.777  1.00  0.00     0.029 A 
ATOM     49  N   UNL A   1      41.160  30.951  35.058  1.00  0.00    -0.354 N 
ATOM     50  N   UNL A   1      39.023  32.331  33.591  1.00  0.00    -0.248 NA
ATOM     51  C   UNL A   1      37.337  33.946  33.502  1.00  0.00     0.031 C 
ATOM     52  C   UNL A   1      41.655  31.654  37.105  1.00  0.00     0.029 A 
ATOM     53  C   UNL A   1      40.818  31.882  36.024  1.00  0.00     0.049 A 
ATOM     54  H   UNL A   1      40.726  30.864  34.178  1.00  0.00     0.167 HD
ATOM     55  C   UNL A   1      39.008  33.041  34.787  1.00  0.00     0.074 A 
ATOM     56  C   UNL A   1      37.969  34.043  34.664  1.00  0.00     0.031 C 
ATOM     57  C   UNL A   1      39.785  32.879  35.886  1.00  0.00     0.037 A 
BRANCH  44  58
ATOM     58  C   UNL A   1      43.869  28.259  35.448  1.00  0.00     0.058 A 
ATOM     59  C   UNL A   1      43.567  27.128  36.223  1.00  0.00     0.135 A 
ATOM     60  C   UNL A   1      45.224  28.583  35.267  1.00  0.00     0.135 A 
ATOM     61  F   UNL A   1      42.289  26.781  36.444  1.00  0.00    -0.206 F 
ATOM     62  C   UNL A   1      44.567  26.362  36.814  1.00  0.00     0.059 A 
ATOM     63  C   UNL A   1      46.242  27.813  35.824  1.00  0.00     0.059 A 
ATOM     64  F   UNL A   1      45.572  29.655  34.538  1.00  0.00    -0.206 F 
ATOM     65  C   UNL A   1      45.902  26.710  36.605  1.00  0.00     0.060 A 
BRANCH  65  66
ATOM     66  S   UNL A   1      47.185  25.690  37.361  1.00  0.00     0.124 S 
ATOM     67  O   UNL A   1      46.685  24.345  37.091  1.00  0.00    -0.237 OA
ATOM     68  O   UNL A   1      48.375  26.085  36.615  1.00  0.00    -0.237 OA
ATOM     69  O   UNL A   1      47.162  26.097  38.763  1.00  0.00    -0.744 OA
ENDBRANCH  65  66
ENDBRANCH  44  58
BRANCH  45  70
ATOM     70  C   UNL A   1      36.540  33.200  30.774  1.00  0.00     0.058 A 
ATOM     71  C   UNL A   1      35.210  32.960  31.146  1.00  0.00     0.135 A 
ATOM     72  C   UNL A   1      36.775  34.141  29.759  1.00  0.00     0.135 A 
ATOM     73  F   UNL A   1      34.932  32.064  32.106  1.00  0.00    -0.206 F 
ATOM     74  C   UNL A   1      34.150  33.618  30.529  1.00  0.00     0.059 A 
ATOM     75  C   UNL A   1      35.734  34.832  29.148  1.00  0.00     0.059 A 
ATOM     76  F   UNL A   1      38.031  34.420  29.378  1.00  0.00    -0.206 F 
ATOM     77  C   UNL A   1      34.422  34.557  29.533  1.00  0.00     0.060 A 
BRANCH  77  78
ATOM     78  S   UNL A   1      33.043  35.446  28.780  1.00  0.00     0.124 S 
ATOM     79  O   UNL A   1      33.739  36.474  28.014  1.00  0.00    -0.237 OA
ATOM     80  O   UNL A   1      32.394  34.397  28.000  1.00  0.00    -0.237 OA
ATOM     81  O   UNL A   1      32.282  35.922  29.932  1.00  0.00    -0.744 OA
ENDBRANCH  77  78
ENDBRANCH  45  70
BRANCH  57  82
ATOM     82  C   UNL A   1      39.572  33.826  37.035  1.00  0.00     0.058 A 
ATOM     83  C   UNL A   1      38.795  33.474  38.150  1.00  0.00     0.135 A 
ATOM     84  C   UNL A   1      40.205  35.081  37.047  1.00  0.00     0.135 A 
ATOM     85  F   UNL A   1      38.164  32.290  38.188  1.00  0.00    -0.206 F 
ATOM     86  C   UNL A   1      38.633  34.343  39.225  1.00  0.00     0.059 A 
ATOM     87  C   UNL A   1      40.082  35.952  38.124  1.00  0.00     0.059 A 
ATOM     88  F   UNL A   1      40.968  35.462  36.011  1.00  0.00    -0.206 F 
ATOM     89  C   UNL A   1      39.283  35.578  39.205  1.00  0.00     0.060 A 
BRANCH  89  90
ATOM     90  S   UNL A   1      39.093  36.679  40.622  1.00  0.00     0.124 S 
ATOM     91  O   UNL A   1      38.680  37.921  39.976  1.00  0.00    -0.237 OA
ATOM     92  O   UNL A   1      38.066  36.002  41.407  1.00  0.00    -0.237 OA
ATOM     93  O   UNL A   1      40.423  36.696  41.222  1.00  0.00    -0.744 OA
ENDBRANCH  89  90
ENDBRANCH  57  82
ENDBRANCH  31  32
ENDBRANCH  23  26
ENDBRANCH  21  22
ENDBRANCH   1  21
TORSDOF 18
ENDMDL
