MODEL 1
REMARK VINA RESULT:     -10.7      0.000      0.000
REMARK SMILES CCCCCNC(=O)Oc1cccc(-c2ccc([C@@H](C)C(=O)NCCCCNC(=O)c3ccc(-c4c5nc(c(-c6c(F)cc(S(=O)(=O)[O-])cc6F)c6ccc([nH]6)c(-c6c(F)cc(S(=O)(=O)[O-])cc6F)c6nc(c(-c7c(F)cc(S(=O)(=O)[O-])cc7F)c7ccc4[nH]7)C=C6)C=C5)cc3)cc2F)c1
REMARK SMILES IDX 21 1 22 2 23 3 19 5 20 6 18 7 15 8 16 9 98 10 17 11 97 12
REMARK SMILES IDX 99 13 14 14 10 15 11 16 100 17 12 18 13 19 9 20 7 21 6 22
REMARK SMILES IDX 8 24 5 25 4 26 3 27 2 28 1 29 24 30 25 31 26 32 27 33 28 34
REMARK SMILES IDX 29 35 30 37 31 38 32 39 96 40 33 41 95 42 34 43 35 44 36 45
REMARK SMILES IDX 89 46 37 47 94 48 88 49 90 50 38 51 93 52 87 53 86 54 39 56
REMARK SMILES IDX 73 57 52 58 72 59 53 60 56 61 71 62 91 63 54 64 55 65 70 67
REMARK SMILES IDX 92 68 57 69 40 70 41 71 50 72 42 73 43 74 49 75 51 76 44 77
REMARK SMILES IDX 45 78 46 79 47 80 48 81 74 82 75 83 84 84 76 85 77 86 83 87
REMARK SMILES IDX 85 88 78 89 79 90 80 91 81 92 82 93 58 94 59 95 68 96 60 97
REMARK SMILES IDX 61 98 67 99 69 100 62 101 63 102 64 103 65 104 66 105
REMARK H PARENT 23 4 6 23 28 36 90 55 56 66
REMARK Flexibility Score: inf
ROOT
ATOM      1  C   UNL A   1      43.206  21.238  26.102  1.00  0.00     0.227 C 
ATOM      2  O   UNL A   1      43.471  20.830  24.965  1.00  0.00    -0.274 OA
ATOM      3  N   UNL A   1      43.932  22.296  26.555  1.00  0.00    -0.356 N 
ATOM      4  H   UNL A   1      44.563  22.664  25.896  1.00  0.00     0.163 HD
ENDROOT
BRANCH   1   5
ATOM      5  C   UNL A   1      42.091  20.555  26.913  1.00  0.00     0.105 C 
ATOM      6  C   UNL A   1      42.243  19.040  27.034  1.00  0.00     0.023 C 
BRANCH   5   7
ATOM      7  C   UNL A   1      40.698  21.062  26.574  1.00  0.00    -0.033 A 
ATOM      8  C   UNL A   1      38.218  22.193  25.704  1.00  0.00     0.018 A 
ATOM      9  C   UNL A   1      38.540  20.848  25.460  1.00  0.00     0.012 A 
ATOM     10  C   UNL A   1      39.140  22.929  26.462  1.00  0.00     0.131 A 
ATOM     11  C   UNL A   1      39.737  20.285  25.922  1.00  0.00     0.005 A 
ATOM     12  C   UNL A   1      40.364  22.391  26.869  1.00  0.00     0.044 A 
ATOM     13  F   UNL A   1      38.876  24.198  26.815  1.00  0.00    -0.206 F 
BRANCH   8  14
ATOM     14  C   UNL A   1      36.991  22.796  25.140  1.00  0.00    -0.012 A 
ATOM     15  C   UNL A   1      34.918  24.041  25.429  1.00  0.00     0.133 A 
ATOM     16  C   UNL A   1      34.672  24.018  24.061  1.00  0.00     0.047 A 
ATOM     17  C   UNL A   1      36.053  23.434  25.969  1.00  0.00     0.056 A 
ATOM     18  C   UNL A   1      35.589  23.396  23.220  1.00  0.00     0.004 A 
ATOM     19  C   UNL A   1      36.731  22.789  23.755  1.00  0.00     0.009 A 
BRANCH  15  20
ATOM     20  O   UNL A   1      33.920  24.584  26.252  1.00  0.00    -0.410 OA
BRANCH  20  21
ATOM     21  C   UNL A   1      32.677  23.967  26.264  1.00  0.00     0.412 C 
ATOM     22  N   UNL A   1      31.664  24.803  25.885  1.00  0.00    -0.321 N 
ATOM     23  H   UNL A   1      30.754  24.427  25.889  1.00  0.00     0.167 HD
ATOM     24  O   UNL A   1      32.452  22.805  26.577  1.00  0.00    -0.224 OA
BRANCH  22  25
ATOM     25  C   UNL A   1      31.792  26.186  25.478  1.00  0.00     0.119 C 
BRANCH  25  26
ATOM     26  C   UNL A   1      31.573  27.152  26.643  1.00  0.00     0.021 C 
BRANCH  26  27
ATOM     27  C   UNL A   1      32.818  27.930  27.082  1.00  0.00     0.002 C 
BRANCH  27  28
ATOM     28  C   UNL A   1      33.467  28.803  26.005  1.00  0.00    -0.003 C 
ATOM     29  C   UNL A   1      32.537  29.871  25.447  1.00  0.00     0.004 C 
ENDBRANCH  27  28
ENDBRANCH  26  27
ENDBRANCH  25  26
ENDBRANCH  22  25
ENDBRANCH  20  21
ENDBRANCH  15  20
ENDBRANCH   8  14
ENDBRANCH   5   7
ENDBRANCH   1   5
BRANCH   3  30
ATOM     30  C   UNL A   1      43.943  22.980  27.831  1.00  0.00     0.116 C 
BRANCH  30  31
ATOM     31  C   UNL A   1      45.011  24.073  27.889  1.00  0.00     0.023 C 
BRANCH  31  32
ATOM     32  C   UNL A   1      45.664  24.404  26.550  1.00  0.00     0.023 C 
BRANCH  32  33
ATOM     33  C   UNL A   1      45.189  25.696  25.899  1.00  0.00     0.116 C 
BRANCH  33  34
ATOM     34  N   UNL A   1      43.912  25.578  25.204  1.00  0.00    -0.352 N 
ATOM     35  C   UNL A   1      42.671  25.983  25.642  1.00  0.00     0.251 C 
ATOM     36  H   UNL A   1      43.941  25.157  24.315  1.00  0.00     0.163 HD
ATOM     37  O   UNL A   1      41.667  25.739  24.981  1.00  0.00    -0.269 OA
BRANCH  35  38
ATOM     38  C   UNL A   1      42.570  26.673  26.944  1.00  0.00     0.039 A 
ATOM     39  C   UNL A   1      43.144  27.937  27.087  1.00  0.00     0.014 A 
ATOM     40  C   UNL A   1      41.830  26.107  27.984  1.00  0.00     0.014 A 
ATOM     41  C   UNL A   1      42.902  28.671  28.250  1.00  0.00     0.010 A 
ATOM     42  C   UNL A   1      41.516  26.874  29.100  1.00  0.00     0.010 A 
ATOM     43  C   UNL A   1      42.046  28.166  29.245  1.00  0.00    -0.014 A 
BRANCH  43  44
ATOM     44  C   UNL A   1      41.686  28.976  30.437  1.00  0.00     0.031 A 
ATOM     45  C   UNL A   1      42.489  28.850  31.704  1.00  0.00     0.074 A 
ATOM     46  C   UNL A   1      40.600  29.773  30.397  1.00  0.00     0.049 A 
ATOM     47  N   UNL A   1      42.302  29.433  32.860  1.00  0.00    -0.248 NA
ATOM     48  C   UNL A   1      43.633  27.925  31.678  1.00  0.00     0.031 C 
ATOM     49  C   UNL A   1      39.703  29.929  29.248  1.00  0.00     0.029 A 
ATOM     50  N   UNL A   1      40.057  30.598  31.350  1.00  0.00    -0.354 N 
ATOM     51  C   UNL A   1      43.293  28.938  33.698  1.00  0.00     0.074 A 
ATOM     52  C   UNL A   1      44.040  27.960  32.939  1.00  0.00     0.031 C 
ATOM     53  C   UNL A   1      38.743  30.817  29.554  1.00  0.00     0.029 A 
ATOM     54  C   UNL A   1      38.930  31.267  30.928  1.00  0.00     0.049 A 
ATOM     55  H   UNL A   1      40.438  30.702  32.253  1.00  0.00     0.167 HD
ATOM     56  C   UNL A   1      43.576  29.289  34.975  1.00  0.00     0.037 A 
ATOM     57  C   UNL A   1      38.136  32.141  31.578  1.00  0.00     0.037 A 
ATOM     58  C   UNL A   1      42.844  30.284  35.715  1.00  0.00     0.049 A 
ATOM     59  C   UNL A   1      38.476  32.521  32.996  1.00  0.00     0.074 A 
ATOM     60  C   UNL A   1      43.088  30.756  36.992  1.00  0.00     0.029 A 
ATOM     61  N   UNL A   1      41.726  30.957  35.244  1.00  0.00    -0.354 N 
ATOM     62  N   UNL A   1      39.465  32.099  33.748  1.00  0.00    -0.248 NA
ATOM     63  C   UNL A   1      37.598  33.501  33.649  1.00  0.00     0.031 C 
ATOM     64  C   UNL A   1      42.089  31.682  37.312  1.00  0.00     0.029 A 
ATOM     65  C   UNL A   1      41.256  31.827  36.214  1.00  0.00     0.049 A 
ATOM     66  H   UNL A   1      41.326  30.835  34.353  1.00  0.00     0.167 HD
ATOM     67  C   UNL A   1      39.345  32.783  34.953  1.00  0.00     0.074 A 
ATOM     68  C   UNL A   1      38.197  33.656  34.822  1.00  0.00     0.031 C 
ATOM     69  C   UNL A   1      40.116  32.697  36.065  1.00  0.00     0.037 A 
BRANCH  56  70
ATOM     70  C   UNL A   1      44.732  28.601  35.648  1.00  0.00     0.058 A 
ATOM     71  C   UNL A   1      46.040  29.109  35.570  1.00  0.00     0.135 A 
ATOM     72  C   UNL A   1      44.528  27.441  36.414  1.00  0.00     0.135 A 
ATOM     73  F   UNL A   1      46.296  30.205  34.837  1.00  0.00    -0.206 F 
ATOM     74  C   UNL A   1      47.106  28.477  36.199  1.00  0.00     0.059 A 
ATOM     75  C   UNL A   1      45.576  26.809  37.078  1.00  0.00     0.059 A 
ATOM     76  F   UNL A   1      43.299  26.911  36.523  1.00  0.00    -0.206 F 
ATOM     77  C   UNL A   1      46.863  27.329  36.954  1.00  0.00     0.060 A 
BRANCH  77  78
ATOM     78  S   UNL A   1      48.258  26.530  37.776  1.00  0.00     0.124 S 
ATOM     79  O   UNL A   1      49.234  27.615  37.811  1.00  0.00    -0.237 OA
ATOM     80  O   UNL A   1      47.686  26.151  39.064  1.00  0.00    -0.237 OA
ATOM     81  O   UNL A   1      48.586  25.419  36.887  1.00  0.00    -0.744 OA
ENDBRANCH  77  78
ENDBRANCH  56  70
BRANCH  57  82
ATOM     82  C   UNL A   1      36.962  32.740  30.888  1.00  0.00     0.058 A 
ATOM     83  C   UNL A   1      37.090  33.912  30.127  1.00  0.00     0.135 A 
ATOM     84  C   UNL A   1      35.689  32.153  30.970  1.00  0.00     0.135 A 
ATOM     85  F   UNL A   1      38.284  34.515  30.022  1.00  0.00    -0.206 F 
ATOM     86  C   UNL A   1      35.998  34.494  29.491  1.00  0.00     0.059 A 
ATOM     87  C   UNL A   1      34.587  32.700  30.320  1.00  0.00     0.059 A 
ATOM     88  F   UNL A   1      35.515  31.021  31.670  1.00  0.00    -0.206 F 
ATOM     89  C   UNL A   1      34.749  33.879  29.593  1.00  0.00     0.060 A 
BRANCH  89  90
ATOM     90  S   UNL A   1      33.345  34.623  28.734  1.00  0.00     0.124 S 
ATOM     91  O   UNL A   1      32.561  35.144  29.848  1.00  0.00    -0.237 OA
ATOM     92  O   UNL A   1      33.996  35.618  27.889  1.00  0.00    -0.237 OA
ATOM     93  O   UNL A   1      32.754  33.495  28.019  1.00  0.00    -0.744 OA
ENDBRANCH  89  90
ENDBRANCH  57  82
BRANCH  69  94
ATOM     94  C   UNL A   1      39.769  33.598  37.219  1.00  0.00     0.058 A 
ATOM     95  C   UNL A   1      38.899  33.188  38.241  1.00  0.00     0.135 A 
ATOM     96  C   UNL A   1      40.360  34.867  37.329  1.00  0.00     0.135 A 
ATOM     97  F   UNL A   1      38.304  31.987  38.182  1.00  0.00    -0.206 F 
ATOM     98  C   UNL A   1      38.605  34.017  39.320  1.00  0.00     0.059 A 
ATOM     99  C   UNL A   1      40.104  35.700  38.413  1.00  0.00     0.059 A 
ATOM    100  F   UNL A   1      41.209  35.303  36.385  1.00  0.00    -0.206 F 
ATOM    101  C   UNL A   1      39.215  35.270  39.398  1.00  0.00     0.060 A 
BRANCH 101 102
ATOM    102  S   UNL A   1      38.852  36.322  40.819  1.00  0.00     0.124 S 
ATOM    103  O   UNL A   1      40.170  36.453  41.431  1.00  0.00    -0.237 OA
ATOM    104  O   UNL A   1      38.322  37.528  40.190  1.00  0.00    -0.237 OA
ATOM    105  O   UNL A   1      37.881  35.542  41.581  1.00  0.00    -0.744 OA
ENDBRANCH 101 102
ENDBRANCH  69  94
ENDBRANCH  43  44
ENDBRANCH  35  38
ENDBRANCH  33  34
ENDBRANCH  32  33
ENDBRANCH  31  32
ENDBRANCH  30  31
ENDBRANCH   3  30
TORSDOF 22
ENDMDL
MODEL 2
REMARK VINA RESULT:     -10.6      1.626      3.005
REMARK SMILES CCCCCNC(=O)Oc1cccc(-c2ccc([C@@H](C)C(=O)NCCCCNC(=O)c3ccc(-c4c5nc(c(-c6c(F)cc(S(=O)(=O)[O-])cc6F)c6ccc([nH]6)c(-c6c(F)cc(S(=O)(=O)[O-])cc6F)c6nc(c(-c7c(F)cc(S(=O)(=O)[O-])cc7F)c7ccc4[nH]7)C=C6)C=C5)cc3)cc2F)c1
REMARK SMILES IDX 21 1 22 2 23 3 19 5 20 6 18 7 15 8 16 9 98 10 17 11 97 12
REMARK SMILES IDX 99 13 14 14 10 15 11 16 100 17 12 18 13 19 9 20 7 21 6 22
REMARK SMILES IDX 8 24 5 25 4 26 3 27 2 28 1 29 24 30 25 31 26 32 27 33 28 34
REMARK SMILES IDX 29 35 30 37 31 38 32 39 96 40 33 41 95 42 34 43 35 44 36 45
REMARK SMILES IDX 89 46 37 47 94 48 88 49 90 50 38 51 93 52 87 53 86 54 39 56
REMARK SMILES IDX 73 57 52 58 72 59 53 60 56 61 71 62 91 63 54 64 55 65 70 67
REMARK SMILES IDX 92 68 57 69 40 70 41 71 50 72 42 73 43 74 49 75 51 76 44 77
REMARK SMILES IDX 45 78 46 79 47 80 48 81 74 82 75 83 84 84 76 85 77 86 83 87
REMARK SMILES IDX 85 88 78 89 79 90 80 91 81 92 82 93 58 94 59 95 68 96 60 97
REMARK SMILES IDX 61 98 67 99 69 100 62 101 63 102 64 103 65 104 66 105
REMARK H PARENT 23 4 6 23 28 36 90 55 56 66
REMARK Flexibility Score: inf
ROOT
ATOM      1  C   UNL A   1      42.973  21.254  26.170  1.00  0.00     0.227 C 
ATOM      2  O   UNL A   1      43.203  20.793  25.046  1.00  0.00    -0.274 OA
ATOM      3  N   UNL A   1      43.740  22.306  26.566  1.00  0.00    -0.356 N 
ATOM      4  H   UNL A   1      44.368  22.628  25.880  1.00  0.00     0.163 HD
ENDROOT
BRANCH   1   5
ATOM      5  C   UNL A   1      41.854  20.639  27.029  1.00  0.00     0.105 C 
ATOM      6  C   UNL A   1      42.117  19.198  27.462  1.00  0.00     0.023 C 
BRANCH   5   7
ATOM      7  C   UNL A   1      40.457  20.935  26.506  1.00  0.00    -0.033 A 
ATOM      8  C   UNL A   1      37.972  21.674  25.296  1.00  0.00     0.018 A 
ATOM      9  C   UNL A   1      38.489  20.374  25.182  1.00  0.00     0.012 A 
ATOM     10  C   UNL A   1      38.698  22.568  26.097  1.00  0.00     0.131 A 
ATOM     11  C   UNL A   1      39.686  20.002  25.809  1.00  0.00     0.005 A 
ATOM     12  C   UNL A   1      39.924  22.221  26.671  1.00  0.00     0.044 A 
ATOM     13  F   UNL A   1      38.236  23.807  26.331  1.00  0.00    -0.206 F 
BRANCH   8  14
ATOM     14  C   UNL A   1      36.752  22.076  24.562  1.00  0.00    -0.012 A 
ATOM     15  C   UNL A   1      34.401  21.745  24.023  1.00  0.00     0.133 A 
ATOM     16  C   UNL A   1      34.390  22.878  23.217  1.00  0.00     0.047 A 
ATOM     17  C   UNL A   1      35.562  21.339  24.682  1.00  0.00     0.056 A 
ATOM     18  C   UNL A   1      35.555  23.626  23.087  1.00  0.00     0.004 A 
ATOM     19  C   UNL A   1      36.723  23.225  23.748  1.00  0.00     0.009 A 
BRANCH  15  20
ATOM     20  O   UNL A   1      33.238  20.961  24.045  1.00  0.00    -0.410 OA
BRANCH  20  21
ATOM     21  C   UNL A   1      32.410  21.054  25.154  1.00  0.00     0.412 C 
ATOM     22  N   UNL A   1      32.397  19.910  25.905  1.00  0.00    -0.321 N 
ATOM     23  H   UNL A   1      31.814  19.909  26.700  1.00  0.00     0.167 HD
ATOM     24  O   UNL A   1      31.737  22.026  25.474  1.00  0.00    -0.224 OA
BRANCH  22  25
ATOM     25  C   UNL A   1      33.152  18.702  25.652  1.00  0.00     0.119 C 
BRANCH  25  26
ATOM     26  C   UNL A   1      32.329  17.657  24.899  1.00  0.00     0.021 C 
BRANCH  26  27
ATOM     27  C   UNL A   1      32.804  17.366  23.470  1.00  0.00     0.002 C 
BRANCH  27  28
ATOM     28  C   UNL A   1      34.033  16.462  23.352  1.00  0.00    -0.003 C 
ATOM     29  C   UNL A   1      34.872  16.408  24.621  1.00  0.00     0.004 C 
ENDBRANCH  27  28
ENDBRANCH  26  27
ENDBRANCH  25  26
ENDBRANCH  22  25
ENDBRANCH  20  21
ENDBRANCH  15  20
ENDBRANCH   8  14
ENDBRANCH   5   7
ENDBRANCH   1   5
BRANCH   3  30
ATOM     30  C   UNL A   1      43.798  23.040  27.813  1.00  0.00     0.116 C 
BRANCH  30  31
ATOM     31  C   UNL A   1      44.780  24.210  27.747  1.00  0.00     0.023 C 
BRANCH  31  32
ATOM     32  C   UNL A   1      45.283  24.547  26.346  1.00  0.00     0.023 C 
BRANCH  32  33
ATOM     33  C   UNL A   1      44.648  25.775  25.707  1.00  0.00     0.116 C 
BRANCH  33  34
ATOM     34  N   UNL A   1      43.316  25.541  25.165  1.00  0.00    -0.352 N 
ATOM     35  C   UNL A   1      42.104  25.877  25.725  1.00  0.00     0.251 C 
ATOM     36  H   UNL A   1      43.278  25.087  24.292  1.00  0.00     0.163 HD
ATOM     37  O   UNL A   1      41.054  25.538  25.190  1.00  0.00    -0.269 OA
BRANCH  35  38
ATOM     38  C   UNL A   1      42.096  26.611  27.007  1.00  0.00     0.039 A 
ATOM     39  C   UNL A   1      42.643  27.895  27.056  1.00  0.00     0.014 A 
ATOM     40  C   UNL A   1      41.465  26.065  28.127  1.00  0.00     0.014 A 
ATOM     41  C   UNL A   1      42.480  28.664  28.210  1.00  0.00     0.010 A 
ATOM     42  C   UNL A   1      41.227  26.864  29.239  1.00  0.00     0.010 A 
ATOM     43  C   UNL A   1      41.729  28.173  29.292  1.00  0.00    -0.014 A 
BRANCH  43  44
ATOM     44  C   UNL A   1      41.450  29.017  30.483  1.00  0.00     0.031 A 
ATOM     45  C   UNL A   1      42.295  28.877  31.720  1.00  0.00     0.074 A 
ATOM     46  C   UNL A   1      40.398  29.859  30.471  1.00  0.00     0.049 A 
ATOM     47  N   UNL A   1      42.178  29.485  32.872  1.00  0.00    -0.248 NA
ATOM     48  C   UNL A   1      43.398  27.904  31.667  1.00  0.00     0.031 C 
ATOM     49  C   UNL A   1      39.464  30.035  29.354  1.00  0.00     0.029 A 
ATOM     50  N   UNL A   1      39.927  30.721  31.429  1.00  0.00    -0.354 N 
ATOM     51  C   UNL A   1      43.180  28.961  33.680  1.00  0.00     0.074 A 
ATOM     52  C   UNL A   1      43.855  27.941  32.910  1.00  0.00     0.031 C 
ATOM     53  C   UNL A   1      38.556  30.968  29.680  1.00  0.00     0.029 A 
ATOM     54  C   UNL A   1      38.814  31.431  31.039  1.00  0.00     0.049 A 
ATOM     55  H   UNL A   1      40.347  30.823  32.314  1.00  0.00     0.167 HD
ATOM     56  C   UNL A   1      43.526  29.320  34.939  1.00  0.00     0.037 A 
ATOM     57  C   UNL A   1      38.084  32.349  31.703  1.00  0.00     0.037 A 
ATOM     58  C   UNL A   1      42.866  30.357  35.689  1.00  0.00     0.049 A 
ATOM     59  C   UNL A   1      38.494  32.735  33.100  1.00  0.00     0.074 A 
ATOM     60  C   UNL A   1      43.179  30.839  36.947  1.00  0.00     0.029 A 
ATOM     61  N   UNL A   1      41.760  31.070  35.250  1.00  0.00    -0.354 N 
ATOM     62  N   UNL A   1      39.493  32.284  33.821  1.00  0.00    -0.248 NA
ATOM     63  C   UNL A   1      37.684  33.763  33.769  1.00  0.00     0.031 C 
ATOM     64  C   UNL A   1      42.233  31.811  37.289  1.00  0.00     0.029 A 
ATOM     65  C   UNL A   1      41.365  31.975  36.221  1.00  0.00     0.049 A 
ATOM     66  H   UNL A   1      41.321  30.951  34.377  1.00  0.00     0.167 HD
ATOM     67  C   UNL A   1      39.448  32.991  35.017  1.00  0.00     0.074 A 
ATOM     68  C   UNL A   1      38.334  33.910  34.916  1.00  0.00     0.031 C 
ATOM     69  C   UNL A   1      40.258  32.889  36.101  1.00  0.00     0.037 A 
BRANCH  56  70
ATOM     70  C   UNL A   1      44.677  28.595  35.580  1.00  0.00     0.058 A 
ATOM     71  C   UNL A   1      44.483  27.432  36.345  1.00  0.00     0.135 A 
ATOM     72  C   UNL A   1      45.997  29.043  35.399  1.00  0.00     0.135 A 
ATOM     73  F   UNL A   1      43.242  26.969  36.566  1.00  0.00    -0.206 F 
ATOM     74  C   UNL A   1      45.548  26.758  36.930  1.00  0.00     0.059 A 
ATOM     75  C   UNL A   1      47.081  28.365  35.950  1.00  0.00     0.059 A 
ATOM     76  F   UNL A   1      46.242  30.149  34.679  1.00  0.00    -0.206 F 
ATOM     77  C   UNL A   1      46.845  27.231  36.725  1.00  0.00     0.060 A 
BRANCH  77  78
ATOM     78  S   UNL A   1      48.217  26.334  37.481  1.00  0.00     0.124 S 
ATOM     79  O   UNL A   1      48.443  25.273  36.505  1.00  0.00    -0.237 OA
ATOM     80  O   UNL A   1      49.254  27.357  37.556  1.00  0.00    -0.237 OA
ATOM     81  O   UNL A   1      47.674  25.900  38.765  1.00  0.00    -0.744 OA
ENDBRANCH  77  78
ENDBRANCH  56  70
BRANCH  57  82
ATOM     82  C   UNL A   1      36.910  32.986  31.048  1.00  0.00     0.058 A 
ATOM     83  C   UNL A   1      37.073  34.055  30.153  1.00  0.00     0.135 A 
ATOM     84  C   UNL A   1      35.603  32.539  31.298  1.00  0.00     0.135 A 
ATOM     85  F   UNL A   1      38.301  34.523  29.885  1.00  0.00    -0.206 F 
ATOM     86  C   UNL A   1      35.983  34.673  29.547  1.00  0.00     0.059 A 
ATOM     87  C   UNL A   1      34.499  33.123  30.682  1.00  0.00     0.059 A 
ATOM     88  F   UNL A   1      35.392  31.508  32.130  1.00  0.00    -0.206 F 
ATOM     89  C   UNL A   1      34.699  34.198  29.817  1.00  0.00     0.060 A 
BRANCH  89  90
ATOM     90  S   UNL A   1      33.295  34.985  28.997  1.00  0.00     0.124 S 
ATOM     91  O   UNL A   1      32.832  33.916  28.119  1.00  0.00    -0.237 OA
ATOM     92  O   UNL A   1      32.426  35.309  30.123  1.00  0.00    -0.237 OA
ATOM     93  O   UNL A   1      33.898  36.134  28.329  1.00  0.00    -0.744 OA
ENDBRANCH  89  90
ENDBRANCH  57  82
BRANCH  69  94
ATOM     94  C   UNL A   1      39.994  33.823  37.252  1.00  0.00     0.058 A 
ATOM     95  C   UNL A   1      40.744  34.994  37.439  1.00  0.00     0.135 A 
ATOM     96  C   UNL A   1      38.942  33.566  38.145  1.00  0.00     0.135 A 
ATOM     97  F   UNL A   1      41.764  35.284  36.617  1.00  0.00    -0.206 F 
ATOM     98  C   UNL A   1      40.476  35.866  38.491  1.00  0.00     0.059 A 
ATOM     99  C   UNL A   1      38.637  34.438  39.185  1.00  0.00     0.059 A 
ATOM    100  F   UNL A   1      38.186  32.465  38.003  1.00  0.00    -0.206 F 
ATOM    101  C   UNL A   1      39.419  35.580  39.357  1.00  0.00     0.060 A 
BRANCH 101 102
ATOM    102  S   UNL A   1      39.061  36.737  40.696  1.00  0.00     0.124 S 
ATOM    103  O   UNL A   1      38.223  37.720  40.017  1.00  0.00    -0.237 OA
ATOM    104  O   UNL A   1      38.382  35.888  41.669  1.00  0.00    -0.237 OA
ATOM    105  O   UNL A   1      40.382  37.210  41.099  1.00  0.00    -0.744 OA
ENDBRANCH 101 102
ENDBRANCH  69  94
ENDBRANCH  43  44
ENDBRANCH  35  38
ENDBRANCH  33  34
ENDBRANCH  32  33
ENDBRANCH  31  32
ENDBRANCH  30  31
ENDBRANCH   3  30
TORSDOF 22
ENDMDL
MODEL 3
REMARK VINA RESULT:     -10.3      5.436     12.229
REMARK SMILES CCCCCNC(=O)Oc1cccc(-c2ccc([C@@H](C)C(=O)NCCCCNC(=O)c3ccc(-c4c5nc(c(-c6c(F)cc(S(=O)(=O)[O-])cc6F)c6ccc([nH]6)c(-c6c(F)cc(S(=O)(=O)[O-])cc6F)c6nc(c(-c7c(F)cc(S(=O)(=O)[O-])cc7F)c7ccc4[nH]7)C=C6)C=C5)cc3)cc2F)c1
REMARK SMILES IDX 21 1 22 2 23 3 19 5 20 6 18 7 15 8 16 9 98 10 17 11 97 12
REMARK SMILES IDX 99 13 14 14 10 15 11 16 100 17 12 18 13 19 9 20 7 21 6 22
REMARK SMILES IDX 8 24 5 25 4 26 3 27 2 28 1 29 24 30 25 31 26 32 27 33 28 34
REMARK SMILES IDX 29 35 30 37 31 38 32 39 96 40 33 41 95 42 34 43 35 44 36 45
REMARK SMILES IDX 89 46 37 47 94 48 88 49 90 50 38 51 93 52 87 53 86 54 39 56
REMARK SMILES IDX 73 57 52 58 72 59 53 60 56 61 71 62 91 63 54 64 55 65 70 67
REMARK SMILES IDX 92 68 57 69 40 70 41 71 50 72 42 73 43 74 49 75 51 76 44 77
REMARK SMILES IDX 45 78 46 79 47 80 48 81 74 82 75 83 84 84 76 85 77 86 83 87
REMARK SMILES IDX 85 88 78 89 79 90 80 91 81 92 82 93 58 94 59 95 68 96 60 97
REMARK SMILES IDX 61 98 67 99 69 100 62 101 63 102 64 103 65 104 66 105
REMARK H PARENT 23 4 6 23 28 36 90 55 56 66
REMARK Flexibility Score: inf
ROOT
ATOM      1  C   UNL A   1      35.194  33.153  30.392  1.00  0.00     0.227 C 
ATOM      2  O   UNL A   1      34.029  32.940  30.749  1.00  0.00    -0.274 OA
ATOM      3  N   UNL A   1      36.025  33.703  31.319  1.00  0.00    -0.356 N 
ATOM      4  H   UNL A   1      35.616  33.823  32.206  1.00  0.00     0.163 HD
ENDROOT
BRANCH   1   5
ATOM      5  C   UNL A   1      35.631  32.780  28.964  1.00  0.00     0.105 C 
ATOM      6  C   UNL A   1      35.742  33.969  28.012  1.00  0.00     0.023 C 
BRANCH   5   7
ATOM      7  C   UNL A   1      34.926  31.549  28.417  1.00  0.00    -0.033 A 
ATOM      8  C   UNL A   1      33.634  29.366  27.094  1.00  0.00     0.018 A 
ATOM      9  C   UNL A   1      34.915  29.234  27.655  1.00  0.00     0.012 A 
ATOM     10  C   UNL A   1      32.992  30.598  27.284  1.00  0.00     0.131 A 
ATOM     11  C   UNL A   1      35.530  30.292  28.338  1.00  0.00     0.005 A 
ATOM     12  C   UNL A   1      33.626  31.676  27.907  1.00  0.00     0.044 A 
ATOM     13  F   UNL A   1      31.734  30.786  26.855  1.00  0.00    -0.206 F 
BRANCH   8  14
ATOM     14  C   UNL A   1      33.032  28.269  26.305  1.00  0.00    -0.012 A 
ATOM     15  C   UNL A   1      33.209  26.554  24.584  1.00  0.00     0.133 A 
ATOM     16  C   UNL A   1      31.913  26.118  24.836  1.00  0.00     0.047 A 
ATOM     17  C   UNL A   1      33.765  27.618  25.297  1.00  0.00     0.056 A 
ATOM     18  C   UNL A   1      31.171  26.744  25.832  1.00  0.00     0.004 A 
ATOM     19  C   UNL A   1      31.724  27.809  26.553  1.00  0.00     0.009 A 
BRANCH  15  20
ATOM     20  O   UNL A   1      33.885  25.968  23.504  1.00  0.00    -0.410 OA
BRANCH  20  21
ATOM     21  C   UNL A   1      33.283  24.894  22.864  1.00  0.00     0.412 C 
ATOM     22  N   UNL A   1      33.803  23.688  23.246  1.00  0.00    -0.321 N 
ATOM     23  H   UNL A   1      33.427  22.887  22.814  1.00  0.00     0.167 HD
ATOM     24  O   UNL A   1      32.385  24.959  22.035  1.00  0.00    -0.224 OA
BRANCH  22  25
ATOM     25  C   UNL A   1      34.849  23.468  24.222  1.00  0.00     0.119 C 
BRANCH  25  26
ATOM     26  C   UNL A   1      36.057  22.751  23.618  1.00  0.00     0.021 C 
BRANCH  26  27
ATOM     27  C   UNL A   1      37.302  22.715  24.513  1.00  0.00     0.002 C 
BRANCH  27  28
ATOM     28  C   UNL A   1      37.308  23.706  25.680  1.00  0.00    -0.003 C 
ATOM     29  C   UNL A   1      38.628  23.745  26.436  1.00  0.00     0.004 C 
ENDBRANCH  27  28
ENDBRANCH  26  27
ENDBRANCH  25  26
ENDBRANCH  22  25
ENDBRANCH  20  21
ENDBRANCH  15  20
ENDBRANCH   8  14
ENDBRANCH   5   7
ENDBRANCH   1   5
BRANCH   3  30
ATOM     30  C   UNL A   1      37.401  34.143  31.237  1.00  0.00     0.116 C 
BRANCH  30  31
ATOM     31  C   UNL A   1      38.082  34.162  32.606  1.00  0.00     0.023 C 
BRANCH  31  32
ATOM     32  C   UNL A   1      38.728  32.843  33.020  1.00  0.00     0.023 C 
BRANCH  32  33
ATOM     33  C   UNL A   1      37.884  31.967  33.937  1.00  0.00     0.116 C 
BRANCH  33  34
ATOM     34  N   UNL A   1      36.895  31.155  33.238  1.00  0.00    -0.352 N 
ATOM     35  C   UNL A   1      37.086  30.357  32.132  1.00  0.00     0.251 C 
ATOM     36  H   UNL A   1      35.980  31.180  33.600  1.00  0.00     0.163 HD
ATOM     37  O   UNL A   1      36.136  29.795  31.597  1.00  0.00    -0.269 OA
BRANCH  35  38
ATOM     38  C   UNL A   1      38.449  30.233  31.575  1.00  0.00     0.039 A 
ATOM     39  C   UNL A   1      39.428  29.573  32.321  1.00  0.00     0.014 A 
ATOM     40  C   UNL A   1      38.725  30.686  30.283  1.00  0.00     0.014 A 
ATOM     41  C   UNL A   1      40.663  29.294  31.733  1.00  0.00     0.010 A 
ATOM     42  C   UNL A   1      39.920  30.327  29.671  1.00  0.00     0.010 A 
ATOM     43  C   UNL A   1      40.902  29.625  30.388  1.00  0.00    -0.014 A 
BRANCH  43  44
ATOM     44  C   UNL A   1      42.166  29.237  29.711  1.00  0.00     0.031 A 
ATOM     45  C   UNL A   1      43.271  30.245  29.544  1.00  0.00     0.074 A 
ATOM     46  C   UNL A   1      42.290  28.000  29.190  1.00  0.00     0.049 A 
ATOM     47  N   UNL A   1      44.424  30.112  28.941  1.00  0.00    -0.248 NA
ATOM     48  C   UNL A   1      43.039  31.586  30.103  1.00  0.00     0.031 C 
ATOM     49  C   UNL A   1      41.262  26.956  29.229  1.00  0.00     0.029 A 
ATOM     50  N   UNL A   1      43.331  27.410  28.517  1.00  0.00    -0.354 N 
ATOM     51  C   UNL A   1      45.046  31.351  29.036  1.00  0.00     0.074 A 
ATOM     52  C   UNL A   1      44.119  32.240  29.699  1.00  0.00     0.031 C 
ATOM     53  C   UNL A   1      41.736  25.847  28.636  1.00  0.00     0.029 A 
ATOM     54  C   UNL A   1      43.082  26.109  28.142  1.00  0.00     0.049 A 
ATOM     55  H   UNL A   1      44.178  27.874  28.322  1.00  0.00     0.167 HD
ATOM     56  C   UNL A   1      46.290  31.707  28.637  1.00  0.00     0.037 A 
ATOM     57  C   UNL A   1      43.853  25.229  27.472  1.00  0.00     0.037 A 
ATOM     58  C   UNL A   1      47.217  30.807  28.002  1.00  0.00     0.049 A 
ATOM     59  C   UNL A   1      45.235  25.647  27.044  1.00  0.00     0.074 A 
ATOM     60  C   UNL A   1      48.523  31.052  27.614  1.00  0.00     0.029 A 
ATOM     61  N   UNL A   1      46.939  29.492  27.662  1.00  0.00    -0.354 N 
ATOM     62  N   UNL A   1      45.836  26.802  27.211  1.00  0.00    -0.248 NA
ATOM     63  C   UNL A   1      46.046  24.642  26.345  1.00  0.00     0.031 C 
ATOM     64  C   UNL A   1      49.017  29.899  26.997  1.00  0.00     0.029 A 
ATOM     65  C   UNL A   1      48.040  28.918  27.050  1.00  0.00     0.049 A 
ATOM     66  H   UNL A   1      46.084  29.034  27.831  1.00  0.00     0.167 HD
ATOM     67  C   UNL A   1      47.106  26.652  26.664  1.00  0.00     0.074 A 
ATOM     68  C   UNL A   1      47.190  25.292  26.175  1.00  0.00     0.031 C 
ATOM     69  C   UNL A   1      48.110  27.558  26.576  1.00  0.00     0.037 A 
BRANCH  56  70
ATOM     70  C   UNL A   1      46.723  33.126  28.884  1.00  0.00     0.058 A 
ATOM     71  C   UNL A   1      47.412  33.494  30.052  1.00  0.00     0.135 A 
ATOM     72  C   UNL A   1      46.482  34.126  27.927  1.00  0.00     0.135 A 
ATOM     73  F   UNL A   1      47.653  32.583  31.009  1.00  0.00    -0.206 F 
ATOM     74  C   UNL A   1      47.819  34.804  30.276  1.00  0.00     0.059 A 
ATOM     75  C   UNL A   1      46.908  35.438  28.116  1.00  0.00     0.059 A 
ATOM     76  F   UNL A   1      45.827  33.832  26.792  1.00  0.00    -0.206 F 
ATOM     77  C   UNL A   1      47.564  35.769  29.300  1.00  0.00     0.060 A 
BRANCH  77  78
ATOM     78  S   UNL A   1      48.112  37.463  29.603  1.00  0.00     0.124 S 
ATOM     79  O   UNL A   1      46.837  38.161  29.736  1.00  0.00    -0.237 OA
ATOM     80  O   UNL A   1      48.890  37.324  30.829  1.00  0.00    -0.237 OA
ATOM     81  O   UNL A   1      48.884  37.789  28.407  1.00  0.00    -0.744 OA
ENDBRANCH  77  78
ENDBRANCH  56  70
BRANCH  57  82
ATOM     82  C   UNL A   1      43.348  23.858  27.190  1.00  0.00     0.058 A 
ATOM     83  C   UNL A   1      42.764  23.542  25.954  1.00  0.00     0.135 A 
ATOM     84  C   UNL A   1      43.443  22.834  28.146  1.00  0.00     0.135 A 
ATOM     85  F   UNL A   1      42.646  24.486  25.009  1.00  0.00    -0.206 F 
ATOM     86  C   UNL A   1      42.272  22.270  25.682  1.00  0.00     0.059 A 
ATOM     87  C   UNL A   1      42.982  21.546  27.888  1.00  0.00     0.059 A 
ATOM     88  F   UNL A   1      44.009  23.077  29.338  1.00  0.00    -0.206 F 
ATOM     89  C   UNL A   1      42.386  21.277  26.656  1.00  0.00     0.060 A 
BRANCH  89  90
ATOM     90  S   UNL A   1      41.776  19.619  26.279  1.00  0.00     0.124 S 
ATOM     91  O   UNL A   1      42.174  18.881  27.473  1.00  0.00    -0.237 OA
ATOM     92  O   UNL A   1      40.345  19.849  26.117  1.00  0.00    -0.237 OA
ATOM     93  O   UNL A   1      42.490  19.270  25.054  1.00  0.00    -0.744 OA
ENDBRANCH  89  90
ENDBRANCH  57  82
BRANCH  69  94
ATOM     94  C   UNL A   1      49.405  27.099  25.961  1.00  0.00     0.058 A 
ATOM     95  C   UNL A   1      49.663  27.242  24.589  1.00  0.00     0.135 A 
ATOM     96  C   UNL A   1      50.420  26.560  26.768  1.00  0.00     0.135 A 
ATOM     97  F   UNL A   1      48.726  27.747  23.773  1.00  0.00    -0.206 F 
ATOM     98  C   UNL A   1      50.874  26.840  24.033  1.00  0.00     0.059 A 
ATOM     99  C   UNL A   1      51.649  26.179  26.239  1.00  0.00     0.059 A 
ATOM    100  F   UNL A   1      50.229  26.413  28.089  1.00  0.00    -0.206 F 
ATOM    101  C   UNL A   1      51.862  26.312  24.867  1.00  0.00     0.060 A 
BRANCH 101 102
ATOM    102  S   UNL A   1      53.440  25.826  24.138  1.00  0.00     0.124 S 
ATOM    103  O   UNL A   1      53.144  25.917  22.712  1.00  0.00    -0.237 OA
ATOM    104  O   UNL A   1      54.352  26.838  24.663  1.00  0.00    -0.237 OA
ATOM    105  O   UNL A   1      53.650  24.475  24.651  1.00  0.00    -0.744 OA
ENDBRANCH 101 102
ENDBRANCH  69  94
ENDBRANCH  43  44
ENDBRANCH  35  38
ENDBRANCH  33  34
ENDBRANCH  32  33
ENDBRANCH  31  32
ENDBRANCH  30  31
ENDBRANCH   3  30
TORSDOF 22
ENDMDL
