MODEL 1
REMARK VINA RESULT:     -10.8      0.000      0.000
REMARK SMILES CC[C@H](C)[C@@H](C)NC(=O)c1ccncc1/C=C/C(=O)NCCCCNC(=O)c1ccc(-c2c3nc(c(-c4c(F)cc(S(=O)(=O)[O-])cc4F)c4ccc([nH]4)c(-c4c(F)cc(S(=O)(=O)[O-])cc4F)c4nc(c(-c5c(F)cc(S(=O)(=O)[O-])cc5F)c5ccc2[nH]5)C=C4)C=C3)cc1
REMARK SMILES IDX 21 1 20 2 18 3 19 4 17 6 16 7 15 8 10 9 11 10 12 11 14 12
REMARK SMILES IDX 13 13 8 14 7 15 9 17 5 18 6 19 3 20 4 21 2 22 1 23 22 24
REMARK SMILES IDX 23 25 24 26 25 27 26 28 27 30 28 31 29 32 93 33 30 34 92 35
REMARK SMILES IDX 31 36 32 37 33 38 86 39 34 40 91 41 85 42 87 43 35 44 90 45
REMARK SMILES IDX 84 46 83 47 36 49 70 50 49 51 69 52 50 53 53 54 68 55 88 56
REMARK SMILES IDX 51 57 52 58 67 60 89 61 54 62 37 63 38 64 47 65 39 66 40 67
REMARK SMILES IDX 46 68 48 69 41 70 42 71 43 72 44 73 45 74 71 75 72 76 81 77
REMARK SMILES IDX 73 78 74 79 80 80 82 81 75 82 76 83 77 84 78 85 79 86 55 87
REMARK SMILES IDX 56 88 65 89 57 90 58 91 64 92 66 93 59 94 60 95 61 96 62 97
REMARK SMILES IDX 63 98
REMARK H PARENT 20 5 7 16 25 29 87 48 53 59
REMARK Flexibility Score: inf
ROOT
ATOM      1  C   UNL A   1      39.500  21.377  26.162  1.00  0.00     0.116 C 
ENDROOT
BRANCH   1   2
ATOM      2  N   UNL A   1      39.020  22.743  26.269  1.00  0.00    -0.353 N 
ATOM      3  C   UNL A   1      37.806  23.264  25.951  1.00  0.00     0.244 C 
ATOM      4  O   UNL A   1      37.556  24.443  26.189  1.00  0.00    -0.270 OA
ATOM      5  H   UNL A   1      39.672  23.390  26.624  1.00  0.00     0.163 HD
BRANCH   3   6
ATOM      6  C   UNL A   1      36.733  22.400  25.406  1.00  0.00     0.072 C 
ATOM      7  C   UNL A   1      35.418  22.589  25.604  1.00  0.00     0.016 C 
BRANCH   7   8
ATOM      8  C   UNL A   1      34.397  21.697  25.031  1.00  0.00     0.006 A 
ATOM      9  C   UNL A   1      33.558  22.058  23.964  1.00  0.00     0.050 A 
ATOM     10  C   UNL A   1      32.652  21.133  23.434  1.00  0.00     0.034 A 
ATOM     11  C   UNL A   1      32.548  19.898  24.044  1.00  0.00     0.112 A 
ATOM     12  C   UNL A   1      34.190  20.429  25.568  1.00  0.00     0.119 A 
ATOM     13  N   UNL A   1      33.284  19.531  25.110  1.00  0.00    -0.264 NA
BRANCH   9  14
ATOM     14  C   UNL A   1      33.667  23.381  23.308  1.00  0.00     0.252 C 
ATOM     15  N   UNL A   1      32.960  24.458  23.780  1.00  0.00    -0.349 N 
ATOM     16  H   UNL A   1      33.053  25.274  23.237  1.00  0.00     0.164 HD
ATOM     17  O   UNL A   1      34.396  23.521  22.331  1.00  0.00    -0.269 OA
BRANCH  15  18
ATOM     18  C   UNL A   1      32.089  24.604  24.951  1.00  0.00     0.082 C 
ATOM     19  C   UNL A   1      30.657  24.798  24.444  1.00  0.00     0.031 C 
BRANCH  18  20
ATOM     20  C   UNL A   1      32.576  25.775  25.849  1.00  0.00     0.008 C 
ATOM     21  C   UNL A   1      34.062  26.092  25.633  1.00  0.00     0.010 C 
BRANCH  20  22
ATOM     22  C   UNL A   1      31.717  27.051  25.681  1.00  0.00     0.002 C 
ATOM     23  C   UNL A   1      31.418  27.807  26.970  1.00  0.00     0.004 C 
ENDBRANCH  20  22
ENDBRANCH  18  20
ENDBRANCH  15  18
ENDBRANCH   9  14
ENDBRANCH   7   8
ENDBRANCH   3   6
ENDBRANCH   1   2
BRANCH   1  24
ATOM     24  C   UNL A   1      40.566  21.091  27.220  1.00  0.00     0.023 C 
BRANCH  24  25
ATOM     25  C   UNL A   1      41.988  21.466  26.791  1.00  0.00     0.023 C 
BRANCH  25  26
ATOM     26  C   UNL A   1      42.386  22.910  27.083  1.00  0.00     0.116 C 
BRANCH  26  27
ATOM     27  N   UNL A   1      42.571  23.707  25.882  1.00  0.00    -0.352 N 
ATOM     28  C   UNL A   1      42.448  25.069  25.731  1.00  0.00     0.251 C 
ATOM     29  H   UNL A   1      42.814  23.207  25.070  1.00  0.00     0.163 HD
ATOM     30  O   UNL A   1      42.510  25.573  24.619  1.00  0.00    -0.269 OA
BRANCH  28  31
ATOM     31  C   UNL A   1      42.210  25.911  26.925  1.00  0.00     0.039 A 
ATOM     32  C   UNL A   1      43.008  27.041  27.121  1.00  0.00     0.014 A 
ATOM     33  C   UNL A   1      41.203  25.592  27.839  1.00  0.00     0.014 A 
ATOM     34  C   UNL A   1      42.762  27.878  28.212  1.00  0.00     0.010 A 
ATOM     35  C   UNL A   1      40.912  26.465  28.883  1.00  0.00     0.010 A 
ATOM     36  C   UNL A   1      41.698  27.609  29.088  1.00  0.00    -0.014 A 
BRANCH  36  37
ATOM     37  C   UNL A   1      41.414  28.492  30.247  1.00  0.00     0.031 A 
ATOM     38  C   UNL A   1      42.235  28.364  31.504  1.00  0.00     0.074 A 
ATOM     39  C   UNL A   1      40.390  29.365  30.191  1.00  0.00     0.049 A 
ATOM     40  N   UNL A   1      42.109  28.999  32.641  1.00  0.00    -0.248 NA
ATOM     41  C   UNL A   1      43.321  27.370  31.489  1.00  0.00     0.031 C 
ATOM     42  C   UNL A   1      39.488  29.540  29.051  1.00  0.00     0.029 A 
ATOM     43  N   UNL A   1      39.929  30.264  31.120  1.00  0.00    -0.354 N 
ATOM     44  C   UNL A   1      43.085  28.469  33.478  1.00  0.00     0.074 A 
ATOM     45  C   UNL A   1      43.755  27.423  32.739  1.00  0.00     0.031 C 
ATOM     46  C   UNL A   1      38.595  30.501  29.340  1.00  0.00     0.029 A 
ATOM     47  C   UNL A   1      38.843  30.991  30.693  1.00  0.00     0.049 A 
ATOM     48  H   UNL A   1      40.338  30.377  32.008  1.00  0.00     0.167 HD
ATOM     49  C   UNL A   1      43.412  28.841  34.739  1.00  0.00     0.037 A 
ATOM     50  C   UNL A   1      38.130  31.945  31.321  1.00  0.00     0.037 A 
ATOM     51  C   UNL A   1      42.761  29.904  35.458  1.00  0.00     0.049 A 
ATOM     52  C   UNL A   1      38.535  32.369  32.707  1.00  0.00     0.074 A 
ATOM     53  C   UNL A   1      43.043  30.389  36.723  1.00  0.00     0.029 A 
ATOM     54  N   UNL A   1      41.701  30.655  34.971  1.00  0.00    -0.354 N 
ATOM     55  N   UNL A   1      39.495  31.895  33.466  1.00  0.00    -0.248 NA
ATOM     56  C   UNL A   1      37.774  33.468  33.316  1.00  0.00     0.031 C 
ATOM     57  C   UNL A   1      42.136  31.414  37.012  1.00  0.00     0.029 A 
ATOM     58  C   UNL A   1      41.317  31.598  35.909  1.00  0.00     0.049 A 
ATOM     59  H   UNL A   1      41.284  30.534  34.088  1.00  0.00     0.167 HD
ATOM     60  C   UNL A   1      39.476  32.659  34.627  1.00  0.00     0.074 A 
ATOM     61  C   UNL A   1      38.413  33.632  34.467  1.00  0.00     0.031 C 
ATOM     62  C   UNL A   1      40.268  32.570  35.724  1.00  0.00     0.037 A 
BRANCH  49  63
ATOM     63  C   UNL A   1      44.534  28.095  35.411  1.00  0.00     0.058 A 
ATOM     64  C   UNL A   1      44.306  26.894  36.102  1.00  0.00     0.135 A 
ATOM     65  C   UNL A   1      45.851  28.577  35.354  1.00  0.00     0.135 A 
ATOM     66  F   UNL A   1      43.063  26.396  36.201  1.00  0.00    -0.206 F 
ATOM     67  C   UNL A   1      45.336  26.217  36.745  1.00  0.00     0.059 A 
ATOM     68  C   UNL A   1      46.903  27.901  35.966  1.00  0.00     0.059 A 
ATOM     69  F   UNL A   1      46.126  29.720  34.707  1.00  0.00    -0.206 F 
ATOM     70  C   UNL A   1      46.632  26.730  36.674  1.00  0.00     0.060 A 
BRANCH  70  71
ATOM     71  S   UNL A   1      47.958  25.844  37.519  1.00  0.00     0.124 S 
ATOM     72  O   UNL A   1      49.135  26.580  37.065  1.00  0.00    -0.237 OA
ATOM     73  O   UNL A   1      47.607  26.017  38.924  1.00  0.00    -0.237 OA
ATOM     74  O   UNL A   1      47.835  24.482  37.009  1.00  0.00    -0.744 OA
ENDBRANCH  70  71
ENDBRANCH  49  63
BRANCH  50  75
ATOM     75  C   UNL A   1      36.988  32.596  30.626  1.00  0.00     0.058 A 
ATOM     76  C   UNL A   1      35.664  32.245  30.928  1.00  0.00     0.135 A 
ATOM     77  C   UNL A   1      37.195  33.595  29.662  1.00  0.00     0.135 A 
ATOM     78  F   UNL A   1      35.415  31.294  31.841  1.00  0.00    -0.206 F 
ATOM     79  C   UNL A   1      34.585  32.847  30.287  1.00  0.00     0.059 A 
ATOM     80  C   UNL A   1      36.133  34.228  29.025  1.00  0.00     0.059 A 
ATOM     81  F   UNL A   1      38.443  33.981  29.352  1.00  0.00    -0.206 F 
ATOM     82  C   UNL A   1      34.830  33.838  29.337  1.00  0.00     0.060 A 
BRANCH  82  83
ATOM     83  S   UNL A   1      33.422  34.649  28.548  1.00  0.00     0.124 S 
ATOM     84  O   UNL A   1      32.976  33.622  27.615  1.00  0.00    -0.237 OA
ATOM     85  O   UNL A   1      32.541  34.909  29.682  1.00  0.00    -0.237 OA
ATOM     86  O   UNL A   1      34.016  35.838  27.943  1.00  0.00    -0.744 OA
ENDBRANCH  82  83
ENDBRANCH  50  75
BRANCH  62  87
ATOM     87  C   UNL A   1      40.054  33.581  36.815  1.00  0.00     0.058 A 
ATOM     88  C   UNL A   1      40.733  34.809  36.832  1.00  0.00     0.135 A 
ATOM     89  C   UNL A   1      39.123  33.331  37.836  1.00  0.00     0.135 A 
ATOM     90  F   UNL A   1      41.636  35.095  35.880  1.00  0.00    -0.206 F 
ATOM     91  C   UNL A   1      40.519  35.742  37.841  1.00  0.00     0.059 A 
ATOM     92  C   UNL A   1      38.873  34.261  38.840  1.00  0.00     0.059 A 
ATOM     93  F   UNL A   1      38.438  32.176  37.859  1.00  0.00    -0.206 F 
ATOM     94  C   UNL A   1      39.588  35.458  38.842  1.00  0.00     0.060 A 
BRANCH  94  95
ATOM     95  S   UNL A   1      39.302  36.683  40.137  1.00  0.00     0.124 S 
ATOM     96  O   UNL A   1      38.358  35.981  41.000  1.00  0.00    -0.237 OA
ATOM     97  O   UNL A   1      40.641  36.876  40.688  1.00  0.00    -0.237 OA
ATOM     98  O   UNL A   1      38.760  37.826  39.410  1.00  0.00    -0.744 OA
ENDBRANCH  94  95
ENDBRANCH  62  87
ENDBRANCH  36  37
ENDBRANCH  28  31
ENDBRANCH  26  27
ENDBRANCH  25  26
ENDBRANCH  24  25
ENDBRANCH   1  24
TORSDOF 19
ENDMDL
MODEL 2
REMARK VINA RESULT:     -10.8      1.611      2.872
REMARK SMILES CC[C@H](C)[C@@H](C)NC(=O)c1ccncc1/C=C/C(=O)NCCCCNC(=O)c1ccc(-c2c3nc(c(-c4c(F)cc(S(=O)(=O)[O-])cc4F)c4ccc([nH]4)c(-c4c(F)cc(S(=O)(=O)[O-])cc4F)c4nc(c(-c5c(F)cc(S(=O)(=O)[O-])cc5F)c5ccc2[nH]5)C=C4)C=C3)cc1
REMARK SMILES IDX 21 1 20 2 18 3 19 4 17 6 16 7 15 8 10 9 11 10 12 11 14 12
REMARK SMILES IDX 13 13 8 14 7 15 9 17 5 18 6 19 3 20 4 21 2 22 1 23 22 24
REMARK SMILES IDX 23 25 24 26 25 27 26 28 27 30 28 31 29 32 93 33 30 34 92 35
REMARK SMILES IDX 31 36 32 37 33 38 86 39 34 40 91 41 85 42 87 43 35 44 90 45
REMARK SMILES IDX 84 46 83 47 36 49 70 50 49 51 69 52 50 53 53 54 68 55 88 56
REMARK SMILES IDX 51 57 52 58 67 60 89 61 54 62 37 63 38 64 47 65 39 66 40 67
REMARK SMILES IDX 46 68 48 69 41 70 42 71 43 72 44 73 45 74 71 75 72 76 81 77
REMARK SMILES IDX 73 78 74 79 80 80 82 81 75 82 76 83 77 84 78 85 79 86 55 87
REMARK SMILES IDX 56 88 65 89 57 90 58 91 64 92 66 93 59 94 60 95 61 96 62 97
REMARK SMILES IDX 63 98
REMARK H PARENT 20 5 7 16 25 29 87 48 53 59
REMARK Flexibility Score: inf
ROOT
ATOM      1  C   UNL A   1      36.603  22.864  25.591  1.00  0.00     0.116 C 
ENDROOT
BRANCH   1   2
ATOM      2  N   UNL A   1      35.903  22.916  24.321  1.00  0.00    -0.353 N 
ATOM      3  C   UNL A   1      35.001  23.824  23.863  1.00  0.00     0.244 C 
ATOM      4  O   UNL A   1      34.569  23.743  22.715  1.00  0.00    -0.270 OA
ATOM      5  H   UNL A   1      36.111  22.183  23.698  1.00  0.00     0.163 HD
BRANCH   3   6
ATOM      6  C   UNL A   1      34.598  24.977  24.701  1.00  0.00     0.072 C 
ATOM      7  C   UNL A   1      33.331  25.365  24.919  1.00  0.00     0.016 C 
BRANCH   7   8
ATOM      8  C   UNL A   1      32.993  26.518  25.768  1.00  0.00     0.006 A 
ATOM      9  C   UNL A   1      31.678  26.959  25.996  1.00  0.00     0.050 A 
ATOM     10  C   UNL A   1      31.434  28.027  26.865  1.00  0.00     0.034 A 
ATOM     11  C   UNL A   1      32.517  28.684  27.415  1.00  0.00     0.112 A 
ATOM     12  C   UNL A   1      34.001  27.268  26.369  1.00  0.00     0.119 A 
ATOM     13  N   UNL A   1      33.796  28.340  27.173  1.00  0.00    -0.264 NA
BRANCH   9  14
ATOM     14  C   UNL A   1      30.515  26.256  25.409  1.00  0.00     0.252 C 
ATOM     15  N   UNL A   1      29.836  26.794  24.345  1.00  0.00    -0.349 N 
ATOM     16  H   UNL A   1      29.041  26.282  24.070  1.00  0.00     0.164 HD
ATOM     17  O   UNL A   1      30.149  25.182  25.877  1.00  0.00    -0.269 OA
BRANCH  15  18
ATOM     18  C   UNL A   1      30.087  28.000  23.548  1.00  0.00     0.082 C 
ATOM     19  C   UNL A   1      28.742  28.483  22.999  1.00  0.00     0.031 C 
BRANCH  18  20
ATOM     20  C   UNL A   1      31.125  27.704  22.430  1.00  0.00     0.008 C 
ATOM     21  C   UNL A   1      32.483  28.362  22.709  1.00  0.00     0.010 C 
BRANCH  20  22
ATOM     22  C   UNL A   1      31.299  26.189  22.164  1.00  0.00     0.002 C 
ATOM     23  C   UNL A   1      32.371  25.828  21.141  1.00  0.00     0.004 C 
ENDBRANCH  20  22
ENDBRANCH  18  20
ENDBRANCH  15  18
ENDBRANCH   9  14
ENDBRANCH   7   8
ENDBRANCH   3   6
ENDBRANCH   1   2
BRANCH   1  24
ATOM     24  C   UNL A   1      37.962  22.182  25.436  1.00  0.00     0.023 C 
BRANCH  24  25
ATOM     25  C   UNL A   1      38.914  22.414  26.614  1.00  0.00     0.023 C 
BRANCH  25  26
ATOM     26  C   UNL A   1      39.356  23.861  26.807  1.00  0.00     0.116 C 
BRANCH  26  27
ATOM     27  N   UNL A   1      40.490  24.230  25.976  1.00  0.00    -0.352 N 
ATOM     28  C   UNL A   1      41.267  25.363  26.041  1.00  0.00     0.251 C 
ATOM     29  H   UNL A   1      40.734  23.583  25.275  1.00  0.00     0.163 HD
ATOM     30  O   UNL A   1      42.107  25.583  25.181  1.00  0.00    -0.269 OA
BRANCH  28  31
ATOM     31  C   UNL A   1      41.051  26.326  27.144  1.00  0.00     0.039 A 
ATOM     32  C   UNL A   1      40.138  26.004  28.150  1.00  0.00     0.014 A 
ATOM     33  C   UNL A   1      41.750  27.535  27.188  1.00  0.00     0.014 A 
ATOM     34  C   UNL A   1      39.961  26.875  29.228  1.00  0.00     0.010 A 
ATOM     35  C   UNL A   1      41.628  28.367  28.296  1.00  0.00     0.010 A 
ATOM     36  C   UNL A   1      40.722  28.052  29.321  1.00  0.00    -0.014 A 
BRANCH  36  37
ATOM     37  C   UNL A   1      40.556  28.986  30.463  1.00  0.00     0.031 A 
ATOM     38  C   UNL A   1      41.425  28.836  31.684  1.00  0.00     0.074 A 
ATOM     39  C   UNL A   1      39.593  29.927  30.427  1.00  0.00     0.049 A 
ATOM     40  N   UNL A   1      41.398  29.509  32.805  1.00  0.00    -0.248 NA
ATOM     41  C   UNL A   1      42.438  27.768  31.650  1.00  0.00     0.031 C 
ATOM     42  C   UNL A   1      38.652  30.132  29.324  1.00  0.00     0.029 A 
ATOM     43  N   UNL A   1      39.240  30.881  31.346  1.00  0.00    -0.354 N 
ATOM     44  C   UNL A   1      42.374  28.936  33.613  1.00  0.00     0.074 A 
ATOM     45  C   UNL A   1      42.934  27.825  32.877  1.00  0.00     0.031 C 
ATOM     46  C   UNL A   1      37.842  31.162  29.624  1.00  0.00     0.029 A 
ATOM     47  C   UNL A   1      38.187  31.671  30.948  1.00  0.00     0.049 A 
ATOM     48  H   UNL A   1      39.698  30.991  32.211  1.00  0.00     0.167 HD
ATOM     49  C   UNL A   1      42.787  29.319  34.845  1.00  0.00     0.037 A 
ATOM     50  C   UNL A   1      37.573  32.690  31.578  1.00  0.00     0.037 A 
ATOM     51  C   UNL A   1      42.246  30.446  35.560  1.00  0.00     0.049 A 
ATOM     52  C   UNL A   1      38.073  33.123  32.930  1.00  0.00     0.074 A 
ATOM     53  C   UNL A   1      42.621  30.945  36.795  1.00  0.00     0.029 A 
ATOM     54  N   UNL A   1      41.218  31.255  35.098  1.00  0.00    -0.354 N 
ATOM     55  N   UNL A   1      39.033  32.604  33.658  1.00  0.00    -0.248 NA
ATOM     56  C   UNL A   1      37.420  34.290  33.537  1.00  0.00     0.031 C 
ATOM     57  C   UNL A   1      41.802  32.039  37.092  1.00  0.00     0.029 A 
ATOM     58  C   UNL A   1      40.945  32.249  36.023  1.00  0.00     0.049 A 
ATOM     59  H   UNL A   1      40.751  31.139  34.239  1.00  0.00     0.167 HD
ATOM     60  C   UNL A   1      39.122  33.401  34.794  1.00  0.00     0.074 A 
ATOM     61  C   UNL A   1      38.123  34.441  34.652  1.00  0.00     0.031 C 
ATOM     62  C   UNL A   1      39.958  33.287  35.855  1.00  0.00     0.037 A 
BRANCH  49  63
ATOM     63  C   UNL A   1      43.885  28.516  35.488  1.00  0.00     0.058 A 
ATOM     64  C   UNL A   1      43.602  27.470  36.382  1.00  0.00     0.135 A 
ATOM     65  C   UNL A   1      45.232  28.783  35.199  1.00  0.00     0.135 A 
ATOM     66  F   UNL A   1      42.331  27.182  36.707  1.00  0.00    -0.206 F 
ATOM     67  C   UNL A   1      44.616  26.744  36.997  1.00  0.00     0.059 A 
ATOM     68  C   UNL A   1      46.262  28.049  35.780  1.00  0.00     0.059 A 
ATOM     69  F   UNL A   1      45.560  29.770  34.351  1.00  0.00    -0.206 F 
ATOM     70  C   UNL A   1      45.945  27.043  36.692  1.00  0.00     0.060 A 
BRANCH  70  71
ATOM     71  S   UNL A   1      47.250  26.094  37.502  1.00  0.00     0.124 S 
ATOM     72  O   UNL A   1      48.280  27.113  37.681  1.00  0.00    -0.237 OA
ATOM     73  O   UNL A   1      46.594  25.636  38.721  1.00  0.00    -0.237 OA
ATOM     74  O   UNL A   1      47.562  25.049  36.531  1.00  0.00    -0.744 OA
ENDBRANCH  70  71
ENDBRANCH  49  63
BRANCH  50  75
ATOM     75  C   UNL A   1      36.446  33.400  30.916  1.00  0.00     0.058 A 
ATOM     76  C   UNL A   1      35.142  33.315  31.422  1.00  0.00     0.135 A 
ATOM     77  C   UNL A   1      36.654  34.194  29.776  1.00  0.00     0.135 A 
ATOM     78  F   UNL A   1      34.893  32.567  32.508  1.00  0.00    -0.206 F 
ATOM     79  C   UNL A   1      34.078  33.975  30.815  1.00  0.00     0.059 A 
ATOM     80  C   UNL A   1      35.611  34.882  29.165  1.00  0.00     0.059 A 
ATOM     81  F   UNL A   1      37.888  34.324  29.263  1.00  0.00    -0.206 F 
ATOM     82  C   UNL A   1      34.323  34.758  29.686  1.00  0.00     0.060 A 
BRANCH  82  83
ATOM     83  S   UNL A   1      32.945  35.651  28.935  1.00  0.00     0.124 S 
ATOM     84  O   UNL A   1      33.636  36.743  28.260  1.00  0.00    -0.237 OA
ATOM     85  O   UNL A   1      32.354  34.636  28.069  1.00  0.00    -0.237 OA
ATOM     86  O   UNL A   1      32.129  36.034  30.085  1.00  0.00    -0.744 OA
ENDBRANCH  82  83
ENDBRANCH  50  75
BRANCH  62  87
ATOM     87  C   UNL A   1      39.867  34.341  36.923  1.00  0.00     0.058 A 
ATOM     88  C   UNL A   1      40.610  35.530  36.857  1.00  0.00     0.135 A 
ATOM     89  C   UNL A   1      38.990  34.173  38.007  1.00  0.00     0.135 A 
ATOM     90  F   UNL A   1      41.465  35.737  35.842  1.00  0.00    -0.206 F 
ATOM     91  C   UNL A   1      40.509  36.503  37.845  1.00  0.00     0.059 A 
ATOM     92  C   UNL A   1      38.854  35.145  38.993  1.00  0.00     0.059 A 
ATOM     93  F   UNL A   1      38.248  33.059  38.111  1.00  0.00    -0.206 F 
ATOM     94  C   UNL A   1      39.630  36.301  38.911  1.00  0.00     0.060 A 
BRANCH  94  95
ATOM     95  S   UNL A   1      39.492  37.579  40.178  1.00  0.00     0.124 S 
ATOM     96  O   UNL A   1      38.455  38.438  39.616  1.00  0.00    -0.237 OA
ATOM     97  O   UNL A   1      39.107  36.810  41.359  1.00  0.00    -0.237 OA
ATOM     98  O   UNL A   1      40.830  38.158  40.225  1.00  0.00    -0.744 OA
ENDBRANCH  94  95
ENDBRANCH  62  87
ENDBRANCH  36  37
ENDBRANCH  28  31
ENDBRANCH  26  27
ENDBRANCH  25  26
ENDBRANCH  24  25
ENDBRANCH   1  24
TORSDOF 19
ENDMDL
MODEL 3
REMARK VINA RESULT:     -10.8      4.970      6.854
REMARK SMILES CC[C@H](C)[C@@H](C)NC(=O)c1ccncc1/C=C/C(=O)NCCCCNC(=O)c1ccc(-c2c3nc(c(-c4c(F)cc(S(=O)(=O)[O-])cc4F)c4ccc([nH]4)c(-c4c(F)cc(S(=O)(=O)[O-])cc4F)c4nc(c(-c5c(F)cc(S(=O)(=O)[O-])cc5F)c5ccc2[nH]5)C=C4)C=C3)cc1
REMARK SMILES IDX 21 1 20 2 18 3 19 4 17 6 16 7 15 8 10 9 11 10 12 11 14 12
REMARK SMILES IDX 13 13 8 14 7 15 9 17 5 18 6 19 3 20 4 21 2 22 1 23 22 24
REMARK SMILES IDX 23 25 24 26 25 27 26 28 27 30 28 31 29 32 93 33 30 34 92 35
REMARK SMILES IDX 31 36 32 37 33 38 86 39 34 40 91 41 85 42 87 43 35 44 90 45
REMARK SMILES IDX 84 46 83 47 36 49 70 50 49 51 69 52 50 53 53 54 68 55 88 56
REMARK SMILES IDX 51 57 52 58 67 60 89 61 54 62 37 63 38 64 47 65 39 66 40 67
REMARK SMILES IDX 46 68 48 69 41 70 42 71 43 72 44 73 45 74 71 75 72 76 81 77
REMARK SMILES IDX 73 78 74 79 80 80 82 81 75 82 76 83 77 84 78 85 79 86 55 87
REMARK SMILES IDX 56 88 65 89 57 90 58 91 64 92 66 93 59 94 60 95 61 96 62 97
REMARK SMILES IDX 63 98
REMARK H PARENT 20 5 7 16 25 29 87 48 53 59
REMARK Flexibility Score: inf
ROOT
ATOM      1  C   UNL A   1      33.321  22.253  25.883  1.00  0.00     0.116 C 
ENDROOT
BRANCH   1   2
ATOM      2  N   UNL A   1      32.031  22.241  26.549  1.00  0.00    -0.353 N 
ATOM      3  C   UNL A   1      31.211  23.275  26.873  1.00  0.00     0.244 C 
ATOM      4  O   UNL A   1      30.108  23.059  27.371  1.00  0.00    -0.270 OA
ATOM      5  H   UNL A   1      31.700  21.350  26.805  1.00  0.00     0.163 HD
BRANCH   3   6
ATOM      6  C   UNL A   1      31.588  24.669  26.544  1.00  0.00     0.072 C 
ATOM      7  C   UNL A   1      30.722  25.684  26.386  1.00  0.00     0.016 C 
BRANCH   7   8
ATOM      8  C   UNL A   1      31.159  27.052  26.064  1.00  0.00     0.006 A 
ATOM      9  C   UNL A   1      31.008  27.640  24.797  1.00  0.00     0.050 A 
ATOM     10  C   UNL A   1      31.394  28.968  24.586  1.00  0.00     0.034 A 
ATOM     11  C   UNL A   1      32.001  29.645  25.625  1.00  0.00     0.112 A 
ATOM     12  C   UNL A   1      31.795  27.831  27.028  1.00  0.00     0.119 A 
ATOM     13  N   UNL A   1      32.227  29.102  26.836  1.00  0.00    -0.264 NA
BRANCH   9  14
ATOM     14  C   UNL A   1      30.357  26.917  23.682  1.00  0.00     0.252 C 
ATOM     15  N   UNL A   1      31.090  26.113  22.845  1.00  0.00    -0.349 N 
ATOM     16  H   UNL A   1      30.576  25.728  22.099  1.00  0.00     0.164 HD
ATOM     17  O   UNL A   1      29.150  27.035  23.498  1.00  0.00    -0.269 OA
BRANCH  15  18
ATOM     18  C   UNL A   1      32.505  25.729  22.869  1.00  0.00     0.082 C 
ATOM     19  C   UNL A   1      33.268  26.710  21.975  1.00  0.00     0.031 C 
BRANCH  18  20
ATOM     20  C   UNL A   1      32.675  24.250  22.425  1.00  0.00     0.008 C 
ATOM     21  C   UNL A   1      34.070  23.701  22.752  1.00  0.00     0.010 C 
BRANCH  20  22
ATOM     22  C   UNL A   1      31.577  23.325  23.004  1.00  0.00     0.002 C 
ATOM     23  C   UNL A   1      31.775  21.837  22.738  1.00  0.00     0.004 C 
ENDBRANCH  20  22
ENDBRANCH  18  20
ENDBRANCH  15  18
ENDBRANCH   9  14
ENDBRANCH   7   8
ENDBRANCH   3   6
ENDBRANCH   1   2
BRANCH   1  24
ATOM     24  C   UNL A   1      34.444  22.544  26.878  1.00  0.00     0.023 C 
BRANCH  24  25
ATOM     25  C   UNL A   1      35.101  23.916  26.693  1.00  0.00     0.023 C 
BRANCH  25  26
ATOM     26  C   UNL A   1      36.295  23.933  25.744  1.00  0.00     0.116 C 
BRANCH  26  27
ATOM     27  N   UNL A   1      37.131  22.749  25.855  1.00  0.00    -0.352 N 
ATOM     28  C   UNL A   1      38.454  22.666  26.222  1.00  0.00     0.251 C 
ATOM     29  H   UNL A   1      36.693  21.894  25.637  1.00  0.00     0.163 HD
ATOM     30  O   UNL A   1      39.050  21.601  26.139  1.00  0.00    -0.269 OA
BRANCH  28  31
ATOM     31  C   UNL A   1      39.154  23.884  26.687  1.00  0.00     0.039 A 
ATOM     32  C   UNL A   1      39.781  24.701  25.743  1.00  0.00     0.014 A 
ATOM     33  C   UNL A   1      39.186  24.220  28.042  1.00  0.00     0.014 A 
ATOM     34  C   UNL A   1      40.400  25.883  26.157  1.00  0.00     0.010 A 
ATOM     35  C   UNL A   1      39.739  25.432  28.443  1.00  0.00     0.010 A 
ATOM     36  C   UNL A   1      40.364  26.269  27.506  1.00  0.00    -0.014 A 
BRANCH  36  37
ATOM     37  C   UNL A   1      41.007  27.527  27.963  1.00  0.00     0.031 A 
ATOM     38  C   UNL A   1      42.501  27.684  27.860  1.00  0.00     0.074 A 
ATOM     39  C   UNL A   1      40.259  28.500  28.519  1.00  0.00     0.049 A 
ATOM     40  N   UNL A   1      43.257  28.675  28.256  1.00  0.00    -0.248 NA
ATOM     41  C   UNL A   1      43.245  26.564  27.261  1.00  0.00     0.031 C 
ATOM     42  C   UNL A   1      38.810  28.440  28.726  1.00  0.00     0.029 A 
ATOM     43  N   UNL A   1      40.615  29.726  29.021  1.00  0.00    -0.354 N 
ATOM     44  C   UNL A   1      44.563  28.292  27.969  1.00  0.00     0.074 A 
ATOM     45  C   UNL A   1      44.501  26.956  27.422  1.00  0.00     0.031 C 
ATOM     46  C   UNL A   1      38.400  29.587  29.293  1.00  0.00     0.029 A 
ATOM     47  C   UNL A   1      39.556  30.450  29.515  1.00  0.00     0.049 A 
ATOM     48  H   UNL A   1      41.543  30.056  29.026  1.00  0.00     0.167 HD
ATOM     49  C   UNL A   1      45.707  29.001  28.121  1.00  0.00     0.037 A 
ATOM     50  C   UNL A   1      39.522  31.672  30.080  1.00  0.00     0.037 A 
ATOM     51  C   UNL A   1      45.758  30.343  28.639  1.00  0.00     0.049 A 
ATOM     52  C   UNL A   1      40.800  32.457  30.204  1.00  0.00     0.074 A 
ATOM     53  C   UNL A   1      46.860  31.166  28.794  1.00  0.00     0.029 A 
ATOM     54  N   UNL A   1      44.656  31.064  29.077  1.00  0.00    -0.354 N 
ATOM     55  N   UNL A   1      42.021  32.101  29.879  1.00  0.00    -0.248 NA
ATOM     56  C   UNL A   1      40.695  33.815  30.754  1.00  0.00     0.031 C 
ATOM     57  C   UNL A   1      46.428  32.374  29.352  1.00  0.00     0.029 A 
ATOM     58  C   UNL A   1      45.051  32.321  29.504  1.00  0.00     0.049 A 
ATOM     59  H   UNL A   1      43.731  30.730  29.083  1.00  0.00     0.167 HD
ATOM     60  C   UNL A   1      42.824  33.202  30.153  1.00  0.00     0.074 A 
ATOM     61  C   UNL A   1      41.950  34.239  30.664  1.00  0.00     0.031 C 
ATOM     62  C   UNL A   1      44.163  33.345  29.992  1.00  0.00     0.037 A 
BRANCH  49  63
ATOM     63  C   UNL A   1      46.993  28.336  27.710  1.00  0.00     0.058 A 
ATOM     64  C   UNL A   1      47.758  27.590  28.622  1.00  0.00     0.135 A 
ATOM     65  C   UNL A   1      47.460  28.431  26.390  1.00  0.00     0.135 A 
ATOM     66  F   UNL A   1      47.367  27.480  29.902  1.00  0.00    -0.206 F 
ATOM     67  C   UNL A   1      48.959  26.997  28.250  1.00  0.00     0.059 A 
ATOM     68  C   UNL A   1      48.644  27.820  25.988  1.00  0.00     0.059 A 
ATOM     69  F   UNL A   1      46.768  29.130  25.476  1.00  0.00    -0.206 F 
ATOM     70  C   UNL A   1      49.396  27.120  26.931  1.00  0.00     0.060 A 
BRANCH  70  71
ATOM     71  S   UNL A   1      50.960  26.348  26.465  1.00  0.00     0.124 S 
ATOM     72  O   UNL A   1      50.743  26.087  25.045  1.00  0.00    -0.237 OA
ATOM     73  O   UNL A   1      51.930  27.393  26.776  1.00  0.00    -0.237 OA
ATOM     74  O   UNL A   1      51.023  25.166  27.318  1.00  0.00    -0.744 OA
ENDBRANCH  70  71
ENDBRANCH  49  63
BRANCH  50  75
ATOM     75  C   UNL A   1      38.226  32.246  30.529  1.00  0.00     0.058 A 
ATOM     76  C   UNL A   1      37.784  32.086  31.850  1.00  0.00     0.135 A 
ATOM     77  C   UNL A   1      37.412  32.982  29.653  1.00  0.00     0.135 A 
ATOM     78  F   UNL A   1      38.526  31.389  32.724  1.00  0.00    -0.206 F 
ATOM     79  C   UNL A   1      36.575  32.619  32.286  1.00  0.00     0.059 A 
ATOM     80  C   UNL A   1      36.210  33.544  30.070  1.00  0.00     0.059 A 
ATOM     81  F   UNL A   1      37.799  33.180  28.383  1.00  0.00    -0.206 F 
ATOM     82  C   UNL A   1      35.795  33.347  31.387  1.00  0.00     0.060 A 
BRANCH  82  83
ATOM     83  S   UNL A   1      34.251  34.078  31.975  1.00  0.00     0.124 S 
ATOM     84  O   UNL A   1      34.738  35.225  32.731  1.00  0.00    -0.237 OA
ATOM     85  O   UNL A   1      33.559  34.382  30.727  1.00  0.00    -0.237 OA
ATOM     86  O   UNL A   1      33.654  33.006  32.767  1.00  0.00    -0.744 OA
ENDBRANCH  82  83
ENDBRANCH  50  75
BRANCH  62  87
ATOM     87  C   UNL A   1      44.758  34.686  30.320  1.00  0.00     0.058 A 
ATOM     88  C   UNL A   1      45.259  34.984  31.596  1.00  0.00     0.135 A 
ATOM     89  C   UNL A   1      44.865  35.672  29.325  1.00  0.00     0.135 A 
ATOM     90  F   UNL A   1      45.178  34.077  32.583  1.00  0.00    -0.206 F 
ATOM     91  C   UNL A   1      45.818  36.225  31.884  1.00  0.00     0.059 A 
ATOM     92  C   UNL A   1      45.445  36.910  29.583  1.00  0.00     0.059 A 
ATOM     93  F   UNL A   1      44.412  35.433  28.083  1.00  0.00    -0.206 F 
ATOM     94  C   UNL A   1      45.904  37.183  30.871  1.00  0.00     0.060 A 
BRANCH  94  95
ATOM     95  S   UNL A   1      46.649  38.783  31.250  1.00  0.00     0.124 S 
ATOM     96  O   UNL A   1      45.483  39.661  31.227  1.00  0.00    -0.237 OA
ATOM     97  O   UNL A   1      47.242  38.551  32.564  1.00  0.00    -0.237 OA
ATOM     98  O   UNL A   1      47.604  38.979  30.164  1.00  0.00    -0.744 OA
ENDBRANCH  94  95
ENDBRANCH  62  87
ENDBRANCH  36  37
ENDBRANCH  28  31
ENDBRANCH  26  27
ENDBRANCH  25  26
ENDBRANCH  24  25
ENDBRANCH   1  24
TORSDOF 19
ENDMDL
