MODEL 1
REMARK VINA RESULT:     -12.8      0.000      0.000
REMARK SMILES O=C(NCCCCNC(=O)c1cccc(F)c1N1CCN2C(=O)NC[C@@H]2C1)c1ccc(-c2c3nc(c(-c4c(F)cc(S(=O)(=O)[O-])cc4F)c4ccc([nH]4)c(-c4c(F)cc(S(=O)(=O)[O-])cc4F)c4nc(c(-c5c(F)cc(S(=O)(=O)[O-])cc5F)c5ccc2[nH]5)C=C4)C=C3)cc1
REMARK SMILES IDX 4 1 3 2 1 3 2 4 28 6 29 7 93 8 30 9 92 10 31 11 32 12 33 13
REMARK SMILES IDX 86 14 34 15 91 16 85 17 87 18 35 19 90 20 84 21 83 22 36 24
REMARK SMILES IDX 70 25 49 26 69 27 50 28 53 29 68 30 88 31 51 32 52 33 67 35
REMARK SMILES IDX 89 36 54 37 37 38 38 39 47 40 39 41 40 42 46 43 48 44 41 45
REMARK SMILES IDX 42 46 43 47 44 48 45 49 71 50 72 51 81 52 73 53 74 54 80 55
REMARK SMILES IDX 82 56 75 57 76 58 77 59 78 60 79 61 55 62 56 63 65 64 57 65
REMARK SMILES IDX 58 66 64 67 66 68 59 69 60 70 61 71 62 72 63 73 5 74 6 75
REMARK SMILES IDX 7 76 8 77 9 78 10 80 11 81 12 82 17 83 13 84 15 85 14 86
REMARK SMILES IDX 16 87 18 88 19 89 27 90 20 91 26 92 21 93 25 94 22 95 24 96
REMARK SMILES IDX 23 97
REMARK H PARENT 3 5 87 23 53 34 8 79 24 98
REMARK Flexibility Score: inf
ROOT
ATOM      1  C   UNL A   1      35.628  31.346  28.340  1.00  0.00     0.116 C 
ENDROOT
BRANCH   1   2
ATOM      2  N   UNL A   1      35.467  31.059  29.758  1.00  0.00    -0.352 N 
ATOM      3  O   UNL A   1      35.927  30.107  31.749  1.00  0.00    -0.269 OA
ATOM      4  C   UNL A   1      36.293  30.356  30.605  1.00  0.00     0.251 C 
ATOM      5  H   UNL A   1      34.649  31.420  30.170  1.00  0.00     0.163 HD
BRANCH   4   6
ATOM      6  C   UNL A   1      37.603  29.874  30.117  1.00  0.00     0.039 A 
ATOM      7  C   UNL A   1      38.516  29.291  30.998  1.00  0.00     0.014 A 
ATOM      8  C   UNL A   1      37.935  30.037  28.770  1.00  0.00     0.014 A 
ATOM      9  C   UNL A   1      39.817  29.044  30.576  1.00  0.00     0.010 A 
ATOM     10  C   UNL A   1      39.213  29.687  28.323  1.00  0.00     0.010 A 
ATOM     11  C   UNL A   1      40.179  29.226  29.231  1.00  0.00    -0.014 A 
BRANCH  11  12
ATOM     12  C   UNL A   1      41.557  28.879  28.795  1.00  0.00     0.031 A 
ATOM     13  C   UNL A   1      42.674  29.885  28.858  1.00  0.00     0.074 A 
ATOM     14  C   UNL A   1      41.801  27.624  28.369  1.00  0.00     0.049 A 
ATOM     15  N   UNL A   1      43.933  29.737  28.529  1.00  0.00    -0.248 NA
ATOM     16  C   UNL A   1      42.338  31.231  29.346  1.00  0.00     0.031 C 
ATOM     17  C   UNL A   1      40.797  26.563  28.270  1.00  0.00     0.029 A 
ATOM     18  N   UNL A   1      42.963  27.020  27.965  1.00  0.00    -0.354 N 
ATOM     19  C   UNL A   1      44.537  30.967  28.758  1.00  0.00     0.074 A 
ATOM     20  C   UNL A   1      43.497  31.864  29.217  1.00  0.00     0.031 C 
ATOM     21  C   UNL A   1      41.394  25.426  27.889  1.00  0.00     0.029 A 
ATOM     22  C   UNL A   1      42.807  25.693  27.643  1.00  0.00     0.049 A 
ATOM     23  H   UNL A   1      43.826  27.491  27.910  1.00  0.00     0.167 HD
ATOM     24  C   UNL A   1      45.840  31.312  28.612  1.00  0.00     0.037 A 
ATOM     25  C   UNL A   1      43.693  24.788  27.184  1.00  0.00     0.037 A 
ATOM     26  C   UNL A   1      46.865  30.409  28.150  1.00  0.00     0.049 A 
ATOM     27  C   UNL A   1      45.118  25.205  26.976  1.00  0.00     0.074 A 
ATOM     28  C   UNL A   1      48.216  30.657  27.976  1.00  0.00     0.029 A 
ATOM     29  N   UNL A   1      46.656  29.085  27.782  1.00  0.00    -0.354 N 
ATOM     30  N   UNL A   1      45.673  26.372  27.206  1.00  0.00    -0.248 NA
ATOM     31  C   UNL A   1      46.037  24.191  26.447  1.00  0.00     0.031 C 
ATOM     32  C   UNL A   1      48.810  29.505  27.451  1.00  0.00     0.029 A 
ATOM     33  C   UNL A   1      47.847  28.514  27.361  1.00  0.00     0.049 A 
ATOM     34  H   UNL A   1      45.789  28.621  27.817  1.00  0.00     0.167 HD
ATOM     35  C   UNL A   1      47.013  26.227  26.867  1.00  0.00     0.074 A 
ATOM     36  C   UNL A   1      47.184  24.857  26.426  1.00  0.00     0.031 C 
ATOM     37  C   UNL A   1      48.007  27.147  26.921  1.00  0.00     0.037 A 
BRANCH  24  38
ATOM     38  C   UNL A   1      46.232  32.731  28.935  1.00  0.00     0.058 A 
ATOM     39  C   UNL A   1      46.222  33.722  27.940  1.00  0.00     0.135 A 
ATOM     40  C   UNL A   1      46.651  33.108  30.222  1.00  0.00     0.135 A 
ATOM     41  F   UNL A   1      45.833  33.422  26.691  1.00  0.00    -0.206 F 
ATOM     42  C   UNL A   1      46.611  35.031  28.207  1.00  0.00     0.059 A 
ATOM     43  C   UNL A   1      47.016  34.419  30.520  1.00  0.00     0.059 A 
ATOM     44  F   UNL A   1      46.667  32.208  31.219  1.00  0.00    -0.206 F 
ATOM     45  C   UNL A   1      46.999  35.373  29.503  1.00  0.00     0.060 A 
BRANCH  45  46
ATOM     46  S   UNL A   1      47.421  37.094  29.852  1.00  0.00     0.124 S 
ATOM     47  O   UNL A   1      47.687  37.054  31.285  1.00  0.00    -0.237 OA
ATOM     48  O   UNL A   1      48.583  37.304  28.992  1.00  0.00    -0.237 OA
ATOM     49  O   UNL A   1      46.221  37.823  29.453  1.00  0.00    -0.744 OA
ENDBRANCH  45  46
ENDBRANCH  24  38
BRANCH  25  50
ATOM     50  C   UNL A   1      43.234  23.400  26.920  1.00  0.00     0.058 A 
ATOM     51  C   UNL A   1      43.040  22.487  27.970  1.00  0.00     0.135 A 
ATOM     52  C   UNL A   1      43.078  22.932  25.608  1.00  0.00     0.135 A 
ATOM     53  F   UNL A   1      43.190  22.883  29.243  1.00  0.00    -0.206 F 
ATOM     54  C   UNL A   1      42.757  21.148  27.726  1.00  0.00     0.059 A 
ATOM     55  C   UNL A   1      42.767  21.602  25.339  1.00  0.00     0.059 A 
ATOM     56  F   UNL A   1      43.245  23.770  24.574  1.00  0.00    -0.206 F 
ATOM     57  C   UNL A   1      42.634  20.714  26.406  1.00  0.00     0.060 A 
BRANCH  57  58
ATOM     58  S   UNL A   1      42.327  18.959  26.112  1.00  0.00     0.124 S 
ATOM     59  O   UNL A   1      43.273  18.673  25.039  1.00  0.00    -0.237 OA
ATOM     60  O   UNL A   1      42.642  18.374  27.411  1.00  0.00    -0.237 OA
ATOM     61  O   UNL A   1      40.918  18.922  25.732  1.00  0.00    -0.744 OA
ENDBRANCH  57  58
ENDBRANCH  25  50
BRANCH  37  62
ATOM     62  C   UNL A   1      49.389  26.706  26.520  1.00  0.00     0.058 A 
ATOM     63  C   UNL A   1      49.822  26.852  25.192  1.00  0.00     0.135 A 
ATOM     64  C   UNL A   1      50.254  26.070  27.424  1.00  0.00     0.135 A 
ATOM     65  F   UNL A   1      49.032  27.450  24.285  1.00  0.00    -0.206 F 
ATOM     66  C   UNL A   1      51.052  26.363  24.768  1.00  0.00     0.059 A 
ATOM     67  C   UNL A   1      51.504  25.600  27.029  1.00  0.00     0.059 A 
ATOM     68  F   UNL A   1      49.896  25.917  28.708  1.00  0.00    -0.206 F 
ATOM     69  C   UNL A   1      51.885  25.736  25.694  1.00  0.00     0.060 A 
BRANCH  69  70
ATOM     70  S   UNL A   1      53.481  25.111  25.126  1.00  0.00     0.124 S 
ATOM     71  O   UNL A   1      53.509  25.574  23.742  1.00  0.00    -0.237 OA
ATOM     72  O   UNL A   1      54.412  25.772  26.037  1.00  0.00    -0.237 OA
ATOM     73  O   UNL A   1      53.364  23.667  25.302  1.00  0.00    -0.744 OA
ENDBRANCH  69  70
ENDBRANCH  37  62
ENDBRANCH  11  12
ENDBRANCH   4   6
ENDBRANCH   1   2
BRANCH   1  74
ATOM     74  C   UNL A   1      34.531  30.738  27.475  1.00  0.00     0.023 C 
BRANCH  74  75
ATOM     75  C   UNL A   1      34.695  29.255  27.162  1.00  0.00     0.023 C 
BRANCH  75  76
ATOM     76  C   UNL A   1      33.760  28.708  26.089  1.00  0.00     0.116 C 
BRANCH  76  77
ATOM     77  N   UNL A   1      32.609  28.003  26.629  1.00  0.00    -0.352 N 
ATOM     78  C   UNL A   1      32.152  26.735  26.342  1.00  0.00     0.253 C 
ATOM     79  H   UNL A   1      32.080  28.503  27.292  1.00  0.00     0.163 HD
ATOM     80  O   UNL A   1      31.179  26.288  26.940  1.00  0.00    -0.269 OA
BRANCH  78  81
ATOM     81  C   UNL A   1      32.863  25.930  25.324  1.00  0.00     0.066 A 
ATOM     82  C   UNL A   1      33.986  25.204  25.777  1.00  0.00     0.016 A 
ATOM     83  C   UNL A   1      32.414  25.841  23.989  1.00  0.00     0.086 A 
ATOM     84  C   UNL A   1      34.757  24.466  24.887  1.00  0.00     0.004 A 
ATOM     85  C   UNL A   1      33.224  25.073  23.126  1.00  0.00     0.147 A 
ATOM     86  C   UNL A   1      34.383  24.418  23.552  1.00  0.00     0.041 A 
ATOM     87  F   UNL A   1      32.906  24.973  21.824  1.00  0.00    -0.205 F 
BRANCH  83  88
ATOM     88  N   UNL A   1      31.243  26.426  23.535  1.00  0.00    -0.365 N 
ATOM     89  C   UNL A   1      29.956  25.705  23.648  1.00  0.00     0.138 C 
ATOM     90  C   UNL A   1      31.247  27.610  22.656  1.00  0.00     0.143 C 
ATOM     91  C   UNL A   1      28.784  26.661  23.977  1.00  0.00     0.143 C 
ATOM     92  C   UNL A   1      30.159  28.579  23.126  1.00  0.00     0.125 C 
ATOM     93  N   UNL A   1      28.871  27.916  23.255  1.00  0.00    -0.317 N 
ATOM     94  C   UNL A   1      29.834  29.743  22.201  1.00  0.00     0.144 C 
ATOM     95  C   UNL A   1      27.842  28.799  22.985  1.00  0.00     0.317 C 
ATOM     96  N   UNL A   1      28.415  29.926  22.408  1.00  0.00    -0.336 N 
ATOM     97  O   UNL A   1      26.653  28.642  23.203  1.00  0.00    -0.249 OA
ATOM     98  H   UNL A   1      27.919  30.743  22.171  1.00  0.00     0.165 HD
ENDBRANCH  83  88
ENDBRANCH  78  81
ENDBRANCH  76  77
ENDBRANCH  75  76
ENDBRANCH  74  75
ENDBRANCH   1  74
TORSDOF 15
ENDMDL
MODEL 2
REMARK VINA RESULT:     -12.8      6.545     11.762
REMARK SMILES O=C(NCCCCNC(=O)c1cccc(F)c1N1CCN2C(=O)NC[C@@H]2C1)c1ccc(-c2c3nc(c(-c4c(F)cc(S(=O)(=O)[O-])cc4F)c4ccc([nH]4)c(-c4c(F)cc(S(=O)(=O)[O-])cc4F)c4nc(c(-c5c(F)cc(S(=O)(=O)[O-])cc5F)c5ccc2[nH]5)C=C4)C=C3)cc1
REMARK SMILES IDX 4 1 3 2 1 3 2 4 28 6 29 7 93 8 30 9 92 10 31 11 32 12 33 13
REMARK SMILES IDX 86 14 34 15 91 16 85 17 87 18 35 19 90 20 84 21 83 22 36 24
REMARK SMILES IDX 70 25 49 26 69 27 50 28 53 29 68 30 88 31 51 32 52 33 67 35
REMARK SMILES IDX 89 36 54 37 37 38 38 39 47 40 39 41 40 42 46 43 48 44 41 45
REMARK SMILES IDX 42 46 43 47 44 48 45 49 71 50 72 51 81 52 73 53 74 54 80 55
REMARK SMILES IDX 82 56 75 57 76 58 77 59 78 60 79 61 55 62 56 63 65 64 57 65
REMARK SMILES IDX 58 66 64 67 66 68 59 69 60 70 61 71 62 72 63 73 5 74 6 75
REMARK SMILES IDX 7 76 8 77 9 78 10 80 11 81 12 82 17 83 13 84 15 85 14 86
REMARK SMILES IDX 16 87 18 88 19 89 27 90 20 91 26 92 21 93 25 94 22 95 24 96
REMARK SMILES IDX 23 97
REMARK H PARENT 3 5 87 23 53 34 8 79 24 98
REMARK Flexibility Score: inf
ROOT
ATOM      1  C   UNL A   1      38.438  24.014  26.438  1.00  0.00     0.116 C 
ENDROOT
BRANCH   1   2
ATOM      2  N   UNL A   1      39.857  23.919  26.126  1.00  0.00    -0.352 N 
ATOM      3  O   UNL A   1      42.023  24.544  26.096  1.00  0.00    -0.269 OA
ATOM      4  C   UNL A   1      40.902  24.696  26.571  1.00  0.00     0.251 C 
ATOM      5  H   UNL A   1      40.104  23.194  25.507  1.00  0.00     0.163 HD
BRANCH   4   6
ATOM      6  C   UNL A   1      40.658  25.735  27.595  1.00  0.00     0.039 A 
ATOM      7  C   UNL A   1      41.463  26.874  27.654  1.00  0.00     0.014 A 
ATOM      8  C   UNL A   1      39.633  25.552  28.526  1.00  0.00     0.014 A 
ATOM      9  C   UNL A   1      41.366  27.729  28.745  1.00  0.00     0.010 A 
ATOM     10  C   UNL A   1      39.467  26.474  29.564  1.00  0.00     0.010 A 
ATOM     11  C   UNL A   1      40.359  27.548  29.707  1.00  0.00    -0.014 A 
BRANCH  11  12
ATOM     12  C   UNL A   1      40.232  28.525  30.820  1.00  0.00     0.031 A 
ATOM     13  C   UNL A   1      41.134  28.463  32.023  1.00  0.00     0.074 A 
ATOM     14  C   UNL A   1      39.308  29.500  30.719  1.00  0.00     0.049 A 
ATOM     15  N   UNL A   1      41.162  29.247  33.071  1.00  0.00    -0.248 NA
ATOM     16  C   UNL A   1      42.129  27.380  32.059  1.00  0.00     0.031 C 
ATOM     17  C   UNL A   1      38.380  29.663  29.598  1.00  0.00     0.029 A 
ATOM     18  N   UNL A   1      39.008  30.548  31.551  1.00  0.00    -0.354 N 
ATOM     19  C   UNL A   1      42.165  28.751  33.895  1.00  0.00     0.074 A 
ATOM     20  C   UNL A   1      42.696  27.572  33.243  1.00  0.00     0.031 C 
ATOM     21  C   UNL A   1      37.656  30.775  29.783  1.00  0.00     0.029 A 
ATOM     22  C   UNL A   1      38.012  31.363  31.069  1.00  0.00     0.049 A 
ATOM     23  H   UNL A   1      39.463  30.702  32.411  1.00  0.00     0.167 HD
ATOM     24  C   UNL A   1      42.609  29.241  35.078  1.00  0.00     0.037 A 
ATOM     25  C   UNL A   1      37.432  32.454  31.603  1.00  0.00     0.037 A 
ATOM     26  C   UNL A   1      42.068  30.415  35.718  1.00  0.00     0.049 A 
ATOM     27  C   UNL A   1      37.901  32.948  32.939  1.00  0.00     0.074 A 
ATOM     28  C   UNL A   1      42.454  30.999  36.912  1.00  0.00     0.029 A 
ATOM     29  N   UNL A   1      41.022  31.183  35.222  1.00  0.00    -0.354 N 
ATOM     30  N   UNL A   1      38.856  32.470  33.702  1.00  0.00    -0.248 NA
ATOM     31  C   UNL A   1      37.216  34.122  33.491  1.00  0.00     0.031 C 
ATOM     32  C   UNL A   1      41.607  32.082  37.166  1.00  0.00     0.029 A 
ATOM     33  C   UNL A   1      40.735  32.219  36.098  1.00  0.00     0.049 A 
ATOM     34  H   UNL A   1      40.553  31.016  34.373  1.00  0.00     0.167 HD
ATOM     35  C   UNL A   1      38.902  33.298  34.816  1.00  0.00     0.074 A 
ATOM     36  C   UNL A   1      37.884  34.312  34.623  1.00  0.00     0.031 C 
ATOM     37  C   UNL A   1      39.716  33.223  35.897  1.00  0.00     0.037 A 
BRANCH  24  38
ATOM     38  C   UNL A   1      43.724  28.500  35.772  1.00  0.00     0.058 A 
ATOM     39  C   UNL A   1      43.441  27.472  36.686  1.00  0.00     0.135 A 
ATOM     40  C   UNL A   1      45.074  28.828  35.561  1.00  0.00     0.135 A 
ATOM     41  F   UNL A   1      42.170  27.114  36.930  1.00  0.00    -0.206 F 
ATOM     42  C   UNL A   1      44.452  26.796  37.362  1.00  0.00     0.059 A 
ATOM     43  C   UNL A   1      46.104  28.145  36.204  1.00  0.00     0.059 A 
ATOM     44  F   UNL A   1      45.407  29.792  34.687  1.00  0.00    -0.206 F 
ATOM     45  C   UNL A   1      45.782  27.134  37.109  1.00  0.00     0.060 A 
BRANCH  45  46
ATOM     46  S   UNL A   1      47.084  26.191  37.933  1.00  0.00     0.124 S 
ATOM     47  O   UNL A   1      46.317  25.349  38.842  1.00  0.00    -0.237 OA
ATOM     48  O   UNL A   1      47.721  25.506  36.811  1.00  0.00    -0.237 OA
ATOM     49  O   UNL A   1      47.898  27.225  38.566  1.00  0.00    -0.744 OA
ENDBRANCH  45  46
ENDBRANCH  24  38
BRANCH  25  50
ATOM     50  C   UNL A   1      36.362  33.147  30.841  1.00  0.00     0.058 A 
ATOM     51  C   UNL A   1      36.665  33.957  29.734  1.00  0.00     0.135 A 
ATOM     52  C   UNL A   1      35.027  33.094  31.266  1.00  0.00     0.135 A 
ATOM     53  F   UNL A   1      37.931  34.052  29.296  1.00  0.00    -0.206 F 
ATOM     54  C   UNL A   1      35.693  34.727  29.107  1.00  0.00     0.059 A 
ATOM     55  C   UNL A   1      34.030  33.834  30.637  1.00  0.00     0.059 A 
ATOM     56  F   UNL A   1      34.688  32.328  32.314  1.00  0.00    -0.206 F 
ATOM     57  C   UNL A   1      34.380  34.667  29.574  1.00  0.00     0.060 A 
BRANCH  57  58
ATOM     58  S   UNL A   1      33.146  35.721  28.784  1.00  0.00     0.124 S 
ATOM     59  O   UNL A   1      32.391  34.749  28.001  1.00  0.00    -0.237 OA
ATOM     60  O   UNL A   1      32.451  36.290  29.933  1.00  0.00    -0.237 OA
ATOM     61  O   UNL A   1      33.951  36.660  28.009  1.00  0.00    -0.744 OA
ENDBRANCH  57  58
ENDBRANCH  25  50
BRANCH  37  62
ATOM     62  C   UNL A   1      39.569  34.283  36.956  1.00  0.00     0.058 A 
ATOM     63  C   UNL A   1      40.226  35.518  36.817  1.00  0.00     0.135 A 
ATOM     64  C   UNL A   1      38.848  34.055  38.137  1.00  0.00     0.135 A 
ATOM     65  F   UNL A   1      40.933  35.788  35.708  1.00  0.00    -0.206 F 
ATOM     66  C   UNL A   1      40.193  36.477  37.822  1.00  0.00     0.059 A 
ATOM     67  C   UNL A   1      38.775  35.014  39.145  1.00  0.00     0.059 A 
ATOM     68  F   UNL A   1      38.191  32.898  38.314  1.00  0.00    -0.206 F 
ATOM     69  C   UNL A   1      39.467  36.215  38.984  1.00  0.00     0.060 A 
BRANCH  69  70
ATOM     70  S   UNL A   1      39.432  37.475  40.277  1.00  0.00     0.124 S 
ATOM     71  O   UNL A   1      40.838  37.856  40.361  1.00  0.00    -0.237 OA
ATOM     72  O   UNL A   1      38.535  38.476  39.705  1.00  0.00    -0.237 OA
ATOM     73  O   UNL A   1      38.903  36.760  41.435  1.00  0.00    -0.744 OA
ENDBRANCH  69  70
ENDBRANCH  37  62
ENDBRANCH  11  12
ENDBRANCH   4   6
ENDBRANCH   1   2
BRANCH   1  74
ATOM     74  C   UNL A   1      37.564  23.154  25.534  1.00  0.00     0.023 C 
BRANCH  74  75
ATOM     75  C   UNL A   1      36.121  22.982  25.994  1.00  0.00     0.023 C 
BRANCH  75  76
ATOM     76  C   UNL A   1      35.128  23.981  25.412  1.00  0.00     0.116 C 
BRANCH  76  77
ATOM     77  N   UNL A   1      33.923  24.132  26.210  1.00  0.00    -0.352 N 
ATOM     78  C   UNL A   1      32.806  23.327  26.261  1.00  0.00     0.253 C 
ATOM     79  H   UNL A   1      33.901  24.921  26.798  1.00  0.00     0.163 HD
ATOM     80  O   UNL A   1      31.897  23.593  27.040  1.00  0.00    -0.269 OA
BRANCH  78  81
ATOM     81  C   UNL A   1      32.735  22.141  25.378  1.00  0.00     0.066 A 
ATOM     82  C   UNL A   1      33.004  20.896  25.985  1.00  0.00     0.016 A 
ATOM     83  C   UNL A   1      32.364  22.237  24.020  1.00  0.00     0.086 A 
ATOM     84  C   UNL A   1      33.023  19.729  25.230  1.00  0.00     0.004 A 
ATOM     85  C   UNL A   1      32.389  21.026  23.297  1.00  0.00     0.147 A 
ATOM     86  C   UNL A   1      32.733  19.801  23.875  1.00  0.00     0.041 A 
ATOM     87  F   UNL A   1      32.101  21.025  21.984  1.00  0.00    -0.205 F 
BRANCH  83  88
ATOM     88  N   UNL A   1      31.962  23.419  23.418  1.00  0.00    -0.365 N 
ATOM     89  C   UNL A   1      30.524  23.753  23.318  1.00  0.00     0.138 C 
ATOM     90  C   UNL A   1      32.875  24.226  22.587  1.00  0.00     0.143 C 
ATOM     91  C   UNL A   1      30.269  25.269  23.501  1.00  0.00     0.143 C 
ATOM     92  C   UNL A   1      32.670  25.706  22.924  1.00  0.00     0.125 C 
ATOM     93  N   UNL A   1      31.269  26.085  22.841  1.00  0.00    -0.317 N 
ATOM     94  C   UNL A   1      33.335  26.715  21.998  1.00  0.00     0.144 C 
ATOM     95  C   UNL A   1      31.146  27.406  22.451  1.00  0.00     0.317 C 
ATOM     96  N   UNL A   1      32.396  27.814  22.001  1.00  0.00    -0.336 N 
ATOM     97  O   UNL A   1      30.146  28.101  22.487  1.00  0.00    -0.249 OA
ATOM     98  H   UNL A   1      32.615  28.733  21.721  1.00  0.00     0.165 HD
ENDBRANCH  83  88
ENDBRANCH  78  81
ENDBRANCH  76  77
ENDBRANCH  75  76
ENDBRANCH  74  75
ENDBRANCH   1  74
TORSDOF 15
ENDMDL
MODEL 3
REMARK VINA RESULT:     -12.7      6.696     12.003
REMARK SMILES O=C(NCCCCNC(=O)c1cccc(F)c1N1CCN2C(=O)NC[C@@H]2C1)c1ccc(-c2c3nc(c(-c4c(F)cc(S(=O)(=O)[O-])cc4F)c4ccc([nH]4)c(-c4c(F)cc(S(=O)(=O)[O-])cc4F)c4nc(c(-c5c(F)cc(S(=O)(=O)[O-])cc5F)c5ccc2[nH]5)C=C4)C=C3)cc1
REMARK SMILES IDX 4 1 3 2 1 3 2 4 28 6 29 7 93 8 30 9 92 10 31 11 32 12 33 13
REMARK SMILES IDX 86 14 34 15 91 16 85 17 87 18 35 19 90 20 84 21 83 22 36 24
REMARK SMILES IDX 70 25 49 26 69 27 50 28 53 29 68 30 88 31 51 32 52 33 67 35
REMARK SMILES IDX 89 36 54 37 37 38 38 39 47 40 39 41 40 42 46 43 48 44 41 45
REMARK SMILES IDX 42 46 43 47 44 48 45 49 71 50 72 51 81 52 73 53 74 54 80 55
REMARK SMILES IDX 82 56 75 57 76 58 77 59 78 60 79 61 55 62 56 63 65 64 57 65
REMARK SMILES IDX 58 66 64 67 66 68 59 69 60 70 61 71 62 72 63 73 5 74 6 75
REMARK SMILES IDX 7 76 8 77 9 78 10 80 11 81 12 82 17 83 13 84 15 85 14 86
REMARK SMILES IDX 16 87 18 88 19 89 27 90 20 91 26 92 21 93 25 94 22 95 24 96
REMARK SMILES IDX 23 97
REMARK H PARENT 3 5 87 23 53 34 8 79 24 98
REMARK Flexibility Score: inf
ROOT
ATOM      1  C   UNL A   1      40.274  23.189  27.029  1.00  0.00     0.116 C 
ENDROOT
BRANCH   1   2
ATOM      2  N   UNL A   1      41.006  23.924  26.008  1.00  0.00    -0.352 N 
ATOM      3  O   UNL A   1      41.963  25.711  25.020  1.00  0.00    -0.269 OA
ATOM      4  C   UNL A   1      41.475  25.218  26.033  1.00  0.00     0.251 C 
ATOM      5  H   UNL A   1      41.192  23.424  25.181  1.00  0.00     0.163 HD
BRANCH   4   6
ATOM      6  C   UNL A   1      41.354  26.018  27.271  1.00  0.00     0.039 A 
ATOM      7  C   UNL A   1      40.271  25.833  28.131  1.00  0.00     0.014 A 
ATOM      8  C   UNL A   1      42.319  26.987  27.557  1.00  0.00     0.014 A 
ATOM      9  C   UNL A   1      40.054  26.732  29.167  1.00  0.00     0.010 A 
ATOM     10  C   UNL A   1      42.154  27.824  28.665  1.00  0.00     0.010 A 
ATOM     11  C   UNL A   1      40.998  27.731  29.456  1.00  0.00    -0.014 A 
BRANCH  11  12
ATOM     12  C   UNL A   1      40.776  28.629  30.620  1.00  0.00     0.031 A 
ATOM     13  C   UNL A   1      41.653  28.559  31.840  1.00  0.00     0.074 A 
ATOM     14  C   UNL A   1      39.787  29.541  30.551  1.00  0.00     0.049 A 
ATOM     15  N   UNL A   1      41.601  29.280  32.932  1.00  0.00    -0.248 NA
ATOM     16  C   UNL A   1      42.722  27.549  31.840  1.00  0.00     0.031 C 
ATOM     17  C   UNL A   1      38.875  29.704  29.417  1.00  0.00     0.029 A 
ATOM     18  N   UNL A   1      39.394  30.514  31.433  1.00  0.00    -0.354 N 
ATOM     19  C   UNL A   1      42.618  28.807  33.753  1.00  0.00     0.074 A 
ATOM     20  C   UNL A   1      43.247  27.709  33.048  1.00  0.00     0.031 C 
ATOM     21  C   UNL A   1      38.069  30.750  29.646  1.00  0.00     0.029 A 
ATOM     22  C   UNL A   1      38.353  31.284  30.973  1.00  0.00     0.049 A 
ATOM     23  H   UNL A   1      39.817  30.648  32.312  1.00  0.00     0.167 HD
ATOM     24  C   UNL A   1      42.999  29.255  34.974  1.00  0.00     0.037 A 
ATOM     25  C   UNL A   1      37.685  32.298  31.553  1.00  0.00     0.037 A 
ATOM     26  C   UNL A   1      42.361  30.349  35.666  1.00  0.00     0.049 A 
ATOM     27  C   UNL A   1      38.086  32.743  32.928  1.00  0.00     0.074 A 
ATOM     28  C   UNL A   1      42.677  30.886  36.902  1.00  0.00     0.029 A 
ATOM     29  N   UNL A   1      41.274  31.069  35.187  1.00  0.00    -0.354 N 
ATOM     30  N   UNL A   1      39.056  32.289  33.686  1.00  0.00    -0.248 NA
ATOM     31  C   UNL A   1      37.307  33.831  33.528  1.00  0.00     0.031 C 
ATOM     32  C   UNL A   1      41.749  31.890  37.195  1.00  0.00     0.029 A 
ATOM     33  C   UNL A   1      40.894  32.028  36.114  1.00  0.00     0.049 A 
ATOM     34  H   UNL A   1      40.838  30.921  34.318  1.00  0.00     0.167 HD
ATOM     35  C   UNL A   1      39.017  33.050  34.848  1.00  0.00     0.074 A 
ATOM     36  C   UNL A   1      37.934  34.000  34.686  1.00  0.00     0.031 C 
ATOM     37  C   UNL A   1      39.810  32.969  35.944  1.00  0.00     0.037 A 
BRANCH  24  38
ATOM     38  C   UNL A   1      44.148  28.555  35.653  1.00  0.00     0.058 A 
ATOM     39  C   UNL A   1      45.474  28.948  35.406  1.00  0.00     0.135 A 
ATOM     40  C   UNL A   1      43.945  27.471  36.524  1.00  0.00     0.135 A 
ATOM     41  F   UNL A   1      45.733  29.975  34.582  1.00  0.00    -0.206 F 
ATOM     42  C   UNL A   1      46.552  28.296  35.996  1.00  0.00     0.059 A 
ATOM     43  C   UNL A   1      45.007  26.823  37.150  1.00  0.00     0.059 A 
ATOM     44  F   UNL A   1      42.698  27.061  36.811  1.00  0.00    -0.206 F 
ATOM     45  C   UNL A   1      46.309  27.239  36.873  1.00  0.00     0.060 A 
BRANCH  45  46
ATOM     46  S   UNL A   1      47.715  26.457  37.695  1.00  0.00     0.124 S 
ATOM     47  O   UNL A   1      47.071  25.773  38.809  1.00  0.00    -0.237 OA
ATOM     48  O   UNL A   1      48.246  25.599  36.639  1.00  0.00    -0.237 OA
ATOM     49  O   UNL A   1      48.566  27.587  38.055  1.00  0.00    -0.744 OA
ENDBRANCH  45  46
ENDBRANCH  24  38
BRANCH  25  50
ATOM     50  C   UNL A   1      36.584  32.958  30.804  1.00  0.00     0.058 A 
ATOM     51  C   UNL A   1      36.854  33.884  29.783  1.00  0.00     0.135 A 
ATOM     52  C   UNL A   1      35.245  32.752  31.163  1.00  0.00     0.135 A 
ATOM     53  F   UNL A   1      38.121  34.127  29.412  1.00  0.00    -0.206 F 
ATOM     54  C   UNL A   1      35.840  34.618  29.179  1.00  0.00     0.059 A 
ATOM     55  C   UNL A   1      34.209  33.454  30.554  1.00  0.00     0.059 A 
ATOM     56  F   UNL A   1      34.939  31.871  32.128  1.00  0.00    -0.206 F 
ATOM     57  C   UNL A   1      34.521  34.403  29.581  1.00  0.00     0.060 A 
BRANCH  57  58
ATOM     58  S   UNL A   1      33.227  35.410  28.826  1.00  0.00     0.124 S 
ATOM     59  O   UNL A   1      34.015  36.379  28.073  1.00  0.00    -0.237 OA
ATOM     60  O   UNL A   1      32.500  34.425  28.031  1.00  0.00    -0.237 OA
ATOM     61  O   UNL A   1      32.503  35.946  29.974  1.00  0.00    -0.744 OA
ENDBRANCH  57  58
ENDBRANCH  25  50
BRANCH  37  62
ATOM     62  C   UNL A   1      39.564  33.951  37.058  1.00  0.00     0.058 A 
ATOM     63  C   UNL A   1      40.145  35.229  37.016  1.00  0.00     0.135 A 
ATOM     64  C   UNL A   1      38.823  33.607  38.198  1.00  0.00     0.135 A 
ATOM     65  F   UNL A   1      40.867  35.610  35.949  1.00  0.00    -0.206 F 
ATOM     66  C   UNL A   1      40.020  36.122  38.074  1.00  0.00     0.059 A 
ATOM     67  C   UNL A   1      38.658  34.496  39.257  1.00  0.00     0.059 A 
ATOM     68  F   UNL A   1      38.235  32.403  38.283  1.00  0.00    -0.206 F 
ATOM     69  C   UNL A   1      39.276  35.745  39.192  1.00  0.00     0.060 A 
BRANCH  69  70
ATOM     70  S   UNL A   1      39.122  36.919  40.555  1.00  0.00     0.124 S 
ATOM     71  O   UNL A   1      38.427  36.121  41.560  1.00  0.00    -0.237 OA
ATOM     72  O   UNL A   1      40.518  37.234  40.848  1.00  0.00    -0.237 OA
ATOM     73  O   UNL A   1      38.349  38.013  39.976  1.00  0.00    -0.744 OA
ENDBRANCH  69  70
ENDBRANCH  37  62
ENDBRANCH  11  12
ENDBRANCH   4   6
ENDBRANCH   1   2
BRANCH   1  74
ATOM     74  C   UNL A   1      38.960  22.605  26.524  1.00  0.00     0.023 C 
BRANCH  74  75
ATOM     75  C   UNL A   1      37.901  23.628  26.131  1.00  0.00     0.023 C 
BRANCH  75  76
ATOM     76  C   UNL A   1      36.510  23.061  25.873  1.00  0.00     0.116 C 
BRANCH  76  77
ATOM     77  N   UNL A   1      36.152  23.022  24.465  1.00  0.00    -0.352 N 
ATOM     78  C   UNL A   1      35.038  23.531  23.835  1.00  0.00     0.253 C 
ATOM     79  H   UNL A   1      36.798  22.567  23.877  1.00  0.00     0.163 HD
ATOM     80  O   UNL A   1      34.931  23.442  22.617  1.00  0.00    -0.269 OA
BRANCH  78  81
ATOM     81  C   UNL A   1      33.994  24.194  24.649  1.00  0.00     0.066 A 
ATOM     82  C   UNL A   1      34.270  25.517  25.058  1.00  0.00     0.016 A 
ATOM     83  C   UNL A   1      32.767  23.567  24.953  1.00  0.00     0.086 A 
ATOM     84  C   UNL A   1      33.382  26.204  25.876  1.00  0.00     0.004 A 
ATOM     85  C   UNL A   1      31.895  24.307  25.778  1.00  0.00     0.147 A 
ATOM     86  C   UNL A   1      32.198  25.587  26.252  1.00  0.00     0.041 A 
ATOM     87  F   UNL A   1      30.724  23.771  26.165  1.00  0.00    -0.205 F 
BRANCH  83  88
ATOM     88  N   UNL A   1      32.400  22.324  24.461  1.00  0.00    -0.365 N 
ATOM     89  C   UNL A   1      31.731  22.212  23.146  1.00  0.00     0.138 C 
ATOM     90  C   UNL A   1      32.358  21.123  25.315  1.00  0.00     0.143 C 
ATOM     91  C   UNL A   1      32.183  20.949  22.373  1.00  0.00     0.143 C 
ATOM     92  C   UNL A   1      32.953  19.944  24.539  1.00  0.00     0.125 C 
ATOM     93  N   UNL A   1      32.327  19.791  23.235  1.00  0.00    -0.317 N 
ATOM     94  C   UNL A   1      32.770  18.562  25.150  1.00  0.00     0.144 C 
ATOM     95  C   UNL A   1      32.308  18.461  22.859  1.00  0.00     0.317 C 
ATOM     96  N   UNL A   1      32.633  17.716  23.986  1.00  0.00    -0.336 N 
ATOM     97  O   UNL A   1      32.058  18.005  21.757  1.00  0.00    -0.249 OA
ATOM     98  H   UNL A   1      32.755  16.739  23.992  1.00  0.00     0.165 HD
ENDBRANCH  83  88
ENDBRANCH  78  81
ENDBRANCH  76  77
ENDBRANCH  75  76
ENDBRANCH  74  75
ENDBRANCH   1  74
TORSDOF 15
ENDMDL
