MODEL 1
REMARK VINA RESULT:     -10.5      0.000      0.000
REMARK SMILES CCN1C[C@@H](C(=O)NCCCCNC(=O)c2ccc(-c3c4nc(c(-c5c(F)cc(S(=O)(=O)[O-])cc5F)c5ccc([nH]5)c(-c5c(F)cc(S(=O)(=O)[O-])cc5F)c5nc(c(-c6c(F)cc(S(=O)(=O)[O-])cc6F)c6ccc3[nH]6)C=C5)C=C4)cc2)CC1=O
REMARK SMILES IDX 11 1 10 2 9 3 8 4 6 5 7 6 5 8 3 9 4 10 83 11 82 12 84 13
REMARK SMILES IDX 2 14 1 15 12 16 13 17 14 18 15 20 16 21 17 22 81 23 18 24
REMARK SMILES IDX 80 25 19 26 20 27 21 28 74 29 22 30 79 31 73 32 75 33 23 34
REMARK SMILES IDX 78 35 72 36 71 37 24 39 58 40 37 41 57 42 38 43 41 44 56 45
REMARK SMILES IDX 76 46 39 47 40 48 55 50 77 51 42 52 25 53 26 54 35 55 27 56
REMARK SMILES IDX 28 57 34 58 36 59 29 60 30 61 31 62 32 63 33 64 59 65 60 66
REMARK SMILES IDX 69 67 61 68 62 69 68 70 70 71 63 72 64 73 65 74 66 75 67 76
REMARK SMILES IDX 43 77 44 78 53 79 45 80 46 81 52 82 54 83 47 84 48 85 49 86
REMARK SMILES IDX 50 87 51 88
REMARK H PARENT 8 7 13 19 75 38 41 49
REMARK Flexibility Score: inf
ROOT
ATOM      1  C   UNL A   1      40.042  21.718  26.804  1.00  0.00     0.023 C 
ENDROOT
BRANCH   1   2
ATOM      2  C   UNL A   1      41.111  20.801  27.399  1.00  0.00     0.023 C 
BRANCH   2   3
ATOM      3  C   UNL A   1      42.140  20.276  26.399  1.00  0.00     0.116 C 
BRANCH   3   4
ATOM      4  N   UNL A   1      42.473  21.266  25.389  1.00  0.00    -0.356 N 
ATOM      5  C   UNL A   1      43.433  22.226  25.352  1.00  0.00     0.225 C 
ATOM      6  O   UNL A   1      43.493  22.930  24.341  1.00  0.00    -0.275 OA
ATOM      7  H   UNL A   1      41.900  21.236  24.589  1.00  0.00     0.163 HD
BRANCH   5   8
ATOM      8  C   UNL A   1      44.429  22.437  26.473  1.00  0.00     0.107 C 
ATOM      9  N   UNL A   1      45.329  24.269  27.630  1.00  0.00    -0.342 N 
ATOM     10  C   UNL A   1      44.072  23.620  27.356  1.00  0.00     0.133 C 
ATOM     11  C   UNL A   1      46.363  23.807  26.838  1.00  0.00     0.223 C 
ATOM     12  C   UNL A   1      45.870  22.644  26.021  1.00  0.00     0.115 C 
ATOM     13  O   UNL A   1      47.496  24.261  26.784  1.00  0.00    -0.275 OA
BRANCH   9  14
ATOM     14  C   UNL A   1      45.420  25.427  28.502  1.00  0.00     0.116 C 
ATOM     15  C   UNL A   1      44.292  25.481  29.520  1.00  0.00     0.027 C 
ENDBRANCH   9  14
ENDBRANCH   5   8
ENDBRANCH   3   4
ENDBRANCH   2   3
ENDBRANCH   1   2
BRANCH   1  16
ATOM     16  C   UNL A   1      40.167  23.193  27.168  1.00  0.00     0.116 C 
BRANCH  16  17
ATOM     17  N   UNL A   1      40.739  23.996  26.100  1.00  0.00    -0.352 N 
ATOM     18  C   UNL A   1      41.064  25.331  26.090  1.00  0.00     0.251 C 
ATOM     19  H   UNL A   1      40.921  23.513  25.261  1.00  0.00     0.163 HD
ATOM     20  O   UNL A   1      41.413  25.861  25.038  1.00  0.00    -0.269 OA
BRANCH  18  21
ATOM     21  C   UNL A   1      40.961  26.132  27.330  1.00  0.00     0.039 A 
ATOM     22  C   UNL A   1      41.792  27.244  27.478  1.00  0.00     0.014 A 
ATOM     23  C   UNL A   1      40.054  25.797  28.340  1.00  0.00     0.014 A 
ATOM     24  C   UNL A   1      41.669  28.052  28.610  1.00  0.00     0.010 A 
ATOM     25  C   UNL A   1      39.875  26.652  29.425  1.00  0.00     0.010 A 
ATOM     26  C   UNL A   1      40.685  27.787  29.577  1.00  0.00    -0.014 A 
BRANCH  26  27
ATOM     27  C   UNL A   1      40.491  28.703  30.732  1.00  0.00     0.031 A 
ATOM     28  C   UNL A   1      41.327  28.562  31.976  1.00  0.00     0.074 A 
ATOM     29  C   UNL A   1      39.535  29.652  30.666  1.00  0.00     0.049 A 
ATOM     30  N   UNL A   1      41.317  29.292  33.062  1.00  0.00    -0.248 NA
ATOM     31  C   UNL A   1      42.277  27.439  32.021  1.00  0.00     0.031 C 
ATOM     32  C   UNL A   1      38.613  29.845  29.544  1.00  0.00     0.029 A 
ATOM     33  N   UNL A   1      39.182  30.637  31.555  1.00  0.00    -0.354 N 
ATOM     34  C   UNL A   1      42.253  28.720  33.916  1.00  0.00     0.074 A 
ATOM     35  C   UNL A   1      42.764  27.542  33.249  1.00  0.00     0.031 C 
ATOM     36  C   UNL A   1      37.831  30.907  29.793  1.00  0.00     0.029 A 
ATOM     37  C   UNL A   1      38.168  31.450  31.104  1.00  0.00     0.049 A 
ATOM     38  H   UNL A   1      39.614  30.750  32.432  1.00  0.00     0.167 HD
ATOM     39  C   UNL A   1      42.669  29.151  35.132  1.00  0.00     0.037 A 
ATOM     40  C   UNL A   1      37.580  32.518  31.678  1.00  0.00     0.037 A 
ATOM     41  C   UNL A   1      42.164  30.333  35.783  1.00  0.00     0.049 A 
ATOM     42  C   UNL A   1      38.071  32.988  33.020  1.00  0.00     0.074 A 
ATOM     43  C   UNL A   1      42.558  30.885  36.989  1.00  0.00     0.029 A 
ATOM     44  N   UNL A   1      41.151  31.142  35.287  1.00  0.00    -0.354 N 
ATOM     45  N   UNL A   1      39.014  32.480  33.779  1.00  0.00    -0.248 NA
ATOM     46  C   UNL A   1      37.431  34.187  33.578  1.00  0.00     0.031 C 
ATOM     47  C   UNL A   1      41.748  31.997  37.248  1.00  0.00     0.029 A 
ATOM     48  C   UNL A   1      40.893  32.176  36.173  1.00  0.00     0.049 A 
ATOM     49  H   UNL A   1      40.685  31.000  34.432  1.00  0.00     0.167 HD
ATOM     50  C   UNL A   1      39.103  33.315  34.887  1.00  0.00     0.074 A 
ATOM     51  C   UNL A   1      38.128  34.369  34.691  1.00  0.00     0.031 C 
ATOM     52  C   UNL A   1      39.922  33.221  35.966  1.00  0.00     0.037 A 
BRANCH  39  53
ATOM     53  C   UNL A   1      43.726  28.341  35.838  1.00  0.00     0.058 A 
ATOM     54  C   UNL A   1      45.094  28.623  35.693  1.00  0.00     0.135 A 
ATOM     55  C   UNL A   1      43.366  27.294  36.703  1.00  0.00     0.135 A 
ATOM     56  F   UNL A   1      45.500  29.603  34.869  1.00  0.00    -0.206 F 
ATOM     57  C   UNL A   1      46.067  27.880  36.353  1.00  0.00     0.059 A 
ATOM     58  C   UNL A   1      44.321  26.558  37.399  1.00  0.00     0.059 A 
ATOM     59  F   UNL A   1      42.073  26.979  36.881  1.00  0.00    -0.206 F 
ATOM     60  C   UNL A   1      45.670  26.849  37.206  1.00  0.00     0.060 A 
BRANCH  60  61
ATOM     61  S   UNL A   1      46.945  25.899  38.060  1.00  0.00     0.124 S 
ATOM     62  O   UNL A   1      47.295  24.905  37.048  1.00  0.00    -0.237 OA
ATOM     63  O   UNL A   1      47.960  26.912  38.330  1.00  0.00    -0.237 OA
ATOM     64  O   UNL A   1      46.253  25.378  39.235  1.00  0.00    -0.744 OA
ENDBRANCH  60  61
ENDBRANCH  39  53
BRANCH  40  65
ATOM     65  C   UNL A   1      36.489  33.237  30.966  1.00  0.00     0.058 A 
ATOM     66  C   UNL A   1      35.144  33.045  31.313  1.00  0.00     0.135 A 
ATOM     67  C   UNL A   1      36.773  34.146  29.933  1.00  0.00     0.135 A 
ATOM     68  F   UNL A   1      34.820  32.184  32.290  1.00  0.00    -0.206 F 
ATOM     69  C   UNL A   1      34.116  33.709  30.652  1.00  0.00     0.059 A 
ATOM     70  C   UNL A   1      35.764  34.845  29.277  1.00  0.00     0.059 A 
ATOM     71  F   UNL A   1      38.044  34.382  29.575  1.00  0.00    -0.206 F 
ATOM     72  C   UNL A   1      34.438  34.612  29.637  1.00  0.00     0.060 A 
BRANCH  72  73
ATOM     73  S   UNL A   1      33.101  35.506  28.817  1.00  0.00     0.124 S 
ATOM     74  O   UNL A   1      33.839  36.491  28.036  1.00  0.00    -0.237 OA
ATOM     75  O   UNL A   1      32.445  34.447  28.056  1.00  0.00    -0.237 OA
ATOM     76  O   UNL A   1      32.321  36.040  29.931  1.00  0.00    -0.744 OA
ENDBRANCH  72  73
ENDBRANCH  40  65
BRANCH  52  77
ATOM     77  C   UNL A   1      39.831  34.315  36.996  1.00  0.00     0.058 A 
ATOM     78  C   UNL A   1      40.517  35.531  36.856  1.00  0.00     0.135 A 
ATOM     79  C   UNL A   1      39.023  34.149  38.133  1.00  0.00     0.135 A 
ATOM     80  F   UNL A   1      41.305  35.745  35.790  1.00  0.00    -0.206 F 
ATOM     81  C   UNL A   1      40.442  36.526  37.827  1.00  0.00     0.059 A 
ATOM     82  C   UNL A   1      38.905  35.142  39.099  1.00  0.00     0.059 A 
ATOM     83  F   UNL A   1      38.332  33.011  38.311  1.00  0.00    -0.206 F 
ATOM     84  C   UNL A   1      39.635  36.319  38.948  1.00  0.00     0.060 A 
BRANCH  84  85
ATOM     85  S   UNL A   1      39.546  37.615  40.201  1.00  0.00     0.124 S 
ATOM     86  O   UNL A   1      38.565  38.522  39.618  1.00  0.00    -0.237 OA
ATOM     87  O   UNL A   1      39.105  36.878  41.381  1.00  0.00    -0.237 OA
ATOM     88  O   UNL A   1      40.913  38.123  40.263  1.00  0.00    -0.744 OA
ENDBRANCH  84  85
ENDBRANCH  52  77
ENDBRANCH  26  27
ENDBRANCH  18  21
ENDBRANCH  16  17
ENDBRANCH   1  16
TORSDOF 15
ENDMDL
MODEL 2
REMARK VINA RESULT:     -10.5      1.173      2.515
REMARK SMILES CCN1C[C@@H](C(=O)NCCCCNC(=O)c2ccc(-c3c4nc(c(-c5c(F)cc(S(=O)(=O)[O-])cc5F)c5ccc([nH]5)c(-c5c(F)cc(S(=O)(=O)[O-])cc5F)c5nc(c(-c6c(F)cc(S(=O)(=O)[O-])cc6F)c6ccc3[nH]6)C=C5)C=C4)cc2)CC1=O
REMARK SMILES IDX 11 1 10 2 9 3 8 4 6 5 7 6 5 8 3 9 4 10 83 11 82 12 84 13
REMARK SMILES IDX 2 14 1 15 12 16 13 17 14 18 15 20 16 21 17 22 81 23 18 24
REMARK SMILES IDX 80 25 19 26 20 27 21 28 74 29 22 30 79 31 73 32 75 33 23 34
REMARK SMILES IDX 78 35 72 36 71 37 24 39 58 40 37 41 57 42 38 43 41 44 56 45
REMARK SMILES IDX 76 46 39 47 40 48 55 50 77 51 42 52 25 53 26 54 35 55 27 56
REMARK SMILES IDX 28 57 34 58 36 59 29 60 30 61 31 62 32 63 33 64 59 65 60 66
REMARK SMILES IDX 69 67 61 68 62 69 68 70 70 71 63 72 64 73 65 74 66 75 67 76
REMARK SMILES IDX 43 77 44 78 53 79 45 80 46 81 52 82 54 83 47 84 48 85 49 86
REMARK SMILES IDX 50 87 51 88
REMARK H PARENT 8 7 13 19 75 38 41 49
REMARK Flexibility Score: inf
ROOT
ATOM      1  C   UNL A   1      44.922  24.836  26.741  1.00  0.00     0.023 C 
ENDROOT
BRANCH   1   2
ATOM      2  C   UNL A   1      46.038  23.898  26.277  1.00  0.00     0.023 C 
BRANCH   2   3
ATOM      3  C   UNL A   1      45.783  23.205  24.940  1.00  0.00     0.116 C 
BRANCH   3   4
ATOM      4  N   UNL A   1      46.464  21.925  24.851  1.00  0.00    -0.356 N 
ATOM      5  C   UNL A   1      45.988  20.658  24.738  1.00  0.00     0.225 C 
ATOM      6  O   UNL A   1      46.814  19.744  24.668  1.00  0.00    -0.275 OA
ATOM      7  H   UNL A   1      47.446  21.987  24.876  1.00  0.00     0.163 HD
BRANCH   5   8
ATOM      8  C   UNL A   1      44.509  20.338  24.668  1.00  0.00     0.107 C 
ATOM      9  N   UNL A   1      42.776  19.946  26.200  1.00  0.00    -0.342 N 
ATOM     10  C   UNL A   1      43.723  20.959  25.808  1.00  0.00     0.133 C 
ATOM     11  C   UNL A   1      43.040  18.711  25.640  1.00  0.00     0.223 C 
ATOM     12  C   UNL A   1      44.174  18.850  24.661  1.00  0.00     0.115 C 
ATOM     13  O   UNL A   1      42.468  17.661  25.892  1.00  0.00    -0.275 OA
BRANCH   9  14
ATOM     14  C   UNL A   1      41.788  20.180  27.238  1.00  0.00     0.116 C 
ATOM     15  C   UNL A   1      40.558  20.909  26.721  1.00  0.00     0.027 C 
ENDBRANCH   9  14
ENDBRANCH   5   8
ENDBRANCH   3   4
ENDBRANCH   2   3
ENDBRANCH   1   2
BRANCH   1  16
ATOM     16  C   UNL A   1      43.544  24.197  26.878  1.00  0.00     0.116 C 
BRANCH  16  17
ATOM     17  N   UNL A   1      42.596  24.672  25.883  1.00  0.00    -0.352 N 
ATOM     18  C   UNL A   1      41.592  25.601  26.009  1.00  0.00     0.251 C 
ATOM     19  H   UNL A   1      42.687  24.269  24.989  1.00  0.00     0.163 HD
ATOM     20  O   UNL A   1      40.803  25.769  25.082  1.00  0.00    -0.269 OA
BRANCH  18  21
ATOM     21  C   UNL A   1      41.442  26.371  27.264  1.00  0.00     0.039 A 
ATOM     22  C   UNL A   1      42.212  27.522  27.438  1.00  0.00     0.014 A 
ATOM     23  C   UNL A   1      40.550  25.968  28.263  1.00  0.00     0.014 A 
ATOM     24  C   UNL A   1      42.042  28.300  28.585  1.00  0.00     0.010 A 
ATOM     25  C   UNL A   1      40.321  26.790  29.363  1.00  0.00     0.010 A 
ATOM     26  C   UNL A   1      41.069  27.964  29.541  1.00  0.00    -0.014 A 
BRANCH  26  27
ATOM     27  C   UNL A   1      40.823  28.846  30.713  1.00  0.00     0.031 A 
ATOM     28  C   UNL A   1      41.652  28.717  31.963  1.00  0.00     0.074 A 
ATOM     29  C   UNL A   1      39.824  29.751  30.657  1.00  0.00     0.049 A 
ATOM     30  N   UNL A   1      41.599  29.423  33.063  1.00  0.00    -0.248 NA
ATOM     31  C   UNL A   1      42.653  27.639  31.994  1.00  0.00     0.031 C 
ATOM     32  C   UNL A   1      38.904  29.924  29.530  1.00  0.00     0.029 A 
ATOM     33  N   UNL A   1      39.417  30.698  31.563  1.00  0.00    -0.354 N 
ATOM     34  C   UNL A   1      42.553  28.876  33.915  1.00  0.00     0.074 A 
ATOM     35  C   UNL A   1      43.124  27.738  33.229  1.00  0.00     0.031 C 
ATOM     36  C   UNL A   1      38.071  30.943  29.794  1.00  0.00     0.029 A 
ATOM     37  C   UNL A   1      38.371  31.473  31.119  1.00  0.00     0.049 A 
ATOM     38  H   UNL A   1      39.835  30.813  32.447  1.00  0.00     0.167 HD
ATOM     39  C   UNL A   1      42.937  29.300  35.143  1.00  0.00     0.037 A 
ATOM     40  C   UNL A   1      37.729  32.500  31.709  1.00  0.00     0.037 A 
ATOM     41  C   UNL A   1      42.371  30.444  35.813  1.00  0.00     0.049 A 
ATOM     42  C   UNL A   1      38.185  32.964  33.065  1.00  0.00     0.074 A 
ATOM     43  C   UNL A   1      42.728  30.988  37.035  1.00  0.00     0.029 A 
ATOM     44  N   UNL A   1      41.327  31.215  35.324  1.00  0.00    -0.354 N 
ATOM     45  N   UNL A   1      39.143  32.484  33.822  1.00  0.00    -0.248 NA
ATOM     46  C   UNL A   1      37.485  34.120  33.641  1.00  0.00     0.031 C 
ATOM     47  C   UNL A   1      41.865  32.055  37.308  1.00  0.00     0.029 A 
ATOM     48  C   UNL A   1      41.013  32.217  36.229  1.00  0.00     0.049 A 
ATOM     49  H   UNL A   1      40.875  31.070  34.462  1.00  0.00     0.167 HD
ATOM     50  C   UNL A   1      39.184  33.299  34.949  1.00  0.00     0.074 A 
ATOM     51  C   UNL A   1      38.162  34.311  34.765  1.00  0.00     0.031 C 
ATOM     52  C   UNL A   1      39.995  33.221  36.033  1.00  0.00     0.037 A 
BRANCH  39  53
ATOM     53  C   UNL A   1      44.024  28.526  35.843  1.00  0.00     0.058 A 
ATOM     54  C   UNL A   1      45.384  28.823  35.655  1.00  0.00     0.135 A 
ATOM     55  C   UNL A   1      43.702  27.498  36.745  1.00  0.00     0.135 A 
ATOM     56  F   UNL A   1      45.753  29.786  34.794  1.00  0.00    -0.206 F 
ATOM     57  C   UNL A   1      46.384  28.113  36.309  1.00  0.00     0.059 A 
ATOM     58  C   UNL A   1      44.686  26.795  37.437  1.00  0.00     0.059 A 
ATOM     59  F   UNL A   1      42.420  27.170  36.967  1.00  0.00    -0.206 F 
ATOM     60  C   UNL A   1      46.025  27.100  37.200  1.00  0.00     0.060 A 
BRANCH  60  61
ATOM     61  S   UNL A   1      47.336  26.193  38.046  1.00  0.00     0.124 S 
ATOM     62  O   UNL A   1      47.740  27.152  39.070  1.00  0.00    -0.237 OA
ATOM     63  O   UNL A   1      46.633  25.009  38.529  1.00  0.00    -0.237 OA
ATOM     64  O   UNL A   1      48.318  25.951  36.993  1.00  0.00    -0.744 OA
ENDBRANCH  60  61
ENDBRANCH  39  53
BRANCH  40  65
ATOM     65  C   UNL A   1      36.612  33.183  31.001  1.00  0.00     0.058 A 
ATOM     66  C   UNL A   1      35.282  33.028  31.420  1.00  0.00     0.135 A 
ATOM     67  C   UNL A   1      36.855  34.020  29.900  1.00  0.00     0.135 A 
ATOM     68  F   UNL A   1      34.996  32.235  32.464  1.00  0.00    -0.206 F 
ATOM     69  C   UNL A   1      34.230  33.658  30.763  1.00  0.00     0.059 A 
ATOM     70  C   UNL A   1      35.823  34.686  29.245  1.00  0.00     0.059 A 
ATOM     71  F   UNL A   1      38.110  34.220  29.470  1.00  0.00    -0.206 F 
ATOM     72  C   UNL A   1      34.512  34.490  29.678  1.00  0.00     0.060 A 
BRANCH  72  73
ATOM     73  S   UNL A   1      33.146  35.343  28.863  1.00  0.00     0.124 S 
ATOM     74  O   UNL A   1      32.320  35.731  29.999  1.00  0.00    -0.237 OA
ATOM     75  O   UNL A   1      33.833  36.430  28.171  1.00  0.00    -0.237 OA
ATOM     76  O   UNL A   1      32.580  34.316  27.992  1.00  0.00    -0.744 OA
ENDBRANCH  72  73
ENDBRANCH  40  65
BRANCH  52  77
ATOM     77  C   UNL A   1      39.845  34.287  37.085  1.00  0.00     0.058 A 
ATOM     78  C   UNL A   1      39.045  34.105  38.224  1.00  0.00     0.135 A 
ATOM     79  C   UNL A   1      40.534  35.505  36.959  1.00  0.00     0.135 A 
ATOM     80  F   UNL A   1      38.362  32.962  38.396  1.00  0.00    -0.206 F 
ATOM     81  C   UNL A   1      38.898  35.108  39.178  1.00  0.00     0.059 A 
ATOM     82  C   UNL A   1      40.429  36.508  37.917  1.00  0.00     0.059 A 
ATOM     83  F   UNL A   1      41.326  35.728  35.897  1.00  0.00    -0.206 F 
ATOM     84  C   UNL A   1      39.592  36.309  39.013  1.00  0.00     0.060 A 
BRANCH  84  85
ATOM     85  S   UNL A   1      39.392  37.603  40.255  1.00  0.00     0.124 S 
ATOM     86  O   UNL A   1      38.295  38.382  39.693  1.00  0.00    -0.237 OA
ATOM     87  O   UNL A   1      39.076  36.837  41.456  1.00  0.00    -0.237 OA
ATOM     88  O   UNL A   1      40.692  38.266  40.267  1.00  0.00    -0.744 OA
ENDBRANCH  84  85
ENDBRANCH  52  77
ENDBRANCH  26  27
ENDBRANCH  18  21
ENDBRANCH  16  17
ENDBRANCH   1  16
TORSDOF 15
ENDMDL
MODEL 3
REMARK VINA RESULT:     -10.5      2.110      3.733
REMARK SMILES CCN1C[C@@H](C(=O)NCCCCNC(=O)c2ccc(-c3c4nc(c(-c5c(F)cc(S(=O)(=O)[O-])cc5F)c5ccc([nH]5)c(-c5c(F)cc(S(=O)(=O)[O-])cc5F)c5nc(c(-c6c(F)cc(S(=O)(=O)[O-])cc6F)c6ccc3[nH]6)C=C5)C=C4)cc2)CC1=O
REMARK SMILES IDX 11 1 10 2 9 3 8 4 6 5 7 6 5 8 3 9 4 10 83 11 82 12 84 13
REMARK SMILES IDX 2 14 1 15 12 16 13 17 14 18 15 20 16 21 17 22 81 23 18 24
REMARK SMILES IDX 80 25 19 26 20 27 21 28 74 29 22 30 79 31 73 32 75 33 23 34
REMARK SMILES IDX 78 35 72 36 71 37 24 39 58 40 37 41 57 42 38 43 41 44 56 45
REMARK SMILES IDX 76 46 39 47 40 48 55 50 77 51 42 52 25 53 26 54 35 55 27 56
REMARK SMILES IDX 28 57 34 58 36 59 29 60 30 61 31 62 32 63 33 64 59 65 60 66
REMARK SMILES IDX 69 67 61 68 62 69 68 70 70 71 63 72 64 73 65 74 66 75 67 76
REMARK SMILES IDX 43 77 44 78 53 79 45 80 46 81 52 82 54 83 47 84 48 85 49 86
REMARK SMILES IDX 50 87 51 88
REMARK H PARENT 8 7 13 19 75 38 41 49
REMARK Flexibility Score: inf
ROOT
ATOM      1  C   UNL A   1      42.162  22.028  27.192  1.00  0.00     0.023 C 
ENDROOT
BRANCH   1   2
ATOM      2  C   UNL A   1      40.704  22.060  27.655  1.00  0.00     0.023 C 
BRANCH   2   3
ATOM      3  C   UNL A   1      39.716  22.623  26.636  1.00  0.00     0.116 C 
BRANCH   3   4
ATOM      4  N   UNL A   1      38.911  21.580  26.023  1.00  0.00    -0.356 N 
ATOM      5  C   UNL A   1      37.795  21.640  25.253  1.00  0.00     0.225 C 
ATOM      6  O   UNL A   1      37.322  20.574  24.852  1.00  0.00    -0.275 OA
ATOM      7  H   UNL A   1      39.233  20.667  26.197  1.00  0.00     0.163 HD
BRANCH   5   8
ATOM      8  C   UNL A   1      37.140  22.947  24.853  1.00  0.00     0.107 C 
ATOM      9  N   UNL A   1      34.977  23.852  24.897  1.00  0.00    -0.342 N 
ATOM     10  C   UNL A   1      35.996  23.332  25.772  1.00  0.00     0.133 C 
ATOM     11  C   UNL A   1      35.230  23.605  23.561  1.00  0.00     0.223 C 
ATOM     12  C   UNL A   1      36.593  22.982  23.430  1.00  0.00     0.115 C 
ATOM     13  O   UNL A   1      34.480  23.834  22.624  1.00  0.00    -0.275 OA
BRANCH   9  14
ATOM     14  C   UNL A   1      33.727  24.388  25.407  1.00  0.00     0.116 C 
ATOM     15  C   UNL A   1      33.700  25.908  25.408  1.00  0.00     0.027 C 
ENDBRANCH   9  14
ENDBRANCH   5   8
ENDBRANCH   3   4
ENDBRANCH   2   3
ENDBRANCH   1   2
BRANCH   1  16
ATOM     16  C   UNL A   1      42.890  23.367  27.229  1.00  0.00     0.116 C 
BRANCH  16  17
ATOM     17  N   UNL A   1      42.586  24.212  26.085  1.00  0.00    -0.352 N 
ATOM     18  C   UNL A   1      42.063  25.482  26.054  1.00  0.00     0.251 C 
ATOM     19  H   UNL A   1      42.782  23.816  25.205  1.00  0.00     0.163 HD
ATOM     20  O   UNL A   1      41.748  25.980  24.976  1.00  0.00    -0.269 OA
BRANCH  18  21
ATOM     21  C   UNL A   1      41.850  26.231  27.312  1.00  0.00     0.039 A 
ATOM     22  C   UNL A   1      42.742  27.254  27.640  1.00  0.00     0.014 A 
ATOM     23  C   UNL A   1      40.781  25.936  28.164  1.00  0.00     0.014 A 
ATOM     24  C   UNL A   1      42.526  28.017  28.790  1.00  0.00     0.010 A 
ATOM     25  C   UNL A   1      40.520  26.753  29.261  1.00  0.00     0.010 A 
ATOM     26  C   UNL A   1      41.393  27.800  29.591  1.00  0.00    -0.014 A 
BRANCH  26  27
ATOM     27  C   UNL A   1      41.113  28.677  30.759  1.00  0.00     0.031 A 
ATOM     28  C   UNL A   1      41.935  28.572  32.016  1.00  0.00     0.074 A 
ATOM     29  C   UNL A   1      40.091  29.555  30.693  1.00  0.00     0.049 A 
ATOM     30  N   UNL A   1      41.854  29.278  33.115  1.00  0.00    -0.248 NA
ATOM     31  C   UNL A   1      42.964  27.521  32.058  1.00  0.00     0.031 C 
ATOM     32  C   UNL A   1      39.176  29.702  29.558  1.00  0.00     0.029 A 
ATOM     33  N   UNL A   1      39.652  30.493  31.593  1.00  0.00    -0.354 N 
ATOM     34  C   UNL A   1      42.814  28.758  33.976  1.00  0.00     0.074 A 
ATOM     35  C   UNL A   1      43.422  27.635  33.297  1.00  0.00     0.031 C 
ATOM     36  C   UNL A   1      38.315  30.699  29.812  1.00  0.00     0.029 A 
ATOM     37  C   UNL A   1      38.589  31.239  31.140  1.00  0.00     0.049 A 
ATOM     38  H   UNL A   1      40.058  30.620  32.481  1.00  0.00     0.167 HD
ATOM     39  C   UNL A   1      43.176  29.194  35.206  1.00  0.00     0.037 A 
ATOM     40  C   UNL A   1      37.914  32.249  31.722  1.00  0.00     0.037 A 
ATOM     41  C   UNL A   1      42.575  30.323  35.870  1.00  0.00     0.049 A 
ATOM     42  C   UNL A   1      38.346  32.727  33.081  1.00  0.00     0.074 A 
ATOM     43  C   UNL A   1      42.907  30.879  37.093  1.00  0.00     0.029 A 
ATOM     44  N   UNL A   1      41.514  31.066  35.371  1.00  0.00    -0.354 N 
ATOM     45  N   UNL A   1      39.311  32.274  33.848  1.00  0.00    -0.248 NA
ATOM     46  C   UNL A   1      37.611  33.864  33.650  1.00  0.00     0.031 C 
ATOM     47  C   UNL A   1      42.013  31.923  37.357  1.00  0.00     0.029 A 
ATOM     48  C   UNL A   1      41.166  32.060  36.270  1.00  0.00     0.049 A 
ATOM     49  H   UNL A   1      41.074  30.908  34.504  1.00  0.00     0.167 HD
ATOM     50  C   UNL A   1      39.320  33.091  34.973  1.00  0.00     0.074 A 
ATOM     51  C   UNL A   1      38.273  34.075  34.779  1.00  0.00     0.031 C 
ATOM     52  C   UNL A   1      40.124  33.036  36.065  1.00  0.00     0.037 A 
BRANCH  39  53
ATOM     53  C   UNL A   1      44.278  28.451  35.917  1.00  0.00     0.058 A 
ATOM     54  C   UNL A   1      45.628  28.804  35.765  1.00  0.00     0.135 A 
ATOM     55  C   UNL A   1      43.977  27.394  36.793  1.00  0.00     0.135 A 
ATOM     56  F   UNL A   1      45.978  29.796  34.929  1.00  0.00    -0.206 F 
ATOM     57  C   UNL A   1      46.642  28.121  36.428  1.00  0.00     0.059 A 
ATOM     58  C   UNL A   1      44.973  26.718  37.494  1.00  0.00     0.059 A 
ATOM     59  F   UNL A   1      42.704  27.012  36.980  1.00  0.00    -0.206 F 
ATOM     60  C   UNL A   1      46.303  27.079  37.293  1.00  0.00     0.060 A 
BRANCH  60  61
ATOM     61  S   UNL A   1      47.631  26.208  38.152  1.00  0.00     0.124 S 
ATOM     62  O   UNL A   1      46.914  25.629  39.285  1.00  0.00    -0.237 OA
ATOM     63  O   UNL A   1      48.087  25.260  37.140  1.00  0.00    -0.237 OA
ATOM     64  O   UNL A   1      48.576  27.269  38.485  1.00  0.00    -0.744 OA
ENDBRANCH  60  61
ENDBRANCH  39  53
BRANCH  40  65
ATOM     65  C   UNL A   1      36.786  32.901  31.003  1.00  0.00     0.058 A 
ATOM     66  C   UNL A   1      35.455  32.683  31.390  1.00  0.00     0.135 A 
ATOM     67  C   UNL A   1      37.018  33.769  29.924  1.00  0.00     0.135 A 
ATOM     68  F   UNL A   1      35.180  31.859  32.412  1.00  0.00    -0.206 F 
ATOM     69  C   UNL A   1      34.392  33.284  30.723  1.00  0.00     0.059 A 
ATOM     70  C   UNL A   1      35.973  34.406  29.260  1.00  0.00     0.059 A 
ATOM     71  F   UNL A   1      38.273  34.028  29.527  1.00  0.00    -0.206 F 
ATOM     72  C   UNL A   1      34.663  34.149  29.661  1.00  0.00     0.060 A 
BRANCH  72  73
ATOM     73  S   UNL A   1      33.281  34.963  28.833  1.00  0.00     0.124 S 
ATOM     74  O   UNL A   1      33.924  36.151  28.284  1.00  0.00    -0.237 OA
ATOM     75  O   UNL A   1      32.868  33.954  27.862  1.00  0.00    -0.237 OA
ATOM     76  O   UNL A   1      32.333  35.202  29.917  1.00  0.00    -0.744 OA
ENDBRANCH  72  73
ENDBRANCH  40  65
BRANCH  52  77
ATOM     77  C   UNL A   1      39.936  34.100  37.113  1.00  0.00     0.058 A 
ATOM     78  C   UNL A   1      39.162  33.885  38.264  1.00  0.00     0.135 A 
ATOM     79  C   UNL A   1      40.563  35.349  36.972  1.00  0.00     0.135 A 
ATOM     80  F   UNL A   1      38.539  32.710  38.451  1.00  0.00    -0.206 F 
ATOM     81  C   UNL A   1      38.979  34.885  39.215  1.00  0.00     0.059 A 
ATOM     82  C   UNL A   1      40.422  36.351  37.926  1.00  0.00     0.059 A 
ATOM     83  F   UNL A   1      41.327  35.605  35.898  1.00  0.00    -0.206 F 
ATOM     84  C   UNL A   1      39.611  36.117  39.034  1.00  0.00     0.060 A 
BRANCH  84  85
ATOM     85  S   UNL A   1      39.365  37.407  40.273  1.00  0.00     0.124 S 
ATOM     86  O   UNL A   1      38.658  36.678  41.320  1.00  0.00    -0.237 OA
ATOM     87  O   UNL A   1      40.734  37.801  40.589  1.00  0.00    -0.237 OA
ATOM     88  O   UNL A   1      38.578  38.412  39.565  1.00  0.00    -0.744 OA
ENDBRANCH  84  85
ENDBRANCH  52  77
ENDBRANCH  26  27
ENDBRANCH  18  21
ENDBRANCH  16  17
ENDBRANCH   1  16
TORSDOF 15
ENDMDL
