MODEL 1
REMARK VINA RESULT:     -12.9      0.000      0.000
REMARK SMILES O=C(NCCCCNC(=O)c1cccc2c1ccn2Cc1ccncc1)c1ccc(-c2c3nc(c(-c4c(F)cc(S(=O)(=O)[O-])cc4F)c4ccc([nH]4)c(-c4c(F)cc(S(=O)(=O)[O-])cc4F)c4nc(c(-c5c(F)cc(S(=O)(=O)[O-])cc5F)c5ccc2[nH]5)C=C4)C=C3)cc1
REMARK SMILES IDX 5 1 4 2 3 3 1 4 2 5 27 7 28 8 92 9 29 10 91 11 30 12 31 13
REMARK SMILES IDX 32 14 85 15 33 16 90 17 84 18 86 19 34 20 89 21 83 22 82 23
REMARK SMILES IDX 35 25 69 26 48 27 68 28 49 29 52 30 67 31 87 32 50 33 51 34
REMARK SMILES IDX 66 36 88 37 53 38 36 39 37 40 46 41 38 42 39 43 45 44 47 45
REMARK SMILES IDX 40 46 41 47 42 48 43 49 44 50 70 51 71 52 80 53 72 54 73 55
REMARK SMILES IDX 79 56 81 57 74 58 75 59 76 60 77 61 78 62 54 63 55 64 64 65
REMARK SMILES IDX 56 66 57 67 63 68 65 69 58 70 59 71 60 72 61 73 62 74 6 75
REMARK SMILES IDX 7 76 8 77 9 78 10 80 11 81 12 82 16 83 13 84 15 85 17 86
REMARK SMILES IDX 14 87 19 88 18 89 20 90 21 91 22 92 26 93 23 94 25 95 24 96
REMARK H PARENT 3 6 86 24 52 35 8 79
REMARK Flexibility Score: inf
ROOT
ATOM      1  C   UNL A   1      38.945  21.876  25.839  1.00  0.00     0.023 C 
ENDROOT
BRANCH   1   2
ATOM      2  C   UNL A   1      40.198  21.769  26.690  1.00  0.00     0.116 C 
BRANCH   2   3
ATOM      3  N   UNL A   1      41.461  21.897  25.945  1.00  0.00    -0.352 N 
ATOM      4  O   UNL A   1      43.003  23.142  24.807  1.00  0.00    -0.269 OA
ATOM      5  C   UNL A   1      42.202  23.064  25.719  1.00  0.00     0.251 C 
ATOM      6  H   UNL A   1      41.828  21.068  25.562  1.00  0.00     0.163 HD
BRANCH   5   7
ATOM      7  C   UNL A   1      41.987  24.192  26.649  1.00  0.00     0.039 A 
ATOM      8  C   UNL A   1      42.630  24.354  27.875  1.00  0.00     0.014 A 
ATOM      9  C   UNL A   1      41.153  25.182  26.165  1.00  0.00     0.014 A 
ATOM     10  C   UNL A   1      42.441  25.562  28.553  1.00  0.00     0.010 A 
ATOM     11  C   UNL A   1      41.346  26.452  26.598  1.00  0.00     0.010 A 
ATOM     12  C   UNL A   1      41.790  26.617  27.887  1.00  0.00    -0.014 A 
BRANCH  12  13
ATOM     13  C   UNL A   1      41.556  27.933  28.461  1.00  0.00     0.031 A 
ATOM     14  C   UNL A   1      42.611  28.913  28.138  1.00  0.00     0.074 A 
ATOM     15  C   UNL A   1      40.406  28.279  29.090  1.00  0.00     0.049 A 
ATOM     16  N   UNL A   1      43.560  29.304  28.917  1.00  0.00    -0.248 NA
ATOM     17  C   UNL A   1      42.764  29.347  26.742  1.00  0.00     0.031 C 
ATOM     18  C   UNL A   1      39.150  27.523  29.249  1.00  0.00     0.029 A 
ATOM     19  N   UNL A   1      40.096  29.458  29.694  1.00  0.00    -0.354 N 
ATOM     20  C   UNL A   1      44.283  30.238  28.189  1.00  0.00     0.074 A 
ATOM     21  C   UNL A   1      43.891  30.059  26.814  1.00  0.00     0.031 C 
ATOM     22  C   UNL A   1      38.166  28.337  29.693  1.00  0.00     0.029 A 
ATOM     23  C   UNL A   1      38.754  29.615  30.038  1.00  0.00     0.049 A 
ATOM     24  H   UNL A   1      40.772  30.150  29.874  1.00  0.00     0.167 HD
ATOM     25  C   UNL A   1      44.948  31.242  28.823  1.00  0.00     0.037 A 
ATOM     26  C   UNL A   1      38.180  30.715  30.593  1.00  0.00     0.037 A 
ATOM     27  C   UNL A   1      45.058  30.971  30.239  1.00  0.00     0.049 A 
ATOM     28  C   UNL A   1      39.286  31.471  31.241  1.00  0.00     0.074 A 
ATOM     29  C   UNL A   1      45.640  29.963  30.984  1.00  0.00     0.029 A 
ATOM     30  N   UNL A   1      44.147  31.575  31.074  1.00  0.00    -0.354 N 
ATOM     31  N   UNL A   1      39.965  31.018  32.263  1.00  0.00    -0.248 NA
ATOM     32  C   UNL A   1      39.962  32.479  30.440  1.00  0.00     0.031 C 
ATOM     33  C   UNL A   1      44.716  29.703  32.040  1.00  0.00     0.029 A 
ATOM     34  C   UNL A   1      43.666  30.618  31.936  1.00  0.00     0.049 A 
ATOM     35  H   UNL A   1      43.886  32.523  31.057  1.00  0.00     0.167 HD
ATOM     36  C   UNL A   1      41.285  31.354  31.992  1.00  0.00     0.074 A 
ATOM     37  C   UNL A   1      41.210  32.305  30.882  1.00  0.00     0.031 C 
ATOM     38  C   UNL A   1      42.326  30.619  32.487  1.00  0.00     0.037 A 
BRANCH  25  39
ATOM     39  C   UNL A   1      45.168  32.616  28.245  1.00  0.00     0.058 A 
ATOM     40  C   UNL A   1      46.486  33.061  28.022  1.00  0.00     0.135 A 
ATOM     41  C   UNL A   1      44.164  33.606  28.158  1.00  0.00     0.135 A 
ATOM     42  F   UNL A   1      47.518  32.205  28.086  1.00  0.00    -0.206 F 
ATOM     43  C   UNL A   1      46.790  34.403  27.800  1.00  0.00     0.059 A 
ATOM     44  C   UNL A   1      44.441  34.940  27.884  1.00  0.00     0.059 A 
ATOM     45  F   UNL A   1      42.878  33.353  28.426  1.00  0.00    -0.206 F 
ATOM     46  C   UNL A   1      45.760  35.337  27.747  1.00  0.00     0.060 A 
BRANCH  46  47
ATOM     47  S   UNL A   1      46.161  37.082  27.558  1.00  0.00     0.124 S 
ATOM     48  O   UNL A   1      47.249  37.236  28.518  1.00  0.00    -0.237 OA
ATOM     49  O   UNL A   1      46.535  37.151  26.149  1.00  0.00    -0.237 OA
ATOM     50  O   UNL A   1      44.912  37.754  27.903  1.00  0.00    -0.744 OA
ENDBRANCH  46  47
ENDBRANCH  25  39
BRANCH  26  51
ATOM     51  C   UNL A   1      36.879  31.348  30.226  1.00  0.00     0.058 A 
ATOM     52  C   UNL A   1      36.103  32.022  31.188  1.00  0.00     0.135 A 
ATOM     53  C   UNL A   1      36.520  31.569  28.881  1.00  0.00     0.135 A 
ATOM     54  F   UNL A   1      36.377  31.880  32.494  1.00  0.00    -0.206 F 
ATOM     55  C   UNL A   1      35.081  32.914  30.837  1.00  0.00     0.059 A 
ATOM     56  C   UNL A   1      35.502  32.450  28.507  1.00  0.00     0.059 A 
ATOM     57  F   UNL A   1      37.212  31.003  27.881  1.00  0.00    -0.206 F 
ATOM     58  C   UNL A   1      34.806  33.143  29.490  1.00  0.00     0.060 A 
BRANCH  58  59
ATOM     59  S   UNL A   1      33.620  34.432  29.030  1.00  0.00     0.124 S 
ATOM     60  O   UNL A   1      33.003  34.749  30.314  1.00  0.00    -0.237 OA
ATOM     61  O   UNL A   1      34.488  35.464  28.471  1.00  0.00    -0.237 OA
ATOM     62  O   UNL A   1      32.748  33.765  28.067  1.00  0.00    -0.744 OA
ENDBRANCH  58  59
ENDBRANCH  26  51
BRANCH  38  63
ATOM     63  C   UNL A   1      42.035  29.587  33.555  1.00  0.00     0.058 A 
ATOM     64  C   UNL A   1      41.604  28.270  33.307  1.00  0.00     0.135 A 
ATOM     65  C   UNL A   1      42.376  29.901  34.879  1.00  0.00     0.135 A 
ATOM     66  F   UNL A   1      41.345  27.853  32.060  1.00  0.00    -0.206 F 
ATOM     67  C   UNL A   1      41.490  27.322  34.330  1.00  0.00     0.059 A 
ATOM     68  C   UNL A   1      42.298  28.967  35.910  1.00  0.00     0.059 A 
ATOM     69  F   UNL A   1      42.848  31.123  35.178  1.00  0.00    -0.206 F 
ATOM     70  C   UNL A   1      41.846  27.679  35.630  1.00  0.00     0.060 A 
BRANCH  70  71
ATOM     71  S   UNL A   1      41.766  26.441  36.943  1.00  0.00     0.124 S 
ATOM     72  O   UNL A   1      41.849  25.191  36.194  1.00  0.00    -0.237 OA
ATOM     73  O   UNL A   1      42.932  26.768  37.759  1.00  0.00    -0.237 OA
ATOM     74  O   UNL A   1      40.477  26.698  37.581  1.00  0.00    -0.744 OA
ENDBRANCH  70  71
ENDBRANCH  38  63
ENDBRANCH  12  13
ENDBRANCH   5   7
ENDBRANCH   2   3
ENDBRANCH   1   2
BRANCH   1  75
ATOM     75  C   UNL A   1      38.092  23.122  26.108  1.00  0.00     0.023 C 
BRANCH  75  76
ATOM     76  C   UNL A   1      36.946  23.410  25.132  1.00  0.00     0.116 C 
BRANCH  76  77
ATOM     77  N   UNL A   1      35.947  24.320  25.665  1.00  0.00    -0.352 N 
ATOM     78  C   UNL A   1      34.620  24.453  25.322  1.00  0.00     0.251 C 
ATOM     79  H   UNL A   1      36.262  24.929  26.371  1.00  0.00     0.163 HD
ATOM     80  O   UNL A   1      33.958  25.380  25.777  1.00  0.00    -0.269 OA
BRANCH  78  81
ATOM     81  C   UNL A   1      34.013  23.501  24.372  1.00  0.00     0.049 A 
ATOM     82  C   UNL A   1      33.715  23.891  23.059  1.00  0.00     0.014 A 
ATOM     83  C   UNL A   1      33.712  22.192  24.804  1.00  0.00     0.012 A 
ATOM     84  C   UNL A   1      33.034  23.025  22.211  1.00  0.00     0.003 A 
ATOM     85  C   UNL A   1      33.052  21.323  23.922  1.00  0.00     0.049 A 
ATOM     86  C   UNL A   1      33.895  21.491  26.027  1.00  0.00     0.029 A 
ATOM     87  C   UNL A   1      32.683  21.735  22.627  1.00  0.00     0.027 A 
ATOM     88  N   UNL A   1      32.888  20.123  24.591  1.00  0.00    -0.343 N 
ATOM     89  C   UNL A   1      33.318  20.253  25.890  1.00  0.00     0.087 A 
BRANCH  88  90
ATOM     90  C   UNL A   1      32.280  18.907  24.054  1.00  0.00     0.157 C 
BRANCH  90  91
ATOM     91  C   UNL A   1      33.005  17.651  24.478  1.00  0.00    -0.025 A 
ATOM     92  C   UNL A   1      34.348  17.435  24.148  1.00  0.00     0.025 A 
ATOM     93  C   UNL A   1      32.357  16.670  25.237  1.00  0.00     0.025 A 
ATOM     94  C   UNL A   1      34.970  16.267  24.563  1.00  0.00     0.111 A 
ATOM     95  C   UNL A   1      33.069  15.542  25.621  1.00  0.00     0.111 A 
ATOM     96  N   UNL A   1      34.363  15.322  25.308  1.00  0.00    -0.265 NA
ENDBRANCH  90  91
ENDBRANCH  88  90
ENDBRANCH  78  81
ENDBRANCH  76  77
ENDBRANCH  75  76
ENDBRANCH   1  75
TORSDOF 16
ENDMDL
MODEL 2
REMARK VINA RESULT:     -12.8      1.974      3.782
REMARK SMILES O=C(NCCCCNC(=O)c1cccc2c1ccn2Cc1ccncc1)c1ccc(-c2c3nc(c(-c4c(F)cc(S(=O)(=O)[O-])cc4F)c4ccc([nH]4)c(-c4c(F)cc(S(=O)(=O)[O-])cc4F)c4nc(c(-c5c(F)cc(S(=O)(=O)[O-])cc5F)c5ccc2[nH]5)C=C4)C=C3)cc1
REMARK SMILES IDX 5 1 4 2 3 3 1 4 2 5 27 7 28 8 92 9 29 10 91 11 30 12 31 13
REMARK SMILES IDX 32 14 85 15 33 16 90 17 84 18 86 19 34 20 89 21 83 22 82 23
REMARK SMILES IDX 35 25 69 26 48 27 68 28 49 29 52 30 67 31 87 32 50 33 51 34
REMARK SMILES IDX 66 36 88 37 53 38 36 39 37 40 46 41 38 42 39 43 45 44 47 45
REMARK SMILES IDX 40 46 41 47 42 48 43 49 44 50 70 51 71 52 80 53 72 54 73 55
REMARK SMILES IDX 79 56 81 57 74 58 75 59 76 60 77 61 78 62 54 63 55 64 64 65
REMARK SMILES IDX 56 66 57 67 63 68 65 69 58 70 59 71 60 72 61 73 62 74 6 75
REMARK SMILES IDX 7 76 8 77 9 78 10 80 11 81 12 82 16 83 13 84 15 85 17 86
REMARK SMILES IDX 14 87 19 88 18 89 20 90 21 91 22 92 26 93 23 94 25 95 24 96
REMARK H PARENT 3 6 86 24 52 35 8 79
REMARK Flexibility Score: inf
ROOT
ATOM      1  C   UNL A   1      39.339  22.404  26.366  1.00  0.00     0.023 C 
ENDROOT
BRANCH   1   2
ATOM      2  C   UNL A   1      40.406  22.441  27.445  1.00  0.00     0.116 C 
BRANCH   2   3
ATOM      3  N   UNL A   1      41.776  22.191  26.967  1.00  0.00    -0.352 N 
ATOM      4  O   UNL A   1      43.579  22.728  25.671  1.00  0.00    -0.269 OA
ATOM      5  C   UNL A   1      42.642  23.101  26.352  1.00  0.00     0.251 C 
ATOM      6  H   UNL A   1      42.122  21.278  27.095  1.00  0.00     0.163 HD
BRANCH   5   7
ATOM      7  C   UNL A   1      42.387  24.539  26.582  1.00  0.00     0.039 A 
ATOM      8  C   UNL A   1      41.587  25.350  25.778  1.00  0.00     0.014 A 
ATOM      9  C   UNL A   1      42.924  25.035  27.754  1.00  0.00     0.014 A 
ATOM     10  C   UNL A   1      41.312  26.643  26.231  1.00  0.00     0.010 A 
ATOM     11  C   UNL A   1      42.299  26.077  28.357  1.00  0.00     0.010 A 
ATOM     12  C   UNL A   1      41.677  26.993  27.544  1.00  0.00    -0.014 A 
BRANCH  12  13
ATOM     13  C   UNL A   1      41.424  28.291  28.152  1.00  0.00     0.031 A 
ATOM     14  C   UNL A   1      42.460  29.296  27.848  1.00  0.00     0.074 A 
ATOM     15  C   UNL A   1      40.271  28.601  28.796  1.00  0.00     0.049 A 
ATOM     16  N   UNL A   1      43.407  29.684  28.631  1.00  0.00    -0.248 NA
ATOM     17  C   UNL A   1      42.597  29.767  26.462  1.00  0.00     0.031 C 
ATOM     18  C   UNL A   1      39.029  27.819  28.942  1.00  0.00     0.029 A 
ATOM     19  N   UNL A   1      39.945  29.758  29.430  1.00  0.00    -0.354 N 
ATOM     20  C   UNL A   1      44.109  30.648  27.922  1.00  0.00     0.074 A 
ATOM     21  C   UNL A   1      43.712  30.497  26.546  1.00  0.00     0.031 C 
ATOM     22  C   UNL A   1      38.035  28.605  29.412  1.00  0.00     0.029 A 
ATOM     23  C   UNL A   1      38.603  29.884  29.785  1.00  0.00     0.049 A 
ATOM     24  H   UNL A   1      40.610  30.458  29.624  1.00  0.00     0.167 HD
ATOM     25  C   UNL A   1      44.761  31.647  28.578  1.00  0.00     0.037 A 
ATOM     26  C   UNL A   1      38.013  30.959  30.371  1.00  0.00     0.037 A 
ATOM     27  C   UNL A   1      44.884  31.343  29.985  1.00  0.00     0.049 A 
ATOM     28  C   UNL A   1      39.109  31.719  31.032  1.00  0.00     0.074 A 
ATOM     29  C   UNL A   1      45.487  30.327  30.702  1.00  0.00     0.029 A 
ATOM     30  N   UNL A   1      43.967  31.910  30.841  1.00  0.00    -0.354 N 
ATOM     31  N   UNL A   1      39.802  31.252  32.038  1.00  0.00    -0.248 NA
ATOM     32  C   UNL A   1      39.764  32.758  30.252  1.00  0.00     0.031 C 
ATOM     33  C   UNL A   1      44.574  30.025  31.757  1.00  0.00     0.029 A 
ATOM     34  C   UNL A   1      43.508  30.924  31.681  1.00  0.00     0.049 A 
ATOM     35  H   UNL A   1      43.690  32.854  30.849  1.00  0.00     0.167 HD
ATOM     36  C   UNL A   1      41.115  31.617  31.768  1.00  0.00     0.074 A 
ATOM     37  C   UNL A   1      41.017  32.594  30.683  1.00  0.00     0.031 C 
ATOM     38  C   UNL A   1      42.171  30.888  32.239  1.00  0.00     0.037 A 
BRANCH  25  39
ATOM     39  C   UNL A   1      44.953  33.039  28.033  1.00  0.00     0.058 A 
ATOM     40  C   UNL A   1      46.256  33.479  27.728  1.00  0.00     0.135 A 
ATOM     41  C   UNL A   1      43.958  34.041  28.055  1.00  0.00     0.135 A 
ATOM     42  F   UNL A   1      47.280  32.612  27.684  1.00  0.00    -0.206 F 
ATOM     43  C   UNL A   1      46.560  34.826  27.530  1.00  0.00     0.059 A 
ATOM     44  C   UNL A   1      44.229  35.381  27.808  1.00  0.00     0.059 A 
ATOM     45  F   UNL A   1      42.693  33.791  28.410  1.00  0.00    -0.206 F 
ATOM     46  C   UNL A   1      45.539  35.771  27.586  1.00  0.00     0.060 A 
BRANCH  46  47
ATOM     47  S   UNL A   1      45.946  37.517  27.429  1.00  0.00     0.124 S 
ATOM     48  O   UNL A   1      46.913  37.494  26.337  1.00  0.00    -0.237 OA
ATOM     49  O   UNL A   1      44.645  38.099  27.119  1.00  0.00    -0.237 OA
ATOM     50  O   UNL A   1      46.483  37.857  28.744  1.00  0.00    -0.744 OA
ENDBRANCH  46  47
ENDBRANCH  25  39
BRANCH  26  51
ATOM     51  C   UNL A   1      36.699  31.579  30.027  1.00  0.00     0.058 A 
ATOM     52  C   UNL A   1      35.911  32.202  31.013  1.00  0.00     0.135 A 
ATOM     53  C   UNL A   1      36.335  31.841  28.691  1.00  0.00     0.135 A 
ATOM     54  F   UNL A   1      36.188  32.019  32.313  1.00  0.00    -0.206 F 
ATOM     55  C   UNL A   1      34.871  33.085  30.695  1.00  0.00     0.059 A 
ATOM     56  C   UNL A   1      35.299  32.714  28.349  1.00  0.00     0.059 A 
ATOM     57  F   UNL A   1      37.037  31.325  27.671  1.00  0.00    -0.206 F 
ATOM     58  C   UNL A   1      34.590  33.357  29.356  1.00  0.00     0.060 A 
BRANCH  58  59
ATOM     59  S   UNL A   1      33.377  34.638  28.943  1.00  0.00     0.124 S 
ATOM     60  O   UNL A   1      34.222  35.687  28.384  1.00  0.00    -0.237 OA
ATOM     61  O   UNL A   1      32.511  33.946  27.994  1.00  0.00    -0.237 OA
ATOM     62  O   UNL A   1      32.762  34.951  30.230  1.00  0.00    -0.744 OA
ENDBRANCH  58  59
ENDBRANCH  26  51
BRANCH  38  63
ATOM     63  C   UNL A   1      41.904  29.825  33.283  1.00  0.00     0.058 A 
ATOM     64  C   UNL A   1      41.618  28.475  33.003  1.00  0.00     0.135 A 
ATOM     65  C   UNL A   1      42.121  30.159  34.628  1.00  0.00     0.135 A 
ATOM     66  F   UNL A   1      41.486  28.046  31.741  1.00  0.00    -0.206 F 
ATOM     67  C   UNL A   1      41.522  27.513  34.014  1.00  0.00     0.059 A 
ATOM     68  C   UNL A   1      42.060  29.213  35.649  1.00  0.00     0.059 A 
ATOM     69  F   UNL A   1      42.454  31.417  34.961  1.00  0.00    -0.206 F 
ATOM     70  C   UNL A   1      41.750  27.892  35.337  1.00  0.00     0.060 A 
BRANCH  70  71
ATOM     71  S   UNL A   1      41.695  26.640  36.639  1.00  0.00     0.124 S 
ATOM     72  O   UNL A   1      41.649  25.399  35.873  1.00  0.00    -0.237 OA
ATOM     73  O   UNL A   1      42.936  26.887  37.369  1.00  0.00    -0.237 OA
ATOM     74  O   UNL A   1      40.475  26.963  37.374  1.00  0.00    -0.744 OA
ENDBRANCH  70  71
ENDBRANCH  38  63
ENDBRANCH  12  13
ENDBRANCH   5   7
ENDBRANCH   2   3
ENDBRANCH   1   2
BRANCH   1  75
ATOM     75  C   UNL A   1      38.421  23.633  26.330  1.00  0.00     0.023 C 
BRANCH  75  76
ATOM     76  C   UNL A   1      37.072  23.478  25.619  1.00  0.00     0.116 C 
BRANCH  76  77
ATOM     77  N   UNL A   1      35.995  23.071  26.505  1.00  0.00    -0.352 N 
ATOM     78  C   UNL A   1      34.634  23.195  26.335  1.00  0.00     0.251 C 
ATOM     79  H   UNL A   1      36.277  22.647  27.347  1.00  0.00     0.163 HD
ATOM     80  O   UNL A   1      33.872  22.927  27.258  1.00  0.00    -0.269 OA
BRANCH  78  81
ATOM     81  C   UNL A   1      34.102  23.694  25.052  1.00  0.00     0.049 A 
ATOM     82  C   UNL A   1      33.897  22.821  23.974  1.00  0.00     0.014 A 
ATOM     83  C   UNL A   1      33.819  25.069  24.909  1.00  0.00     0.012 A 
ATOM     84  C   UNL A   1      33.512  23.321  22.735  1.00  0.00     0.003 A 
ATOM     85  C   UNL A   1      33.400  25.547  23.658  1.00  0.00     0.049 A 
ATOM     86  C   UNL A   1      33.895  26.187  25.783  1.00  0.00     0.029 A 
ATOM     87  C   UNL A   1      33.266  24.687  22.552  1.00  0.00     0.027 A 
ATOM     88  N   UNL A   1      33.191  26.908  23.801  1.00  0.00    -0.343 N 
ATOM     89  C   UNL A   1      33.575  27.307  25.059  1.00  0.00     0.087 A 
BRANCH  88  90
ATOM     90  C   UNL A   1      32.716  27.825  22.767  1.00  0.00     0.157 C 
BRANCH  90  91
ATOM     91  C   UNL A   1      31.228  28.080  22.847  1.00  0.00    -0.025 A 
ATOM     92  C   UNL A   1      30.361  27.161  23.449  1.00  0.00     0.025 A 
ATOM     93  C   UNL A   1      30.675  29.260  22.339  1.00  0.00     0.025 A 
ATOM     94  C   UNL A   1      29.003  27.443  23.500  1.00  0.00     0.111 A 
ATOM     95  C   UNL A   1      29.305  29.460  22.454  1.00  0.00     0.111 A 
ATOM     96  N   UNL A   1      28.459  28.581  23.030  1.00  0.00    -0.265 NA
ENDBRANCH  90  91
ENDBRANCH  88  90
ENDBRANCH  78  81
ENDBRANCH  76  77
ENDBRANCH  75  76
ENDBRANCH   1  75
TORSDOF 16
ENDMDL
MODEL 3
REMARK VINA RESULT:     -12.6      2.294      3.014
REMARK SMILES O=C(NCCCCNC(=O)c1cccc2c1ccn2Cc1ccncc1)c1ccc(-c2c3nc(c(-c4c(F)cc(S(=O)(=O)[O-])cc4F)c4ccc([nH]4)c(-c4c(F)cc(S(=O)(=O)[O-])cc4F)c4nc(c(-c5c(F)cc(S(=O)(=O)[O-])cc5F)c5ccc2[nH]5)C=C4)C=C3)cc1
REMARK SMILES IDX 5 1 4 2 3 3 1 4 2 5 27 7 28 8 92 9 29 10 91 11 30 12 31 13
REMARK SMILES IDX 32 14 85 15 33 16 90 17 84 18 86 19 34 20 89 21 83 22 82 23
REMARK SMILES IDX 35 25 69 26 48 27 68 28 49 29 52 30 67 31 87 32 50 33 51 34
REMARK SMILES IDX 66 36 88 37 53 38 36 39 37 40 46 41 38 42 39 43 45 44 47 45
REMARK SMILES IDX 40 46 41 47 42 48 43 49 44 50 70 51 71 52 80 53 72 54 73 55
REMARK SMILES IDX 79 56 81 57 74 58 75 59 76 60 77 61 78 62 54 63 55 64 64 65
REMARK SMILES IDX 56 66 57 67 63 68 65 69 58 70 59 71 60 72 61 73 62 74 6 75
REMARK SMILES IDX 7 76 8 77 9 78 10 80 11 81 12 82 16 83 13 84 15 85 17 86
REMARK SMILES IDX 14 87 19 88 18 89 20 90 21 91 22 92 26 93 23 94 25 95 24 96
REMARK H PARENT 3 6 86 24 52 35 8 79
REMARK Flexibility Score: inf
ROOT
ATOM      1  C   UNL A   1      41.119  20.256  26.163  1.00  0.00     0.023 C 
ENDROOT
BRANCH   1   2
ATOM      2  C   UNL A   1      42.367  19.900  26.951  1.00  0.00     0.116 C 
BRANCH   2   3
ATOM      3  N   UNL A   1      43.562  19.643  26.130  1.00  0.00    -0.352 N 
ATOM      4  O   UNL A   1      44.953  20.159  24.393  1.00  0.00    -0.269 OA
ATOM      5  C   UNL A   1      44.229  20.543  25.291  1.00  0.00     0.251 C 
ATOM      6  H   UNL A   1      43.935  18.733  26.177  1.00  0.00     0.163 HD
BRANCH   5   7
ATOM      7  C   UNL A   1      44.036  21.984  25.557  1.00  0.00     0.039 A 
ATOM      8  C   UNL A   1      43.333  22.864  24.734  1.00  0.00     0.014 A 
ATOM      9  C   UNL A   1      44.522  22.412  26.777  1.00  0.00     0.014 A 
ATOM     10  C   UNL A   1      43.098  24.155  25.216  1.00  0.00     0.010 A 
ATOM     11  C   UNL A   1      43.916  23.466  27.377  1.00  0.00     0.010 A 
ATOM     12  C   UNL A   1      43.397  24.441  26.560  1.00  0.00    -0.014 A 
BRANCH  12  13
ATOM     13  C   UNL A   1      43.175  25.730  27.198  1.00  0.00     0.031 A 
ATOM     14  C   UNL A   1      44.179  26.748  26.835  1.00  0.00     0.074 A 
ATOM     15  C   UNL A   1      42.065  26.023  27.921  1.00  0.00     0.049 A 
ATOM     16  N   UNL A   1      45.174  27.137  27.558  1.00  0.00    -0.248 NA
ATOM     17  C   UNL A   1      44.219  27.234  25.448  1.00  0.00     0.031 C 
ATOM     18  C   UNL A   1      40.843  25.230  28.142  1.00  0.00     0.029 A 
ATOM     19  N   UNL A   1      41.773  27.172  28.588  1.00  0.00    -0.354 N 
ATOM     20  C   UNL A   1      45.818  28.114  26.814  1.00  0.00     0.074 A 
ATOM     21  C   UNL A   1      45.331  27.973  25.465  1.00  0.00     0.031 C 
ATOM     22  C   UNL A   1      39.875  26.001  28.686  1.00  0.00     0.029 A 
ATOM     23  C   UNL A   1      40.456  27.282  29.033  1.00  0.00     0.049 A 
ATOM     24  H   UNL A   1      42.444  27.875  28.744  1.00  0.00     0.167 HD
ATOM     25  C   UNL A   1      46.505  29.112  27.435  1.00  0.00     0.037 A 
ATOM     26  C   UNL A   1      39.899  28.346  29.668  1.00  0.00     0.037 A 
ATOM     27  C   UNL A   1      46.725  28.795  28.827  1.00  0.00     0.049 A 
ATOM     28  C   UNL A   1      41.031  29.108  30.263  1.00  0.00     0.074 A 
ATOM     29  C   UNL A   1      47.383  27.777  29.491  1.00  0.00     0.029 A 
ATOM     30  N   UNL A   1      45.863  29.345  29.748  1.00  0.00    -0.354 N 
ATOM     31  N   UNL A   1      41.793  28.638  31.215  1.00  0.00    -0.248 NA
ATOM     32  C   UNL A   1      41.622  30.161  29.452  1.00  0.00     0.031 C 
ATOM     33  C   UNL A   1      46.545  27.456  30.601  1.00  0.00     0.029 A 
ATOM     34  C   UNL A   1      45.469  28.347  30.607  1.00  0.00     0.049 A 
ATOM     35  H   UNL A   1      45.579  30.286  29.785  1.00  0.00     0.167 HD
ATOM     36  C   UNL A   1      43.081  29.017  30.862  1.00  0.00     0.074 A 
ATOM     37  C   UNL A   1      42.904  30.004  29.796  1.00  0.00     0.031 C 
ATOM     38  C   UNL A   1      44.173  28.293  31.253  1.00  0.00     0.037 A 
BRANCH  25  39
ATOM     39  C   UNL A   1      46.649  30.511  26.893  1.00  0.00     0.058 A 
ATOM     40  C   UNL A   1      47.918  31.122  26.906  1.00  0.00     0.135 A 
ATOM     41  C   UNL A   1      45.560  31.368  26.618  1.00  0.00     0.135 A 
ATOM     42  F   UNL A   1      49.022  30.402  27.161  1.00  0.00    -0.206 F 
ATOM     43  C   UNL A   1      48.086  32.494  26.730  1.00  0.00     0.059 A 
ATOM     44  C   UNL A   1      45.710  32.730  26.386  1.00  0.00     0.059 A 
ATOM     45  F   UNL A   1      44.289  30.951  26.654  1.00  0.00    -0.206 F 
ATOM     46  C   UNL A   1      46.972  33.292  26.484  1.00  0.00     0.060 A 
BRANCH  46  47
ATOM     47  S   UNL A   1      47.177  35.075  26.355  1.00  0.00     0.124 S 
ATOM     48  O   UNL A   1      45.861  35.486  25.877  1.00  0.00    -0.237 OA
ATOM     49  O   UNL A   1      47.500  35.439  27.731  1.00  0.00    -0.237 OA
ATOM     50  O   UNL A   1      48.271  35.220  25.400  1.00  0.00    -0.744 OA
ENDBRANCH  46  47
ENDBRANCH  25  39
BRANCH  26  51
ATOM     51  C   UNL A   1      38.559  28.957  29.421  1.00  0.00     0.058 A 
ATOM     52  C   UNL A   1      37.670  29.210  30.482  1.00  0.00     0.135 A 
ATOM     53  C   UNL A   1      38.249  29.580  28.195  1.00  0.00     0.135 A 
ATOM     54  F   UNL A   1      37.888  28.666  31.689  1.00  0.00    -0.206 F 
ATOM     55  C   UNL A   1      36.580  30.082  30.356  1.00  0.00     0.059 A 
ATOM     56  C   UNL A   1      37.166  30.450  28.044  1.00  0.00     0.059 A 
ATOM     57  F   UNL A   1      39.047  29.435  27.127  1.00  0.00    -0.206 F 
ATOM     58  C   UNL A   1      36.353  30.720  29.137  1.00  0.00     0.060 A 
BRANCH  58  59
ATOM     59  S   UNL A   1      35.064  31.988  29.024  1.00  0.00     0.124 S 
ATOM     60  O   UNL A   1      34.687  32.164  30.422  1.00  0.00    -0.237 OA
ATOM     61  O   UNL A   1      35.783  33.103  28.416  1.00  0.00    -0.237 OA
ATOM     62  O   UNL A   1      34.049  31.368  28.177  1.00  0.00    -0.744 OA
ENDBRANCH  58  59
ENDBRANCH  26  51
BRANCH  38  63
ATOM     63  C   UNL A   1      43.986  27.217  32.301  1.00  0.00     0.058 A 
ATOM     64  C   UNL A   1      43.929  25.835  32.036  1.00  0.00     0.135 A 
ATOM     65  C   UNL A   1      44.041  27.600  33.650  1.00  0.00     0.135 A 
ATOM     66  F   UNL A   1      43.967  25.373  30.779  1.00  0.00    -0.206 F 
ATOM     67  C   UNL A   1      43.897  24.885  33.062  1.00  0.00     0.059 A 
ATOM     68  C   UNL A   1      44.040  26.671  34.688  1.00  0.00     0.059 A 
ATOM     69  F   UNL A   1      44.153  28.899  33.973  1.00  0.00    -0.206 F 
ATOM     70  C   UNL A   1      43.959  25.313  34.388  1.00  0.00     0.060 A 
BRANCH  70  71
ATOM     71  S   UNL A   1      43.988  24.087  35.715  1.00  0.00     0.124 S 
ATOM     72  O   UNL A   1      45.389  24.106  36.122  1.00  0.00    -0.237 OA
ATOM     73  O   UNL A   1      43.041  24.641  36.679  1.00  0.00    -0.237 OA
ATOM     74  O   UNL A   1      43.548  22.859  35.058  1.00  0.00    -0.744 OA
ENDBRANCH  70  71
ENDBRANCH  38  63
ENDBRANCH  12  13
ENDBRANCH   5   7
ENDBRANCH   2   3
ENDBRANCH   1   2
BRANCH   1  75
ATOM     75  C   UNL A   1      40.502  21.615  26.519  1.00  0.00     0.023 C 
BRANCH  75  76
ATOM     76  C   UNL A   1      39.038  21.843  26.126  1.00  0.00     0.116 C 
BRANCH  76  77
ATOM     77  N   UNL A   1      38.493  23.093  26.627  1.00  0.00    -0.352 N 
ATOM     78  C   UNL A   1      37.345  23.754  26.251  1.00  0.00     0.251 C 
ATOM     79  H   UNL A   1      39.018  23.530  27.335  1.00  0.00     0.163 HD
ATOM     80  O   UNL A   1      37.115  24.880  26.682  1.00  0.00    -0.269 OA
BRANCH  78  81
ATOM     81  C   UNL A   1      36.418  23.120  25.295  1.00  0.00     0.049 A 
ATOM     82  C   UNL A   1      36.600  23.269  23.913  1.00  0.00     0.014 A 
ATOM     83  C   UNL A   1      35.325  22.373  25.784  1.00  0.00     0.012 A 
ATOM     84  C   UNL A   1      35.654  22.770  23.025  1.00  0.00     0.003 A 
ATOM     85  C   UNL A   1      34.398  21.850  24.869  1.00  0.00     0.049 A 
ATOM     86  C   UNL A   1      34.875  22.022  27.086  1.00  0.00     0.029 A 
ATOM     87  C   UNL A   1      34.536  22.063  23.484  1.00  0.00     0.027 A 
ATOM     88  N   UNL A   1      33.447  21.170  25.609  1.00  0.00    -0.343 N 
ATOM     89  C   UNL A   1      33.687  21.348  26.951  1.00  0.00     0.087 A 
BRANCH  88  90
ATOM     90  C   UNL A   1      32.302  20.432  25.079  1.00  0.00     0.157 C 
BRANCH  90  91
ATOM     91  C   UNL A   1      32.629  18.992  24.756  1.00  0.00    -0.025 A 
ATOM     92  C   UNL A   1      32.930  18.587  23.451  1.00  0.00     0.025 A 
ATOM     93  C   UNL A   1      32.661  18.021  25.763  1.00  0.00     0.025 A 
ATOM     94  C   UNL A   1      33.227  17.254  23.206  1.00  0.00     0.111 A 
ATOM     95  C   UNL A   1      32.987  16.715  25.422  1.00  0.00     0.111 A 
ATOM     96  N   UNL A   1      33.278  16.312  24.168  1.00  0.00    -0.265 NA
ENDBRANCH  90  91
ENDBRANCH  88  90
ENDBRANCH  78  81
ENDBRANCH  76  77
ENDBRANCH  75  76
ENDBRANCH   1  75
TORSDOF 16
ENDMDL
