MODEL 1
REMARK VINA RESULT:     -12.5      0.000      0.000
REMARK SMILES O=C(C/C(=C/c1ccc(N2CCOCC2)c(F)c1)c1nc2ccccc2s1)NCCCCNC(=O)c1ccc(-c2c3nc(c(-c4c(F)cc(S(=O)(=O)[O-])cc4F)c4ccc([nH]4)c(-c4c(F)cc(S(=O)(=O)[O-])cc4F)c4nc(c(-c5c(F)cc(S(=O)(=O)[O-])cc5F)c5ccc2[nH]5)C=C4)C=C3)cc1
REMARK SMILES IDX 30 1 29 2 28 3 1 4 2 5 3 7 4 8 5 9 19 10 20 11 27 12 21 13
REMARK SMILES IDX 26 14 22 15 25 16 23 17 24 18 6 19 7 20 18 21 8 22 16 23
REMARK SMILES IDX 9 24 17 25 10 26 11 27 15 28 12 29 14 30 13 31 31 32 32 33
REMARK SMILES IDX 33 34 34 35 35 37 36 38 37 39 101 40 38 41 100 42 39 43
REMARK SMILES IDX 40 44 41 45 94 46 42 47 99 48 93 49 95 50 43 51 98 52 92 53
REMARK SMILES IDX 91 54 44 56 78 57 57 58 77 59 58 60 61 61 76 62 96 63 59 64
REMARK SMILES IDX 60 65 75 67 97 68 62 69 45 70 46 71 55 72 47 73 48 74 54 75
REMARK SMILES IDX 56 76 49 77 50 78 51 79 52 80 53 81 79 82 80 83 89 84 81 85
REMARK SMILES IDX 82 86 88 87 90 88 83 89 84 90 85 91 86 92 87 93 63 94 64 95
REMARK SMILES IDX 73 96 65 97 66 98 72 99 74 100 67 101 68 102 69 103 70 104
REMARK SMILES IDX 71 105
REMARK H PARENT 28 6 33 36 95 55 61 66
REMARK Flexibility Score: inf
ROOT
ATOM      1  C   UNL A   1      33.885  28.627  24.759  1.00  0.00     0.023 C 
ENDROOT
BRANCH   1   2
ATOM      2  C   UNL A   1      33.637  28.195  23.317  1.00  0.00     0.116 C 
BRANCH   2   3
ATOM      3  N   UNL A   1      32.734  27.065  23.224  1.00  0.00    -0.356 N 
ATOM      4  O   UNL A   1      33.936  25.940  21.622  1.00  0.00    -0.275 OA
ATOM      5  C   UNL A   1      32.992  25.985  22.405  1.00  0.00     0.224 C 
ATOM      6  H   UNL A   1      31.910  27.067  23.763  1.00  0.00     0.163 HD
BRANCH   5   7
ATOM      7  C   UNL A   1      31.992  24.840  22.518  1.00  0.00     0.138 C 
BRANCH   7   8
ATOM      8  C   UNL A   1      32.545  23.610  23.228  1.00  0.00    -0.002 C 
ATOM      9  C   UNL A   1      31.778  22.491  23.243  1.00  0.00     0.015 C 
BRANCH   8  10
ATOM     10  C   UNL A   1      33.869  23.550  23.803  1.00  0.00     0.121 A 
ATOM     11  N   UNL A   1      34.867  22.800  23.374  1.00  0.00    -0.236 NA
ATOM     12  S   UNL A   1      34.249  24.462  25.225  1.00  0.00    -0.114 S 
ATOM     13  C   UNL A   1      35.942  22.853  24.242  1.00  0.00     0.082 A 
ATOM     14  C   UNL A   1      35.795  23.727  25.317  1.00  0.00     0.055 A 
ATOM     15  C   UNL A   1      37.133  22.109  24.135  1.00  0.00     0.030 A 
ATOM     16  C   UNL A   1      36.803  23.904  26.278  1.00  0.00     0.021 A 
ATOM     17  C   UNL A   1      38.140  22.264  25.094  1.00  0.00     0.002 A 
ATOM     18  C   UNL A   1      37.977  23.156  26.149  1.00  0.00     0.002 A 
ENDBRANCH   8  10
BRANCH   9  19
ATOM     19  C   UNL A   1      32.120  21.183  23.826  1.00  0.00    -0.022 A 
ATOM     20  C   UNL A   1      32.401  21.036  25.187  1.00  0.00     0.010 A 
ATOM     21  C   UNL A   1      32.182  20.060  23.000  1.00  0.00     0.049 A 
ATOM     22  C   UNL A   1      32.798  19.796  25.701  1.00  0.00     0.029 A 
ATOM     23  C   UNL A   1      32.592  18.833  23.524  1.00  0.00     0.147 A 
ATOM     24  C   UNL A   1      32.928  18.669  24.879  1.00  0.00     0.073 A 
ATOM     25  F   UNL A   1      32.641  17.782  22.687  1.00  0.00    -0.205 F 
BRANCH  24  26
ATOM     26  N   UNL A   1      33.382  17.476  25.398  1.00  0.00    -0.365 N 
ATOM     27  C   UNL A   1      34.770  17.033  25.237  1.00  0.00     0.145 C 
ATOM     28  C   UNL A   1      32.474  16.500  26.011  1.00  0.00     0.145 C 
ATOM     29  C   UNL A   1      34.811  15.656  24.564  1.00  0.00     0.181 C 
ATOM     30  C   UNL A   1      32.624  15.146  25.295  1.00  0.00     0.181 C 
ATOM     31  O   UNL A   1      33.996  14.704  25.271  1.00  0.00    -0.378 OA
ENDBRANCH  24  26
ENDBRANCH   9  19
ENDBRANCH   7   8
ENDBRANCH   5   7
ENDBRANCH   2   3
ENDBRANCH   1   2
BRANCH   1  32
ATOM     32  C   UNL A   1      32.997  27.941  25.800  1.00  0.00     0.023 C 
BRANCH  32  33
ATOM     33  C   UNL A   1      33.310  28.275  27.257  1.00  0.00     0.116 C 
BRANCH  33  34
ATOM     34  N   UNL A   1      33.251  29.700  27.538  1.00  0.00    -0.352 N 
ATOM     35  C   UNL A   1      34.222  30.530  28.049  1.00  0.00     0.251 C 
ATOM     36  H   UNL A   1      32.391  30.134  27.334  1.00  0.00     0.163 HD
ATOM     37  O   UNL A   1      33.934  31.686  28.354  1.00  0.00    -0.269 OA
BRANCH  35  38
ATOM     38  C   UNL A   1      35.599  30.030  28.262  1.00  0.00     0.039 A 
ATOM     39  C   UNL A   1      36.493  30.034  27.187  1.00  0.00     0.014 A 
ATOM     40  C   UNL A   1      36.015  29.557  29.510  1.00  0.00     0.014 A 
ATOM     41  C   UNL A   1      37.819  29.638  27.383  1.00  0.00     0.010 A 
ATOM     42  C   UNL A   1      37.355  29.235  29.721  1.00  0.00     0.010 A 
ATOM     43  C   UNL A   1      38.274  29.275  28.662  1.00  0.00    -0.014 A 
BRANCH  43  44
ATOM     44  C   UNL A   1      39.705  28.954  28.911  1.00  0.00     0.031 A 
ATOM     45  C   UNL A   1      40.634  29.996  29.476  1.00  0.00     0.074 A 
ATOM     46  C   UNL A   1      40.184  27.738  28.579  1.00  0.00     0.049 A 
ATOM     47  N   UNL A   1      41.922  29.923  29.692  1.00  0.00    -0.248 NA
ATOM     48  C   UNL A   1      40.043  31.299  29.822  1.00  0.00     0.031 C 
ATOM     49  C   UNL A   1      39.396  26.651  27.992  1.00  0.00     0.029 A 
ATOM     50  N   UNL A   1      41.448  27.208  28.680  1.00  0.00    -0.354 N 
ATOM     51  C   UNL A   1      42.295  31.163  30.196  1.00  0.00     0.074 A 
ATOM     52  C   UNL A   1      41.109  31.992  30.198  1.00  0.00     0.031 C 
ATOM     53  C   UNL A   1      40.184  25.580  27.814  1.00  0.00     0.029 A 
ATOM     54  C   UNL A   1      41.545  25.912  28.227  1.00  0.00     0.049 A 
ATOM     55  H   UNL A   1      42.213  27.710  29.042  1.00  0.00     0.167 HD
ATOM     56  C   UNL A   1      43.509  31.566  30.642  1.00  0.00     0.037 A 
ATOM     57  C   UNL A   1      42.607  25.086  28.144  1.00  0.00     0.037 A 
ATOM     58  C   UNL A   1      44.682  30.730  30.659  1.00  0.00     0.049 A 
ATOM     59  C   UNL A   1      43.952  25.568  28.617  1.00  0.00     0.074 A 
ATOM     60  C   UNL A   1      45.946  31.038  31.130  1.00  0.00     0.029 A 
ATOM     61  N   UNL A   1      44.738  29.427  30.187  1.00  0.00    -0.354 N 
ATOM     62  N   UNL A   1      44.275  26.730  29.131  1.00  0.00    -0.248 NA
ATOM     63  C   UNL A   1      45.077  24.629  28.501  1.00  0.00     0.031 C 
ATOM     64  C   UNL A   1      46.780  29.940  30.898  1.00  0.00     0.029 A 
ATOM     65  C   UNL A   1      46.022  28.926  30.335  1.00  0.00     0.049 A 
ATOM     66  H   UNL A   1      43.979  28.931  29.804  1.00  0.00     0.167 HD
ATOM     67  C   UNL A   1      45.633  26.654  29.422  1.00  0.00     0.074 A 
ATOM     68  C   UNL A   1      46.068  25.327  29.040  1.00  0.00     0.031 C 
ATOM     69  C   UNL A   1      46.444  27.600  29.958  1.00  0.00     0.037 A 
BRANCH  56  70
ATOM     70  C   UNL A   1      43.639  32.969  31.170  1.00  0.00     0.058 A 
ATOM     71  C   UNL A   1      44.050  34.016  30.330  1.00  0.00     0.135 A 
ATOM     72  C   UNL A   1      43.436  33.262  32.529  1.00  0.00     0.135 A 
ATOM     73  F   UNL A   1      44.252  33.794  29.022  1.00  0.00    -0.206 F 
ATOM     74  C   UNL A   1      44.277  35.298  30.820  1.00  0.00     0.059 A 
ATOM     75  C   UNL A   1      43.629  34.544  33.036  1.00  0.00     0.059 A 
ATOM     76  F   UNL A   1      43.022  32.304  33.372  1.00  0.00    -0.206 F 
ATOM     77  C   UNL A   1      44.065  35.552  32.176  1.00  0.00     0.060 A 
BRANCH  77  78
ATOM     78  S   UNL A   1      44.345  37.225  32.794  1.00  0.00     0.124 S 
ATOM     79  O   UNL A   1      43.358  37.320  33.863  1.00  0.00    -0.237 OA
ATOM     80  O   UNL A   1      45.741  37.162  33.217  1.00  0.00    -0.237 OA
ATOM     81  O   UNL A   1      44.091  38.064  31.625  1.00  0.00    -0.744 OA
ENDBRANCH  77  78
ENDBRANCH  56  70
BRANCH  57  82
ATOM     82  C   UNL A   1      42.432  23.708  27.611  1.00  0.00     0.058 A 
ATOM     83  C   UNL A   1      42.264  22.608  28.467  1.00  0.00     0.135 A 
ATOM     84  C   UNL A   1      42.463  23.458  26.230  1.00  0.00     0.135 A 
ATOM     85  F   UNL A   1      42.237  22.788  29.798  1.00  0.00    -0.206 F 
ATOM     86  C   UNL A   1      42.157  21.311  27.977  1.00  0.00     0.059 A 
ATOM     87  C   UNL A   1      42.329  22.172  25.713  1.00  0.00     0.059 A 
ATOM     88  F   UNL A   1      42.609  24.478  25.370  1.00  0.00    -0.206 F 
ATOM     89  C   UNL A   1      42.194  21.103  26.598  1.00  0.00     0.060 A 
BRANCH  89  90
ATOM     90  S   UNL A   1      42.066  19.409  25.985  1.00  0.00     0.124 S 
ATOM     91  O   UNL A   1      42.576  18.650  27.123  1.00  0.00    -0.237 OA
ATOM     92  O   UNL A   1      40.635  19.286  25.729  1.00  0.00    -0.237 OA
ATOM     93  O   UNL A   1      42.916  19.413  24.800  1.00  0.00    -0.744 OA
ENDBRANCH  89  90
ENDBRANCH  57  82
BRANCH  69  94
ATOM     94  C   UNL A   1      47.886  27.241  30.191  1.00  0.00     0.058 A 
ATOM     95  C   UNL A   1      48.281  26.630  31.394  1.00  0.00     0.135 A 
ATOM     96  C   UNL A   1      48.889  27.581  29.270  1.00  0.00     0.135 A 
ATOM     97  F   UNL A   1      47.364  26.287  32.311  1.00  0.00    -0.206 F 
ATOM     98  C   UNL A   1      49.620  26.392  31.684  1.00  0.00     0.059 A 
ATOM     99  C   UNL A   1      50.233  27.326  29.527  1.00  0.00     0.059 A 
ATOM    100  F   UNL A   1      48.564  28.157  28.102  1.00  0.00    -0.206 F 
ATOM    101  C   UNL A   1      50.590  26.748  30.746  1.00  0.00     0.060 A 
BRANCH 101 102
ATOM    102  S   UNL A   1      52.323  26.433  31.142  1.00  0.00     0.124 S 
ATOM    103  O   UNL A   1      52.233  25.204  31.924  1.00  0.00    -0.237 OA
ATOM    104  O   UNL A   1      52.922  26.299  29.818  1.00  0.00    -0.237 OA
ATOM    105  O   UNL A   1      52.723  27.623  31.887  1.00  0.00    -0.744 OA
ENDBRANCH 101 102
ENDBRANCH  69  94
ENDBRANCH  43  44
ENDBRANCH  35  38
ENDBRANCH  33  34
ENDBRANCH  32  33
ENDBRANCH   1  32
TORSDOF 18
ENDMDL
MODEL 2
REMARK VINA RESULT:     -12.2      3.605     10.061
REMARK SMILES O=C(C/C(=C/c1ccc(N2CCOCC2)c(F)c1)c1nc2ccccc2s1)NCCCCNC(=O)c1ccc(-c2c3nc(c(-c4c(F)cc(S(=O)(=O)[O-])cc4F)c4ccc([nH]4)c(-c4c(F)cc(S(=O)(=O)[O-])cc4F)c4nc(c(-c5c(F)cc(S(=O)(=O)[O-])cc5F)c5ccc2[nH]5)C=C4)C=C3)cc1
REMARK SMILES IDX 30 1 29 2 28 3 1 4 2 5 3 7 4 8 5 9 19 10 20 11 27 12 21 13
REMARK SMILES IDX 26 14 22 15 25 16 23 17 24 18 6 19 7 20 18 21 8 22 16 23
REMARK SMILES IDX 9 24 17 25 10 26 11 27 15 28 12 29 14 30 13 31 31 32 32 33
REMARK SMILES IDX 33 34 34 35 35 37 36 38 37 39 101 40 38 41 100 42 39 43
REMARK SMILES IDX 40 44 41 45 94 46 42 47 99 48 93 49 95 50 43 51 98 52 92 53
REMARK SMILES IDX 91 54 44 56 78 57 57 58 77 59 58 60 61 61 76 62 96 63 59 64
REMARK SMILES IDX 60 65 75 67 97 68 62 69 45 70 46 71 55 72 47 73 48 74 54 75
REMARK SMILES IDX 56 76 49 77 50 78 51 79 52 80 53 81 79 82 80 83 89 84 81 85
REMARK SMILES IDX 82 86 88 87 90 88 83 89 84 90 85 91 86 92 87 93 63 94 64 95
REMARK SMILES IDX 73 96 65 97 66 98 72 99 74 100 67 101 68 102 69 103 70 104
REMARK SMILES IDX 71 105
REMARK H PARENT 28 6 33 36 95 55 61 66
REMARK Flexibility Score: inf
ROOT
ATOM      1  C   UNL A   1      35.186  22.961  26.837  1.00  0.00     0.023 C 
ENDROOT
BRANCH   1   2
ATOM      2  C   UNL A   1      33.855  22.263  27.102  1.00  0.00     0.116 C 
BRANCH   2   3
ATOM      3  N   UNL A   1      32.860  22.564  26.093  1.00  0.00    -0.356 N 
ATOM      4  O   UNL A   1      31.421  23.664  27.506  1.00  0.00    -0.275 OA
ATOM      5  C   UNL A   1      31.727  23.300  26.374  1.00  0.00     0.224 C 
ATOM      6  H   UNL A   1      32.997  22.233  25.175  1.00  0.00     0.163 HD
BRANCH   5   7
ATOM      7  C   UNL A   1      30.850  23.614  25.169  1.00  0.00     0.138 C 
BRANCH   7   8
ATOM      8  C   UNL A   1      30.854  25.085  24.772  1.00  0.00    -0.002 C 
ATOM      9  C   UNL A   1      29.999  25.479  23.795  1.00  0.00     0.015 C 
BRANCH   8  10
ATOM     10  C   UNL A   1      31.652  26.088  25.440  1.00  0.00     0.121 A 
ATOM     11  N   UNL A   1      31.198  27.027  26.248  1.00  0.00    -0.236 NA
ATOM     12  S   UNL A   1      33.358  26.179  25.159  1.00  0.00    -0.114 S 
ATOM     13  C   UNL A   1      32.198  27.922  26.586  1.00  0.00     0.082 A 
ATOM     14  C   UNL A   1      33.463  27.614  26.092  1.00  0.00     0.055 A 
ATOM     15  C   UNL A   1      32.040  29.089  27.359  1.00  0.00     0.030 A 
ATOM     16  C   UNL A   1      34.584  28.416  26.358  1.00  0.00     0.021 A 
ATOM     17  C   UNL A   1      33.146  29.906  27.620  1.00  0.00     0.002 A 
ATOM     18  C   UNL A   1      34.403  29.568  27.129  1.00  0.00     0.002 A 
ENDBRANCH   8  10
BRANCH   9  19
ATOM     19  C   UNL A   1      29.799  26.845  23.282  1.00  0.00    -0.022 A 
ATOM     20  C   UNL A   1      30.817  27.538  22.621  1.00  0.00     0.010 A 
ATOM     21  C   UNL A   1      28.569  27.475  23.472  1.00  0.00     0.049 A 
ATOM     22  C   UNL A   1      30.625  28.863  22.211  1.00  0.00     0.029 A 
ATOM     23  C   UNL A   1      28.396  28.800  23.070  1.00  0.00     0.147 A 
ATOM     24  C   UNL A   1      29.420  29.536  22.447  1.00  0.00     0.073 A 
ATOM     25  F   UNL A   1      27.194  29.365  23.279  1.00  0.00    -0.205 F 
BRANCH  24  26
ATOM     26  N   UNL A   1      29.280  30.860  22.090  1.00  0.00    -0.365 N 
ATOM     27  C   UNL A   1      29.285  31.939  23.081  1.00  0.00     0.145 C 
ATOM     28  C   UNL A   1      28.961  31.265  20.717  1.00  0.00     0.145 C 
ATOM     29  C   UNL A   1      27.998  32.764  22.972  1.00  0.00     0.181 C 
ATOM     30  C   UNL A   1      27.682  32.122  20.722  1.00  0.00     0.181 C 
ATOM     31  O   UNL A   1      27.792  33.237  21.629  1.00  0.00    -0.378 OA
ENDBRANCH  24  26
ENDBRANCH   9  19
ENDBRANCH   7   8
ENDBRANCH   5   7
ENDBRANCH   2   3
ENDBRANCH   1   2
BRANCH   1  32
ATOM     32  C   UNL A   1      35.549  23.117  25.358  1.00  0.00     0.023 C 
BRANCH  32  33
ATOM     33  C   UNL A   1      36.944  23.669  25.076  1.00  0.00     0.116 C 
BRANCH  33  34
ATOM     34  N   UNL A   1      38.002  22.716  25.371  1.00  0.00    -0.352 N 
ATOM     35  C   UNL A   1      39.170  22.897  26.074  1.00  0.00     0.251 C 
ATOM     36  H   UNL A   1      37.861  21.809  25.014  1.00  0.00     0.163 HD
ATOM     37  O   UNL A   1      40.013  22.002  26.092  1.00  0.00    -0.269 OA
BRANCH  35  38
ATOM     38  C   UNL A   1      39.429  24.172  26.780  1.00  0.00     0.039 A 
ATOM     39  C   UNL A   1      38.920  24.345  28.071  1.00  0.00     0.014 A 
ATOM     40  C   UNL A   1      40.168  25.197  26.181  1.00  0.00     0.014 A 
ATOM     41  C   UNL A   1      39.216  25.510  28.786  1.00  0.00     0.010 A 
ATOM     42  C   UNL A   1      40.524  26.323  26.922  1.00  0.00     0.010 A 
ATOM     43  C   UNL A   1      40.056  26.491  28.234  1.00  0.00    -0.014 A 
BRANCH  43  44
ATOM     44  C   UNL A   1      40.469  27.686  29.019  1.00  0.00     0.031 A 
ATOM     45  C   UNL A   1      41.796  27.711  29.730  1.00  0.00     0.074 A 
ATOM     46  C   UNL A   1      39.624  28.731  29.139  1.00  0.00     0.049 A 
ATOM     47  N   UNL A   1      42.294  28.630  30.516  1.00  0.00    -0.248 NA
ATOM     48  C   UNL A   1      42.671  26.540  29.551  1.00  0.00     0.031 C 
ATOM     49  C   UNL A   1      38.295  28.816  28.528  1.00  0.00     0.029 A 
ATOM     50  N   UNL A   1      39.751  29.919  29.815  1.00  0.00    -0.354 N 
ATOM     51  C   UNL A   1      43.533  28.151  30.927  1.00  0.00     0.074 A 
ATOM     52  C   UNL A   1      43.687  26.833  30.350  1.00  0.00     0.031 C 
ATOM     53  C   UNL A   1      37.744  30.001  28.833  1.00  0.00     0.029 A 
ATOM     54  C   UNL A   1      38.656  30.745  29.699  1.00  0.00     0.049 A 
ATOM     55  H   UNL A   1      40.551  30.158  30.337  1.00  0.00     0.167 HD
ATOM     56  C   UNL A   1      44.467  28.765  31.691  1.00  0.00     0.037 A 
ATOM     57  C   UNL A   1      38.406  31.956  30.233  1.00  0.00     0.037 A 
ATOM     58  C   UNL A   1      44.318  30.087  32.245  1.00  0.00     0.049 A 
ATOM     59  C   UNL A   1      39.448  32.604  31.105  1.00  0.00     0.074 A 
ATOM     60  C   UNL A   1      45.228  30.808  32.997  1.00  0.00     0.029 A 
ATOM     61  N   UNL A   1      43.192  30.885  32.106  1.00  0.00    -0.354 N 
ATOM     62  N   UNL A   1      40.632  32.154  31.446  1.00  0.00    -0.248 NA
ATOM     63  C   UNL A   1      39.124  33.924  31.665  1.00  0.00     0.031 C 
ATOM     64  C   UNL A   1      44.634  32.021  33.358  1.00  0.00     0.029 A 
ATOM     65  C   UNL A   1      43.376  32.082  32.781  1.00  0.00     0.049 A 
ATOM     66  H   UNL A   1      42.382  30.639  31.604  1.00  0.00     0.167 HD
ATOM     67  C   UNL A   1      41.202  33.144  32.239  1.00  0.00     0.074 A 
ATOM     68  C   UNL A   1      40.241  34.223  32.316  1.00  0.00     0.031 C 
ATOM     69  C   UNL A   1      42.415  33.155  32.846  1.00  0.00     0.037 A 
BRANCH  56  70
ATOM     70  C   UNL A   1      45.750  28.029  31.967  1.00  0.00     0.058 A 
ATOM     71  C   UNL A   1      45.888  27.234  33.115  1.00  0.00     0.135 A 
ATOM     72  C   UNL A   1      46.873  28.179  31.136  1.00  0.00     0.135 A 
ATOM     73  F   UNL A   1      44.846  27.051  33.941  1.00  0.00    -0.206 F 
ATOM     74  C   UNL A   1      47.098  26.629  33.442  1.00  0.00     0.059 A 
ATOM     75  C   UNL A   1      48.086  27.560  31.428  1.00  0.00     0.059 A 
ATOM     76  F   UNL A   1      46.791  28.911  30.014  1.00  0.00    -0.206 F 
ATOM     77  C   UNL A   1      48.192  26.801  32.593  1.00  0.00     0.060 A 
BRANCH  77  78
ATOM     78  S   UNL A   1      49.750  25.994  33.021  1.00  0.00     0.124 S 
ATOM     79  O   UNL A   1      50.730  26.923  32.470  1.00  0.00    -0.237 OA
ATOM     80  O   UNL A   1      49.671  25.939  34.478  1.00  0.00    -0.237 OA
ATOM     81  O   UNL A   1      49.658  24.702  32.348  1.00  0.00    -0.744 OA
ENDBRANCH  77  78
ENDBRANCH  56  70
BRANCH  57  82
ATOM     82  C   UNL A   1      37.121  32.645  29.937  1.00  0.00     0.058 A 
ATOM     83  C   UNL A   1      37.043  33.668  28.979  1.00  0.00     0.135 A 
ATOM     84  C   UNL A   1      35.947  32.314  30.632  1.00  0.00     0.135 A 
ATOM     85  F   UNL A   1      38.138  34.033  28.292  1.00  0.00    -0.206 F 
ATOM     86  C   UNL A   1      35.858  34.354  28.738  1.00  0.00     0.059 A 
ATOM     87  C   UNL A   1      34.741  32.966  30.388  1.00  0.00     0.059 A 
ATOM     88  F   UNL A   1      35.966  31.334  31.548  1.00  0.00    -0.206 F 
ATOM     89  C   UNL A   1      34.712  33.998  29.451  1.00  0.00     0.060 A 
BRANCH  89  90
ATOM     90  S   UNL A   1      33.187  34.910  29.130  1.00  0.00     0.124 S 
ATOM     91  O   UNL A   1      33.708  36.177  28.624  1.00  0.00    -0.237 OA
ATOM     92  O   UNL A   1      32.524  34.059  28.148  1.00  0.00    -0.237 OA
ATOM     93  O   UNL A   1      32.548  34.972  30.440  1.00  0.00    -0.744 OA
ENDBRANCH  89  90
ENDBRANCH  57  82
BRANCH  69  94
ATOM     94  C   UNL A   1      42.796  34.378  33.636  1.00  0.00     0.058 A 
ATOM     95  C   UNL A   1      43.383  35.482  32.996  1.00  0.00     0.135 A 
ATOM     96  C   UNL A   1      42.666  34.423  35.032  1.00  0.00     0.135 A 
ATOM     97  F   UNL A   1      43.535  35.490  31.662  1.00  0.00    -0.206 F 
ATOM     98  C   UNL A   1      43.850  36.577  33.715  1.00  0.00     0.059 A 
ATOM     99  C   UNL A   1      43.099  35.521  35.770  1.00  0.00     0.059 A 
ATOM    100  F   UNL A   1      42.102  33.399  35.691  1.00  0.00    -0.206 F 
ATOM    101  C   UNL A   1      43.708  36.585  35.103  1.00  0.00     0.060 A 
BRANCH 101 102
ATOM    102  S   UNL A   1      44.321  38.015  36.019  1.00  0.00     0.124 S 
ATOM    103  O   UNL A   1      45.739  37.699  36.154  1.00  0.00    -0.237 OA
ATOM    104  O   UNL A   1      43.998  39.118  35.120  1.00  0.00    -0.237 OA
ATOM    105  O   UNL A   1      43.550  37.980  37.259  1.00  0.00    -0.744 OA
ENDBRANCH 101 102
ENDBRANCH  69  94
ENDBRANCH  43  44
ENDBRANCH  35  38
ENDBRANCH  33  34
ENDBRANCH  32  33
ENDBRANCH   1  32
TORSDOF 18
ENDMDL
MODEL 3
REMARK VINA RESULT:     -11.9      3.626      9.143
REMARK SMILES O=C(C/C(=C/c1ccc(N2CCOCC2)c(F)c1)c1nc2ccccc2s1)NCCCCNC(=O)c1ccc(-c2c3nc(c(-c4c(F)cc(S(=O)(=O)[O-])cc4F)c4ccc([nH]4)c(-c4c(F)cc(S(=O)(=O)[O-])cc4F)c4nc(c(-c5c(F)cc(S(=O)(=O)[O-])cc5F)c5ccc2[nH]5)C=C4)C=C3)cc1
REMARK SMILES IDX 30 1 29 2 28 3 1 4 2 5 3 7 4 8 5 9 19 10 20 11 27 12 21 13
REMARK SMILES IDX 26 14 22 15 25 16 23 17 24 18 6 19 7 20 18 21 8 22 16 23
REMARK SMILES IDX 9 24 17 25 10 26 11 27 15 28 12 29 14 30 13 31 31 32 32 33
REMARK SMILES IDX 33 34 34 35 35 37 36 38 37 39 101 40 38 41 100 42 39 43
REMARK SMILES IDX 40 44 41 45 94 46 42 47 99 48 93 49 95 50 43 51 98 52 92 53
REMARK SMILES IDX 91 54 44 56 78 57 57 58 77 59 58 60 61 61 76 62 96 63 59 64
REMARK SMILES IDX 60 65 75 67 97 68 62 69 45 70 46 71 55 72 47 73 48 74 54 75
REMARK SMILES IDX 56 76 49 77 50 78 51 79 52 80 53 81 79 82 80 83 89 84 81 85
REMARK SMILES IDX 82 86 88 87 90 88 83 89 84 90 85 91 86 92 87 93 63 94 64 95
REMARK SMILES IDX 73 96 65 97 66 98 72 99 74 100 67 101 68 102 69 103 70 104
REMARK SMILES IDX 71 105
REMARK H PARENT 28 6 33 36 95 55 61 66
REMARK Flexibility Score: inf
ROOT
ATOM      1  C   UNL A   1      35.159  22.596  26.906  1.00  0.00     0.023 C 
ENDROOT
BRANCH   1   2
ATOM      2  C   UNL A   1      33.711  22.321  27.303  1.00  0.00     0.116 C 
BRANCH   2   3
ATOM      3  N   UNL A   1      32.777  22.618  26.235  1.00  0.00    -0.356 N 
ATOM      4  O   UNL A   1      31.383  23.930  27.505  1.00  0.00    -0.275 OA
ATOM      5  C   UNL A   1      31.697  23.458  26.416  1.00  0.00     0.224 C 
ATOM      6  H   UNL A   1      32.918  22.208  25.351  1.00  0.00     0.163 HD
BRANCH   5   7
ATOM      7  C   UNL A   1      30.888  23.743  25.157  1.00  0.00     0.138 C 
BRANCH   7   8
ATOM      8  C   UNL A   1      30.880  25.212  24.752  1.00  0.00    -0.002 C 
ATOM      9  C   UNL A   1      30.027  25.592  23.767  1.00  0.00     0.015 C 
BRANCH   8  10
ATOM     10  C   UNL A   1      31.663  26.227  25.420  1.00  0.00     0.121 A 
ATOM     11  N   UNL A   1      31.189  27.196  26.180  1.00  0.00    -0.236 NA
ATOM     12  S   UNL A   1      33.380  26.290  25.205  1.00  0.00    -0.114 S 
ATOM     13  C   UNL A   1      32.185  28.090  26.529  1.00  0.00     0.082 A 
ATOM     14  C   UNL A   1      33.465  27.753  26.095  1.00  0.00     0.055 A 
ATOM     15  C   UNL A   1      32.012  29.283  27.259  1.00  0.00     0.030 A 
ATOM     16  C   UNL A   1      34.585  28.551  26.381  1.00  0.00     0.021 A 
ATOM     17  C   UNL A   1      33.116  30.095  27.538  1.00  0.00     0.002 A 
ATOM     18  C   UNL A   1      34.388  29.728  27.108  1.00  0.00     0.002 A 
ENDBRANCH   8  10
BRANCH   9  19
ATOM     19  C   UNL A   1      29.818  26.953  23.245  1.00  0.00    -0.022 A 
ATOM     20  C   UNL A   1      30.828  27.645  22.571  1.00  0.00     0.010 A 
ATOM     21  C   UNL A   1      28.586  27.579  23.439  1.00  0.00     0.049 A 
ATOM     22  C   UNL A   1      30.627  28.966  22.152  1.00  0.00     0.029 A 
ATOM     23  C   UNL A   1      28.404  28.899  23.028  1.00  0.00     0.147 A 
ATOM     24  C   UNL A   1      29.419  29.635  22.391  1.00  0.00     0.073 A 
ATOM     25  F   UNL A   1      27.201  29.460  23.242  1.00  0.00    -0.205 F 
BRANCH  24  26
ATOM     26  N   UNL A   1      29.271  30.956  22.026  1.00  0.00    -0.365 N 
ATOM     27  C   UNL A   1      29.316  32.046  23.004  1.00  0.00     0.145 C 
ATOM     28  C   UNL A   1      28.903  31.346  20.660  1.00  0.00     0.145 C 
ATOM     29  C   UNL A   1      28.028  32.874  22.933  1.00  0.00     0.181 C 
ATOM     30  C   UNL A   1      27.628  32.208  20.704  1.00  0.00     0.181 C 
ATOM     31  O   UNL A   1      27.774  33.333  21.593  1.00  0.00    -0.378 OA
ENDBRANCH  24  26
ENDBRANCH   9  19
ENDBRANCH   7   8
ENDBRANCH   5   7
ENDBRANCH   2   3
ENDBRANCH   1   2
BRANCH   1  32
ATOM     32  C   UNL A   1      35.344  23.169  25.499  1.00  0.00     0.023 C 
BRANCH  32  33
ATOM     33  C   UNL A   1      36.709  23.791  25.215  1.00  0.00     0.116 C 
BRANCH  33  34
ATOM     34  N   UNL A   1      37.803  22.840  25.335  1.00  0.00    -0.352 N 
ATOM     35  C   UNL A   1      39.029  22.992  25.940  1.00  0.00     0.251 C 
ATOM     36  H   UNL A   1      37.642  21.961  24.923  1.00  0.00     0.163 HD
ATOM     37  O   UNL A   1      39.882  22.116  25.809  1.00  0.00    -0.269 OA
BRANCH  35  38
ATOM     38  C   UNL A   1      39.335  24.213  26.717  1.00  0.00     0.039 A 
ATOM     39  C   UNL A   1      38.831  24.332  28.015  1.00  0.00     0.014 A 
ATOM     40  C   UNL A   1      40.114  25.241  26.177  1.00  0.00     0.014 A 
ATOM     41  C   UNL A   1      39.169  25.443  28.796  1.00  0.00     0.010 A 
ATOM     42  C   UNL A   1      40.512  26.309  26.981  1.00  0.00     0.010 A 
ATOM     43  C   UNL A   1      40.048  26.421  28.301  1.00  0.00    -0.014 A 
BRANCH  43  44
ATOM     44  C   UNL A   1      40.505  27.552  29.153  1.00  0.00     0.031 A 
ATOM     45  C   UNL A   1      39.642  28.773  29.326  1.00  0.00     0.074 A 
ATOM     46  C   UNL A   1      41.723  27.503  29.729  1.00  0.00     0.049 A 
ATOM     47  N   UNL A   1      39.903  29.883  29.968  1.00  0.00    -0.248 NA
ATOM     48  C   UNL A   1      38.322  28.756  28.674  1.00  0.00     0.031 C 
ATOM     49  C   UNL A   1      42.670  26.391  29.611  1.00  0.00     0.029 A 
ATOM     50  N   UNL A   1      42.380  28.409  30.525  1.00  0.00    -0.354 N 
ATOM     51  C   UNL A   1      38.787  30.694  29.797  1.00  0.00     0.074 A 
ATOM     52  C   UNL A   1      37.869  29.973  28.942  1.00  0.00     0.031 C 
ATOM     53  C   UNL A   1      43.768  26.668  30.331  1.00  0.00     0.029 A 
ATOM     54  C   UNL A   1      43.630  27.995  30.925  1.00  0.00     0.049 A 
ATOM     55  H   UNL A   1      41.993  29.276  30.786  1.00  0.00     0.167 HD
ATOM     56  C   UNL A   1      38.538  31.915  30.327  1.00  0.00     0.037 A 
ATOM     57  C   UNL A   1      44.564  28.612  31.675  1.00  0.00     0.037 A 
ATOM     58  C   UNL A   1      39.445  32.619  31.197  1.00  0.00     0.049 A 
ATOM     59  C   UNL A   1      44.276  29.982  32.227  1.00  0.00     0.074 A 
ATOM     60  C   UNL A   1      39.262  33.843  31.816  1.00  0.00     0.029 A 
ATOM     61  N   UNL A   1      40.702  32.166  31.572  1.00  0.00    -0.354 N 
ATOM     62  N   UNL A   1      43.197  30.714  32.090  1.00  0.00    -0.248 NA
ATOM     63  C   UNL A   1      45.330  30.612  33.036  1.00  0.00     0.031 C 
ATOM     64  C   UNL A   1      40.427  34.154  32.524  1.00  0.00     0.029 A 
ATOM     65  C   UNL A   1      41.314  33.098  32.395  1.00  0.00     0.049 A 
ATOM     66  H   UNL A   1      41.100  31.309  31.295  1.00  0.00     0.167 HD
ATOM     67  C   UNL A   1      43.431  31.878  32.815  1.00  0.00     0.074 A 
ATOM     68  C   UNL A   1      44.749  31.748  33.399  1.00  0.00     0.031 C 
ATOM     69  C   UNL A   1      42.625  32.956  32.979  1.00  0.00     0.037 A 
BRANCH  56  70
ATOM     70  C   UNL A   1      37.224  32.572  30.004  1.00  0.00     0.058 A 
ATOM     71  C   UNL A   1      37.145  33.571  29.020  1.00  0.00     0.135 A 
ATOM     72  C   UNL A   1      36.057  32.272  30.727  1.00  0.00     0.135 A 
ATOM     73  F   UNL A   1      38.227  33.893  28.294  1.00  0.00    -0.206 F 
ATOM     74  C   UNL A   1      35.963  34.263  28.778  1.00  0.00     0.059 A 
ATOM     75  C   UNL A   1      34.856  32.932  30.481  1.00  0.00     0.059 A 
ATOM     76  F   UNL A   1      36.071  31.312  31.664  1.00  0.00    -0.206 F 
ATOM     77  C   UNL A   1      34.824  33.938  29.516  1.00  0.00     0.060 A 
BRANCH  77  78
ATOM     78  S   UNL A   1      33.292  34.833  29.176  1.00  0.00     0.124 S 
ATOM     79  O   UNL A   1      32.632  33.947  28.225  1.00  0.00    -0.237 OA
ATOM     80  O   UNL A   1      32.687  34.911  30.502  1.00  0.00    -0.237 OA
ATOM     81  O   UNL A   1      33.758  36.106  28.633  1.00  0.00    -0.744 OA
ENDBRANCH  77  78
ENDBRANCH  56  70
BRANCH  57  82
ATOM     82  C   UNL A   1      45.852  27.925  31.966  1.00  0.00     0.058 A 
ATOM     83  C   UNL A   1      47.007  28.187  31.213  1.00  0.00     0.135 A 
ATOM     84  C   UNL A   1      45.944  26.965  32.987  1.00  0.00     0.135 A 
ATOM     85  F   UNL A   1      46.973  29.088  30.217  1.00  0.00    -0.206 F 
ATOM     86  C   UNL A   1      48.198  27.507  31.443  1.00  0.00     0.059 A 
ATOM     87  C   UNL A   1      47.133  26.292  33.255  1.00  0.00     0.059 A 
ATOM     88  F   UNL A   1      44.871  26.689  33.743  1.00  0.00    -0.206 F 
ATOM     89  C   UNL A   1      48.250  26.558  32.465  1.00  0.00     0.060 A 
BRANCH  89  90
ATOM     90  S   UNL A   1      49.804  25.679  32.738  1.00  0.00     0.124 S 
ATOM     91  O   UNL A   1      49.534  24.997  34.000  1.00  0.00    -0.237 OA
ATOM     92  O   UNL A   1      49.881  24.826  31.557  1.00  0.00    -0.237 OA
ATOM     93  O   UNL A   1      50.792  26.751  32.802  1.00  0.00    -0.744 OA
ENDBRANCH  89  90
ENDBRANCH  57  82
BRANCH  69  94
ATOM     94  C   UNL A   1      43.122  34.082  33.843  1.00  0.00     0.058 A 
ATOM     95  C   UNL A   1      42.916  34.057  35.233  1.00  0.00     0.135 A 
ATOM     96  C   UNL A   1      43.720  35.226  33.291  1.00  0.00     0.135 A 
ATOM     97  F   UNL A   1      42.345  32.990  35.812  1.00  0.00    -0.206 F 
ATOM     98  C   UNL A   1      43.261  35.136  36.040  1.00  0.00     0.059 A 
ATOM     99  C   UNL A   1      44.101  36.305  34.084  1.00  0.00     0.059 A 
ATOM    100  F   UNL A   1      43.949  35.296  31.970  1.00  0.00    -0.206 F 
ATOM    101  C   UNL A   1      43.850  36.258  35.455  1.00  0.00     0.060 A 
BRANCH 101 102
ATOM    102  S   UNL A   1      44.290  37.647  36.520  1.00  0.00     0.124 S 
ATOM    103  O   UNL A   1      44.255  38.766  35.583  1.00  0.00    -0.237 OA
ATOM    104  O   UNL A   1      43.226  37.621  37.517  1.00  0.00    -0.237 OA
ATOM    105  O   UNL A   1      45.615  37.288  37.017  1.00  0.00    -0.744 OA
ENDBRANCH 101 102
ENDBRANCH  69  94
ENDBRANCH  43  44
ENDBRANCH  35  38
ENDBRANCH  33  34
ENDBRANCH  32  33
ENDBRANCH   1  32
TORSDOF 18
ENDMDL
