MODEL 1
REMARK VINA RESULT:     -12.0      0.000      0.000
REMARK SMILES CCn1c(SCC(=O)NCCCCNC(=O)c2ccc(-c3c4nc(c(-c5c(F)cc(S(=O)(=O)[O-])cc5F)c5ccc([nH]5)c(-c5c(F)cc(S(=O)(=O)[O-])cc5F)c5nc(c(-c6c(F)cc(S(=O)(=O)[O-])cc6F)c6ccc3[nH]6)C=C5)C=C4)cc2)nc2ccc(C)cc2c1=O
REMARK SMILES IDX 11 1 10 2 9 3 7 4 8 5 6 7 5 8 4 9 3 10 91 11 83 12 90 13
REMARK SMILES IDX 92 14 84 15 89 16 85 17 87 18 86 19 88 20 2 21 1 22 12 23
REMARK SMILES IDX 13 24 14 25 15 26 16 28 17 29 18 30 82 31 19 32 81 33 20 34
REMARK SMILES IDX 21 35 22 36 75 37 23 38 80 39 74 40 76 41 24 42 79 43 73 44
REMARK SMILES IDX 72 45 25 47 59 48 38 49 58 50 39 51 42 52 57 53 77 54 40 55
REMARK SMILES IDX 41 56 56 58 78 59 43 60 26 61 27 62 36 63 28 64 29 65 35 66
REMARK SMILES IDX 37 67 30 68 31 69 32 70 33 71 34 72 60 73 61 74 70 75 62 76
REMARK SMILES IDX 63 77 69 78 71 79 64 80 65 81 66 82 67 83 68 84 44 85 45 86
REMARK SMILES IDX 54 87 46 88 47 89 53 90 55 91 48 92 49 93 50 94 51 95 52 96
REMARK H PARENT 9 6 14 27 76 46 42 57
REMARK Flexibility Score: inf
ROOT
ATOM      1  C   UNL A   1      39.333  22.055  26.041  1.00  0.00     0.023 C 
ENDROOT
BRANCH   1   2
ATOM      2  C   UNL A   1      38.015  22.822  26.055  1.00  0.00     0.116 C 
BRANCH   2   3
ATOM      3  N   UNL A   1      37.597  23.155  24.707  1.00  0.00    -0.355 N 
ATOM      4  C   UNL A   1      36.642  22.580  23.930  1.00  0.00     0.230 C 
ATOM      5  O   UNL A   1      36.568  22.935  22.754  1.00  0.00    -0.274 OA
ATOM      6  H   UNL A   1      38.076  23.908  24.294  1.00  0.00     0.163 HD
BRANCH   4   7
ATOM      7  C   UNL A   1      35.635  21.649  24.544  1.00  0.00     0.178 C 
BRANCH   7   8
ATOM      8  S   UNL A   1      33.915  21.805  24.113  1.00  0.00    -0.078 SA
BRANCH   8   9
ATOM      9  C   UNL A   1      33.209  23.351  24.504  1.00  0.00     0.171 A 
ATOM     10  N   UNL A   1      32.507  23.639  25.664  1.00  0.00    -0.287 N 
ATOM     11  C   UNL A   1      31.890  24.905  25.783  1.00  0.00     0.262 A 
ATOM     12  N   UNL A   1      33.220  24.136  23.466  1.00  0.00    -0.224 NA
ATOM     13  C   UNL A   1      31.710  25.693  24.561  1.00  0.00     0.066 A 
ATOM     14  O   UNL A   1      31.420  25.353  26.830  1.00  0.00    -0.269 OA
ATOM     15  C   UNL A   1      32.389  25.262  23.438  1.00  0.00     0.079 A 
ATOM     16  C   UNL A   1      30.779  26.744  24.507  1.00  0.00     0.019 A 
ATOM     17  C   UNL A   1      32.123  25.905  22.224  1.00  0.00     0.029 A 
ATOM     18  C   UNL A   1      30.485  27.360  23.286  1.00  0.00    -0.050 A 
ATOM     19  C   UNL A   1      31.175  26.939  22.144  1.00  0.00     0.006 A 
ATOM     20  C   UNL A   1      29.438  28.436  23.219  1.00  0.00     0.044 C 
BRANCH  10  21
ATOM     21  C   UNL A   1      32.229  22.840  26.867  1.00  0.00     0.125 C 
ATOM     22  C   UNL A   1      33.284  22.358  27.834  1.00  0.00     0.028 C 
ENDBRANCH  10  21
ENDBRANCH   8   9
ENDBRANCH   7   8
ENDBRANCH   4   7
ENDBRANCH   2   3
ENDBRANCH   1   2
BRANCH   1  23
ATOM     23  C   UNL A   1      40.226  22.281  27.265  1.00  0.00     0.023 C 
BRANCH  23  24
ATOM     24  C   UNL A   1      41.539  23.014  27.015  1.00  0.00     0.116 C 
BRANCH  24  25
ATOM     25  N   UNL A   1      41.467  24.033  25.980  1.00  0.00    -0.352 N 
ATOM     26  C   UNL A   1      41.353  25.400  26.124  1.00  0.00     0.251 C 
ATOM     27  H   UNL A   1      41.504  23.703  25.054  1.00  0.00     0.163 HD
ATOM     28  O   UNL A   1      41.272  26.120  25.142  1.00  0.00    -0.269 OA
BRANCH  26  29
ATOM     29  C   UNL A   1      41.268  25.972  27.487  1.00  0.00     0.039 A 
ATOM     30  C   UNL A   1      40.103  25.841  28.244  1.00  0.00     0.014 A 
ATOM     31  C   UNL A   1      42.340  26.730  27.965  1.00  0.00     0.014 A 
ATOM     32  C   UNL A   1      39.936  26.627  29.378  1.00  0.00     0.010 A 
ATOM     33  C   UNL A   1      42.199  27.452  29.153  1.00  0.00     0.010 A 
ATOM     34  C   UNL A   1      40.971  27.463  29.832  1.00  0.00    -0.014 A 
BRANCH  34  35
ATOM     35  C   UNL A   1      40.717  28.379  30.977  1.00  0.00     0.031 A 
ATOM     36  C   UNL A   1      41.616  28.360  32.187  1.00  0.00     0.074 A 
ATOM     37  C   UNL A   1      39.727  29.289  30.888  1.00  0.00     0.049 A 
ATOM     38  N   UNL A   1      41.582  29.123  33.251  1.00  0.00    -0.248 NA
ATOM     39  C   UNL A   1      42.691  27.353  32.214  1.00  0.00     0.031 C 
ATOM     40  C   UNL A   1      38.800  29.414  29.762  1.00  0.00     0.029 A 
ATOM     41  N   UNL A   1      39.360  30.303  31.736  1.00  0.00    -0.354 N 
ATOM     42  C   UNL A   1      42.614  28.683  34.073  1.00  0.00     0.074 A 
ATOM     43  C   UNL A   1      43.234  27.561  33.405  1.00  0.00     0.031 C 
ATOM     44  C   UNL A   1      38.014  30.483  29.957  1.00  0.00     0.029 A 
ATOM     45  C   UNL A   1      38.339  31.084  31.247  1.00  0.00     0.049 A 
ATOM     46  H   UNL A   1      39.785  30.456  32.610  1.00  0.00     0.167 HD
ATOM     47  C   UNL A   1      43.021  29.182  35.266  1.00  0.00     0.037 A 
ATOM     48  C   UNL A   1      37.729  32.162  31.777  1.00  0.00     0.037 A 
ATOM     49  C   UNL A   1      42.424  30.321  35.911  1.00  0.00     0.049 A 
ATOM     50  C   UNL A   1      38.165  32.664  33.124  1.00  0.00     0.074 A 
ATOM     51  C   UNL A   1      42.791  30.923  37.103  1.00  0.00     0.029 A 
ATOM     52  N   UNL A   1      41.339  31.031  35.422  1.00  0.00    -0.354 N 
ATOM     53  N   UNL A   1      39.150  32.242  33.879  1.00  0.00    -0.248 NA
ATOM     54  C   UNL A   1      37.395  33.774  33.702  1.00  0.00     0.031 C 
ATOM     55  C   UNL A   1      41.901  31.972  37.353  1.00  0.00     0.029 A 
ATOM     56  C   UNL A   1      41.002  32.047  36.302  1.00  0.00     0.049 A 
ATOM     57  H   UNL A   1      40.875  30.841  34.574  1.00  0.00     0.167 HD
ATOM     58  C   UNL A   1      39.116  33.028  35.024  1.00  0.00     0.074 A 
ATOM     59  C   UNL A   1      38.029  33.971  34.851  1.00  0.00     0.031 C 
ATOM     60  C   UNL A   1      39.907  32.967  36.122  1.00  0.00     0.037 A 
BRANCH  47  61
ATOM     61  C   UNL A   1      44.170  28.499  35.957  1.00  0.00     0.058 A 
ATOM     62  C   UNL A   1      43.964  27.441  36.856  1.00  0.00     0.135 A 
ATOM     63  C   UNL A   1      45.495  28.873  35.679  1.00  0.00     0.135 A 
ATOM     64  F   UNL A   1      42.717  27.052  37.168  1.00  0.00    -0.206 F 
ATOM     65  C   UNL A   1      45.030  26.792  37.473  1.00  0.00     0.059 A 
ATOM     66  C   UNL A   1      46.578  28.223  36.266  1.00  0.00     0.059 A 
ATOM     67  F   UNL A   1      45.749  29.878  34.825  1.00  0.00    -0.206 F 
ATOM     68  C   UNL A   1      46.333  27.192  37.172  1.00  0.00     0.060 A 
BRANCH  68  69
ATOM     69  S   UNL A   1      47.703  26.337  37.981  1.00  0.00     0.124 S 
ATOM     70  O   UNL A   1      47.125  25.018  38.214  1.00  0.00    -0.237 OA
ATOM     71  O   UNL A   1      48.752  26.398  36.967  1.00  0.00    -0.237 OA
ATOM     72  O   UNL A   1      47.945  27.136  39.178  1.00  0.00    -0.744 OA
ENDBRANCH  68  69
ENDBRANCH  47  61
BRANCH  48  73
ATOM     73  C   UNL A   1      36.636  32.829  31.024  1.00  0.00     0.058 A 
ATOM     74  C   UNL A   1      35.297  32.675  31.412  1.00  0.00     0.135 A 
ATOM     75  C   UNL A   1      36.911  33.672  29.936  1.00  0.00     0.135 A 
ATOM     76  F   UNL A   1      34.983  31.873  32.440  1.00  0.00    -0.206 F 
ATOM     77  C   UNL A   1      34.269  33.339  30.751  1.00  0.00     0.059 A 
ATOM     78  C   UNL A   1      35.903  34.365  29.274  1.00  0.00     0.059 A 
ATOM     79  F   UNL A   1      38.178  33.860  29.535  1.00  0.00    -0.206 F 
ATOM     80  C   UNL A   1      34.583  34.189  29.688  1.00  0.00     0.060 A 
BRANCH  80  81
ATOM     81  S   UNL A   1      33.248  35.106  28.889  1.00  0.00     0.124 S 
ATOM     82  O   UNL A   1      32.404  35.448  30.028  1.00  0.00    -0.237 OA
ATOM     83  O   UNL A   1      33.967  36.215  28.270  1.00  0.00    -0.237 OA
ATOM     84  O   UNL A   1      32.687  34.135  27.955  1.00  0.00    -0.744 OA
ENDBRANCH  80  81
ENDBRANCH  48  73
BRANCH  60  85
ATOM     85  C   UNL A   1      39.618  33.924  37.242  1.00  0.00     0.058 A 
ATOM     86  C   UNL A   1      38.871  33.522  38.360  1.00  0.00     0.135 A 
ATOM     87  C   UNL A   1      40.170  35.214  37.248  1.00  0.00     0.135 A 
ATOM     88  F   UNL A   1      38.314  32.302  38.396  1.00  0.00    -0.206 F 
ATOM     89  C   UNL A   1      38.685  34.366  39.449  1.00  0.00     0.059 A 
ATOM     90  C   UNL A   1      40.015  36.068  38.336  1.00  0.00     0.059 A 
ATOM     91  F   UNL A   1      40.898  35.644  36.205  1.00  0.00    -0.206 F 
ATOM     92  C   UNL A   1      39.270  35.633  39.433  1.00  0.00     0.060 A 
BRANCH  92  93
ATOM     93  S   UNL A   1      39.082  36.685  40.888  1.00  0.00     0.124 S 
ATOM     94  O   UNL A   1      38.034  35.988  41.623  1.00  0.00    -0.237 OA
ATOM     95  O   UNL A   1      40.415  36.635  41.481  1.00  0.00    -0.237 OA
ATOM     96  O   UNL A   1      38.701  37.978  40.326  1.00  0.00    -0.744 OA
ENDBRANCH  92  93
ENDBRANCH  60  85
ENDBRANCH  34  35
ENDBRANCH  26  29
ENDBRANCH  24  25
ENDBRANCH  23  24
ENDBRANCH   1  23
TORSDOF 17
ENDMDL
MODEL 2
REMARK VINA RESULT:     -11.9      3.284      4.501
REMARK SMILES CCn1c(SCC(=O)NCCCCNC(=O)c2ccc(-c3c4nc(c(-c5c(F)cc(S(=O)(=O)[O-])cc5F)c5ccc([nH]5)c(-c5c(F)cc(S(=O)(=O)[O-])cc5F)c5nc(c(-c6c(F)cc(S(=O)(=O)[O-])cc6F)c6ccc3[nH]6)C=C5)C=C4)cc2)nc2ccc(C)cc2c1=O
REMARK SMILES IDX 11 1 10 2 9 3 7 4 8 5 6 7 5 8 4 9 3 10 91 11 83 12 90 13
REMARK SMILES IDX 92 14 84 15 89 16 85 17 87 18 86 19 88 20 2 21 1 22 12 23
REMARK SMILES IDX 13 24 14 25 15 26 16 28 17 29 18 30 82 31 19 32 81 33 20 34
REMARK SMILES IDX 21 35 22 36 75 37 23 38 80 39 74 40 76 41 24 42 79 43 73 44
REMARK SMILES IDX 72 45 25 47 59 48 38 49 58 50 39 51 42 52 57 53 77 54 40 55
REMARK SMILES IDX 41 56 56 58 78 59 43 60 26 61 27 62 36 63 28 64 29 65 35 66
REMARK SMILES IDX 37 67 30 68 31 69 32 70 33 71 34 72 60 73 61 74 70 75 62 76
REMARK SMILES IDX 63 77 69 78 71 79 64 80 65 81 66 82 67 83 68 84 44 85 45 86
REMARK SMILES IDX 54 87 46 88 47 89 53 90 55 91 48 92 49 93 50 94 51 95 52 96
REMARK H PARENT 9 6 14 27 76 46 42 57
REMARK Flexibility Score: inf
ROOT
ATOM      1  C   UNL A   1      35.416  23.347  23.416  1.00  0.00     0.023 C 
ENDROOT
BRANCH   1   2
ATOM      2  C   UNL A   1      34.200  24.196  23.772  1.00  0.00     0.116 C 
BRANCH   2   3
ATOM      3  N   UNL A   1      34.253  25.480  23.102  1.00  0.00    -0.355 N 
ATOM      4  C   UNL A   1      33.417  26.004  22.168  1.00  0.00     0.230 C 
ATOM      5  O   UNL A   1      33.751  27.058  21.626  1.00  0.00    -0.274 OA
ATOM      6  H   UNL A   1      35.006  26.058  23.363  1.00  0.00     0.163 HD
BRANCH   4   7
ATOM      7  C   UNL A   1      32.075  25.375  21.923  1.00  0.00     0.178 C 
BRANCH   7   8
ATOM      8  S   UNL A   1      30.731  25.705  23.043  1.00  0.00    -0.078 SA
BRANCH   8   9
ATOM      9  C   UNL A   1      30.967  27.098  24.065  1.00  0.00     0.171 A 
ATOM     10  N   UNL A   1      30.535  28.383  23.777  1.00  0.00    -0.287 N 
ATOM     11  C   UNL A   1      30.908  29.432  24.649  1.00  0.00     0.262 A 
ATOM     12  N   UNL A   1      31.807  26.828  25.022  1.00  0.00    -0.224 NA
ATOM     13  C   UNL A   1      32.010  29.184  25.581  1.00  0.00     0.066 A 
ATOM     14  O   UNL A   1      30.425  30.564  24.618  1.00  0.00    -0.269 OA
ATOM     15  C   UNL A   1      32.421  27.873  25.724  1.00  0.00     0.079 A 
ATOM     16  C   UNL A   1      32.703  30.247  26.184  1.00  0.00     0.019 A 
ATOM     17  C   UNL A   1      33.563  27.623  26.492  1.00  0.00     0.029 A 
ATOM     18  C   UNL A   1      33.867  30.001  26.919  1.00  0.00    -0.050 A 
ATOM     19  C   UNL A   1      34.286  28.675  27.079  1.00  0.00     0.006 A 
ATOM     20  C   UNL A   1      34.645  31.145  27.503  1.00  0.00     0.044 C 
BRANCH  10  21
ATOM     21  C   UNL A   1      29.737  28.925  22.667  1.00  0.00     0.125 C 
ATOM     22  C   UNL A   1      28.232  29.051  22.679  1.00  0.00     0.028 C 
ENDBRANCH  10  21
ENDBRANCH   8   9
ENDBRANCH   7   8
ENDBRANCH   4   7
ENDBRANCH   2   3
ENDBRANCH   1   2
BRANCH   1  23
ATOM     23  C   UNL A   1      36.097  22.659  24.602  1.00  0.00     0.023 C 
BRANCH  23  24
ATOM     24  C   UNL A   1      37.208  23.444  25.289  1.00  0.00     0.116 C 
BRANCH  24  25
ATOM     25  N   UNL A   1      38.442  22.696  25.473  1.00  0.00    -0.352 N 
ATOM     26  C   UNL A   1      39.566  23.050  26.191  1.00  0.00     0.251 C 
ATOM     27  H   UNL A   1      38.480  21.820  25.025  1.00  0.00     0.163 HD
ATOM     28  O   UNL A   1      40.539  22.314  26.218  1.00  0.00    -0.269 OA
BRANCH  26  29
ATOM     29  C   UNL A   1      39.594  24.363  26.874  1.00  0.00     0.039 A 
ATOM     30  C   UNL A   1      40.306  25.434  26.331  1.00  0.00     0.014 A 
ATOM     31  C   UNL A   1      38.977  24.484  28.121  1.00  0.00     0.014 A 
ATOM     32  C   UNL A   1      40.567  26.548  27.122  1.00  0.00     0.010 A 
ATOM     33  C   UNL A   1      39.170  25.643  28.878  1.00  0.00     0.010 A 
ATOM     34  C   UNL A   1      40.026  26.655  28.414  1.00  0.00    -0.014 A 
BRANCH  34  35
ATOM     35  C   UNL A   1      40.421  27.801  29.276  1.00  0.00     0.031 A 
ATOM     36  C   UNL A   1      41.801  27.866  29.880  1.00  0.00     0.074 A 
ATOM     37  C   UNL A   1      39.564  28.828  29.444  1.00  0.00     0.049 A 
ATOM     38  N   UNL A   1      42.339  28.813  30.608  1.00  0.00    -0.248 NA
ATOM     39  C   UNL A   1      42.696  26.721  29.643  1.00  0.00     0.031 C 
ATOM     40  C   UNL A   1      38.207  28.886  28.900  1.00  0.00     0.029 A 
ATOM     41  N   UNL A   1      39.718  30.031  30.085  1.00  0.00    -0.354 N 
ATOM     42  C   UNL A   1      43.620  28.375  30.924  1.00  0.00     0.074 A 
ATOM     43  C   UNL A   1      43.770  27.059  30.342  1.00  0.00     0.031 C 
ATOM     44  C   UNL A   1      37.675  30.088  29.173  1.00  0.00     0.029 A 
ATOM     45  C   UNL A   1      38.629  30.861  29.962  1.00  0.00     0.049 A 
ATOM     46  H   UNL A   1      40.528  30.276  30.587  1.00  0.00     0.167 HD
ATOM     47  C   UNL A   1      44.591  29.018  31.617  1.00  0.00     0.037 A 
ATOM     48  C   UNL A   1      38.417  32.106  30.432  1.00  0.00     0.037 A 
ATOM     49  C   UNL A   1      44.451  30.341  32.164  1.00  0.00     0.049 A 
ATOM     50  C   UNL A   1      39.489  32.777  31.241  1.00  0.00     0.074 A 
ATOM     51  C   UNL A   1      45.392  31.091  32.850  1.00  0.00     0.029 A 
ATOM     52  N   UNL A   1      43.302  31.114  32.089  1.00  0.00    -0.354 N 
ATOM     53  N   UNL A   1      40.698  32.350  31.519  1.00  0.00    -0.248 NA
ATOM     54  C   UNL A   1      39.165  34.087  31.821  1.00  0.00     0.031 C 
ATOM     55  C   UNL A   1      44.797  32.300  33.224  1.00  0.00     0.029 A 
ATOM     56  C   UNL A   1      43.498  32.319  32.741  1.00  0.00     0.049 A 
ATOM     57  H   UNL A   1      42.469  30.844  31.638  1.00  0.00     0.167 HD
ATOM     58  C   UNL A   1      41.277  33.335  32.310  1.00  0.00     0.074 A 
ATOM     59  C   UNL A   1      40.296  34.393  32.445  1.00  0.00     0.031 C 
ATOM     60  C   UNL A   1      42.506  33.356  32.880  1.00  0.00     0.037 A 
BRANCH  47  61
ATOM     61  C   UNL A   1      45.897  28.300  31.827  1.00  0.00     0.058 A 
ATOM     62  C   UNL A   1      46.958  28.422  30.917  1.00  0.00     0.135 A 
ATOM     63  C   UNL A   1      46.107  27.521  32.977  1.00  0.00     0.135 A 
ATOM     64  F   UNL A   1      46.806  29.143  29.794  1.00  0.00    -0.206 F 
ATOM     65  C   UNL A   1      48.175  27.780  31.127  1.00  0.00     0.059 A 
ATOM     66  C   UNL A   1      47.323  26.888  33.220  1.00  0.00     0.059 A 
ATOM     67  F   UNL A   1      45.126  27.372  33.881  1.00  0.00    -0.206 F 
ATOM     68  C   UNL A   1      48.347  27.014  32.282  1.00  0.00     0.060 A 
BRANCH  68  69
ATOM     69  S   UNL A   1      49.932  26.189  32.538  1.00  0.00     0.124 S 
ATOM     70  O   UNL A   1      49.793  25.709  33.909  1.00  0.00    -0.237 OA
ATOM     71  O   UNL A   1      49.920  25.159  31.503  1.00  0.00    -0.237 OA
ATOM     72  O   UNL A   1      50.908  27.256  32.344  1.00  0.00    -0.744 OA
ENDBRANCH  68  69
ENDBRANCH  47  61
BRANCH  48  73
ATOM     73  C   UNL A   1      37.128  32.787  30.147  1.00  0.00     0.058 A 
ATOM     74  C   UNL A   1      36.017  32.603  30.983  1.00  0.00     0.135 A 
ATOM     75  C   UNL A   1      36.997  33.674  29.067  1.00  0.00     0.135 A 
ATOM     76  F   UNL A   1      36.091  31.759  32.023  1.00  0.00    -0.206 F 
ATOM     77  C   UNL A   1      34.821  33.278  30.761  1.00  0.00     0.059 A 
ATOM     78  C   UNL A   1      35.820  34.378  28.838  1.00  0.00     0.059 A 
ATOM     79  F   UNL A   1      38.036  33.892  28.246  1.00  0.00    -0.206 F 
ATOM     80  C   UNL A   1      34.736  34.172  29.690  1.00  0.00     0.060 A 
BRANCH  80  81
ATOM     81  S   UNL A   1      33.205  35.101  29.459  1.00  0.00     0.124 S 
ATOM     82  O   UNL A   1      32.627  35.054  30.797  1.00  0.00    -0.237 OA
ATOM     83  O   UNL A   1      33.701  36.402  29.021  1.00  0.00    -0.237 OA
ATOM     84  O   UNL A   1      32.498  34.334  28.437  1.00  0.00    -0.744 OA
ENDBRANCH  80  81
ENDBRANCH  48  73
BRANCH  60  85
ATOM     85  C   UNL A   1      42.860  34.543  33.728  1.00  0.00     0.058 A 
ATOM     86  C   UNL A   1      42.673  34.518  35.118  1.00  0.00     0.135 A 
ATOM     87  C   UNL A   1      43.480  35.670  33.167  1.00  0.00     0.135 A 
ATOM     88  F   UNL A   1      42.075  33.467  35.700  1.00  0.00    -0.206 F 
ATOM     89  C   UNL A   1      43.092  35.569  35.925  1.00  0.00     0.059 A 
ATOM     90  C   UNL A   1      43.928  36.724  33.957  1.00  0.00     0.059 A 
ATOM     91  F   UNL A   1      43.687  35.739  31.842  1.00  0.00    -0.206 F 
ATOM     92  C   UNL A   1      43.729  36.664  35.337  1.00  0.00     0.060 A 
BRANCH  92  93
ATOM     93  S   UNL A   1      44.335  37.984  36.408  1.00  0.00     0.124 S 
ATOM     94  O   UNL A   1      45.720  37.577  36.623  1.00  0.00    -0.237 OA
ATOM     95  O   UNL A   1      44.143  39.170  35.580  1.00  0.00    -0.237 OA
ATOM     96  O   UNL A   1      43.467  37.897  37.579  1.00  0.00    -0.744 OA
ENDBRANCH  92  93
ENDBRANCH  60  85
ENDBRANCH  34  35
ENDBRANCH  26  29
ENDBRANCH  24  25
ENDBRANCH  23  24
ENDBRANCH   1  23
TORSDOF 17
ENDMDL
MODEL 3
REMARK VINA RESULT:     -11.8      4.858     10.566
REMARK SMILES CCn1c(SCC(=O)NCCCCNC(=O)c2ccc(-c3c4nc(c(-c5c(F)cc(S(=O)(=O)[O-])cc5F)c5ccc([nH]5)c(-c5c(F)cc(S(=O)(=O)[O-])cc5F)c5nc(c(-c6c(F)cc(S(=O)(=O)[O-])cc6F)c6ccc3[nH]6)C=C5)C=C4)cc2)nc2ccc(C)cc2c1=O
REMARK SMILES IDX 11 1 10 2 9 3 7 4 8 5 6 7 5 8 4 9 3 10 91 11 83 12 90 13
REMARK SMILES IDX 92 14 84 15 89 16 85 17 87 18 86 19 88 20 2 21 1 22 12 23
REMARK SMILES IDX 13 24 14 25 15 26 16 28 17 29 18 30 82 31 19 32 81 33 20 34
REMARK SMILES IDX 21 35 22 36 75 37 23 38 80 39 74 40 76 41 24 42 79 43 73 44
REMARK SMILES IDX 72 45 25 47 59 48 38 49 58 50 39 51 42 52 57 53 77 54 40 55
REMARK SMILES IDX 41 56 56 58 78 59 43 60 26 61 27 62 36 63 28 64 29 65 35 66
REMARK SMILES IDX 37 67 30 68 31 69 32 70 33 71 34 72 60 73 61 74 70 75 62 76
REMARK SMILES IDX 63 77 69 78 71 79 64 80 65 81 66 82 67 83 68 84 44 85 45 86
REMARK SMILES IDX 54 87 46 88 47 89 53 90 55 91 48 92 49 93 50 94 51 95 52 96
REMARK H PARENT 9 6 14 27 76 46 42 57
REMARK Flexibility Score: inf
ROOT
ATOM      1  C   UNL A   1      31.494  28.464  25.867  1.00  0.00     0.023 C 
ENDROOT
BRANCH   1   2
ATOM      2  C   UNL A   1      31.075  27.351  24.911  1.00  0.00     0.116 C 
BRANCH   2   3
ATOM      3  N   UNL A   1      32.057  27.178  23.859  1.00  0.00    -0.355 N 
ATOM      4  C   UNL A   1      32.909  26.143  23.632  1.00  0.00     0.230 C 
ATOM      5  O   UNL A   1      33.766  26.286  22.760  1.00  0.00    -0.274 OA
ATOM      6  H   UNL A   1      32.116  27.919  23.215  1.00  0.00     0.163 HD
BRANCH   4   7
ATOM      7  C   UNL A   1      32.702  24.832  24.336  1.00  0.00     0.178 C 
BRANCH   7   8
ATOM      8  S   UNL A   1      33.795  24.361  25.659  1.00  0.00    -0.078 SA
BRANCH   8   9
ATOM      9  C   UNL A   1      34.350  22.710  25.586  1.00  0.00     0.171 A 
ATOM     10  N   UNL A   1      35.647  22.313  25.298  1.00  0.00    -0.287 N 
ATOM     11  C   UNL A   1      35.915  20.932  25.157  1.00  0.00     0.262 A 
ATOM     12  N   UNL A   1      33.342  21.886  25.604  1.00  0.00    -0.224 NA
ATOM     13  C   UNL A   1      34.775  20.034  24.958  1.00  0.00     0.066 A 
ATOM     14  O   UNL A   1      37.045  20.447  25.107  1.00  0.00    -0.269 OA
ATOM     15  C   UNL A   1      33.519  20.561  25.187  1.00  0.00     0.079 A 
ATOM     16  C   UNL A   1      34.952  18.748  24.419  1.00  0.00     0.019 A 
ATOM     17  C   UNL A   1      32.409  19.775  24.865  1.00  0.00     0.029 A 
ATOM     18  C   UNL A   1      33.840  17.977  24.060  1.00  0.00    -0.050 A 
ATOM     19  C   UNL A   1      32.564  18.498  24.299  1.00  0.00     0.006 A 
ATOM     20  C   UNL A   1      34.033  16.632  23.421  1.00  0.00     0.044 C 
BRANCH  10  21
ATOM     21  C   UNL A   1      36.879  23.081  25.068  1.00  0.00     0.125 C 
ATOM     22  C   UNL A   1      37.653  23.797  26.149  1.00  0.00     0.028 C 
ENDBRANCH  10  21
ENDBRANCH   8   9
ENDBRANCH   7   8
ENDBRANCH   4   7
ENDBRANCH   2   3
ENDBRANCH   1   2
BRANCH   1  23
ATOM     23  C   UNL A   1      32.391  28.020  27.026  1.00  0.00     0.023 C 
BRANCH  23  24
ATOM     24  C   UNL A   1      33.764  28.676  27.106  1.00  0.00     0.116 C 
BRANCH  24  25
ATOM     25  N   UNL A   1      33.768  29.973  27.765  1.00  0.00    -0.352 N 
ATOM     26  C   UNL A   1      34.815  30.620  28.388  1.00  0.00     0.251 C 
ATOM     27  H   UNL A   1      32.908  30.453  27.766  1.00  0.00     0.163 HD
ATOM     28  O   UNL A   1      34.641  31.702  28.925  1.00  0.00    -0.269 OA
BRANCH  26  29
ATOM     29  C   UNL A   1      36.135  29.952  28.447  1.00  0.00     0.039 A 
ATOM     30  C   UNL A   1      36.585  29.367  29.632  1.00  0.00     0.014 A 
ATOM     31  C   UNL A   1      36.964  30.003  27.324  1.00  0.00     0.014 A 
ATOM     32  C   UNL A   1      37.925  29.016  29.752  1.00  0.00     0.010 A 
ATOM     33  C   UNL A   1      38.289  29.569  27.424  1.00  0.00     0.010 A 
ATOM     34  C   UNL A   1      38.800  29.139  28.659  1.00  0.00    -0.014 A 
BRANCH  34  35
ATOM     35  C   UNL A   1      40.250  28.870  28.854  1.00  0.00     0.031 A 
ATOM     36  C   UNL A   1      41.130  29.878  29.548  1.00  0.00     0.074 A 
ATOM     37  C   UNL A   1      40.757  27.677  28.482  1.00  0.00     0.049 A 
ATOM     38  N   UNL A   1      42.400  29.790  29.856  1.00  0.00    -0.248 NA
ATOM     39  C   UNL A   1      40.512  31.154  29.945  1.00  0.00     0.031 C 
ATOM     40  C   UNL A   1      40.002  26.616  27.814  1.00  0.00     0.029 A 
ATOM     41  N   UNL A   1      42.009  27.142  28.646  1.00  0.00    -0.354 N 
ATOM     42  C   UNL A   1      42.732  30.994  30.467  1.00  0.00     0.074 A 
ATOM     43  C   UNL A   1      41.542  31.814  30.454  1.00  0.00     0.031 C 
ATOM     44  C   UNL A   1      40.786  25.535  27.683  1.00  0.00     0.029 A 
ATOM     45  C   UNL A   1      42.114  25.845  28.203  1.00  0.00     0.049 A 
ATOM     46  H   UNL A   1      42.761  27.639  29.041  1.00  0.00     0.167 HD
ATOM     47  C   UNL A   1      43.915  31.374  31.009  1.00  0.00     0.037 A 
ATOM     48  C   UNL A   1      43.162  24.998  28.210  1.00  0.00     0.037 A 
ATOM     49  C   UNL A   1      45.088  30.541  31.052  1.00  0.00     0.049 A 
ATOM     50  C   UNL A   1      44.476  25.460  28.769  1.00  0.00     0.074 A 
ATOM     51  C   UNL A   1      46.322  30.824  31.613  1.00  0.00     0.029 A 
ATOM     52  N   UNL A   1      45.176  29.265  30.517  1.00  0.00    -0.354 N 
ATOM     53  N   UNL A   1      44.766  26.598  29.353  1.00  0.00    -0.248 NA
ATOM     54  C   UNL A   1      45.612  24.536  28.653  1.00  0.00     0.031 C 
ATOM     55  C   UNL A   1      47.167  29.735  31.381  1.00  0.00     0.029 A 
ATOM     56  C   UNL A   1      46.451  28.759  30.706  1.00  0.00     0.049 A 
ATOM     57  H   UNL A   1      44.440  28.790  30.067  1.00  0.00     0.167 HD
ATOM     58  C   UNL A   1      46.117  26.530  29.668  1.00  0.00     0.074 A 
ATOM     59  C   UNL A   1      46.583  25.228  29.235  1.00  0.00     0.031 C 
ATOM     60  C   UNL A   1      46.902  27.466  30.255  1.00  0.00     0.037 A 
BRANCH  47  61
ATOM     61  C   UNL A   1      44.005  32.754  31.602  1.00  0.00     0.058 A 
ATOM     62  C   UNL A   1      43.864  32.972  32.981  1.00  0.00     0.135 A 
ATOM     63  C   UNL A   1      44.285  33.864  30.788  1.00  0.00     0.135 A 
ATOM     64  F   UNL A   1      43.582  31.948  33.802  1.00  0.00    -0.206 F 
ATOM     65  C   UNL A   1      43.975  34.246  33.531  1.00  0.00     0.059 A 
ATOM     66  C   UNL A   1      44.423  35.144  31.319  1.00  0.00     0.059 A 
ATOM     67  F   UNL A   1      44.431  33.711  29.462  1.00  0.00    -0.206 F 
ATOM     68  C   UNL A   1      44.254  35.326  32.691  1.00  0.00     0.060 A 
BRANCH  68  69
ATOM     69  S   UNL A   1      44.396  36.970  33.423  1.00  0.00     0.124 S 
ATOM     70  O   UNL A   1      45.253  37.647  32.454  1.00  0.00    -0.237 OA
ATOM     71  O   UNL A   1      43.007  37.417  33.459  1.00  0.00    -0.237 OA
ATOM     72  O   UNL A   1      45.003  36.714  34.725  1.00  0.00    -0.744 OA
ENDBRANCH  68  69
ENDBRANCH  47  61
BRANCH  48  73
ATOM     73  C   UNL A   1      42.999  23.627  27.659  1.00  0.00     0.058 A 
ATOM     74  C   UNL A   1      42.618  22.561  28.486  1.00  0.00     0.135 A 
ATOM     75  C   UNL A   1      43.170  23.368  26.290  1.00  0.00     0.135 A 
ATOM     76  F   UNL A   1      42.451  22.757  29.802  1.00  0.00    -0.206 F 
ATOM     77  C   UNL A   1      42.407  21.285  27.973  1.00  0.00     0.059 A 
ATOM     78  C   UNL A   1      42.942  22.107  25.750  1.00  0.00     0.059 A 
ATOM     79  F   UNL A   1      43.523  24.360  25.457  1.00  0.00    -0.206 F 
ATOM     80  C   UNL A   1      42.562  21.070  26.602  1.00  0.00     0.060 A 
BRANCH  80  81
ATOM     81  S   UNL A   1      42.209  19.429  25.937  1.00  0.00     0.124 S 
ATOM     82  O   UNL A   1      40.765  19.497  25.738  1.00  0.00    -0.237 OA
ATOM     83  O   UNL A   1      43.021  19.408  24.725  1.00  0.00    -0.237 OA
ATOM     84  O   UNL A   1      42.659  18.533  26.998  1.00  0.00    -0.744 OA
ENDBRANCH  80  81
ENDBRANCH  48  73
BRANCH  60  85
ATOM     85  C   UNL A   1      48.356  27.138  30.442  1.00  0.00     0.058 A 
ATOM     86  C   UNL A   1      49.328  27.644  29.567  1.00  0.00     0.135 A 
ATOM     87  C   UNL A   1      48.790  26.399  31.553  1.00  0.00     0.135 A 
ATOM     88  F   UNL A   1      48.961  28.348  28.484  1.00  0.00    -0.206 F 
ATOM     89  C   UNL A   1      50.684  27.433  29.789  1.00  0.00     0.059 A 
ATOM     90  C   UNL A   1      50.143  26.194  31.808  1.00  0.00     0.059 A 
ATOM     91  F   UNL A   1      47.899  25.899  32.423  1.00  0.00    -0.206 F 
ATOM     92  C   UNL A   1      51.083  26.716  30.918  1.00  0.00     0.060 A 
BRANCH  92  93
ATOM     93  S   UNL A   1      52.849  26.518  31.232  1.00  0.00     0.124 S 
ATOM     94  O   UNL A   1      52.852  25.498  32.274  1.00  0.00    -0.237 OA
ATOM     95  O   UNL A   1      53.350  26.094  29.928  1.00  0.00    -0.237 OA
ATOM     96  O   UNL A   1      53.271  27.850  31.656  1.00  0.00    -0.744 OA
ENDBRANCH  92  93
ENDBRANCH  60  85
ENDBRANCH  34  35
ENDBRANCH  26  29
ENDBRANCH  24  25
ENDBRANCH  23  24
ENDBRANCH   1  23
TORSDOF 17
ENDMDL
