MODEL 1
REMARK VINA RESULT:     -12.9      0.000      0.000
REMARK SMILES Cc1nc(CC(=O)N2C[C@@H](C(=O)NCCCCNC(=O)c3ccc(-c4c5nc(c(-c6c(F)cc(S(=O)(=O)[O-])cc6F)c6ccc([nH]6)c(-c6c(F)cc(S(=O)(=O)[O-])cc6F)c6nc(c(-c7c(F)cc(S(=O)(=O)[O-])cc7F)c7ccc4[nH]7)C=C6)C=C5)cc3)[C@H](c3ccc4c(c3)OCO4)C2)cs1
REMARK SMILES IDX 15 1 14 2 13 3 11 4 12 5 10 7 8 8 9 9 97 10 87 11 6 12 7 13
REMARK SMILES IDX 5 14 4 15 1 16 2 17 3 18 99 19 98 20 88 21 89 22 93 23 90 24
REMARK SMILES IDX 92 25 91 26 94 27 96 28 95 29 16 30 17 31 18 32 19 33 20 35
REMARK SMILES IDX 21 36 22 37 86 38 23 39 85 40 24 41 25 42 26 43 79 44 27 45
REMARK SMILES IDX 84 46 78 47 80 48 28 49 83 50 77 51 76 52 29 54 63 55 42 56
REMARK SMILES IDX 62 57 43 58 46 59 61 60 81 61 44 62 45 63 60 65 82 66 47 67
REMARK SMILES IDX 30 68 31 69 40 70 32 71 33 72 39 73 41 74 34 75 35 76 36 77
REMARK SMILES IDX 37 78 38 79 64 80 65 81 74 82 66 83 67 84 73 85 75 86 68 87
REMARK SMILES IDX 69 88 70 89 71 90 72 91 48 92 49 93 58 94 50 95 51 96 57 97
REMARK SMILES IDX 59 98 52 99 53 100 54 101 55 102 56 103
REMARK H PARENT 13 6 18 34 80 53 46 64
REMARK Flexibility Score: inf
ROOT
ATOM      1  C   UNL A   1      38.741  24.131  26.576  1.00  0.00     0.023 C 
ENDROOT
BRANCH   1   2
ATOM      2  C   UNL A   1      37.361  23.948  25.959  1.00  0.00     0.116 C 
BRANCH   2   3
ATOM      3  N   UNL A   1      37.424  23.549  24.562  1.00  0.00    -0.356 N 
ATOM      4  C   UNL A   1      36.416  23.205  23.709  1.00  0.00     0.225 C 
ATOM      5  O   UNL A   1      36.688  23.000  22.525  1.00  0.00    -0.275 OA
ATOM      6  H   UNL A   1      38.329  23.522  24.175  1.00  0.00     0.163 HD
BRANCH   4   7
ATOM      7  C   UNL A   1      35.003  23.103  24.230  1.00  0.00     0.107 C 
ATOM      8  N   UNL A   1      33.154  21.739  24.472  1.00  0.00    -0.341 N 
ATOM      9  C   UNL A   1      34.598  21.659  24.373  1.00  0.00     0.133 C 
ATOM     10  C   UNL A   1      32.663  22.880  23.693  1.00  0.00     0.128 C 
ATOM     11  C   UNL A   1      33.928  23.672  23.279  1.00  0.00     0.053 C 
BRANCH   8  12
ATOM     12  C   UNL A   1      32.304  20.931  25.194  1.00  0.00     0.228 C 
ATOM     13  O   UNL A   1      31.128  21.269  25.372  1.00  0.00    -0.274 OA
BRANCH  12  14
ATOM     14  C   UNL A   1      32.854  19.732  25.961  1.00  0.00     0.157 C 
BRANCH  14  15
ATOM     15  C   UNL A   1      33.036  18.457  25.213  1.00  0.00     0.061 A 
ATOM     16  C   UNL A   1      32.695  14.826  25.519  1.00  0.00     0.079 C 
ATOM     17  C   UNL A   1      32.909  16.238  25.092  1.00  0.00     0.090 A 
ATOM     18  N   UNL A   1      32.594  17.284  25.823  1.00  0.00    -0.246 NA
ATOM     19  S   UNL A   1      33.642  16.597  23.582  1.00  0.00    -0.127 S 
ATOM     20  C   UNL A   1      33.594  18.271  23.964  1.00  0.00     0.091 A 
ENDBRANCH  14  15
ENDBRANCH  12  14
ENDBRANCH   8  12
BRANCH  11  21
ATOM     21  C   UNL A   1      33.955  25.188  23.396  1.00  0.00    -0.038 A 
ATOM     22  C   UNL A   1      33.617  26.046  22.323  1.00  0.00     0.008 A 
ATOM     23  C   UNL A   1      34.065  25.730  24.695  1.00  0.00     0.054 A 
ATOM     24  C   UNL A   1      33.312  27.395  22.548  1.00  0.00     0.051 A 
ATOM     25  C   UNL A   1      33.697  27.044  24.891  1.00  0.00     0.166 A 
ATOM     26  C   UNL A   1      33.313  27.849  23.847  1.00  0.00     0.165 A 
ATOM     27  O   UNL A   1      33.532  27.647  26.100  1.00  0.00    -0.454 OA
ATOM     28  O   UNL A   1      32.870  29.063  24.272  1.00  0.00    -0.454 OA
ATOM     29  C   UNL A   1      32.832  28.844  25.699  1.00  0.00     0.468 C 
ENDBRANCH  11  21
ENDBRANCH   4   7
ENDBRANCH   2   3
ENDBRANCH   1   2
BRANCH   1  30
ATOM     30  C   UNL A   1      39.623  22.881  26.541  1.00  0.00     0.023 C 
BRANCH  30  31
ATOM     31  C   UNL A   1      41.059  23.080  27.016  1.00  0.00     0.116 C 
BRANCH  31  32
ATOM     32  N   UNL A   1      41.904  23.728  26.025  1.00  0.00    -0.352 N 
ATOM     33  C   UNL A   1      42.373  25.018  26.003  1.00  0.00     0.251 C 
ATOM     34  H   UNL A   1      42.177  23.163  25.266  1.00  0.00     0.163 HD
ATOM     35  O   UNL A   1      42.974  25.431  25.013  1.00  0.00    -0.269 OA
BRANCH  33  36
ATOM     36  C   UNL A   1      42.139  25.912  27.158  1.00  0.00     0.039 A 
ATOM     37  C   UNL A   1      42.764  27.162  27.183  1.00  0.00     0.014 A 
ATOM     38  C   UNL A   1      41.311  25.522  28.214  1.00  0.00     0.014 A 
ATOM     39  C   UNL A   1      42.517  28.039  28.243  1.00  0.00     0.010 A 
ATOM     40  C   UNL A   1      41.007  26.426  29.229  1.00  0.00     0.010 A 
ATOM     41  C   UNL A   1      41.617  27.689  29.263  1.00  0.00    -0.014 A 
BRANCH  41  42
ATOM     42  C   UNL A   1      41.335  28.613  30.395  1.00  0.00     0.031 A 
ATOM     43  C   UNL A   1      42.171  28.536  31.647  1.00  0.00     0.074 A 
ATOM     44  C   UNL A   1      40.314  29.489  30.316  1.00  0.00     0.049 A 
ATOM     45  N   UNL A   1      42.040  29.196  32.770  1.00  0.00    -0.248 NA
ATOM     46  C   UNL A   1      43.286  27.574  31.647  1.00  0.00     0.031 C 
ATOM     47  C   UNL A   1      39.409  29.640  29.173  1.00  0.00     0.029 A 
ATOM     48  N   UNL A   1      39.857  30.417  31.220  1.00  0.00    -0.354 N 
ATOM     49  C   UNL A   1      43.053  28.732  33.602  1.00  0.00     0.074 A 
ATOM     50  C   UNL A   1      43.745  27.684  32.885  1.00  0.00     0.031 C 
ATOM     51  C   UNL A   1      38.523  30.615  29.436  1.00  0.00     0.029 A 
ATOM     52  C   UNL A   1      38.767  31.133  30.779  1.00  0.00     0.049 A 
ATOM     53  H   UNL A   1      40.272  30.558  32.102  1.00  0.00     0.167 HD
ATOM     54  C   UNL A   1      43.401  29.163  34.838  1.00  0.00     0.037 A 
ATOM     55  C   UNL A   1      38.044  32.090  31.391  1.00  0.00     0.037 A 
ATOM     56  C   UNL A   1      42.724  30.220  35.544  1.00  0.00     0.049 A 
ATOM     57  C   UNL A   1      38.435  32.529  32.781  1.00  0.00     0.074 A 
ATOM     58  C   UNL A   1      43.006  30.735  36.798  1.00  0.00     0.029 A 
ATOM     59  N   UNL A   1      41.643  30.934  35.054  1.00  0.00    -0.354 N 
ATOM     60  N   UNL A   1      39.417  32.099  33.538  1.00  0.00    -0.248 NA
ATOM     61  C   UNL A   1      37.630  33.595  33.393  1.00  0.00     0.031 C 
ATOM     62  C   UNL A   1      42.073  31.737  37.079  1.00  0.00     0.029 A 
ATOM     63  C   UNL A   1      41.246  31.885  35.979  1.00  0.00     0.049 A 
ATOM     64  H   UNL A   1      41.218  30.786  34.177  1.00  0.00     0.167 HD
ATOM     65  C   UNL A   1      39.377  32.879  34.690  1.00  0.00     0.074 A 
ATOM     66  C   UNL A   1      38.281  33.810  34.527  1.00  0.00     0.031 C 
ATOM     67  C   UNL A   1      40.177  32.831  35.784  1.00  0.00     0.037 A 
BRANCH  54  68
ATOM     68  C   UNL A   1      44.587  28.515  35.500  1.00  0.00     0.058 A 
ATOM     69  C   UNL A   1      45.879  29.045  35.357  1.00  0.00     0.135 A 
ATOM     70  C   UNL A   1      44.427  27.399  36.337  1.00  0.00     0.135 A 
ATOM     71  F   UNL A   1      46.095  30.098  34.552  1.00  0.00    -0.206 F 
ATOM     72  C   UNL A   1      46.972  28.486  36.011  1.00  0.00     0.059 A 
ATOM     73  C   UNL A   1      45.500  26.842  37.026  1.00  0.00     0.059 A 
ATOM     74  F   UNL A   1      43.214  26.850  36.507  1.00  0.00    -0.206 F 
ATOM     75  C   UNL A   1      46.772  27.389  36.851  1.00  0.00     0.060 A 
BRANCH  75  76
ATOM     76  S   UNL A   1      48.196  26.706  37.724  1.00  0.00     0.124 S 
ATOM     77  O   UNL A   1      47.816  26.924  39.116  1.00  0.00    -0.237 OA
ATOM     78  O   UNL A   1      48.197  25.317  37.275  1.00  0.00    -0.237 OA
ATOM     79  O   UNL A   1      49.310  27.517  37.244  1.00  0.00    -0.744 OA
ENDBRANCH  75  76
ENDBRANCH  54  68
BRANCH  55  80
ATOM     80  C   UNL A   1      36.876  32.718  30.709  1.00  0.00     0.058 A 
ATOM     81  C   UNL A   1      37.054  33.751  29.773  1.00  0.00     0.135 A 
ATOM     82  C   UNL A   1      35.561  32.344  31.021  1.00  0.00     0.135 A 
ATOM     83  F   UNL A   1      38.292  34.148  29.440  1.00  0.00    -0.206 F 
ATOM     84  C   UNL A   1      35.972  34.426  29.216  1.00  0.00     0.059 A 
ATOM     85  C   UNL A   1      34.463  32.981  30.451  1.00  0.00     0.059 A 
ATOM     86  F   UNL A   1      35.332  31.347  31.891  1.00  0.00    -0.206 F 
ATOM     87  C   UNL A   1      34.679  34.039  29.569  1.00  0.00     0.060 A 
BRANCH  87  88
ATOM     88  S   UNL A   1      33.281  34.933  28.858  1.00  0.00     0.124 S 
ATOM     89  O   UNL A   1      32.783  33.969  27.885  1.00  0.00    -0.237 OA
ATOM     90  O   UNL A   1      32.435  35.158  30.025  1.00  0.00    -0.237 OA
ATOM     91  O   UNL A   1      33.900  36.132  28.301  1.00  0.00    -0.744 OA
ENDBRANCH  87  88
ENDBRANCH  55  80
BRANCH  67  92
ATOM     92  C   UNL A   1      39.957  33.869  36.853  1.00  0.00     0.058 A 
ATOM     93  C   UNL A   1      40.615  35.108  36.841  1.00  0.00     0.135 A 
ATOM     94  C   UNL A   1      39.043  33.623  37.892  1.00  0.00     0.135 A 
ATOM     95  F   UNL A   1      41.500  35.395  35.872  1.00  0.00    -0.206 F 
ATOM     96  C   UNL A   1      40.406  36.051  37.843  1.00  0.00     0.059 A 
ATOM     97  C   UNL A   1      38.793  34.565  38.884  1.00  0.00     0.059 A 
ATOM     98  F   UNL A   1      38.375  32.460  37.944  1.00  0.00    -0.206 F 
ATOM     99  C   UNL A   1      39.493  35.769  38.862  1.00  0.00     0.060 A 
BRANCH  99 100
ATOM    100  S   UNL A   1      39.223  37.005  40.149  1.00  0.00     0.124 S 
ATOM    101  O   UNL A   1      38.382  36.271  41.089  1.00  0.00    -0.237 OA
ATOM    102  O   UNL A   1      40.582  37.288  40.600  1.00  0.00    -0.237 OA
ATOM    103  O   UNL A   1      38.565  38.097  39.438  1.00  0.00    -0.744 OA
ENDBRANCH  99 100
ENDBRANCH  67  92
ENDBRANCH  41  42
ENDBRANCH  33  36
ENDBRANCH  31  32
ENDBRANCH  30  31
ENDBRANCH   1  30
TORSDOF 18
ENDMDL
MODEL 2
REMARK VINA RESULT:     -12.8      1.946      9.182
REMARK SMILES Cc1nc(CC(=O)N2C[C@@H](C(=O)NCCCCNC(=O)c3ccc(-c4c5nc(c(-c6c(F)cc(S(=O)(=O)[O-])cc6F)c6ccc([nH]6)c(-c6c(F)cc(S(=O)(=O)[O-])cc6F)c6nc(c(-c7c(F)cc(S(=O)(=O)[O-])cc7F)c7ccc4[nH]7)C=C6)C=C5)cc3)[C@H](c3ccc4c(c3)OCO4)C2)cs1
REMARK SMILES IDX 15 1 14 2 13 3 11 4 12 5 10 7 8 8 9 9 97 10 87 11 6 12 7 13
REMARK SMILES IDX 5 14 4 15 1 16 2 17 3 18 99 19 98 20 88 21 89 22 93 23 90 24
REMARK SMILES IDX 92 25 91 26 94 27 96 28 95 29 16 30 17 31 18 32 19 33 20 35
REMARK SMILES IDX 21 36 22 37 86 38 23 39 85 40 24 41 25 42 26 43 79 44 27 45
REMARK SMILES IDX 84 46 78 47 80 48 28 49 83 50 77 51 76 52 29 54 63 55 42 56
REMARK SMILES IDX 62 57 43 58 46 59 61 60 81 61 44 62 45 63 60 65 82 66 47 67
REMARK SMILES IDX 30 68 31 69 40 70 32 71 33 72 39 73 41 74 34 75 35 76 36 77
REMARK SMILES IDX 37 78 38 79 64 80 65 81 74 82 66 83 67 84 73 85 75 86 68 87
REMARK SMILES IDX 69 88 70 89 71 90 72 91 48 92 49 93 58 94 50 95 51 96 57 97
REMARK SMILES IDX 59 98 52 99 53 100 54 101 55 102 56 103
REMARK H PARENT 13 6 18 34 80 53 46 64
REMARK Flexibility Score: inf
ROOT
ATOM      1  C   UNL A   1      37.915  22.014  25.384  1.00  0.00     0.023 C 
ENDROOT
BRANCH   1   2
ATOM      2  C   UNL A   1      36.755  21.049  25.185  1.00  0.00     0.116 C 
BRANCH   2   3
ATOM      3  N   UNL A   1      35.754  21.159  26.235  1.00  0.00    -0.356 N 
ATOM      4  C   UNL A   1      34.433  21.487  26.147  1.00  0.00     0.225 C 
ATOM      5  O   UNL A   1      33.736  21.417  27.160  1.00  0.00    -0.275 OA
ATOM      6  H   UNL A   1      36.079  20.970  27.145  1.00  0.00     0.163 HD
BRANCH   4   7
ATOM      7  C   UNL A   1      33.858  21.906  24.815  1.00  0.00     0.107 C 
ATOM      8  N   UNL A   1      32.892  23.626  23.611  1.00  0.00    -0.341 N 
ATOM      9  C   UNL A   1      33.808  23.408  24.712  1.00  0.00     0.133 C 
ATOM     10  C   UNL A   1      31.894  22.552  23.575  1.00  0.00     0.128 C 
ATOM     11  C   UNL A   1      32.387  21.495  24.595  1.00  0.00     0.053 C 
BRANCH   8  12
ATOM     12  C   UNL A   1      32.906  24.637  22.677  1.00  0.00     0.228 C 
ATOM     13  O   UNL A   1      33.981  25.118  22.299  1.00  0.00    -0.274 OA
BRANCH  12  14
ATOM     14  C   UNL A   1      31.604  25.318  22.266  1.00  0.00     0.157 C 
BRANCH  14  15
ATOM     15  C   UNL A   1      31.319  26.665  22.837  1.00  0.00     0.061 A 
ATOM     16  C   UNL A   1      29.900  29.936  22.014  1.00  0.00     0.079 C 
ATOM     17  C   UNL A   1      30.502  28.727  22.642  1.00  0.00     0.090 A 
ATOM     18  N   UNL A   1      30.590  27.555  22.051  1.00  0.00    -0.246 NA
ATOM     19  S   UNL A   1      31.179  28.800  24.218  1.00  0.00    -0.127 S 
ATOM     20  C   UNL A   1      31.684  27.166  24.071  1.00  0.00     0.091 A 
ENDBRANCH  14  15
ENDBRANCH  12  14
ENDBRANCH   8  12
BRANCH  11  21
ATOM     21  C   UNL A   1      32.361  20.017  24.240  1.00  0.00    -0.038 A 
ATOM     22  C   UNL A   1      32.347  19.550  22.904  1.00  0.00     0.008 A 
ATOM     23  C   UNL A   1      32.628  19.101  25.280  1.00  0.00     0.054 A 
ATOM     24  C   UNL A   1      32.675  18.221  22.602  1.00  0.00     0.051 A 
ATOM     25  C   UNL A   1      33.007  17.819  24.945  1.00  0.00     0.166 A 
ATOM     26  C   UNL A   1      33.047  17.396  23.640  1.00  0.00     0.165 A 
ATOM     27  O   UNL A   1      33.508  16.893  25.806  1.00  0.00    -0.454 OA
ATOM     28  O   UNL A   1      33.568  16.145  23.521  1.00  0.00    -0.454 OA
ATOM     29  C   UNL A   1      34.031  15.926  24.871  1.00  0.00     0.468 C 
ENDBRANCH  11  21
ENDBRANCH   4   7
ENDBRANCH   2   3
ENDBRANCH   1   2
BRANCH   1  30
ATOM     30  C   UNL A   1      37.500  23.451  25.706  1.00  0.00     0.023 C 
BRANCH  30  31
ATOM     31  C   UNL A   1      38.479  24.238  26.571  1.00  0.00     0.116 C 
BRANCH  31  32
ATOM     32  N   UNL A   1      39.821  24.290  26.011  1.00  0.00    -0.352 N 
ATOM     33  C   UNL A   1      40.855  25.137  26.326  1.00  0.00     0.251 C 
ATOM     34  H   UNL A   1      40.014  23.627  25.309  1.00  0.00     0.163 HD
ATOM     35  O   UNL A   1      41.884  25.118  25.654  1.00  0.00    -0.269 OA
BRANCH  33  36
ATOM     36  C   UNL A   1      40.721  26.082  27.457  1.00  0.00     0.039 A 
ATOM     37  C   UNL A   1      39.797  25.802  28.466  1.00  0.00     0.014 A 
ATOM     38  C   UNL A   1      41.499  27.241  27.521  1.00  0.00     0.014 A 
ATOM     39  C   UNL A   1      39.690  26.658  29.565  1.00  0.00     0.010 A 
ATOM     40  C   UNL A   1      41.445  28.051  28.653  1.00  0.00     0.010 A 
ATOM     41  C   UNL A   1      40.530  27.777  29.681  1.00  0.00    -0.014 A 
BRANCH  41  42
ATOM     42  C   UNL A   1      40.437  28.696  30.849  1.00  0.00     0.031 A 
ATOM     43  C   UNL A   1      39.445  29.832  30.828  1.00  0.00     0.074 A 
ATOM     44  C   UNL A   1      41.261  28.537  31.903  1.00  0.00     0.049 A 
ATOM     45  N   UNL A   1      39.260  30.784  31.706  1.00  0.00    -0.248 NA
ATOM     46  C   UNL A   1      38.560  29.923  29.654  1.00  0.00     0.031 C 
ATOM     47  C   UNL A   1      42.287  27.499  32.032  1.00  0.00     0.029 A 
ATOM     48  N   UNL A   1      41.372  29.254  33.070  1.00  0.00    -0.354 N 
ATOM     49  C   UNL A   1      38.243  31.580  31.194  1.00  0.00     0.074 A 
ATOM     50  C   UNL A   1      37.898  31.044  29.895  1.00  0.00     0.031 C 
ATOM     51  C   UNL A   1      42.907  27.634  33.217  1.00  0.00     0.029 A 
ATOM     52  C   UNL A   1      42.352  28.789  33.917  1.00  0.00     0.049 A 
ATOM     53  H   UNL A   1      40.803  30.029  33.281  1.00  0.00     0.167 HD
ATOM     54  C   UNL A   1      37.622  32.640  31.766  1.00  0.00     0.037 A 
ATOM     55  C   UNL A   1      42.762  29.246  35.116  1.00  0.00     0.037 A 
ATOM     56  C   UNL A   1      37.952  33.160  33.067  1.00  0.00     0.049 A 
ATOM     57  C   UNL A   1      42.075  30.448  35.715  1.00  0.00     0.074 A 
ATOM     58  C   UNL A   1      37.377  34.226  33.739  1.00  0.00     0.029 A 
ATOM     59  N   UNL A   1      38.932  32.646  33.901  1.00  0.00    -0.354 N 
ATOM     60  N   UNL A   1      41.091  31.167  35.228  1.00  0.00    -0.248 NA
ATOM     61  C   UNL A   1      42.542  30.891  37.037  1.00  0.00     0.031 C 
ATOM     62  C   UNL A   1      38.032  34.377  34.964  1.00  0.00     0.029 A 
ATOM     63  C   UNL A   1      38.978  33.372  35.080  1.00  0.00     0.049 A 
ATOM     64  H   UNL A   1      39.512  31.879  33.687  1.00  0.00     0.167 HD
ATOM     65  C   UNL A   1      40.790  32.111  36.205  1.00  0.00     0.074 A 
ATOM     66  C   UNL A   1      41.689  31.866  37.313  1.00  0.00     0.031 C 
ATOM     67  C   UNL A   1      39.852  33.090  36.190  1.00  0.00     0.037 A 
BRANCH  54  68
ATOM     68  C   UNL A   1      36.501  33.293  31.004  1.00  0.00     0.058 A 
ATOM     69  C   UNL A   1      35.164  33.138  31.404  1.00  0.00     0.135 A 
ATOM     70  C   UNL A   1      36.764  34.134  29.912  1.00  0.00     0.135 A 
ATOM     71  F   UNL A   1      34.852  32.328  32.429  1.00  0.00    -0.206 F 
ATOM     72  C   UNL A   1      34.126  33.783  30.741  1.00  0.00     0.059 A 
ATOM     73  C   UNL A   1      35.744  34.814  29.252  1.00  0.00     0.059 A 
ATOM     74  F   UNL A   1      38.023  34.315  29.485  1.00  0.00    -0.206 F 
ATOM     75  C   UNL A   1      34.427  34.627  29.670  1.00  0.00     0.060 A 
BRANCH  75  76
ATOM     76  S   UNL A   1      33.070  35.490  28.851  1.00  0.00     0.124 S 
ATOM     77  O   UNL A   1      32.444  34.405  28.103  1.00  0.00    -0.237 OA
ATOM     78  O   UNL A   1      32.304  36.007  29.981  1.00  0.00    -0.237 OA
ATOM     79  O   UNL A   1      33.747  36.500  28.043  1.00  0.00    -0.744 OA
ENDBRANCH  75  76
ENDBRANCH  54  68
BRANCH  55  80
ATOM     80  C   UNL A   1      43.873  28.575  35.850  1.00  0.00     0.058 A 
ATOM     81  C   UNL A   1      43.615  27.544  36.767  1.00  0.00     0.135 A 
ATOM     82  C   UNL A   1      45.204  28.991  35.696  1.00  0.00     0.135 A 
ATOM     83  F   UNL A   1      42.360  27.109  36.953  1.00  0.00    -0.206 F 
ATOM     84  C   UNL A   1      44.627  26.989  37.545  1.00  0.00     0.059 A 
ATOM     85  C   UNL A   1      46.238  28.427  36.437  1.00  0.00     0.059 A 
ATOM     86  F   UNL A   1      45.512  29.957  34.816  1.00  0.00    -0.206 F 
ATOM     87  C   UNL A   1      45.935  27.445  37.379  1.00  0.00     0.060 A 
BRANCH  87  88
ATOM     88  S   UNL A   1      47.239  26.735  38.407  1.00  0.00     0.124 S 
ATOM     89  O   UNL A   1      47.551  25.511  37.678  1.00  0.00    -0.237 OA
ATOM     90  O   UNL A   1      48.260  27.777  38.372  1.00  0.00    -0.237 OA
ATOM     91  O   UNL A   1      46.584  26.551  39.698  1.00  0.00    -0.744 OA
ENDBRANCH  87  88
ENDBRANCH  55  80
BRANCH  67  92
ATOM     92  C   UNL A   1      39.686  33.915  37.439  1.00  0.00     0.058 A 
ATOM     93  C   UNL A   1      38.907  33.483  38.524  1.00  0.00     0.135 A 
ATOM     94  C   UNL A   1      40.349  35.148  37.557  1.00  0.00     0.135 A 
ATOM     95  F   UNL A   1      38.252  32.313  38.463  1.00  0.00    -0.206 F 
ATOM     96  C   UNL A   1      38.758  34.264  39.666  1.00  0.00     0.059 A 
ATOM     97  C   UNL A   1      40.242  35.929  38.704  1.00  0.00     0.059 A 
ATOM     98  F   UNL A   1      41.119  35.603  36.556  1.00  0.00    -0.206 F 
ATOM     99  C   UNL A   1      39.429  35.487  39.746  1.00  0.00     0.060 A 
BRANCH  99 100
ATOM    100  S   UNL A   1      39.236  36.485  41.237  1.00  0.00     0.124 S 
ATOM    101  O   UNL A   1      38.929  37.796  40.676  1.00  0.00    -0.237 OA
ATOM    102  O   UNL A   1      38.135  35.814  41.921  1.00  0.00    -0.237 OA
ATOM    103  O   UNL A   1      40.535  36.370  41.893  1.00  0.00    -0.744 OA
ENDBRANCH  99 100
ENDBRANCH  67  92
ENDBRANCH  41  42
ENDBRANCH  33  36
ENDBRANCH  31  32
ENDBRANCH  30  31
ENDBRANCH   1  30
TORSDOF 18
ENDMDL
MODEL 3
REMARK VINA RESULT:     -12.6      1.984      4.595
REMARK SMILES Cc1nc(CC(=O)N2C[C@@H](C(=O)NCCCCNC(=O)c3ccc(-c4c5nc(c(-c6c(F)cc(S(=O)(=O)[O-])cc6F)c6ccc([nH]6)c(-c6c(F)cc(S(=O)(=O)[O-])cc6F)c6nc(c(-c7c(F)cc(S(=O)(=O)[O-])cc7F)c7ccc4[nH]7)C=C6)C=C5)cc3)[C@H](c3ccc4c(c3)OCO4)C2)cs1
REMARK SMILES IDX 15 1 14 2 13 3 11 4 12 5 10 7 8 8 9 9 97 10 87 11 6 12 7 13
REMARK SMILES IDX 5 14 4 15 1 16 2 17 3 18 99 19 98 20 88 21 89 22 93 23 90 24
REMARK SMILES IDX 92 25 91 26 94 27 96 28 95 29 16 30 17 31 18 32 19 33 20 35
REMARK SMILES IDX 21 36 22 37 86 38 23 39 85 40 24 41 25 42 26 43 79 44 27 45
REMARK SMILES IDX 84 46 78 47 80 48 28 49 83 50 77 51 76 52 29 54 63 55 42 56
REMARK SMILES IDX 62 57 43 58 46 59 61 60 81 61 44 62 45 63 60 65 82 66 47 67
REMARK SMILES IDX 30 68 31 69 40 70 32 71 33 72 39 73 41 74 34 75 35 76 36 77
REMARK SMILES IDX 37 78 38 79 64 80 65 81 74 82 66 83 67 84 73 85 75 86 68 87
REMARK SMILES IDX 69 88 70 89 71 90 72 91 48 92 49 93 58 94 50 95 51 96 57 97
REMARK SMILES IDX 59 98 52 99 53 100 54 101 55 102 56 103
REMARK H PARENT 13 6 18 34 80 53 46 64
REMARK Flexibility Score: inf
ROOT
ATOM      1  C   UNL A   1      38.405  23.392  26.216  1.00  0.00     0.023 C 
ENDROOT
BRANCH   1   2
ATOM      2  C   UNL A   1      37.099  22.714  25.823  1.00  0.00     0.116 C 
BRANCH   2   3
ATOM      3  N   UNL A   1      36.948  22.592  24.382  1.00  0.00    -0.356 N 
ATOM      4  C   UNL A   1      35.888  22.920  23.587  1.00  0.00     0.225 C 
ATOM      5  O   UNL A   1      36.015  22.830  22.365  1.00  0.00    -0.275 OA
ATOM      6  H   UNL A   1      37.726  22.217  23.910  1.00  0.00     0.163 HD
BRANCH   4   7
ATOM      7  C   UNL A   1      34.603  23.396  24.221  1.00  0.00     0.107 C 
ATOM      8  N   UNL A   1      33.649  24.884  25.709  1.00  0.00    -0.341 N 
ATOM      9  C   UNL A   1      34.790  24.765  24.823  1.00  0.00     0.133 C 
ATOM     10  C   UNL A   1      33.284  23.564  26.232  1.00  0.00     0.128 C 
ATOM     11  C   UNL A   1      34.131  22.551  25.423  1.00  0.00     0.053 C 
BRANCH   8  12
ATOM     12  C   UNL A   1      32.938  26.018  26.034  1.00  0.00     0.228 C 
ATOM     13  O   UNL A   1      32.007  25.955  26.846  1.00  0.00    -0.274 OA
BRANCH  12  14
ATOM     14  C   UNL A   1      33.142  27.304  25.240  1.00  0.00     0.157 C 
BRANCH  14  15
ATOM     15  C   UNL A   1      33.097  28.592  25.987  1.00  0.00     0.061 A 
ATOM     16  C   UNL A   1      31.208  31.711  26.303  1.00  0.00     0.079 C 
ATOM     17  C   UNL A   1      32.143  30.557  26.420  1.00  0.00     0.090 A 
ATOM     18  N   UNL A   1      31.997  29.421  25.774  1.00  0.00    -0.246 NA
ATOM     19  S   UNL A   1      33.540  30.655  27.413  1.00  0.00    -0.127 S 
ATOM     20  C   UNL A   1      34.017  29.092  26.888  1.00  0.00     0.091 A 
ENDBRANCH  14  15
ENDBRANCH  12  14
ENDBRANCH   8  12
BRANCH  11  21
ATOM     21  C   UNL A   1      33.495  21.281  24.881  1.00  0.00    -0.038 A 
ATOM     22  C   UNL A   1      32.515  21.290  23.860  1.00  0.00     0.008 A 
ATOM     23  C   UNL A   1      34.104  20.057  25.231  1.00  0.00     0.054 A 
ATOM     24  C   UNL A   1      32.208  20.124  23.145  1.00  0.00     0.051 A 
ATOM     25  C   UNL A   1      33.827  18.943  24.468  1.00  0.00     0.166 A 
ATOM     26  C   UNL A   1      32.917  18.981  23.441  1.00  0.00     0.165 A 
ATOM     27  O   UNL A   1      34.490  17.757  24.530  1.00  0.00    -0.454 OA
ATOM     28  O   UNL A   1      32.887  17.816  22.738  1.00  0.00    -0.454 OA
ATOM     29  C   UNL A   1      34.020  17.133  23.316  1.00  0.00     0.468 C 
ENDBRANCH  11  21
ENDBRANCH   4   7
ENDBRANCH   2   3
ENDBRANCH   1   2
BRANCH   1  30
ATOM     30  C   UNL A   1      39.496  22.437  26.703  1.00  0.00     0.023 C 
BRANCH  30  31
ATOM     31  C   UNL A   1      40.797  23.099  27.144  1.00  0.00     0.116 C 
BRANCH  31  32
ATOM     32  N   UNL A   1      41.471  23.809  26.068  1.00  0.00    -0.352 N 
ATOM     33  C   UNL A   1      41.807  25.138  25.988  1.00  0.00     0.251 C 
ATOM     34  H   UNL A   1      41.720  23.260  25.289  1.00  0.00     0.163 HD
ATOM     35  O   UNL A   1      42.261  25.590  24.939  1.00  0.00    -0.269 OA
BRANCH  33  36
ATOM     36  C   UNL A   1      41.602  26.026  27.154  1.00  0.00     0.039 A 
ATOM     37  C   UNL A   1      42.487  27.088  27.358  1.00  0.00     0.014 A 
ATOM     38  C   UNL A   1      40.547  25.811  28.045  1.00  0.00     0.014 A 
ATOM     39  C   UNL A   1      42.282  27.964  28.427  1.00  0.00     0.010 A 
ATOM     40  C   UNL A   1      40.301  26.730  29.063  1.00  0.00     0.010 A 
ATOM     41  C   UNL A   1      41.173  27.808  29.274  1.00  0.00    -0.014 A 
BRANCH  41  42
ATOM     42  C   UNL A   1      40.934  28.737  30.413  1.00  0.00     0.031 A 
ATOM     43  C   UNL A   1      41.772  28.620  31.661  1.00  0.00     0.074 A 
ATOM     44  C   UNL A   1      39.948  29.653  30.344  1.00  0.00     0.049 A 
ATOM     45  N   UNL A   1      41.674  29.278  32.788  1.00  0.00    -0.248 NA
ATOM     46  C   UNL A   1      42.848  27.614  31.649  1.00  0.00     0.031 C 
ATOM     47  C   UNL A   1      39.044  29.845  29.207  1.00  0.00     0.029 A 
ATOM     48  N   UNL A   1      39.533  30.593  31.255  1.00  0.00    -0.354 N 
ATOM     49  C   UNL A   1      42.671  28.770  33.612  1.00  0.00     0.074 A 
ATOM     50  C   UNL A   1      43.317  27.700  32.885  1.00  0.00     0.031 C 
ATOM     51  C   UNL A   1      38.198  30.853  29.480  1.00  0.00     0.029 A 
ATOM     52  C   UNL A   1      38.470  31.354  30.824  1.00  0.00     0.049 A 
ATOM     53  H   UNL A   1      39.957  30.713  32.135  1.00  0.00     0.167 HD
ATOM     54  C   UNL A   1      43.042  29.180  34.848  1.00  0.00     0.037 A 
ATOM     55  C   UNL A   1      37.787  32.336  31.445  1.00  0.00     0.037 A 
ATOM     56  C   UNL A   1      42.412  30.260  35.563  1.00  0.00     0.049 A 
ATOM     57  C   UNL A   1      38.203  32.751  32.834  1.00  0.00     0.074 A 
ATOM     58  C   UNL A   1      42.720  30.756  36.818  1.00  0.00     0.029 A 
ATOM     59  N   UNL A   1      41.357  31.019  35.082  1.00  0.00    -0.354 N 
ATOM     60  N   UNL A   1      39.171  32.279  33.585  1.00  0.00    -0.248 NA
ATOM     61  C   UNL A   1      37.444  33.845  33.457  1.00  0.00     0.031 C 
ATOM     62  C   UNL A   1      41.829  31.793  37.110  1.00  0.00     0.029 A 
ATOM     63  C   UNL A   1      41.002  31.980  36.014  1.00  0.00     0.049 A 
ATOM     64  H   UNL A   1      40.922  30.892  34.207  1.00  0.00     0.167 HD
ATOM     65  C   UNL A   1      39.168  33.053  34.741  1.00  0.00     0.074 A 
ATOM     66  C   UNL A   1      38.108  34.028  34.588  1.00  0.00     0.031 C 
ATOM     67  C   UNL A   1      39.971  32.968  35.830  1.00  0.00     0.037 A 
BRANCH  54  68
ATOM     68  C   UNL A   1      44.205  28.482  35.500  1.00  0.00     0.058 A 
ATOM     69  C   UNL A   1      44.011  27.363  36.327  1.00  0.00     0.135 A 
ATOM     70  C   UNL A   1      45.525  28.887  35.247  1.00  0.00     0.135 A 
ATOM     71  F   UNL A   1      42.769  26.946  36.622  1.00  0.00    -0.206 F 
ATOM     72  C   UNL A   1      45.083  26.678  36.888  1.00  0.00     0.059 A 
ATOM     73  C   UNL A   1      46.614  28.198  35.772  1.00  0.00     0.059 A 
ATOM     74  F   UNL A   1      45.767  29.952  34.467  1.00  0.00    -0.206 F 
ATOM     75  C   UNL A   1      46.383  27.097  36.598  1.00  0.00     0.060 A 
BRANCH  75  76
ATOM     76  S   UNL A   1      47.760  26.168  37.300  1.00  0.00     0.124 S 
ATOM     77  O   UNL A   1      48.906  26.868  36.731  1.00  0.00    -0.237 OA
ATOM     78  O   UNL A   1      47.555  26.347  38.734  1.00  0.00    -0.237 OA
ATOM     79  O   UNL A   1      47.545  24.812  36.804  1.00  0.00    -0.744 OA
ENDBRANCH  75  76
ENDBRANCH  54  68
BRANCH  55  80
ATOM     80  C   UNL A   1      36.643  33.013  30.772  1.00  0.00     0.058 A 
ATOM     81  C   UNL A   1      36.856  33.946  29.743  1.00  0.00     0.135 A 
ATOM     82  C   UNL A   1      35.320  32.790  31.182  1.00  0.00     0.135 A 
ATOM     83  F   UNL A   1      38.102  34.197  29.314  1.00  0.00    -0.206 F 
ATOM     84  C   UNL A   1      35.808  34.672  29.187  1.00  0.00     0.059 A 
ATOM     85  C   UNL A   1      34.251  33.479  30.616  1.00  0.00     0.059 A 
ATOM     86  F   UNL A   1      35.055  31.893  32.145  1.00  0.00    -0.206 F 
ATOM     87  C   UNL A   1      34.508  34.437  29.637  1.00  0.00     0.060 A 
BRANCH  87  88
ATOM     88  S   UNL A   1      33.156  35.399  28.925  1.00  0.00     0.124 S 
ATOM     89  O   UNL A   1      33.884  36.446  28.219  1.00  0.00    -0.237 OA
ATOM     90  O   UNL A   1      32.485  34.411  28.087  1.00  0.00    -0.237 OA
ATOM     91  O   UNL A   1      32.402  35.834  30.097  1.00  0.00    -0.744 OA
ENDBRANCH  87  88
ENDBRANCH  55  80
BRANCH  67  92
ATOM     92  C   UNL A   1      39.798  34.008  36.905  1.00  0.00     0.058 A 
ATOM     93  C   UNL A   1      38.942  33.819  38.000  1.00  0.00     0.135 A 
ATOM     94  C   UNL A   1      40.532  35.205  36.847  1.00  0.00     0.135 A 
ATOM     95  F   UNL A   1      38.216  32.694  38.105  1.00  0.00    -0.206 F 
ATOM     96  C   UNL A   1      38.788  34.796  38.979  1.00  0.00     0.059 A 
ATOM     97  C   UNL A   1      40.420  36.181  37.833  1.00  0.00     0.059 A 
ATOM     98  F   UNL A   1      41.377  35.433  35.829  1.00  0.00    -0.206 F 
ATOM     99  C   UNL A   1      39.531  35.975  38.885  1.00  0.00     0.060 A 
BRANCH  99 100
ATOM    100  S   UNL A   1      39.331  37.229  40.168  1.00  0.00     0.124 S 
ATOM    101  O   UNL A   1      40.717  37.597  40.438  1.00  0.00    -0.237 OA
ATOM    102  O   UNL A   1      38.526  38.242  39.490  1.00  0.00    -0.237 OA
ATOM    103  O   UNL A   1      38.651  36.512  41.241  1.00  0.00    -0.744 OA
ENDBRANCH  99 100
ENDBRANCH  67  92
ENDBRANCH  41  42
ENDBRANCH  33  36
ENDBRANCH  31  32
ENDBRANCH  30  31
ENDBRANCH   1  30
TORSDOF 18
ENDMDL
