MODEL 1
REMARK VINA RESULT:     -11.8      0.000      0.000
REMARK SMILES Cc1cnn([C@H]2CC[C@@]([NH3+])(C(=O)NCCCCNC(=O)c3ccc(-c4c5nc(c(-c6c(F)cc(S(=O)(=O)[O-])cc6F)c6ccc([nH]6)c(-c6c(F)cc(S(=O)(=O)[O-])cc6F)c6nc(c(-c7c(F)cc(S(=O)(=O)[O-])cc7F)c7ccc4[nH]7)C=C6)C=C5)cc3)C2)c1
REMARK SMILES IDX 16 1 15 2 14 3 13 4 11 5 12 6 9 8 6 9 7 10 87 11 8 12 5 13
REMARK SMILES IDX 1 14 2 15 3 16 88 17 4 18 10 19 17 23 18 24 19 25 20 27
REMARK SMILES IDX 21 28 22 29 86 30 23 31 85 32 24 33 25 34 26 35 79 36 27 37
REMARK SMILES IDX 84 38 78 39 80 40 28 41 83 42 77 43 76 44 29 46 63 47 42 48
REMARK SMILES IDX 62 49 43 50 46 51 61 52 81 53 44 54 45 55 60 57 82 58 47 59
REMARK SMILES IDX 30 60 31 61 40 62 32 63 33 64 39 65 41 66 34 67 35 68 36 69
REMARK SMILES IDX 37 70 38 71 64 72 65 73 74 74 66 75 67 76 73 77 75 78 68 79
REMARK SMILES IDX 69 80 70 81 71 82 72 83 48 84 49 85 58 86 50 87 51 88 57 89
REMARK SMILES IDX 59 90 52 91 53 92 54 93 55 94 56 95
REMARK H PARENT 13 7 10 20 10 21 10 22 18 26 80 45 46 56
REMARK Flexibility Score: inf
ROOT
ATOM      1  C   UNL A   1      39.332  21.550  26.096  1.00  0.00     0.023 C 
ENDROOT
BRANCH   1   2
ATOM      2  C   UNL A   1      38.077  22.342  25.706  1.00  0.00     0.023 C 
BRANCH   2   3
ATOM      3  C   UNL A   1      36.823  21.528  25.368  1.00  0.00     0.116 C 
BRANCH   3   4
ATOM      4  N   UNL A   1      35.893  21.420  26.477  1.00  0.00    -0.351 N 
ATOM      5  C   UNL A   1      34.567  21.742  26.544  1.00  0.00     0.281 C 
ATOM      6  O   UNL A   1      33.931  21.245  27.476  1.00  0.00    -0.268 OA
ATOM      7  H   UNL A   1      36.277  21.059  27.309  1.00  0.00     0.163 HD
BRANCH   5   8
ATOM      8  C   UNL A   1      33.861  22.591  25.432  1.00  0.00     0.176 C 
ATOM      9  C   UNL A   1      32.737  21.006  23.925  1.00  0.00     0.114 C 
ATOM     10  C   UNL A   1      31.646  21.784  24.678  1.00  0.00     0.034 C 
ATOM     11  C   UNL A   1      33.951  21.943  24.033  1.00  0.00     0.106 C 
ATOM     12  C   UNL A   1      32.350  22.741  25.645  1.00  0.00     0.081 C 
BRANCH   9  13
ATOM     13  N   UNL A   1      32.914  19.643  24.402  1.00  0.00    -0.269 N 
ATOM     14  C   UNL A   1      34.570  16.439  24.836  1.00  0.00     0.048 C 
ATOM     15  C   UNL A   1      33.693  17.629  24.803  1.00  0.00    -0.013 A 
ATOM     16  C   UNL A   1      32.648  17.980  25.679  1.00  0.00     0.138 A 
ATOM     17  C   UNL A   1      33.731  18.671  23.904  1.00  0.00     0.112 A 
ATOM     18  N   UNL A   1      32.133  19.182  25.406  1.00  0.00    -0.181 NA
ENDBRANCH   9  13
BRANCH   8  19
ATOM     19  N   UNL A   1      34.548  23.903  25.405  1.00  0.00    -0.345 N 
ATOM     20  H   UNL A   1      35.557  23.760  25.457  1.00  0.00     0.345 HD
ATOM     21  H   UNL A   1      34.243  24.463  26.201  1.00  0.00     0.345 HD
ATOM     22  H   UNL A   1      34.318  24.390  24.538  1.00  0.00     0.345 HD
ENDBRANCH   8  19
ENDBRANCH   5   8
ENDBRANCH   3   4
ENDBRANCH   2   3
ENDBRANCH   1   2
BRANCH   1  23
ATOM     23  C   UNL A   1      40.474  22.396  26.633  1.00  0.00     0.116 C 
BRANCH  23  24
ATOM     24  N   UNL A   1      41.715  22.242  25.871  1.00  0.00    -0.352 N 
ATOM     25  C   UNL A   1      42.542  23.241  25.378  1.00  0.00     0.251 C 
ATOM     26  H   UNL A   1      41.996  21.316  25.687  1.00  0.00     0.163 HD
ATOM     27  O   UNL A   1      43.319  23.021  24.466  1.00  0.00    -0.269 OA
BRANCH  25  28
ATOM     28  C   UNL A   1      42.461  24.578  25.997  1.00  0.00     0.039 A 
ATOM     29  C   UNL A   1      41.658  25.595  25.474  1.00  0.00     0.014 A 
ATOM     30  C   UNL A   1      43.195  24.779  27.161  1.00  0.00     0.014 A 
ATOM     31  C   UNL A   1      41.543  26.789  26.184  1.00  0.00     0.010 A 
ATOM     32  C   UNL A   1      42.931  25.865  27.948  1.00  0.00     0.010 A 
ATOM     33  C   UNL A   1      42.174  26.907  27.432  1.00  0.00    -0.014 A 
BRANCH  33  34
ATOM     34  C   UNL A   1      41.990  28.077  28.284  1.00  0.00     0.031 A 
ATOM     35  C   UNL A   1      43.052  29.112  28.145  1.00  0.00     0.074 A 
ATOM     36  C   UNL A   1      40.818  28.319  28.915  1.00  0.00     0.049 A 
ATOM     37  N   UNL A   1      43.941  29.460  29.015  1.00  0.00    -0.248 NA
ATOM     38  C   UNL A   1      43.258  29.721  26.819  1.00  0.00     0.031 C 
ATOM     39  C   UNL A   1      39.564  27.554  28.842  1.00  0.00     0.029 A 
ATOM     40  N   UNL A   1      40.455  29.388  29.670  1.00  0.00    -0.354 N 
ATOM     41  C   UNL A   1      44.650  30.512  28.437  1.00  0.00     0.074 A 
ATOM     42  C   UNL A   1      44.346  30.465  27.032  1.00  0.00     0.031 C 
ATOM     43  C   UNL A   1      38.541  28.309  29.300  1.00  0.00     0.029 A 
ATOM     44  C   UNL A   1      39.083  29.530  29.865  1.00  0.00     0.049 A 
ATOM     45  H   UNL A   1      41.112  30.015  30.049  1.00  0.00     0.167 HD
ATOM     46  C   UNL A   1      45.214  31.491  29.202  1.00  0.00     0.037 A 
ATOM     47  C   UNL A   1      38.453  30.599  30.418  1.00  0.00     0.037 A 
ATOM     48  C   UNL A   1      45.265  31.089  30.588  1.00  0.00     0.049 A 
ATOM     49  C   UNL A   1      39.490  31.354  31.176  1.00  0.00     0.074 A 
ATOM     50  C   UNL A   1      45.823  30.024  31.270  1.00  0.00     0.029 A 
ATOM     51  N   UNL A   1      44.329  31.625  31.440  1.00  0.00    -0.354 N 
ATOM     52  N   UNL A   1      40.094  30.888  32.236  1.00  0.00    -0.248 NA
ATOM     53  C   UNL A   1      40.195  32.411  30.469  1.00  0.00     0.031 C 
ATOM     54  C   UNL A   1      44.852  29.671  32.252  1.00  0.00     0.029 A 
ATOM     55  C   UNL A   1      43.805  30.591  32.172  1.00  0.00     0.049 A 
ATOM     56  H   UNL A   1      44.081  32.575  31.512  1.00  0.00     0.167 HD
ATOM     57  C   UNL A   1      41.418  31.277  32.090  1.00  0.00     0.074 A 
ATOM     58  C   UNL A   1      41.405  32.271  31.017  1.00  0.00     0.031 C 
ATOM     59  C   UNL A   1      42.437  30.549  32.638  1.00  0.00     0.037 A 
BRANCH  46  60
ATOM     60  C   UNL A   1      45.360  32.943  28.791  1.00  0.00     0.058 A 
ATOM     61  C   UNL A   1      46.623  33.563  28.921  1.00  0.00     0.135 A 
ATOM     62  C   UNL A   1      44.279  33.822  28.555  1.00  0.00     0.135 A 
ATOM     63  F   UNL A   1      47.727  32.831  29.136  1.00  0.00    -0.206 F 
ATOM     64  C   UNL A   1      46.782  34.950  28.921  1.00  0.00     0.059 A 
ATOM     65  C   UNL A   1      44.426  35.204  28.495  1.00  0.00     0.059 A 
ATOM     66  F   UNL A   1      43.013  33.402  28.465  1.00  0.00    -0.206 F 
ATOM     67  C   UNL A   1      45.671  35.762  28.727  1.00  0.00     0.060 A 
BRANCH  67  68
ATOM     68  S   UNL A   1      45.852  37.550  28.835  1.00  0.00     0.124 S 
ATOM     69  O   UNL A   1      46.344  37.871  27.502  1.00  0.00    -0.237 OA
ATOM     70  O   UNL A   1      44.487  37.973  29.135  1.00  0.00    -0.237 OA
ATOM     71  O   UNL A   1      46.809  37.724  29.924  1.00  0.00    -0.744 OA
ENDBRANCH  67  68
ENDBRANCH  46  60
BRANCH  47  72
ATOM     72  C   UNL A   1      37.139  31.202  30.060  1.00  0.00     0.058 A 
ATOM     73  C   UNL A   1      36.294  31.732  31.053  1.00  0.00     0.135 A 
ATOM     74  C   UNL A   1      36.821  31.549  28.731  1.00  0.00     0.135 A 
ATOM     75  F   UNL A   1      36.523  31.459  32.347  1.00  0.00    -0.206 F 
ATOM     76  C   UNL A   1      35.245  32.610  30.756  1.00  0.00     0.059 A 
ATOM     77  C   UNL A   1      35.776  32.417  28.409  1.00  0.00     0.059 A 
ATOM     78  F   UNL A   1      37.579  31.130  27.706  1.00  0.00    -0.206 F 
ATOM     79  C   UNL A   1      35.012  32.971  29.430  1.00  0.00     0.060 A 
BRANCH  79  80
ATOM     80  S   UNL A   1      33.799  34.263  29.059  1.00  0.00     0.124 S 
ATOM     81  O   UNL A   1      32.903  33.579  28.133  1.00  0.00    -0.237 OA
ATOM     82  O   UNL A   1      33.249  34.557  30.378  1.00  0.00    -0.237 OA
ATOM     83  O   UNL A   1      34.608  35.327  28.471  1.00  0.00    -0.744 OA
ENDBRANCH  79  80
ENDBRANCH  47  72
BRANCH  59  84
ATOM     84  C   UNL A   1      42.103  29.481  33.648  1.00  0.00     0.058 A 
ATOM     85  C   UNL A   1      41.843  28.133  33.341  1.00  0.00     0.135 A 
ATOM     86  C   UNL A   1      42.216  29.815  35.006  1.00  0.00     0.135 A 
ATOM     87  F   UNL A   1      41.820  27.705  32.070  1.00  0.00    -0.206 F 
ATOM     88  C   UNL A   1      41.664  27.171  34.338  1.00  0.00     0.059 A 
ATOM     89  C   UNL A   1      42.075  28.867  36.016  1.00  0.00     0.059 A 
ATOM     90  F   UNL A   1      42.524  31.072  35.366  1.00  0.00    -0.206 F 
ATOM     91  C   UNL A   1      41.785  27.549  35.676  1.00  0.00     0.060 A 
BRANCH  91  92
ATOM     92  S   UNL A   1      41.620  26.299  36.967  1.00  0.00     0.124 S 
ATOM     93  O   UNL A   1      41.593  25.061  36.196  1.00  0.00    -0.237 OA
ATOM     94  O   UNL A   1      42.816  26.517  37.777  1.00  0.00    -0.237 OA
ATOM     95  O   UNL A   1      40.362  26.649  37.624  1.00  0.00    -0.744 OA
ENDBRANCH  91  92
ENDBRANCH  59  84
ENDBRANCH  33  34
ENDBRANCH  25  28
ENDBRANCH  23  24
ENDBRANCH   1  23
TORSDOF 16
ENDMDL
MODEL 2
REMARK VINA RESULT:     -11.8      1.068      2.277
REMARK SMILES Cc1cnn([C@H]2CC[C@@]([NH3+])(C(=O)NCCCCNC(=O)c3ccc(-c4c5nc(c(-c6c(F)cc(S(=O)(=O)[O-])cc6F)c6ccc([nH]6)c(-c6c(F)cc(S(=O)(=O)[O-])cc6F)c6nc(c(-c7c(F)cc(S(=O)(=O)[O-])cc7F)c7ccc4[nH]7)C=C6)C=C5)cc3)C2)c1
REMARK SMILES IDX 16 1 15 2 14 3 13 4 11 5 12 6 9 8 6 9 7 10 87 11 8 12 5 13
REMARK SMILES IDX 1 14 2 15 3 16 88 17 4 18 10 19 17 23 18 24 19 25 20 27
REMARK SMILES IDX 21 28 22 29 86 30 23 31 85 32 24 33 25 34 26 35 79 36 27 37
REMARK SMILES IDX 84 38 78 39 80 40 28 41 83 42 77 43 76 44 29 46 63 47 42 48
REMARK SMILES IDX 62 49 43 50 46 51 61 52 81 53 44 54 45 55 60 57 82 58 47 59
REMARK SMILES IDX 30 60 31 61 40 62 32 63 33 64 39 65 41 66 34 67 35 68 36 69
REMARK SMILES IDX 37 70 38 71 64 72 65 73 74 74 66 75 67 76 73 77 75 78 68 79
REMARK SMILES IDX 69 80 70 81 71 82 72 83 48 84 49 85 58 86 50 87 51 88 57 89
REMARK SMILES IDX 59 90 52 91 53 92 54 93 55 94 56 95
REMARK H PARENT 13 7 10 20 10 21 10 22 18 26 80 45 46 56
REMARK Flexibility Score: inf
ROOT
ATOM      1  C   UNL A   1      38.672  22.444  25.812  1.00  0.00     0.023 C 
ENDROOT
BRANCH   1   2
ATOM      2  C   UNL A   1      38.045  21.211  25.148  1.00  0.00     0.023 C 
BRANCH   2   3
ATOM      3  C   UNL A   1      36.570  20.932  25.461  1.00  0.00     0.116 C 
BRANCH   3   4
ATOM      4  N   UNL A   1      35.945  21.975  26.252  1.00  0.00    -0.351 N 
ATOM      5  C   UNL A   1      34.634  22.149  26.595  1.00  0.00     0.281 C 
ATOM      6  O   UNL A   1      34.413  22.908  27.541  1.00  0.00    -0.268 OA
ATOM      7  H   UNL A   1      36.560  22.664  26.594  1.00  0.00     0.163 HD
BRANCH   5   8
ATOM      8  C   UNL A   1      33.481  21.335  25.913  1.00  0.00     0.176 C 
ATOM      9  C   UNL A   1      32.124  22.944  24.640  1.00  0.00     0.114 C 
ATOM     10  C   UNL A   1      32.847  22.040  23.627  1.00  0.00     0.034 C 
ATOM     11  C   UNL A   1      32.132  22.086  25.916  1.00  0.00     0.106 C 
ATOM     12  C   UNL A   1      33.722  21.067  24.423  1.00  0.00     0.081 C 
BRANCH   9  13
ATOM     13  N   UNL A   1      32.696  24.277  24.740  1.00  0.00    -0.269 N 
ATOM     14  C   UNL A   1      33.604  27.417  26.327  1.00  0.00     0.048 C 
ATOM     15  C   UNL A   1      33.342  26.251  25.456  1.00  0.00    -0.013 A 
ATOM     16  C   UNL A   1      33.982  25.884  24.257  1.00  0.00     0.138 A 
ATOM     17  C   UNL A   1      32.415  25.252  25.652  1.00  0.00     0.112 A 
ATOM     18  N   UNL A   1      33.553  24.709  23.786  1.00  0.00    -0.181 NA
ENDBRANCH   9  13
BRANCH   8  19
ATOM     19  N   UNL A   1      33.340  20.079  26.684  1.00  0.00    -0.345 N 
ATOM     20  H   UNL A   1      34.256  19.640  26.790  1.00  0.00     0.345 HD
ATOM     21  H   UNL A   1      32.715  19.443  26.188  1.00  0.00     0.345 HD
ATOM     22  H   UNL A   1      32.953  20.285  27.605  1.00  0.00     0.345 HD
ENDBRANCH   8  19
ENDBRANCH   5   8
ENDBRANCH   3   4
ENDBRANCH   2   3
ENDBRANCH   1   2
BRANCH   1  23
ATOM     23  C   UNL A   1      39.783  22.136  26.800  1.00  0.00     0.116 C 
BRANCH  23  24
ATOM     24  N   UNL A   1      41.054  21.801  26.153  1.00  0.00    -0.352 N 
ATOM     25  C   UNL A   1      42.038  22.671  25.706  1.00  0.00     0.251 C 
ATOM     26  H   UNL A   1      41.230  20.841  26.021  1.00  0.00     0.163 HD
ATOM     27  O   UNL A   1      42.854  22.321  24.872  1.00  0.00    -0.269 OA
BRANCH  25  28
ATOM     28  C   UNL A   1      42.075  24.030  26.279  1.00  0.00     0.039 A 
ATOM     29  C   UNL A   1      41.454  25.117  25.660  1.00  0.00     0.014 A 
ATOM     30  C   UNL A   1      42.729  24.183  27.497  1.00  0.00     0.014 A 
ATOM     31  C   UNL A   1      41.432  26.343  26.324  1.00  0.00     0.010 A 
ATOM     32  C   UNL A   1      42.541  25.323  28.227  1.00  0.00     0.010 A 
ATOM     33  C   UNL A   1      41.967  26.430  27.618  1.00  0.00    -0.014 A 
BRANCH  33  34
ATOM     34  C   UNL A   1      41.862  27.645  28.418  1.00  0.00     0.031 A 
ATOM     35  C   UNL A   1      42.961  28.625  28.194  1.00  0.00     0.074 A 
ATOM     36  C   UNL A   1      40.725  27.967  29.075  1.00  0.00     0.049 A 
ATOM     37  N   UNL A   1      43.894  28.976  29.016  1.00  0.00    -0.248 NA
ATOM     38  C   UNL A   1      43.145  29.163  26.834  1.00  0.00     0.031 C 
ATOM     39  C   UNL A   1      39.437  27.255  29.081  1.00  0.00     0.029 A 
ATOM     40  N   UNL A   1      40.433  29.086  29.789  1.00  0.00    -0.354 N 
ATOM     41  C   UNL A   1      44.625  29.967  28.364  1.00  0.00     0.074 A 
ATOM     42  C   UNL A   1      44.271  29.867  26.975  1.00  0.00     0.031 C 
ATOM     43  C   UNL A   1      38.464  28.075  29.536  1.00  0.00     0.029 A 
ATOM     44  C   UNL A   1      39.076  29.296  30.022  1.00  0.00     0.049 A 
ATOM     45  H   UNL A   1      41.129  29.701  30.115  1.00  0.00     0.167 HD
ATOM     46  C   UNL A   1      45.256  30.956  29.062  1.00  0.00     0.037 A 
ATOM     47  C   UNL A   1      38.511  30.416  30.543  1.00  0.00     0.037 A 
ATOM     48  C   UNL A   1      45.339  30.617  30.463  1.00  0.00     0.049 A 
ATOM     49  C   UNL A   1      39.604  31.160  31.229  1.00  0.00     0.074 A 
ATOM     50  C   UNL A   1      45.876  29.563  31.177  1.00  0.00     0.029 A 
ATOM     51  N   UNL A   1      44.457  31.234  31.319  1.00  0.00    -0.354 N 
ATOM     52  N   UNL A   1      40.226  30.719  32.290  1.00  0.00    -0.248 NA
ATOM     53  C   UNL A   1      40.328  32.152  30.448  1.00  0.00     0.031 C 
ATOM     54  C   UNL A   1      44.926  29.299  32.208  1.00  0.00     0.029 A 
ATOM     55  C   UNL A   1      43.916  30.258  32.117  1.00  0.00     0.049 A 
ATOM     56  H   UNL A   1      44.251  32.196  31.353  1.00  0.00     0.167 HD
ATOM     57  C   UNL A   1      41.559  31.043  32.081  1.00  0.00     0.074 A 
ATOM     58  C   UNL A   1      41.550  31.985  30.962  1.00  0.00     0.031 C 
ATOM     59  C   UNL A   1      42.565  30.298  32.630  1.00  0.00     0.037 A 
BRANCH  46  60
ATOM     60  C   UNL A   1      45.448  32.379  28.577  1.00  0.00     0.058 A 
ATOM     61  C   UNL A   1      46.746  32.936  28.598  1.00  0.00     0.135 A 
ATOM     62  C   UNL A   1      44.400  33.304  28.369  1.00  0.00     0.135 A 
ATOM     63  F   UNL A   1      47.824  32.156  28.775  1.00  0.00    -0.206 F 
ATOM     64  C   UNL A   1      46.975  34.311  28.524  1.00  0.00     0.059 A 
ATOM     65  C   UNL A   1      44.612  34.672  28.237  1.00  0.00     0.059 A 
ATOM     66  F   UNL A   1      43.111  32.949  28.380  1.00  0.00    -0.206 F 
ATOM     67  C   UNL A   1      45.896  35.172  28.363  1.00  0.00     0.060 A 
BRANCH  67  68
ATOM     68  S   UNL A   1      46.174  36.951  28.378  1.00  0.00     0.124 S 
ATOM     69  O   UNL A   1      45.598  37.343  27.098  1.00  0.00    -0.237 OA
ATOM     70  O   UNL A   1      45.435  37.361  29.568  1.00  0.00    -0.237 OA
ATOM     71  O   UNL A   1      47.627  37.062  28.480  1.00  0.00    -0.744 OA
ENDBRANCH  67  68
ENDBRANCH  46  60
BRANCH  47  72
ATOM     72  C   UNL A   1      37.211  31.059  30.200  1.00  0.00     0.058 A 
ATOM     73  C   UNL A   1      36.435  31.689  31.190  1.00  0.00     0.135 A 
ATOM     74  C   UNL A   1      36.852  31.337  28.866  1.00  0.00     0.135 A 
ATOM     75  F   UNL A   1      36.707  31.488  32.489  1.00  0.00    -0.206 F 
ATOM     76  C   UNL A   1      35.415  32.597  30.879  1.00  0.00     0.059 A 
ATOM     77  C   UNL A   1      35.835  32.231  28.530  1.00  0.00     0.059 A 
ATOM     78  F   UNL A   1      37.546  30.818  27.840  1.00  0.00    -0.206 F 
ATOM     79  C   UNL A   1      35.141  32.884  29.543  1.00  0.00     0.060 A 
BRANCH  79  80
ATOM     80  S   UNL A   1      33.974  34.208  29.138  1.00  0.00     0.124 S 
ATOM     81  O   UNL A   1      34.858  35.240  28.608  1.00  0.00    -0.237 OA
ATOM     82  O   UNL A   1      33.098  33.559  28.168  1.00  0.00    -0.237 OA
ATOM     83  O   UNL A   1      33.355  34.518  30.424  1.00  0.00    -0.744 OA
ENDBRANCH  79  80
ENDBRANCH  47  72
BRANCH  59  84
ATOM     84  C   UNL A   1      42.222  29.294  33.701  1.00  0.00     0.058 A 
ATOM     85  C   UNL A   1      41.811  27.970  33.464  1.00  0.00     0.135 A 
ATOM     86  C   UNL A   1      42.485  29.651  35.032  1.00  0.00     0.135 A 
ATOM     87  F   UNL A   1      41.636  27.513  32.216  1.00  0.00    -0.206 F 
ATOM     88  C   UNL A   1      41.631  27.056  34.506  1.00  0.00     0.059 A 
ATOM     89  C   UNL A   1      42.345  28.749  36.082  1.00  0.00     0.059 A 
ATOM     90  F   UNL A   1      42.940  30.882  35.321  1.00  0.00    -0.206 F 
ATOM     91  C   UNL A   1      41.904  27.456  35.815  1.00  0.00     0.060 A 
BRANCH  91  92
ATOM     92  S   UNL A   1      41.736  26.262  37.158  1.00  0.00     0.124 S 
ATOM     93  O   UNL A   1      41.833  24.989  36.452  1.00  0.00    -0.237 OA
ATOM     94  O   UNL A   1      42.865  26.596  38.023  1.00  0.00    -0.237 OA
ATOM     95  O   UNL A   1      40.422  26.563  37.721  1.00  0.00    -0.744 OA
ENDBRANCH  91  92
ENDBRANCH  59  84
ENDBRANCH  33  34
ENDBRANCH  25  28
ENDBRANCH  23  24
ENDBRANCH   1  23
TORSDOF 16
ENDMDL
MODEL 3
REMARK VINA RESULT:     -11.7      3.009      5.600
REMARK SMILES Cc1cnn([C@H]2CC[C@@]([NH3+])(C(=O)NCCCCNC(=O)c3ccc(-c4c5nc(c(-c6c(F)cc(S(=O)(=O)[O-])cc6F)c6ccc([nH]6)c(-c6c(F)cc(S(=O)(=O)[O-])cc6F)c6nc(c(-c7c(F)cc(S(=O)(=O)[O-])cc7F)c7ccc4[nH]7)C=C6)C=C5)cc3)C2)c1
REMARK SMILES IDX 16 1 15 2 14 3 13 4 11 5 12 6 9 8 6 9 7 10 87 11 8 12 5 13
REMARK SMILES IDX 1 14 2 15 3 16 88 17 4 18 10 19 17 23 18 24 19 25 20 27
REMARK SMILES IDX 21 28 22 29 86 30 23 31 85 32 24 33 25 34 26 35 79 36 27 37
REMARK SMILES IDX 84 38 78 39 80 40 28 41 83 42 77 43 76 44 29 46 63 47 42 48
REMARK SMILES IDX 62 49 43 50 46 51 61 52 81 53 44 54 45 55 60 57 82 58 47 59
REMARK SMILES IDX 30 60 31 61 40 62 32 63 33 64 39 65 41 66 34 67 35 68 36 69
REMARK SMILES IDX 37 70 38 71 64 72 65 73 74 74 66 75 67 76 73 77 75 78 68 79
REMARK SMILES IDX 69 80 70 81 71 82 72 83 48 84 49 85 58 86 50 87 51 88 57 89
REMARK SMILES IDX 59 90 52 91 53 92 54 93 55 94 56 95
REMARK H PARENT 13 7 10 20 10 21 10 22 18 26 80 45 46 56
REMARK Flexibility Score: inf
ROOT
ATOM      1  C   UNL A   1      40.373  20.121  26.560  1.00  0.00     0.023 C 
ENDROOT
BRANCH   1   2
ATOM      2  C   UNL A   1      41.813  19.905  26.074  1.00  0.00     0.023 C 
BRANCH   2   3
ATOM      3  C   UNL A   1      42.610  21.159  25.694  1.00  0.00     0.116 C 
BRANCH   3   4
ATOM      4  N   UNL A   1      44.040  21.011  25.892  1.00  0.00    -0.351 N 
ATOM      5  C   UNL A   1      45.067  21.822  25.501  1.00  0.00     0.281 C 
ATOM      6  O   UNL A   1      46.144  21.654  26.077  1.00  0.00    -0.268 OA
ATOM      7  H   UNL A   1      44.311  20.202  26.383  1.00  0.00     0.163 HD
BRANCH   5   8
ATOM      8  C   UNL A   1      44.863  22.984  24.470  1.00  0.00     0.176 C 
ATOM      9  C   UNL A   1      43.910  24.883  25.709  1.00  0.00     0.114 C 
ATOM     10  C   UNL A   1      45.337  25.271  25.289  1.00  0.00     0.034 C 
ATOM     11  C   UNL A   1      43.557  23.773  24.704  1.00  0.00     0.106 C 
ATOM     12  C   UNL A   1      45.941  24.071  24.553  1.00  0.00     0.081 C 
BRANCH   9  13
ATOM     13  N   UNL A   1      43.789  24.555  27.121  1.00  0.00    -0.269 N 
ATOM     14  C   UNL A   1      44.304  24.930  30.698  1.00  0.00     0.048 C 
ATOM     15  C   UNL A   1      43.961  24.548  29.311  1.00  0.00    -0.013 A 
ATOM     16  C   UNL A   1      42.920  23.716  28.856  1.00  0.00     0.138 A 
ATOM     17  C   UNL A   1      44.587  24.953  28.153  1.00  0.00     0.112 A 
ATOM     18  N   UNL A   1      42.846  23.672  27.522  1.00  0.00    -0.181 NA
ENDBRANCH   9  13
BRANCH   8  19
ATOM     19  N   UNL A   1      44.816  22.354  23.130  1.00  0.00    -0.345 N 
ATOM     20  H   UNL A   1      43.976  22.661  22.640  1.00  0.00     0.345 HD
ATOM     21  H   UNL A   1      44.799  21.340  23.231  1.00  0.00     0.345 HD
ATOM     22  H   UNL A   1      45.641  22.629  22.595  1.00  0.00     0.345 HD
ENDBRANCH   8  19
ENDBRANCH   5   8
ENDBRANCH   3   4
ENDBRANCH   2   3
ENDBRANCH   1   2
BRANCH   1  23
ATOM     23  C   UNL A   1      40.037  21.557  26.927  1.00  0.00     0.116 C 
BRANCH  23  24
ATOM     24  N   UNL A   1      38.973  22.130  26.099  1.00  0.00    -0.352 N 
ATOM     25  C   UNL A   1      38.436  23.408  26.168  1.00  0.00     0.251 C 
ATOM     26  H   UNL A   1      38.595  21.537  25.411  1.00  0.00     0.163 HD
ATOM     27  O   UNL A   1      37.336  23.652  25.705  1.00  0.00    -0.269 OA
BRANCH  25  28
ATOM     28  C   UNL A   1      39.240  24.465  26.809  1.00  0.00     0.039 A 
ATOM     29  C   UNL A   1      40.058  25.328  26.076  1.00  0.00     0.014 A 
ATOM     30  C   UNL A   1      39.122  24.597  28.189  1.00  0.00     0.014 A 
ATOM     31  C   UNL A   1      40.692  26.377  26.742  1.00  0.00     0.010 A 
ATOM     32  C   UNL A   1      39.583  25.729  28.801  1.00  0.00     0.010 A 
ATOM     33  C   UNL A   1      40.434  26.577  28.106  1.00  0.00    -0.014 A 
BRANCH  33  34
ATOM     34  C   UNL A   1      40.961  27.727  28.832  1.00  0.00     0.031 A 
ATOM     35  C   UNL A   1      42.170  28.341  28.216  1.00  0.00     0.074 A 
ATOM     36  C   UNL A   1      40.248  28.343  29.802  1.00  0.00     0.049 A 
ATOM     37  N   UNL A   1      43.378  28.354  28.675  1.00  0.00    -0.248 NA
ATOM     38  C   UNL A   1      42.060  28.864  26.842  1.00  0.00     0.031 C 
ATOM     39  C   UNL A   1      38.880  28.051  30.258  1.00  0.00     0.029 A 
ATOM     40  N   UNL A   1      40.551  29.461  30.511  1.00  0.00    -0.354 N 
ATOM     41  C   UNL A   1      44.122  29.110  27.771  1.00  0.00     0.074 A 
ATOM     42  C   UNL A   1      43.327  29.190  26.576  1.00  0.00     0.031 C 
ATOM     43  C   UNL A   1      38.398  29.102  30.957  1.00  0.00     0.029 A 
ATOM     44  C   UNL A   1      39.470  30.058  31.156  1.00  0.00     0.049 A 
ATOM     45  H   UNL A   1      41.466  29.822  30.564  1.00  0.00     0.167 HD
ATOM     46  C   UNL A   1      45.210  29.828  28.176  1.00  0.00     0.037 A 
ATOM     47  C   UNL A   1      39.467  31.270  31.771  1.00  0.00     0.037 A 
ATOM     48  C   UNL A   1      45.634  29.412  29.492  1.00  0.00     0.049 A 
ATOM     49  C   UNL A   1      40.892  31.616  32.030  1.00  0.00     0.074 A 
ATOM     50  C   UNL A   1      46.029  28.212  30.051  1.00  0.00     0.029 A 
ATOM     51  N   UNL A   1      45.301  30.223  30.552  1.00  0.00    -0.354 N 
ATOM     52  N   UNL A   1      41.660  30.957  32.856  1.00  0.00    -0.248 NA
ATOM     53  C   UNL A   1      41.589  32.381  31.006  1.00  0.00     0.031 C 
ATOM     54  C   UNL A   1      45.428  28.196  31.344  1.00  0.00     0.029 A 
ATOM     55  C   UNL A   1      44.780  29.417  31.532  1.00  0.00     0.049 A 
ATOM     56  H   UNL A   1      45.416  31.200  30.599  1.00  0.00     0.167 HD
ATOM     57  C   UNL A   1      42.887  30.875  32.214  1.00  0.00     0.074 A 
ATOM     58  C   UNL A   1      42.801  31.830  31.109  1.00  0.00     0.031 C 
ATOM     59  C   UNL A   1      43.744  29.837  32.449  1.00  0.00     0.037 A 
BRANCH  46  60
ATOM     60  C   UNL A   1      45.653  31.150  27.580  1.00  0.00     0.058 A 
ATOM     61  C   UNL A   1      47.001  31.301  27.187  1.00  0.00     0.135 A 
ATOM     62  C   UNL A   1      44.907  32.348  27.643  1.00  0.00     0.135 A 
ATOM     63  F   UNL A   1      47.808  30.233  27.079  1.00  0.00    -0.206 F 
ATOM     64  C   UNL A   1      47.586  32.550  26.975  1.00  0.00     0.059 A 
ATOM     65  C   UNL A   1      45.457  33.598  27.381  1.00  0.00     0.059 A 
ATOM     66  F   UNL A   1      43.635  32.386  28.053  1.00  0.00    -0.206 F 
ATOM     67  C   UNL A   1      46.808  33.695  27.095  1.00  0.00     0.060 A 
BRANCH  67  68
ATOM     68  S   UNL A   1      47.582  35.313  26.932  1.00  0.00     0.124 S 
ATOM     69  O   UNL A   1      48.794  35.133  27.720  1.00  0.00    -0.237 OA
ATOM     70  O   UNL A   1      47.764  35.415  25.488  1.00  0.00    -0.237 OA
ATOM     71  O   UNL A   1      46.586  36.219  27.498  1.00  0.00    -0.744 OA
ENDBRANCH  67  68
ENDBRANCH  46  60
BRANCH  47  72
ATOM     72  C   UNL A   1      38.382  32.289  31.830  1.00  0.00     0.058 A 
ATOM     73  C   UNL A   1      37.826  32.821  30.652  1.00  0.00     0.135 A 
ATOM     74  C   UNL A   1      37.661  32.534  33.017  1.00  0.00     0.135 A 
ATOM     75  F   UNL A   1      38.441  32.633  29.474  1.00  0.00    -0.206 F 
ATOM     76  C   UNL A   1      36.596  33.488  30.637  1.00  0.00     0.059 A 
ATOM     77  C   UNL A   1      36.437  33.204  33.029  1.00  0.00     0.059 A 
ATOM     78  F   UNL A   1      38.079  32.043  34.194  1.00  0.00    -0.206 F 
ATOM     79  C   UNL A   1      35.893  33.650  31.829  1.00  0.00     0.060 A 
BRANCH  79  80
ATOM     80  S   UNL A   1      34.212  34.322  31.788  1.00  0.00     0.124 S 
ATOM     81  O   UNL A   1      33.790  33.998  30.430  1.00  0.00    -0.237 OA
ATOM     82  O   UNL A   1      33.555  33.574  32.855  1.00  0.00    -0.237 OA
ATOM     83  O   UNL A   1      34.410  35.744  32.056  1.00  0.00    -0.744 OA
ENDBRANCH  79  80
ENDBRANCH  47  72
BRANCH  59  84
ATOM     84  C   UNL A   1      43.480  28.931  33.624  1.00  0.00     0.058 A 
ATOM     85  C   UNL A   1      43.839  29.211  34.956  1.00  0.00     0.135 A 
ATOM     86  C   UNL A   1      42.676  27.802  33.405  1.00  0.00     0.135 A 
ATOM     87  F   UNL A   1      44.518  30.324  35.269  1.00  0.00    -0.206 F 
ATOM     88  C   UNL A   1      43.450  28.384  36.013  1.00  0.00     0.059 A 
ATOM     89  C   UNL A   1      42.250  26.983  34.447  1.00  0.00     0.059 A 
ATOM     90  F   UNL A   1      42.247  27.513  32.166  1.00  0.00    -0.206 F 
ATOM     91  C   UNL A   1      42.652  27.271  35.748  1.00  0.00     0.060 A 
BRANCH  91  92
ATOM     92  S   UNL A   1      42.094  26.235  37.116  1.00  0.00     0.124 S 
ATOM     93  O   UNL A   1      42.129  24.901  36.528  1.00  0.00    -0.237 OA
ATOM     94  O   UNL A   1      43.095  26.501  38.146  1.00  0.00    -0.237 OA
ATOM     95  O   UNL A   1      40.758  26.750  37.412  1.00  0.00    -0.744 OA
ENDBRANCH  91  92
ENDBRANCH  59  84
ENDBRANCH  33  34
ENDBRANCH  25  28
ENDBRANCH  23  24
ENDBRANCH   1  23
TORSDOF 16
ENDMDL
