MODEL 1
REMARK VINA RESULT:     -11.2      0.000      0.000
REMARK SMILES O=C(CNC(=O)c1cccs1)N[C@@H]1C=C[C@H](C(=O)NCCCCNC(=O)c2ccc(-c3c4nc(c(-c5c(F)cc(S(=O)(=O)[O-])cc5F)c5ccc([nH]5)c(-c5c(F)cc(S(=O)(=O)[O-])cc5F)c5nc(c(-c6c(F)cc(S(=O)(=O)[O-])cc6F)c6ccc3[nH]6)C=C5)C=C4)cc2)C1
REMARK SMILES IDX 21 1 20 2 19 3 17 4 18 5 16 7 13 8 14 9 93 10 15 11 12 12
REMARK SMILES IDX 1 13 2 14 3 16 4 17 5 18 6 20 7 21 8 22 11 23 9 24 10 25
REMARK SMILES IDX 22 26 23 27 24 28 25 29 26 31 27 32 28 33 92 34 29 35 91 36
REMARK SMILES IDX 30 37 31 38 32 39 85 40 33 41 90 42 84 43 86 44 34 45 89 46
REMARK SMILES IDX 83 47 82 48 35 50 69 51 48 52 68 53 49 54 52 55 67 56 87 57
REMARK SMILES IDX 50 58 51 59 66 61 88 62 53 63 36 64 37 65 46 66 38 67 39 68
REMARK SMILES IDX 45 69 47 70 40 71 41 72 42 73 43 74 44 75 70 76 71 77 80 78
REMARK SMILES IDX 72 79 73 80 79 81 81 82 74 83 75 84 76 85 77 86 78 87 54 88
REMARK SMILES IDX 55 89 64 90 56 91 57 92 63 93 65 94 58 95 59 96 60 97 61 98
REMARK SMILES IDX 62 99
REMARK H PARENT 19 6 12 15 4 19 24 30 86 49 52 60
REMARK Flexibility Score: inf
ROOT
ATOM      1  C   UNL A   1      34.003  28.556  24.485  1.00  0.00     0.023 C 
ENDROOT
BRANCH   1   2
ATOM      2  C   UNL A   1      33.243  28.378  23.178  1.00  0.00     0.116 C 
BRANCH   2   3
ATOM      3  N   UNL A   1      33.574  27.163  22.473  1.00  0.00    -0.356 N 
ATOM      4  C   UNL A   1      33.033  25.917  22.572  1.00  0.00     0.227 C 
ATOM      5  O   UNL A   1      33.472  25.050  21.807  1.00  0.00    -0.274 OA
ATOM      6  H   UNL A   1      34.303  27.248  21.817  1.00  0.00     0.163 HD
BRANCH   4   7
ATOM      7  C   UNL A   1      31.955  25.548  23.601  1.00  0.00     0.103 C 
ATOM      8  C   UNL A   1      31.670  23.793  25.320  1.00  0.00     0.106 C 
ATOM      9  C   UNL A   1      30.922  23.493  24.061  1.00  0.00    -0.006 C 
ATOM     10  C   UNL A   1      32.424  25.100  24.996  1.00  0.00     0.047 C 
ATOM     11  C   UNL A   1      31.075  24.436  23.128  1.00  0.00    -0.016 C 
BRANCH   8  12
ATOM     12  N   UNL A   1      32.540  22.678  25.615  1.00  0.00    -0.348 N 
ATOM     13  O   UNL A   1      32.376  22.850  27.901  1.00  0.00    -0.273 OA
ATOM     14  C   UNL A   1      32.794  22.265  26.906  1.00  0.00     0.239 C 
ATOM     15  H   UNL A   1      32.966  22.195  24.870  1.00  0.00     0.164 HD
BRANCH  14  16
ATOM     16  C   UNL A   1      33.726  21.063  27.002  1.00  0.00     0.216 C 
BRANCH  16  17
ATOM     17  N   UNL A   1      33.764  20.310  25.760  1.00  0.00    -0.342 N 
ATOM     18  C   UNL A   1      34.901  20.193  24.992  1.00  0.00     0.261 C 
ATOM     19  H   UNL A   1      32.941  19.865  25.454  1.00  0.00     0.164 HD
ATOM     20  O   UNL A   1      35.217  19.053  24.654  1.00  0.00    -0.268 OA
BRANCH  18  21
ATOM     21  C   UNL A   1      35.639  21.394  24.630  1.00  0.00     0.092 A 
ATOM     22  C   UNL A   1      35.220  22.406  23.785  1.00  0.00     0.025 A 
ATOM     23  S   UNL A   1      37.106  21.820  25.420  1.00  0.00    -0.139 S 
ATOM     24  C   UNL A   1      36.096  23.530  23.795  1.00  0.00     0.012 A 
ATOM     25  C   UNL A   1      37.158  23.347  24.652  1.00  0.00     0.065 A 
ENDBRANCH  18  21
ENDBRANCH  16  17
ENDBRANCH  14  16
ENDBRANCH   8  12
ENDBRANCH   4   7
ENDBRANCH   2   3
ENDBRANCH   1   2
BRANCH   1  26
ATOM     26  C   UNL A   1      33.138  28.928  25.690  1.00  0.00     0.023 C 
BRANCH  26  27
ATOM     27  C   UNL A   1      33.841  28.899  27.047  1.00  0.00     0.116 C 
BRANCH  27  28
ATOM     28  N   UNL A   1      33.722  30.144  27.790  1.00  0.00    -0.352 N 
ATOM     29  C   UNL A   1      34.650  30.779  28.573  1.00  0.00     0.251 C 
ATOM     30  H   UNL A   1      32.849  30.595  27.721  1.00  0.00     0.163 HD
ATOM     31  O   UNL A   1      34.363  31.789  29.200  1.00  0.00    -0.269 OA
BRANCH  29  32
ATOM     32  C   UNL A   1      36.001  30.242  28.712  1.00  0.00     0.039 A 
ATOM     33  C   UNL A   1      36.803  30.213  27.566  1.00  0.00     0.014 A 
ATOM     34  C   UNL A   1      36.464  29.765  29.939  1.00  0.00     0.014 A 
ATOM     35  C   UNL A   1      38.116  29.782  27.666  1.00  0.00     0.010 A 
ATOM     36  C   UNL A   1      37.790  29.390  30.050  1.00  0.00     0.010 A 
ATOM     37  C   UNL A   1      38.621  29.414  28.918  1.00  0.00    -0.014 A 
BRANCH  37  38
ATOM     38  C   UNL A   1      40.044  29.086  29.093  1.00  0.00     0.031 A 
ATOM     39  C   UNL A   1      40.992  30.172  29.482  1.00  0.00     0.074 A 
ATOM     40  C   UNL A   1      40.449  27.845  28.767  1.00  0.00     0.049 A 
ATOM     41  N   UNL A   1      42.296  30.164  29.481  1.00  0.00    -0.248 NA
ATOM     42  C   UNL A   1      40.393  31.455  29.886  1.00  0.00     0.031 C 
ATOM     43  C   UNL A   1      39.568  26.753  28.338  1.00  0.00     0.029 A 
ATOM     44  N   UNL A   1      41.702  27.302  28.712  1.00  0.00    -0.354 N 
ATOM     45  C   UNL A   1      42.678  31.449  29.844  1.00  0.00     0.074 A 
ATOM     46  C   UNL A   1      41.467  32.217  30.037  1.00  0.00     0.031 C 
ATOM     47  C   UNL A   1      40.310  25.671  28.062  1.00  0.00     0.029 A 
ATOM     48  C   UNL A   1      41.716  26.007  28.253  1.00  0.00     0.049 A 
ATOM     49  H   UNL A   1      42.515  27.790  28.975  1.00  0.00     0.167 HD
ATOM     50  C   UNL A   1      43.933  31.928  30.000  1.00  0.00     0.037 A 
ATOM     51  C   UNL A   1      42.756  25.195  27.999  1.00  0.00     0.037 A 
ATOM     52  C   UNL A   1      45.106  31.116  29.821  1.00  0.00     0.049 A 
ATOM     53  C   UNL A   1      44.137  25.731  28.247  1.00  0.00     0.074 A 
ATOM     54  C   UNL A   1      46.434  31.460  29.985  1.00  0.00     0.029 A 
ATOM     55  N   UNL A   1      45.082  29.776  29.445  1.00  0.00    -0.354 N 
ATOM     56  N   UNL A   1      44.490  26.943  28.611  1.00  0.00    -0.248 NA
ATOM     57  C   UNL A   1      45.254  24.801  28.063  1.00  0.00     0.031 C 
ATOM     58  C   UNL A   1      47.214  30.335  29.691  1.00  0.00     0.029 A 
ATOM     59  C   UNL A   1      46.370  29.279  29.376  1.00  0.00     0.049 A 
ATOM     60  H   UNL A   1      44.267  29.259  29.255  1.00  0.00     0.167 HD
ATOM     61  C   UNL A   1      45.873  26.919  28.715  1.00  0.00     0.074 A 
ATOM     62  C   UNL A   1      46.288  25.566  28.389  1.00  0.00     0.031 C 
ATOM     63  C   UNL A   1      46.727  27.919  29.047  1.00  0.00     0.037 A 
BRANCH  50  64
ATOM     64  C   UNL A   1      44.082  33.380  30.363  1.00  0.00     0.058 A 
ATOM     65  C   UNL A   1      44.184  34.380  29.383  1.00  0.00     0.135 A 
ATOM     66  C   UNL A   1      44.139  33.778  31.709  1.00  0.00     0.135 A 
ATOM     67  F   UNL A   1      44.158  34.056  28.081  1.00  0.00    -0.206 F 
ATOM     68  C   UNL A   1      44.374  35.717  29.722  1.00  0.00     0.059 A 
ATOM     69  C   UNL A   1      44.303  35.113  32.071  1.00  0.00     0.059 A 
ATOM     70  F   UNL A   1      44.054  32.865  32.689  1.00  0.00    -0.206 F 
ATOM     71  C   UNL A   1      44.439  36.073  31.069  1.00  0.00     0.060 A 
BRANCH  71  72
ATOM     72  S   UNL A   1      44.702  37.808  31.496  1.00  0.00     0.124 S 
ATOM     73  O   UNL A   1      43.993  37.905  32.768  1.00  0.00    -0.237 OA
ATOM     74  O   UNL A   1      46.157  37.895  31.577  1.00  0.00    -0.237 OA
ATOM     75  O   UNL A   1      44.096  38.528  30.381  1.00  0.00    -0.744 OA
ENDBRANCH  71  72
ENDBRANCH  50  64
BRANCH  51  76
ATOM     76  C   UNL A   1      42.514  23.810  27.523  1.00  0.00     0.058 A 
ATOM     77  C   UNL A   1      42.550  23.507  26.154  1.00  0.00     0.135 A 
ATOM     78  C   UNL A   1      42.322  22.749  28.421  1.00  0.00     0.135 A 
ATOM     79  F   UNL A   1      42.736  24.487  25.256  1.00  0.00    -0.206 F 
ATOM     80  C   UNL A   1      42.400  22.204  25.690  1.00  0.00     0.059 A 
ATOM     81  C   UNL A   1      42.188  21.434  27.983  1.00  0.00     0.059 A 
ATOM     82  F   UNL A   1      42.306  22.981  29.743  1.00  0.00    -0.206 F 
ATOM     83  C   UNL A   1      42.225  21.172  26.614  1.00  0.00     0.060 A 
BRANCH  83  84
ATOM     84  S   UNL A   1      42.109  19.474  26.005  1.00  0.00     0.124 S 
ATOM     85  O   UNL A   1      42.971  19.525  24.830  1.00  0.00    -0.237 OA
ATOM     86  O   UNL A   1      42.617  18.706  27.137  1.00  0.00    -0.237 OA
ATOM     87  O   UNL A   1      40.684  19.312  25.737  1.00  0.00    -0.744 OA
ENDBRANCH  83  84
ENDBRANCH  51  76
BRANCH  63  88
ATOM     88  C   UNL A   1      48.182  27.567  29.094  1.00  0.00     0.058 A 
ATOM     89  C   UNL A   1      49.023  27.798  27.997  1.00  0.00     0.135 A 
ATOM     90  C   UNL A   1      48.744  27.037  30.265  1.00  0.00     0.135 A 
ATOM     91  F   UNL A   1      48.523  28.297  26.855  1.00  0.00    -0.206 F 
ATOM     92  C   UNL A   1      50.378  27.498  28.053  1.00  0.00     0.059 A 
ATOM     93  C   UNL A   1      50.099  26.749  30.350  1.00  0.00     0.059 A 
ATOM     94  F   UNL A   1      47.975  26.807  31.341  1.00  0.00    -0.206 F 
ATOM     95  C   UNL A   1      50.907  26.973  29.234  1.00  0.00     0.060 A 
BRANCH  95  96
ATOM     96  S   UNL A   1      52.674  26.620  29.309  1.00  0.00     0.124 S 
ATOM     97  O   UNL A   1      53.244  27.957  29.176  1.00  0.00    -0.237 OA
ATOM     98  O   UNL A   1      52.816  25.998  30.621  1.00  0.00    -0.237 OA
ATOM     99  O   UNL A   1      52.888  25.728  28.174  1.00  0.00    -0.744 OA
ENDBRANCH  95  96
ENDBRANCH  63  88
ENDBRANCH  37  38
ENDBRANCH  29  32
ENDBRANCH  27  28
ENDBRANCH  26  27
ENDBRANCH   1  26
TORSDOF 18
ENDMDL
MODEL 2
REMARK VINA RESULT:     -10.9      4.538     11.225
REMARK SMILES O=C(CNC(=O)c1cccs1)N[C@@H]1C=C[C@H](C(=O)NCCCCNC(=O)c2ccc(-c3c4nc(c(-c5c(F)cc(S(=O)(=O)[O-])cc5F)c5ccc([nH]5)c(-c5c(F)cc(S(=O)(=O)[O-])cc5F)c5nc(c(-c6c(F)cc(S(=O)(=O)[O-])cc6F)c6ccc3[nH]6)C=C5)C=C4)cc2)C1
REMARK SMILES IDX 21 1 20 2 19 3 17 4 18 5 16 7 13 8 14 9 93 10 15 11 12 12
REMARK SMILES IDX 1 13 2 14 3 16 4 17 5 18 6 20 7 21 8 22 11 23 9 24 10 25
REMARK SMILES IDX 22 26 23 27 24 28 25 29 26 31 27 32 28 33 92 34 29 35 91 36
REMARK SMILES IDX 30 37 31 38 32 39 85 40 33 41 90 42 84 43 86 44 34 45 89 46
REMARK SMILES IDX 83 47 82 48 35 50 69 51 48 52 68 53 49 54 52 55 67 56 87 57
REMARK SMILES IDX 50 58 51 59 66 61 88 62 53 63 36 64 37 65 46 66 38 67 39 68
REMARK SMILES IDX 45 69 47 70 40 71 41 72 42 73 43 74 44 75 70 76 71 77 80 78
REMARK SMILES IDX 72 79 73 80 79 81 81 82 74 83 75 84 76 85 77 86 78 87 54 88
REMARK SMILES IDX 55 89 64 90 56 91 57 92 63 93 65 94 58 95 59 96 60 97 61 98
REMARK SMILES IDX 62 99
REMARK H PARENT 19 6 12 15 4 19 24 30 86 49 52 60
REMARK Flexibility Score: inf
ROOT
ATOM      1  C   UNL A   1      42.122  20.021  26.663  1.00  0.00     0.023 C 
ENDROOT
BRANCH   1   2
ATOM      2  C   UNL A   1      43.112  19.694  25.553  1.00  0.00     0.116 C 
BRANCH   2   3
ATOM      3  N   UNL A   1      44.411  20.297  25.736  1.00  0.00    -0.356 N 
ATOM      4  C   UNL A   1      44.773  21.609  25.766  1.00  0.00     0.227 C 
ATOM      5  O   UNL A   1      45.962  21.861  25.990  1.00  0.00    -0.274 OA
ATOM      6  H   UNL A   1      45.150  19.658  25.860  1.00  0.00     0.163 HD
BRANCH   4   7
ATOM      7  C   UNL A   1      43.790  22.758  25.496  1.00  0.00     0.103 C 
ATOM      8  C   UNL A   1      43.936  25.224  25.371  1.00  0.00     0.106 C 
ATOM      9  C   UNL A   1      43.401  24.744  26.682  1.00  0.00    -0.006 C 
ATOM     10  C   UNL A   1      44.278  23.922  24.616  1.00  0.00     0.047 C 
ATOM     11  C   UNL A   1      43.322  23.412  26.756  1.00  0.00    -0.016 C 
BRANCH   8  12
ATOM     12  N   UNL A   1      45.082  26.068  25.624  1.00  0.00    -0.348 N 
ATOM     13  O   UNL A   1      43.957  28.060  25.409  1.00  0.00    -0.273 OA
ATOM     14  C   UNL A   1      44.987  27.443  25.663  1.00  0.00     0.239 C 
ATOM     15  H   UNL A   1      45.960  25.648  25.775  1.00  0.00     0.164 HD
BRANCH  14  16
ATOM     16  C   UNL A   1      46.305  28.148  25.958  1.00  0.00     0.216 C 
BRANCH  16  17
ATOM     17  N   UNL A   1      46.295  29.525  25.493  1.00  0.00    -0.342 N 
ATOM     18  C   UNL A   1      46.408  30.602  26.344  1.00  0.00     0.261 C 
ATOM     19  H   UNL A   1      46.202  29.696  24.527  1.00  0.00     0.164 HD
ATOM     20  O   UNL A   1      47.254  31.445  26.048  1.00  0.00    -0.268 OA
BRANCH  18  21
ATOM     21  C   UNL A   1      45.541  30.679  27.509  1.00  0.00     0.092 A 
ATOM     22  C   UNL A   1      45.929  30.716  28.836  1.00  0.00     0.025 A 
ATOM     23  S   UNL A   1      43.851  30.965  27.354  1.00  0.00    -0.139 S 
ATOM     24  C   UNL A   1      44.845  30.986  29.720  1.00  0.00     0.012 A 
ATOM     25  C   UNL A   1      43.658  31.155  29.043  1.00  0.00     0.065 A 
ENDBRANCH  18  21
ENDBRANCH  16  17
ENDBRANCH  14  16
ENDBRANCH   8  12
ENDBRANCH   4   7
ENDBRANCH   2   3
ENDBRANCH   1   2
BRANCH   1  26
ATOM     26  C   UNL A   1      40.735  20.455  26.186  1.00  0.00     0.023 C 
BRANCH  26  27
ATOM     27  C   UNL A   1      40.216  21.772  26.760  1.00  0.00     0.116 C 
BRANCH  27  28
ATOM     28  N   UNL A   1      39.118  22.347  25.999  1.00  0.00    -0.352 N 
ATOM     29  C   UNL A   1      38.607  23.617  26.036  1.00  0.00     0.251 C 
ATOM     30  H   UNL A   1      38.677  21.733  25.367  1.00  0.00     0.163 HD
ATOM     31  O   UNL A   1      37.619  23.922  25.383  1.00  0.00    -0.269 OA
BRANCH  29  32
ATOM     32  C   UNL A   1      39.209  24.637  26.893  1.00  0.00     0.039 A 
ATOM     33  C   UNL A   1      40.045  25.578  26.283  1.00  0.00     0.014 A 
ATOM     34  C   UNL A   1      38.964  24.660  28.266  1.00  0.00     0.014 A 
ATOM     35  C   UNL A   1      40.577  26.608  27.041  1.00  0.00     0.010 A 
ATOM     36  C   UNL A   1      39.448  25.719  29.012  1.00  0.00     0.010 A 
ATOM     37  C   UNL A   1      40.240  26.702  28.396  1.00  0.00    -0.014 A 
BRANCH  37  38
ATOM     38  C   UNL A   1      40.667  27.854  29.204  1.00  0.00     0.031 A 
ATOM     39  C   UNL A   1      41.931  27.754  29.994  1.00  0.00     0.074 A 
ATOM     40  C   UNL A   1      39.831  28.904  29.298  1.00  0.00     0.049 A 
ATOM     41  N   UNL A   1      42.381  28.543  30.929  1.00  0.00    -0.248 NA
ATOM     42  C   UNL A   1      42.781  26.581  29.728  1.00  0.00     0.031 C 
ATOM     43  C   UNL A   1      38.559  29.037  28.579  1.00  0.00     0.029 A 
ATOM     44  N   UNL A   1      39.903  30.038  30.057  1.00  0.00    -0.354 N 
ATOM     45  C   UNL A   1      43.546  27.947  31.392  1.00  0.00     0.074 A 
ATOM     46  C   UNL A   1      43.722  26.717  30.650  1.00  0.00     0.031 C 
ATOM     47  C   UNL A   1      37.970  30.189  28.934  1.00  0.00     0.029 A 
ATOM     48  C   UNL A   1      38.801  30.849  29.933  1.00  0.00     0.049 A 
ATOM     49  H   UNL A   1      40.670  30.253  30.635  1.00  0.00     0.167 HD
ATOM     50  C   UNL A   1      44.386  28.400  32.351  1.00  0.00     0.037 A 
ATOM     51  C   UNL A   1      38.495  31.989  30.577  1.00  0.00     0.037 A 
ATOM     52  C   UNL A   1      44.180  29.645  33.043  1.00  0.00     0.049 A 
ATOM     53  C   UNL A   1      39.479  32.506  31.587  1.00  0.00     0.074 A 
ATOM     54  C   UNL A   1      44.969  30.243  34.007  1.00  0.00     0.029 A 
ATOM     55  N   UNL A   1      43.098  30.491  32.827  1.00  0.00    -0.354 N 
ATOM     56  N   UNL A   1      40.591  31.946  32.006  1.00  0.00    -0.248 NA
ATOM     57  C   UNL A   1      39.179  33.801  32.204  1.00  0.00     0.031 C 
ATOM     58  C   UNL A   1      44.356  31.443  34.386  1.00  0.00     0.029 A 
ATOM     59  C   UNL A   1      43.200  31.609  33.635  1.00  0.00     0.049 A 
ATOM     60  H   UNL A   1      42.366  30.320  32.192  1.00  0.00     0.167 HD
ATOM     61  C   UNL A   1      41.136  32.828  32.927  1.00  0.00     0.074 A 
ATOM     62  C   UNL A   1      40.235  33.965  32.991  1.00  0.00     0.031 C 
ATOM     63  C   UNL A   1      42.273  32.715  33.656  1.00  0.00     0.037 A 
BRANCH  50  64
ATOM     64  C   UNL A   1      45.570  27.541  32.701  1.00  0.00     0.058 A 
ATOM     65  C   UNL A   1      46.852  27.810  32.196  1.00  0.00     0.135 A 
ATOM     66  C   UNL A   1      45.420  26.424  33.538  1.00  0.00     0.135 A 
ATOM     67  F   UNL A   1      47.049  28.853  31.373  1.00  0.00    -0.206 F 
ATOM     68  C   UNL A   1      47.936  26.985  32.479  1.00  0.00     0.059 A 
ATOM     69  C   UNL A   1      46.496  25.598  33.855  1.00  0.00     0.059 A 
ATOM     70  F   UNL A   1      44.216  26.112  34.044  1.00  0.00    -0.206 F 
ATOM     71  C   UNL A   1      47.747  25.876  33.305  1.00  0.00     0.060 A 
BRANCH  71  72
ATOM     72  S   UNL A   1      49.157  24.802  33.651  1.00  0.00     0.124 S 
ATOM     73  O   UNL A   1      49.656  24.534  32.306  1.00  0.00    -0.237 OA
ATOM     74  O   UNL A   1      50.004  25.652  34.481  1.00  0.00    -0.237 OA
ATOM     75  O   UNL A   1      48.555  23.663  34.337  1.00  0.00    -0.744 OA
ENDBRANCH  71  72
ENDBRANCH  50  64
BRANCH  51  76
ATOM     76  C   UNL A   1      37.237  32.707  30.251  1.00  0.00     0.058 A 
ATOM     77  C   UNL A   1      37.218  33.708  29.270  1.00  0.00     0.135 A 
ATOM     78  C   UNL A   1      36.017  32.356  30.851  1.00  0.00     0.135 A 
ATOM     79  F   UNL A   1      38.358  34.074  28.665  1.00  0.00    -0.206 F 
ATOM     80  C   UNL A   1      36.037  34.342  28.896  1.00  0.00     0.059 A 
ATOM     81  C   UNL A   1      34.819  32.963  30.481  1.00  0.00     0.059 A 
ATOM     82  F   UNL A   1      35.977  31.386  31.777  1.00  0.00    -0.206 F 
ATOM     83  C   UNL A   1      34.840  33.958  29.504  1.00  0.00     0.060 A 
BRANCH  83  84
ATOM     84  S   UNL A   1      33.302  34.732  28.955  1.00  0.00     0.124 S 
ATOM     85  O   UNL A   1      32.574  34.860  30.212  1.00  0.00    -0.237 OA
ATOM     86  O   UNL A   1      33.778  35.978  28.363  1.00  0.00    -0.237 OA
ATOM     87  O   UNL A   1      32.761  33.763  28.007  1.00  0.00    -0.744 OA
ENDBRANCH  83  84
ENDBRANCH  51  76
BRANCH  63  88
ATOM     88  C   UNL A   1      42.605  33.864  34.559  1.00  0.00     0.058 A 
ATOM     89  C   UNL A   1      42.118  33.922  35.873  1.00  0.00     0.135 A 
ATOM     90  C   UNL A   1      43.455  34.888  34.117  1.00  0.00     0.135 A 
ATOM     91  F   UNL A   1      41.296  32.965  36.332  1.00  0.00    -0.206 F 
ATOM     92  C   UNL A   1      42.451  34.973  36.718  1.00  0.00     0.059 A 
ATOM     93  C   UNL A   1      43.817  35.937  34.951  1.00  0.00     0.059 A 
ATOM     94  F   UNL A   1      43.948  34.867  32.868  1.00  0.00    -0.206 F 
ATOM     95  C   UNL A   1      43.301  35.976  36.247  1.00  0.00     0.060 A 
BRANCH  95  96
ATOM     96  S   UNL A   1      43.756  37.318  37.363  1.00  0.00     0.124 S 
ATOM     97  O   UNL A   1      44.944  36.769  38.009  1.00  0.00    -0.237 OA
ATOM     98  O   UNL A   1      43.989  38.428  36.445  1.00  0.00    -0.237 OA
ATOM     99  O   UNL A   1      42.581  37.458  38.219  1.00  0.00    -0.744 OA
ENDBRANCH  95  96
ENDBRANCH  63  88
ENDBRANCH  37  38
ENDBRANCH  29  32
ENDBRANCH  27  28
ENDBRANCH  26  27
ENDBRANCH   1  26
TORSDOF 18
ENDMDL
MODEL 3
REMARK VINA RESULT:     -10.8      2.243      2.829
REMARK SMILES O=C(CNC(=O)c1cccs1)N[C@@H]1C=C[C@H](C(=O)NCCCCNC(=O)c2ccc(-c3c4nc(c(-c5c(F)cc(S(=O)(=O)[O-])cc5F)c5ccc([nH]5)c(-c5c(F)cc(S(=O)(=O)[O-])cc5F)c5nc(c(-c6c(F)cc(S(=O)(=O)[O-])cc6F)c6ccc3[nH]6)C=C5)C=C4)cc2)C1
REMARK SMILES IDX 21 1 20 2 19 3 17 4 18 5 16 7 13 8 14 9 93 10 15 11 12 12
REMARK SMILES IDX 1 13 2 14 3 16 4 17 5 18 6 20 7 21 8 22 11 23 9 24 10 25
REMARK SMILES IDX 22 26 23 27 24 28 25 29 26 31 27 32 28 33 92 34 29 35 91 36
REMARK SMILES IDX 30 37 31 38 32 39 85 40 33 41 90 42 84 43 86 44 34 45 89 46
REMARK SMILES IDX 83 47 82 48 35 50 69 51 48 52 68 53 49 54 52 55 67 56 87 57
REMARK SMILES IDX 50 58 51 59 66 61 88 62 53 63 36 64 37 65 46 66 38 67 39 68
REMARK SMILES IDX 45 69 47 70 40 71 41 72 42 73 43 74 44 75 70 76 71 77 80 78
REMARK SMILES IDX 72 79 73 80 79 81 81 82 74 83 75 84 76 85 77 86 78 87 54 88
REMARK SMILES IDX 55 89 64 90 56 91 57 92 63 93 65 94 58 95 59 96 60 97 61 98
REMARK SMILES IDX 62 99
REMARK H PARENT 19 6 12 15 4 19 24 30 86 49 52 60
REMARK Flexibility Score: inf
ROOT
ATOM      1  C   UNL A   1      33.821  28.839  25.490  1.00  0.00     0.023 C 
ENDROOT
BRANCH   1   2
ATOM      2  C   UNL A   1      32.485  28.899  24.762  1.00  0.00     0.116 C 
BRANCH   2   3
ATOM      3  N   UNL A   1      32.248  27.777  23.885  1.00  0.00    -0.356 N 
ATOM      4  C   UNL A   1      31.766  26.534  24.163  1.00  0.00     0.227 C 
ATOM      5  O   UNL A   1      31.610  25.765  23.209  1.00  0.00    -0.274 OA
ATOM      6  H   UNL A   1      32.467  27.937  22.938  1.00  0.00     0.163 HD
BRANCH   4   7
ATOM      7  C   UNL A   1      31.457  26.052  25.587  1.00  0.00     0.103 C 
ATOM      8  C   UNL A   1      31.803  23.963  26.867  1.00  0.00     0.106 C 
ATOM      9  C   UNL A   1      30.409  24.094  26.343  1.00  0.00    -0.006 C 
ATOM     10  C   UNL A   1      32.525  25.204  26.301  1.00  0.00     0.047 C 
ATOM     11  C   UNL A   1      30.218  25.219  25.649  1.00  0.00    -0.016 C 
BRANCH   8  12
ATOM     12  N   UNL A   1      32.353  22.709  26.404  1.00  0.00    -0.348 N 
ATOM     13  O   UNL A   1      33.995  22.567  28.005  1.00  0.00    -0.273 OA
ATOM     14  C   UNL A   1      33.398  22.082  27.048  1.00  0.00     0.239 C 
ATOM     15  H   UNL A   1      31.967  22.287  25.602  1.00  0.00     0.164 HD
BRANCH  14  16
ATOM     16  C   UNL A   1      33.820  20.764  26.411  1.00  0.00     0.216 C 
BRANCH  16  17
ATOM     17  N   UNL A   1      33.651  20.786  24.968  1.00  0.00    -0.342 N 
ATOM     18  C   UNL A   1      33.049  19.762  24.271  1.00  0.00     0.261 C 
ATOM     19  H   UNL A   1      33.982  21.566  24.467  1.00  0.00     0.164 HD
ATOM     20  O   UNL A   1      32.158  20.085  23.486  1.00  0.00    -0.268 OA
BRANCH  18  21
ATOM     21  C   UNL A   1      33.494  18.395  24.493  1.00  0.00     0.092 A 
ATOM     22  C   UNL A   1      34.750  17.876  24.236  1.00  0.00     0.025 A 
ATOM     23  S   UNL A   1      32.522  17.261  25.347  1.00  0.00    -0.139 S 
ATOM     24  C   UNL A   1      34.915  16.555  24.747  1.00  0.00     0.012 A 
ATOM     25  C   UNL A   1      33.781  16.105  25.386  1.00  0.00     0.065 A 
ENDBRANCH  18  21
ENDBRANCH  16  17
ENDBRANCH  14  16
ENDBRANCH   8  12
ENDBRANCH   4   7
ENDBRANCH   2   3
ENDBRANCH   1   2
BRANCH   1  26
ATOM     26  C   UNL A   1      33.780  29.280  26.953  1.00  0.00     0.023 C 
BRANCH  26  27
ATOM     27  C   UNL A   1      35.124  29.296  27.681  1.00  0.00     0.116 C 
BRANCH  27  28
ATOM     28  N   UNL A   1      35.192  30.272  28.757  1.00  0.00    -0.352 N 
ATOM     29  C   UNL A   1      36.255  30.619  29.549  1.00  0.00     0.251 C 
ATOM     30  H   UNL A   1      34.353  30.752  28.944  1.00  0.00     0.163 HD
ATOM     31  O   UNL A   1      36.125  31.410  30.472  1.00  0.00    -0.269 OA
BRANCH  29  32
ATOM     32  C   UNL A   1      37.570  30.018  29.335  1.00  0.00     0.039 A 
ATOM     33  C   UNL A   1      38.003  29.872  28.013  1.00  0.00     0.014 A 
ATOM     34  C   UNL A   1      38.354  29.599  30.410  1.00  0.00     0.014 A 
ATOM     35  C   UNL A   1      39.273  29.378  27.764  1.00  0.00     0.010 A 
ATOM     36  C   UNL A   1      39.641  29.160  30.165  1.00  0.00     0.010 A 
ATOM     37  C   UNL A   1      40.107  29.065  28.843  1.00  0.00    -0.014 A 
BRANCH  37  38
ATOM     38  C   UNL A   1      41.508  28.672  28.628  1.00  0.00     0.031 A 
ATOM     39  C   UNL A   1      42.561  29.731  28.614  1.00  0.00     0.074 A 
ATOM     40  C   UNL A   1      41.763  27.387  28.322  1.00  0.00     0.049 A 
ATOM     41  N   UNL A   1      43.805  29.648  28.233  1.00  0.00    -0.248 NA
ATOM     42  C   UNL A   1      42.146  31.076  29.045  1.00  0.00     0.031 C 
ATOM     43  C   UNL A   1      40.762  26.314  28.279  1.00  0.00     0.029 A 
ATOM     44  N   UNL A   1      42.926  26.770  27.958  1.00  0.00    -0.354 N 
ATOM     45  C   UNL A   1      44.315  30.936  28.340  1.00  0.00     0.074 A 
ATOM     46  C   UNL A   1      43.238  31.786  28.800  1.00  0.00     0.031 C 
ATOM     47  C   UNL A   1      41.357  25.171  27.907  1.00  0.00     0.029 A 
ATOM     48  C   UNL A   1      42.765  25.441  27.646  1.00  0.00     0.049 A 
ATOM     49  H   UNL A   1      43.795  27.231  27.923  1.00  0.00     0.167 HD
ATOM     50  C   UNL A   1      45.573  31.354  28.074  1.00  0.00     0.037 A 
ATOM     51  C   UNL A   1      43.660  24.552  27.181  1.00  0.00     0.037 A 
ATOM     52  C   UNL A   1      46.617  30.463  27.642  1.00  0.00     0.049 A 
ATOM     53  C   UNL A   1      45.067  25.028  26.961  1.00  0.00     0.074 A 
ATOM     54  C   UNL A   1      47.943  30.744  27.376  1.00  0.00     0.029 A 
ATOM     55  N   UNL A   1      46.443  29.100  27.424  1.00  0.00    -0.354 N 
ATOM     56  N   UNL A   1      45.547  26.244  27.084  1.00  0.00    -0.248 NA
ATOM     57  C   UNL A   1      46.052  24.023  26.552  1.00  0.00     0.031 C 
ATOM     58  C   UNL A   1      48.568  29.554  26.981  1.00  0.00     0.029 A 
ATOM     59  C   UNL A   1      47.638  28.526  27.032  1.00  0.00     0.049 A 
ATOM     60  H   UNL A   1      45.593  28.616  27.533  1.00  0.00     0.167 HD
ATOM     61  C   UNL A   1      46.898  26.151  26.782  1.00  0.00     0.074 A 
ATOM     62  C   UNL A   1      47.158  24.753  26.485  1.00  0.00     0.031 C 
ATOM     63  C   UNL A   1      47.841  27.125  26.750  1.00  0.00     0.037 A 
BRANCH  50  64
ATOM     64  C   UNL A   1      45.866  32.821  28.233  1.00  0.00     0.058 A 
ATOM     65  C   UNL A   1      45.717  33.723  27.167  1.00  0.00     0.135 A 
ATOM     66  C   UNL A   1      46.316  33.331  29.461  1.00  0.00     0.135 A 
ATOM     67  F   UNL A   1      45.311  33.288  25.964  1.00  0.00    -0.206 F 
ATOM     68  C   UNL A   1      46.037  35.071  27.302  1.00  0.00     0.059 A 
ATOM     69  C   UNL A   1      46.619  34.681  29.626  1.00  0.00     0.059 A 
ATOM     70  F   UNL A   1      46.485  32.515  30.513  1.00  0.00    -0.206 F 
ATOM     71  C   UNL A   1      46.495  35.540  28.534  1.00  0.00     0.060 A 
BRANCH  71  72
ATOM     72  S   UNL A   1      46.924  37.287  28.693  1.00  0.00     0.124 S 
ATOM     73  O   UNL A   1      45.663  37.929  28.337  1.00  0.00    -0.237 OA
ATOM     74  O   UNL A   1      47.312  37.390  30.096  1.00  0.00    -0.237 OA
ATOM     75  O   UNL A   1      48.010  37.458  27.733  1.00  0.00    -0.744 OA
ENDBRANCH  71  72
ENDBRANCH  50  64
BRANCH  51  76
ATOM     76  C   UNL A   1      43.247  23.147  26.936  1.00  0.00     0.058 A 
ATOM     77  C   UNL A   1      43.068  22.672  25.629  1.00  0.00     0.135 A 
ATOM     78  C   UNL A   1      43.100  22.232  27.990  1.00  0.00     0.135 A 
ATOM     79  F   UNL A   1      43.202  23.508  24.588  1.00  0.00    -0.206 F 
ATOM     80  C   UNL A   1      42.754  21.341  25.372  1.00  0.00     0.059 A 
ATOM     81  C   UNL A   1      42.805  20.891  27.758  1.00  0.00     0.059 A 
ATOM     82  F   UNL A   1      43.287  22.631  29.257  1.00  0.00    -0.206 F 
ATOM     83  C   UNL A   1      42.630  20.455  26.445  1.00  0.00     0.060 A 
BRANCH  83  84
ATOM     84  S   UNL A   1      42.300  18.714  26.097  1.00  0.00     0.124 S 
ATOM     85  O   UNL A   1      40.890  18.751  25.725  1.00  0.00    -0.237 OA
ATOM     86  O   UNL A   1      43.238  18.432  25.015  1.00  0.00    -0.237 OA
ATOM     87  O   UNL A   1      42.602  18.056  27.364  1.00  0.00    -0.744 OA
ENDBRANCH  83  84
ENDBRANCH  51  76
BRANCH  63  88
ATOM     88  C   UNL A   1      49.234  26.695  26.405  1.00  0.00     0.058 A 
ATOM     89  C   UNL A   1      49.719  26.782  25.092  1.00  0.00     0.135 A 
ATOM     90  C   UNL A   1      50.102  26.237  27.408  1.00  0.00     0.135 A 
ATOM     91  F   UNL A   1      48.918  27.207  24.103  1.00  0.00    -0.206 F 
ATOM     92  C   UNL A   1      51.020  26.410  24.780  1.00  0.00     0.059 A 
ATOM     93  C   UNL A   1      51.412  25.880  27.121  1.00  0.00     0.059 A 
ATOM     94  F   UNL A   1      49.679  26.146  28.679  1.00  0.00    -0.206 F 
ATOM     95  C   UNL A   1      51.860  25.960  25.802  1.00  0.00     0.060 A 
BRANCH  95  96
ATOM     96  S   UNL A   1      53.559  25.514  25.393  1.00  0.00     0.124 S 
ATOM     97  O   UNL A   1      53.673  24.200  26.017  1.00  0.00    -0.237 OA
ATOM     98  O   UNL A   1      53.545  25.524  23.934  1.00  0.00    -0.237 OA
ATOM     99  O   UNL A   1      54.344  26.577  26.013  1.00  0.00    -0.744 OA
ENDBRANCH  95  96
ENDBRANCH  63  88
ENDBRANCH  37  38
ENDBRANCH  29  32
ENDBRANCH  27  28
ENDBRANCH  26  27
ENDBRANCH   1  26
TORSDOF 18
ENDMDL
