MODEL 1
REMARK VINA RESULT:     -11.6      0.000      0.000
REMARK SMILES CC[C@H](NC(=O)Cc1c(C)c2cc(Cl)c(OC)cc2oc1=O)C(=O)NCCCCNC(=O)c1ccc(-c2c3nc(c(-c4c(F)cc(S(=O)(=O)[O-])cc4F)c4ccc([nH]4)c(-c4c(F)cc(S(=O)(=O)[O-])cc4F)c4nc(c(-c5c(F)cc(S(=O)(=O)[O-])cc5F)c5ccc2[nH]5)C=C4)C=C3)cc1
REMARK SMILES IDX 27 1 26 2 25 3 23 4 24 5 3 7 2 8 1 9 4 10 5 11 6 13 7 14
REMARK SMILES IDX 8 15 9 16 21 17 10 18 11 19 20 20 22 21 12 22 19 23 13 24
REMARK SMILES IDX 18 25 14 26 15 27 16 28 17 29 28 30 29 31 30 32 31 33 32 35
REMARK SMILES IDX 33 36 34 37 98 38 35 39 97 40 36 41 37 42 38 43 91 44 39 45
REMARK SMILES IDX 96 46 90 47 92 48 40 49 95 50 89 51 88 52 41 54 75 55 54 56
REMARK SMILES IDX 74 57 55 58 58 59 73 60 93 61 56 62 57 63 72 65 94 66 59 67
REMARK SMILES IDX 42 68 43 69 52 70 44 71 45 72 51 73 53 74 46 75 47 76 48 77
REMARK SMILES IDX 49 78 50 79 76 80 77 81 86 82 78 83 79 84 85 85 87 86 80 87
REMARK SMILES IDX 81 88 82 89 83 90 84 91 60 92 61 93 70 94 62 95 63 96 69 97
REMARK SMILES IDX 71 98 64 99 65 100 66 101 67 102 68 103
REMARK H PARENT 25 6 4 12 30 34 92 53 58 64
REMARK Flexibility Score: inf
ROOT
ATOM      1  C   UNL A   1      34.911  31.555  28.002  1.00  0.00     0.023 C 
ENDROOT
BRANCH   1   2
ATOM      2  C   UNL A   1      34.342  30.419  27.158  1.00  0.00     0.116 C 
BRANCH   2   3
ATOM      3  N   UNL A   1      33.127  29.822  27.667  1.00  0.00    -0.354 N 
ATOM      4  C   UNL A   1      31.981  29.492  27.009  1.00  0.00     0.242 C 
ATOM      5  O   UNL A   1      31.247  28.630  27.502  1.00  0.00    -0.273 OA
ATOM      6  H   UNL A   1      33.128  29.625  28.631  1.00  0.00     0.163 HD
BRANCH   4   7
ATOM      7  C   UNL A   1      31.656  30.041  25.610  1.00  0.00     0.171 C 
BRANCH   7   8
ATOM      8  C   UNL A   1      30.805  31.328  25.803  1.00  0.00     0.031 C 
ATOM      9  C   UNL A   1      31.464  32.519  26.493  1.00  0.00     0.006 C 
ENDBRANCH   7   8
BRANCH   7  10
ATOM     10  N   UNL A   1      31.106  29.110  24.621  1.00  0.00    -0.344 N 
ATOM     11  C   UNL A   1      31.685  28.628  23.481  1.00  0.00     0.225 C 
ATOM     12  H   UNL A   1      30.194  28.788  24.803  1.00  0.00     0.164 HD
ATOM     13  O   UNL A   1      30.934  28.451  22.518  1.00  0.00    -0.275 OA
BRANCH  11  14
ATOM     14  C   UNL A   1      33.151  28.199  23.430  1.00  0.00     0.143 C 
BRANCH  14  15
ATOM     15  C   UNL A   1      33.397  26.727  23.588  1.00  0.00     0.051 A 
ATOM     16  C   UNL A   1      33.690  26.092  24.742  1.00  0.00    -0.029 A 
ATOM     17  C   UNL A   1      33.460  25.983  22.299  1.00  0.00     0.340 A 
ATOM     18  C   UNL A   1      33.921  26.806  26.049  1.00  0.00     0.046 C 
ATOM     19  C   UNL A   1      33.777  24.620  24.728  1.00  0.00     0.023 A 
ATOM     20  O   UNL A   1      33.218  24.627  22.354  1.00  0.00    -0.422 OA
ATOM     21  O   UNL A   1      33.696  26.552  21.239  1.00  0.00    -0.246 OA
ATOM     22  C   UNL A   1      34.090  23.844  25.849  1.00  0.00     0.036 A 
ATOM     23  C   UNL A   1      33.464  23.943  23.552  1.00  0.00     0.142 A 
ATOM     24  C   UNL A   1      34.071  22.443  25.778  1.00  0.00     0.083 A 
ATOM     25  C   UNL A   1      33.419  22.549  23.469  1.00  0.00     0.095 A 
ATOM     26  Cl  UNL A   1      34.476  21.562  27.213  1.00  0.00    -0.080 Cl
ATOM     27  C   UNL A   1      33.727  21.780  24.589  1.00  0.00     0.141 A 
BRANCH  27  28
ATOM     28  O   UNL A   1      33.718  20.410  24.616  1.00  0.00    -0.495 OA
ATOM     29  C   UNL A   1      32.466  19.764  24.422  1.00  0.00     0.278 C 
ENDBRANCH  27  28
ENDBRANCH  14  15
ENDBRANCH  11  14
ENDBRANCH   7  10
ENDBRANCH   4   7
ENDBRANCH   2   3
ENDBRANCH   1   2
BRANCH   1  30
ATOM     30  C   UNL A   1      36.265  31.270  28.648  1.00  0.00     0.023 C 
BRANCH  30  31
ATOM     31  C   UNL A   1      36.264  30.119  29.639  1.00  0.00     0.116 C 
BRANCH  31  32
ATOM     32  N   UNL A   1      36.181  30.554  31.028  1.00  0.00    -0.352 N 
ATOM     33  C   UNL A   1      37.199  30.695  31.941  1.00  0.00     0.251 C 
ATOM     34  H   UNL A   1      35.280  30.775  31.355  1.00  0.00     0.163 HD
ATOM     35  O   UNL A   1      36.951  30.976  33.109  1.00  0.00    -0.269 OA
BRANCH  33  36
ATOM     36  C   UNL A   1      38.588  30.454  31.499  1.00  0.00     0.039 A 
ATOM     37  C   UNL A   1      39.153  31.254  30.506  1.00  0.00     0.014 A 
ATOM     38  C   UNL A   1      39.292  29.367  32.019  1.00  0.00     0.014 A 
ATOM     39  C   UNL A   1      40.331  30.852  29.898  1.00  0.00     0.010 A 
ATOM     40  C   UNL A   1      40.534  29.027  31.475  1.00  0.00     0.010 A 
ATOM     41  C   UNL A   1      41.036  29.732  30.371  1.00  0.00    -0.014 A 
BRANCH  41  42
ATOM     42  C   UNL A   1      42.285  29.328  29.675  1.00  0.00     0.031 A 
ATOM     43  C   UNL A   1      43.502  30.214  29.691  1.00  0.00     0.074 A 
ATOM     44  C   UNL A   1      42.340  28.109  29.104  1.00  0.00     0.049 A 
ATOM     45  N   UNL A   1      44.694  29.980  29.204  1.00  0.00    -0.248 NA
ATOM     46  C   UNL A   1      43.367  31.535  30.326  1.00  0.00     0.031 C 
ATOM     47  C   UNL A   1      41.221  27.166  29.031  1.00  0.00     0.029 A 
ATOM     48  N   UNL A   1      43.380  27.434  28.519  1.00  0.00    -0.354 N 
ATOM     49  C   UNL A   1      45.442  31.125  29.453  1.00  0.00     0.074 A 
ATOM     50  C   UNL A   1      44.561  32.069  30.106  1.00  0.00     0.031 C 
ATOM     51  C   UNL A   1      41.655  26.008  28.515  1.00  0.00     0.029 A 
ATOM     52  C   UNL A   1      43.062  26.148  28.152  1.00  0.00     0.049 A 
ATOM     53  H   UNL A   1      44.270  27.831  28.376  1.00  0.00     0.167 HD
ATOM     54  C   UNL A   1      46.747  31.361  29.176  1.00  0.00     0.037 A 
ATOM     55  C   UNL A   1      43.813  25.186  27.584  1.00  0.00     0.037 A 
ATOM     56  C   UNL A   1      47.623  30.402  28.556  1.00  0.00     0.049 A 
ATOM     57  C   UNL A   1      45.248  25.479  27.264  1.00  0.00     0.074 A 
ATOM     58  C   UNL A   1      48.970  30.531  28.264  1.00  0.00     0.029 A 
ATOM     59  N   UNL A   1      47.243  29.136  28.133  1.00  0.00    -0.354 N 
ATOM     60  N   UNL A   1      45.940  26.564  27.519  1.00  0.00    -0.248 NA
ATOM     61  C   UNL A   1      46.001  24.432  26.564  1.00  0.00     0.031 C 
ATOM     62  C   UNL A   1      49.393  29.361  27.626  1.00  0.00     0.029 A 
ATOM     63  C   UNL A   1      48.321  28.485  27.557  1.00  0.00     0.049 A 
ATOM     64  H   UNL A   1      46.339  28.758  28.229  1.00  0.00     0.167 HD
ATOM     65  C   UNL A   1      47.210  26.331  27.008  1.00  0.00     0.074 A 
ATOM     66  C   UNL A   1      47.198  24.993  26.451  1.00  0.00     0.031 C 
ATOM     67  C   UNL A   1      48.287  27.156  26.997  1.00  0.00     0.037 A 
BRANCH  54  68
ATOM     68  C   UNL A   1      47.304  32.713  29.530  1.00  0.00     0.058 A 
ATOM     69  C   UNL A   1      47.278  33.786  28.623  1.00  0.00     0.135 A 
ATOM     70  C   UNL A   1      47.843  32.950  30.805  1.00  0.00     0.135 A 
ATOM     71  F   UNL A   1      46.786  33.612  27.386  1.00  0.00    -0.206 F 
ATOM     72  C   UNL A   1      47.793  35.033  28.957  1.00  0.00     0.059 A 
ATOM     73  C   UNL A   1      48.342  34.197  31.169  1.00  0.00     0.059 A 
ATOM     74  F   UNL A   1      47.891  31.962  31.712  1.00  0.00    -0.206 F 
ATOM     75  C   UNL A   1      48.328  35.229  30.232  1.00  0.00     0.060 A 
BRANCH  75  76
ATOM     76  S   UNL A   1      49.005  36.851  30.643  1.00  0.00     0.124 S 
ATOM     77  O   UNL A   1      49.422  36.650  32.027  1.00  0.00    -0.237 OA
ATOM     78  O   UNL A   1      50.085  36.994  29.671  1.00  0.00    -0.237 OA
ATOM     79  O   UNL A   1      47.873  37.753  30.454  1.00  0.00    -0.744 OA
ENDBRANCH  75  76
ENDBRANCH  54  68
BRANCH  55  80
ATOM     80  C   UNL A   1      43.203  23.861  27.299  1.00  0.00     0.058 A 
ATOM     81  C   UNL A   1      42.764  23.533  26.010  1.00  0.00     0.135 A 
ATOM     82  C   UNL A   1      43.124  22.870  28.292  1.00  0.00     0.135 A 
ATOM     83  F   UNL A   1      42.814  24.447  25.030  1.00  0.00    -0.206 F 
ATOM     84  C   UNL A   1      42.278  22.264  25.709  1.00  0.00     0.059 A 
ATOM     85  C   UNL A   1      42.667  21.588  28.010  1.00  0.00     0.059 A 
ATOM     86  F   UNL A   1      43.548  23.132  29.539  1.00  0.00    -0.206 F 
ATOM     87  C   UNL A   1      42.246  21.294  26.715  1.00  0.00     0.060 A 
BRANCH  87  88
ATOM     88  S   UNL A   1      41.703  19.626  26.289  1.00  0.00     0.124 S 
ATOM     89  O   UNL A   1      40.273  19.823  26.087  1.00  0.00    -0.237 OA
ATOM     90  O   UNL A   1      42.485  19.347  25.089  1.00  0.00    -0.237 OA
ATOM     91  O   UNL A   1      42.073  18.842  27.464  1.00  0.00    -0.744 OA
ENDBRANCH  87  88
ENDBRANCH  55  80
BRANCH  67  92
ATOM     92  C   UNL A   1      49.543  26.648  26.350  1.00  0.00     0.058 A 
ATOM     93  C   UNL A   1      49.860  26.977  25.024  1.00  0.00     0.135 A 
ATOM     94  C   UNL A   1      50.479  25.907  27.089  1.00  0.00     0.135 A 
ATOM     95  F   UNL A   1      48.992  27.674  24.274  1.00  0.00    -0.206 F 
ATOM     96  C   UNL A   1      51.067  26.593  24.452  1.00  0.00     0.059 A 
ATOM     97  C   UNL A   1      51.702  25.531  26.543  1.00  0.00     0.059 A 
ATOM     98  F   UNL A   1      50.222  25.572  28.363  1.00  0.00    -0.206 F 
ATOM     99  C   UNL A   1      51.986  25.877  25.222  1.00  0.00     0.060 A 
BRANCH  99 100
ATOM    100  S   UNL A   1      53.578  25.451  24.487  1.00  0.00     0.124 S 
ATOM    101  O   UNL A   1      54.490  26.299  25.246  1.00  0.00    -0.237 OA
ATOM    102  O   UNL A   1      53.672  24.019  24.755  1.00  0.00    -0.237 OA
ATOM    103  O   UNL A   1      53.411  25.810  23.081  1.00  0.00    -0.744 OA
ENDBRANCH  99 100
ENDBRANCH  67  92
ENDBRANCH  41  42
ENDBRANCH  33  36
ENDBRANCH  31  32
ENDBRANCH  30  31
ENDBRANCH   1  30
TORSDOF 19
ENDMDL
MODEL 2
REMARK VINA RESULT:     -11.5      5.933      8.412
REMARK SMILES CC[C@H](NC(=O)Cc1c(C)c2cc(Cl)c(OC)cc2oc1=O)C(=O)NCCCCNC(=O)c1ccc(-c2c3nc(c(-c4c(F)cc(S(=O)(=O)[O-])cc4F)c4ccc([nH]4)c(-c4c(F)cc(S(=O)(=O)[O-])cc4F)c4nc(c(-c5c(F)cc(S(=O)(=O)[O-])cc5F)c5ccc2[nH]5)C=C4)C=C3)cc1
REMARK SMILES IDX 27 1 26 2 25 3 23 4 24 5 3 7 2 8 1 9 4 10 5 11 6 13 7 14
REMARK SMILES IDX 8 15 9 16 21 17 10 18 11 19 20 20 22 21 12 22 19 23 13 24
REMARK SMILES IDX 18 25 14 26 15 27 16 28 17 29 28 30 29 31 30 32 31 33 32 35
REMARK SMILES IDX 33 36 34 37 98 38 35 39 97 40 36 41 37 42 38 43 91 44 39 45
REMARK SMILES IDX 96 46 90 47 92 48 40 49 95 50 89 51 88 52 41 54 75 55 54 56
REMARK SMILES IDX 74 57 55 58 58 59 73 60 93 61 56 62 57 63 72 65 94 66 59 67
REMARK SMILES IDX 42 68 43 69 52 70 44 71 45 72 51 73 53 74 46 75 47 76 48 77
REMARK SMILES IDX 49 78 50 79 76 80 77 81 86 82 78 83 79 84 85 85 87 86 80 87
REMARK SMILES IDX 81 88 82 89 83 90 84 91 60 92 61 93 70 94 62 95 63 96 69 97
REMARK SMILES IDX 71 98 64 99 65 100 66 101 67 102 68 103
REMARK H PARENT 25 6 4 12 30 34 92 53 58 64
REMARK Flexibility Score: inf
ROOT
ATOM      1  C   UNL A   1      33.935  30.020  27.574  1.00  0.00     0.023 C 
ENDROOT
BRANCH   1   2
ATOM      2  C   UNL A   1      33.302  28.772  26.964  1.00  0.00     0.116 C 
BRANCH   2   3
ATOM      3  N   UNL A   1      33.941  28.281  25.763  1.00  0.00    -0.354 N 
ATOM      4  C   UNL A   1      33.386  27.715  24.655  1.00  0.00     0.242 C 
ATOM      5  O   UNL A   1      34.018  27.754  23.595  1.00  0.00    -0.273 OA
ATOM      6  H   UNL A   1      34.921  28.368  25.743  1.00  0.00     0.163 HD
BRANCH   4   7
ATOM      7  C   UNL A   1      31.947  27.174  24.649  1.00  0.00     0.171 C 
BRANCH   7   8
ATOM      8  C   UNL A   1      31.027  28.310  24.120  1.00  0.00     0.031 C 
ATOM      9  C   UNL A   1      29.709  27.911  23.462  1.00  0.00     0.006 C 
ENDBRANCH   7   8
BRANCH   7  10
ATOM     10  N   UNL A   1      31.453  26.531  25.869  1.00  0.00    -0.344 N 
ATOM     11  C   UNL A   1      31.629  25.243  26.293  1.00  0.00     0.225 C 
ATOM     12  H   UNL A   1      30.921  27.105  26.466  1.00  0.00     0.164 HD
ATOM     13  O   UNL A   1      30.681  24.729  26.891  1.00  0.00    -0.275 OA
BRANCH  11  14
ATOM     14  C   UNL A   1      32.968  24.517  26.159  1.00  0.00     0.143 C 
BRANCH  14  15
ATOM     15  C   UNL A   1      32.876  23.049  25.862  1.00  0.00     0.051 A 
ATOM     16  C   UNL A   1      32.568  22.500  24.669  1.00  0.00    -0.029 A 
ATOM     17  C   UNL A   1      32.997  22.180  27.066  1.00  0.00     0.340 A 
ATOM     18  C   UNL A   1      32.157  23.306  23.463  1.00  0.00     0.046 C 
ATOM     19  C   UNL A   1      32.646  21.033  24.532  1.00  0.00     0.023 A 
ATOM     20  O   UNL A   1      33.384  20.875  26.851  1.00  0.00    -0.422 OA
ATOM     21  O   UNL A   1      32.782  22.611  28.194  1.00  0.00    -0.246 OA
ATOM     22  C   UNL A   1      32.335  20.339  23.358  1.00  0.00     0.036 A 
ATOM     23  C   UNL A   1      33.123  20.286  25.607  1.00  0.00     0.142 A 
ATOM     24  C   UNL A   1      32.516  18.950  23.279  1.00  0.00     0.083 A 
ATOM     25  C   UNL A   1      33.329  18.906  25.538  1.00  0.00     0.095 A 
ATOM     26  Cl  UNL A   1      32.100  18.172  21.789  1.00  0.00    -0.080 Cl
ATOM     27  C   UNL A   1      33.023  18.220  24.365  1.00  0.00     0.141 A 
BRANCH  27  28
ATOM     28  O   UNL A   1      33.182  16.870  24.192  1.00  0.00    -0.495 OA
ATOM     29  C   UNL A   1      32.958  16.038  25.324  1.00  0.00     0.278 C 
ENDBRANCH  27  28
ENDBRANCH  14  15
ENDBRANCH  11  14
ENDBRANCH   7  10
ENDBRANCH   4   7
ENDBRANCH   2   3
ENDBRANCH   1   2
BRANCH   1  30
ATOM     30  C   UNL A   1      33.060  31.271  27.549  1.00  0.00     0.023 C 
BRANCH  30  31
ATOM     31  C   UNL A   1      33.811  32.565  27.291  1.00  0.00     0.116 C 
BRANCH  31  32
ATOM     32  N   UNL A   1      33.086  33.750  27.727  1.00  0.00    -0.352 N 
ATOM     33  C   UNL A   1      33.307  34.526  28.841  1.00  0.00     0.251 C 
ATOM     34  H   UNL A   1      32.340  34.033  27.150  1.00  0.00     0.163 HD
ATOM     35  O   UNL A   1      32.538  35.439  29.124  1.00  0.00    -0.269 OA
BRANCH  33  36
ATOM     36  C   UNL A   1      34.456  34.207  29.712  1.00  0.00     0.039 A 
ATOM     37  C   UNL A   1      35.748  34.558  29.319  1.00  0.00     0.014 A 
ATOM     38  C   UNL A   1      34.245  33.474  30.881  1.00  0.00     0.014 A 
ATOM     39  C   UNL A   1      36.832  34.010  29.985  1.00  0.00     0.010 A 
ATOM     40  C   UNL A   1      35.343  33.015  31.614  1.00  0.00     0.010 A 
ATOM     41  C   UNL A   1      36.646  33.229  31.138  1.00  0.00    -0.014 A 
BRANCH  41  42
ATOM     42  C   UNL A   1      37.838  32.649  31.808  1.00  0.00     0.031 A 
ATOM     43  C   UNL A   1      38.277  33.131  33.165  1.00  0.00     0.074 A 
ATOM     44  C   UNL A   1      38.470  31.615  31.218  1.00  0.00     0.049 A 
ATOM     45  N   UNL A   1      39.243  32.681  33.923  1.00  0.00    -0.248 NA
ATOM     46  C   UNL A   1      37.545  34.269  33.746  1.00  0.00     0.031 C 
ATOM     47  C   UNL A   1      38.130  31.063  29.904  1.00  0.00     0.029 A 
ATOM     48  N   UNL A   1      39.494  30.816  31.657  1.00  0.00    -0.354 N 
ATOM     49  C   UNL A   1      39.251  33.488  35.055  1.00  0.00     0.074 A 
ATOM     50  C   UNL A   1      38.213  34.479  34.872  1.00  0.00     0.031 C 
ATOM     51  C   UNL A   1      38.870  29.969  29.682  1.00  0.00     0.029 A 
ATOM     52  C   UNL A   1      39.788  29.782  30.800  1.00  0.00     0.049 A 
ATOM     53  H   UNL A   1      39.974  30.968  32.504  1.00  0.00     0.167 HD
ATOM     54  C   UNL A   1      40.041  33.401  36.152  1.00  0.00     0.037 A 
ATOM     55  C   UNL A   1      40.695  28.792  30.898  1.00  0.00     0.037 A 
ATOM     56  C   UNL A   1      41.049  32.390  36.339  1.00  0.00     0.049 A 
ATOM     57  C   UNL A   1      41.575  28.731  32.111  1.00  0.00     0.074 A 
ATOM     58  C   UNL A   1      41.878  32.194  37.430  1.00  0.00     0.029 A 
ATOM     59  N   UNL A   1      41.364  31.404  35.416  1.00  0.00    -0.354 N 
ATOM     60  N   UNL A   1      41.558  29.496  33.176  1.00  0.00    -0.248 NA
ATOM     61  C   UNL A   1      42.609  27.689  32.131  1.00  0.00     0.031 C 
ATOM     62  C   UNL A   1      42.724  31.117  37.147  1.00  0.00     0.029 A 
ATOM     63  C   UNL A   1      42.395  30.615  35.898  1.00  0.00     0.049 A 
ATOM     64  H   UNL A   1      40.921  31.283  34.545  1.00  0.00     0.167 HD
ATOM     65  C   UNL A   1      42.580  29.030  33.993  1.00  0.00     0.074 A 
ATOM     66  C   UNL A   1      43.180  27.901  33.309  1.00  0.00     0.031 C 
ATOM     67  C   UNL A   1      42.987  29.501  35.198  1.00  0.00     0.037 A 
BRANCH  54  68
ATOM     68  C   UNL A   1      39.856  34.433  37.232  1.00  0.00     0.058 A 
ATOM     69  C   UNL A   1      39.112  34.165  38.392  1.00  0.00     0.135 A 
ATOM     70  C   UNL A   1      40.459  35.696  37.121  1.00  0.00     0.135 A 
ATOM     71  F   UNL A   1      38.502  32.979  38.545  1.00  0.00    -0.206 F 
ATOM     72  C   UNL A   1      38.946  35.122  39.388  1.00  0.00     0.059 A 
ATOM     73  C   UNL A   1      40.327  36.661  38.115  1.00  0.00     0.059 A 
ATOM     74  F   UNL A   1      41.184  36.005  36.035  1.00  0.00    -0.206 F 
ATOM     75  C   UNL A   1      39.554  36.370  39.238  1.00  0.00     0.060 A 
BRANCH  75  76
ATOM     76  S   UNL A   1      39.316  37.605  40.534  1.00  0.00     0.124 S 
ATOM     77  O   UNL A   1      40.632  38.235  40.579  1.00  0.00    -0.237 OA
ATOM     78  O   UNL A   1      38.240  38.426  39.988  1.00  0.00    -0.237 OA
ATOM     79  O   UNL A   1      38.961  36.809  41.705  1.00  0.00    -0.744 OA
ENDBRANCH  75  76
ENDBRANCH  54  68
BRANCH  55  80
ATOM     80  C   UNL A   1      40.793  27.786  29.810  1.00  0.00     0.058 A 
ATOM     81  C   UNL A   1      39.813  26.798  29.650  1.00  0.00     0.135 A 
ATOM     82  C   UNL A   1      41.827  27.844  28.860  1.00  0.00     0.135 A 
ATOM     83  F   UNL A   1      38.809  26.700  30.534  1.00  0.00    -0.206 F 
ATOM     84  C   UNL A   1      39.844  25.909  28.580  1.00  0.00     0.059 A 
ATOM     85  C   UNL A   1      41.866  26.984  27.768  1.00  0.00     0.059 A 
ATOM     86  F   UNL A   1      42.782  28.783  28.961  1.00  0.00    -0.206 F 
ATOM     87  C   UNL A   1      40.869  26.019  27.637  1.00  0.00     0.060 A 
BRANCH  87  88
ATOM     88  S   UNL A   1      40.846  24.922  26.203  1.00  0.00     0.124 S 
ATOM     89  O   UNL A   1      39.467  24.448  26.216  1.00  0.00    -0.237 OA
ATOM     90  O   UNL A   1      41.198  25.831  25.117  1.00  0.00    -0.237 OA
ATOM     91  O   UNL A   1      41.860  23.924  26.527  1.00  0.00    -0.744 OA
ENDBRANCH  87  88
ENDBRANCH  55  80
BRANCH  67  92
ATOM     92  C   UNL A   1      44.147  28.811  35.856  1.00  0.00     0.058 A 
ATOM     93  C   UNL A   1      45.460  29.273  35.683  1.00  0.00     0.135 A 
ATOM     94  C   UNL A   1      43.935  27.740  36.739  1.00  0.00     0.135 A 
ATOM     95  F   UNL A   1      45.714  30.287  34.841  1.00  0.00    -0.206 F 
ATOM     96  C   UNL A   1      46.525  28.700  36.367  1.00  0.00     0.059 A 
ATOM     97  C   UNL A   1      44.984  27.166  37.450  1.00  0.00     0.059 A 
ATOM     98  F   UNL A   1      42.695  27.265  36.941  1.00  0.00    -0.206 F 
ATOM     99  C   UNL A   1      46.276  27.652  37.256  1.00  0.00     0.060 A 
BRANCH  99 100
ATOM    100  S   UNL A   1      47.661  26.970  38.191  1.00  0.00     0.124 S 
ATOM    101  O   UNL A   1      47.029  26.661  39.469  1.00  0.00    -0.237 OA
ATOM    102  O   UNL A   1      48.048  25.819  37.380  1.00  0.00    -0.237 OA
ATOM    103  O   UNL A   1      48.627  28.065  38.217  1.00  0.00    -0.744 OA
ENDBRANCH  99 100
ENDBRANCH  67  92
ENDBRANCH  41  42
ENDBRANCH  33  36
ENDBRANCH  31  32
ENDBRANCH  30  31
ENDBRANCH   1  30
TORSDOF 19
ENDMDL
MODEL 3
REMARK VINA RESULT:     -11.4      6.059     11.952
REMARK SMILES CC[C@H](NC(=O)Cc1c(C)c2cc(Cl)c(OC)cc2oc1=O)C(=O)NCCCCNC(=O)c1ccc(-c2c3nc(c(-c4c(F)cc(S(=O)(=O)[O-])cc4F)c4ccc([nH]4)c(-c4c(F)cc(S(=O)(=O)[O-])cc4F)c4nc(c(-c5c(F)cc(S(=O)(=O)[O-])cc5F)c5ccc2[nH]5)C=C4)C=C3)cc1
REMARK SMILES IDX 27 1 26 2 25 3 23 4 24 5 3 7 2 8 1 9 4 10 5 11 6 13 7 14
REMARK SMILES IDX 8 15 9 16 21 17 10 18 11 19 20 20 22 21 12 22 19 23 13 24
REMARK SMILES IDX 18 25 14 26 15 27 16 28 17 29 28 30 29 31 30 32 31 33 32 35
REMARK SMILES IDX 33 36 34 37 98 38 35 39 97 40 36 41 37 42 38 43 91 44 39 45
REMARK SMILES IDX 96 46 90 47 92 48 40 49 95 50 89 51 88 52 41 54 75 55 54 56
REMARK SMILES IDX 74 57 55 58 58 59 73 60 93 61 56 62 57 63 72 65 94 66 59 67
REMARK SMILES IDX 42 68 43 69 52 70 44 71 45 72 51 73 53 74 46 75 47 76 48 77
REMARK SMILES IDX 49 78 50 79 76 80 77 81 86 82 78 83 79 84 85 85 87 86 80 87
REMARK SMILES IDX 81 88 82 89 83 90 84 91 60 92 61 93 70 94 62 95 63 96 69 97
REMARK SMILES IDX 71 98 64 99 65 100 66 101 67 102 68 103
REMARK H PARENT 25 6 4 12 30 34 92 53 58 64
REMARK Flexibility Score: inf
ROOT
ATOM      1  C   UNL A   1      39.328  23.504  26.939  1.00  0.00     0.023 C 
ENDROOT
BRANCH   1   2
ATOM      2  C   UNL A   1      37.913  23.320  26.398  1.00  0.00     0.116 C 
BRANCH   2   3
ATOM      3  N   UNL A   1      37.826  23.039  24.982  1.00  0.00    -0.354 N 
ATOM      4  C   UNL A   1      36.970  22.219  24.311  1.00  0.00     0.242 C 
ATOM      5  O   UNL A   1      36.772  22.430  23.111  1.00  0.00    -0.273 OA
ATOM      6  H   UNL A   1      38.484  23.508  24.419  1.00  0.00     0.163 HD
BRANCH   4   7
ATOM      7  C   UNL A   1      36.132  21.150  25.031  1.00  0.00     0.171 C 
BRANCH   7   8
ATOM      8  C   UNL A   1      36.859  19.788  24.845  1.00  0.00     0.031 C 
ATOM      9  C   UNL A   1      38.348  19.727  25.172  1.00  0.00     0.006 C 
ENDBRANCH   7   8
BRANCH   7  10
ATOM     10  N   UNL A   1      34.696  21.098  24.743  1.00  0.00    -0.344 N 
ATOM     11  C   UNL A   1      33.645  21.387  25.567  1.00  0.00     0.225 C 
ATOM     12  H   UNL A   1      34.456  20.816  23.831  1.00  0.00     0.164 HD
ATOM     13  O   UNL A   1      32.632  20.696  25.426  1.00  0.00    -0.275 OA
BRANCH  11  14
ATOM     14  C   UNL A   1      33.660  22.583  26.520  1.00  0.00     0.143 C 
BRANCH  14  15
ATOM     15  C   UNL A   1      32.875  23.778  26.063  1.00  0.00     0.051 A 
ATOM     16  C   UNL A   1      33.356  24.815  25.347  1.00  0.00    -0.029 A 
ATOM     17  C   UNL A   1      31.491  23.837  26.612  1.00  0.00     0.340 A 
ATOM     18  C   UNL A   1      34.811  24.974  24.986  1.00  0.00     0.046 C 
ATOM     19  C   UNL A   1      32.407  25.844  24.882  1.00  0.00     0.023 A 
ATOM     20  O   UNL A   1      30.580  24.600  25.913  1.00  0.00    -0.422 OA
ATOM     21  O   UNL A   1      31.174  23.222  27.624  1.00  0.00    -0.246 OA
ATOM     22  C   UNL A   1      32.778  26.976  24.149  1.00  0.00     0.036 A 
ATOM     23  C   UNL A   1      31.047  25.656  25.120  1.00  0.00     0.142 A 
ATOM     24  C   UNL A   1      31.806  27.867  23.667  1.00  0.00     0.083 A 
ATOM     25  C   UNL A   1      30.066  26.521  24.630  1.00  0.00     0.095 A 
ATOM     26  Cl  UNL A   1      32.355  29.244  22.773  1.00  0.00    -0.080 Cl
ATOM     27  C   UNL A   1      30.439  27.645  23.896  1.00  0.00     0.141 A 
BRANCH  27  28
ATOM     28  O   UNL A   1      29.560  28.558  23.375  1.00  0.00    -0.495 OA
ATOM     29  C   UNL A   1      28.242  28.104  23.092  1.00  0.00     0.278 C 
ENDBRANCH  27  28
ENDBRANCH  14  15
ENDBRANCH  11  14
ENDBRANCH   7  10
ENDBRANCH   4   7
ENDBRANCH   2   3
ENDBRANCH   1   2
BRANCH   1  30
ATOM     30  C   UNL A   1      39.725  24.947  27.242  1.00  0.00     0.023 C 
BRANCH  30  31
ATOM     31  C   UNL A   1      40.449  25.656  26.110  1.00  0.00     0.116 C 
BRANCH  31  32
ATOM     32  N   UNL A   1      41.780  25.122  25.853  1.00  0.00    -0.352 N 
ATOM     33  C   UNL A   1      42.957  25.411  26.503  1.00  0.00     0.251 C 
ATOM     34  H   UNL A   1      41.845  24.470  25.119  1.00  0.00     0.163 HD
ATOM     35  O   UNL A   1      44.019  24.950  26.097  1.00  0.00    -0.269 OA
BRANCH  33  36
ATOM     36  C   UNL A   1      42.922  26.323  27.664  1.00  0.00     0.039 A 
ATOM     37  C   UNL A   1      42.541  25.843  28.917  1.00  0.00     0.014 A 
ATOM     38  C   UNL A   1      43.184  27.681  27.475  1.00  0.00     0.014 A 
ATOM     39  C   UNL A   1      42.234  26.743  29.925  1.00  0.00     0.010 A 
ATOM     40  C   UNL A   1      42.977  28.576  28.528  1.00  0.00     0.010 A 
ATOM     41  C   UNL A   1      42.443  28.121  29.744  1.00  0.00    -0.014 A 
BRANCH  41  42
ATOM     42  C   UNL A   1      42.082  29.048  30.846  1.00  0.00     0.031 A 
ATOM     43  C   UNL A   1      40.830  29.882  30.779  1.00  0.00     0.074 A 
ATOM     44  C   UNL A   1      42.849  29.064  31.954  1.00  0.00     0.049 A 
ATOM     45  N   UNL A   1      40.326  30.680  31.686  1.00  0.00    -0.248 NA
ATOM     46  C   UNL A   1      40.044  29.820  29.536  1.00  0.00     0.031 C 
ATOM     47  C   UNL A   1      44.084  28.295  32.130  1.00  0.00     0.029 A 
ATOM     48  N   UNL A   1      42.688  29.708  33.153  1.00  0.00    -0.354 N 
ATOM     49  C   UNL A   1      39.182  31.230  31.119  1.00  0.00     0.074 A 
ATOM     50  C   UNL A   1      39.081  30.701  29.777  1.00  0.00     0.031 C 
ATOM     51  C   UNL A   1      44.521  28.445  33.387  1.00  0.00     0.029 A 
ATOM     52  C   UNL A   1      43.641  29.376  34.086  1.00  0.00     0.049 A 
ATOM     53  H   UNL A   1      41.959  30.347  33.330  1.00  0.00     0.167 HD
ATOM     54  C   UNL A   1      38.290  32.087  31.673  1.00  0.00     0.037 A 
ATOM     55  C   UNL A   1      43.796  29.775  35.362  1.00  0.00     0.037 A 
ATOM     56  C   UNL A   1      38.382  32.582  33.021  1.00  0.00     0.049 A 
ATOM     57  C   UNL A   1      42.810  30.743  35.946  1.00  0.00     0.074 A 
ATOM     58  C   UNL A   1      37.511  33.425  33.688  1.00  0.00     0.029 A 
ATOM     59  N   UNL A   1      39.403  32.278  33.911  1.00  0.00    -0.354 N 
ATOM     60  N   UNL A   1      41.728  31.242  35.397  1.00  0.00    -0.248 NA
ATOM     61  C   UNL A   1      43.072  31.219  37.310  1.00  0.00     0.031 C 
ATOM     62  C   UNL A   1      38.028  33.667  34.965  1.00  0.00     0.029 A 
ATOM     63  C   UNL A   1      39.199  32.940  35.110  1.00  0.00     0.049 A 
ATOM     64  H   UNL A   1      40.161  31.680  33.717  1.00  0.00     0.167 HD
ATOM     65  C   UNL A   1      41.180  32.093  36.348  1.00  0.00     0.074 A 
ATOM     66  C   UNL A   1      42.037  32.023  37.515  1.00  0.00     0.031 C 
ATOM     67  C   UNL A   1      40.070  32.867  36.258  1.00  0.00     0.037 A 
BRANCH  54  68
ATOM     68  C   UNL A   1      37.143  32.553  30.817  1.00  0.00     0.058 A 
ATOM     69  C   UNL A   1      37.277  33.626  29.921  1.00  0.00     0.135 A 
ATOM     70  C   UNL A   1      35.902  31.897  30.871  1.00  0.00     0.135 A 
ATOM     71  F   UNL A   1      38.436  34.298  29.839  1.00  0.00    -0.206 F 
ATOM     72  C   UNL A   1      36.213  34.052  29.132  1.00  0.00     0.059 A 
ATOM     73  C   UNL A   1      34.832  32.290  30.072  1.00  0.00     0.059 A 
ATOM     74  F   UNL A   1      35.720  30.864  31.707  1.00  0.00    -0.206 F 
ATOM     75  C   UNL A   1      34.992  33.380  29.218  1.00  0.00     0.060 A 
BRANCH  75  76
ATOM     76  S   UNL A   1      33.619  33.955  28.196  1.00  0.00     0.124 S 
ATOM     77  O   UNL A   1      34.301  34.859  27.275  1.00  0.00    -0.237 OA
ATOM     78  O   UNL A   1      33.122  32.713  27.613  1.00  0.00    -0.237 OA
ATOM     79  O   UNL A   1      32.724  34.597  29.155  1.00  0.00    -0.744 OA
ENDBRANCH  75  76
ENDBRANCH  54  68
BRANCH  55  80
ATOM     80  C   UNL A   1      44.932  29.242  36.158  1.00  0.00     0.058 A 
ATOM     81  C   UNL A   1      44.787  28.085  36.934  1.00  0.00     0.135 A 
ATOM     82  C   UNL A   1      46.205  29.833  36.093  1.00  0.00     0.135 A 
ATOM     83  F   UNL A   1      43.590  27.488  37.033  1.00  0.00    -0.206 F 
ATOM     84  C   UNL A   1      45.866  27.523  37.609  1.00  0.00     0.059 A 
ATOM     85  C   UNL A   1      47.303  29.276  36.737  1.00  0.00     0.059 A 
ATOM     86  F   UNL A   1      46.397  30.934  35.349  1.00  0.00    -0.206 F 
ATOM     87  C   UNL A   1      47.124  28.120  37.493  1.00  0.00     0.060 A 
BRANCH  87  88
ATOM     88  S   UNL A   1      48.534  27.328  38.296  1.00  0.00     0.124 S 
ATOM     89  O   UNL A   1      49.629  28.210  37.908  1.00  0.00    -0.237 OA
ATOM     90  O   UNL A   1      48.148  27.369  39.702  1.00  0.00    -0.237 OA
ATOM     91  O   UNL A   1      48.555  25.995  37.699  1.00  0.00    -0.744 OA
ENDBRANCH  87  88
ENDBRANCH  55  80
BRANCH  67  92
ATOM     92  C   UNL A   1      39.719  33.717  37.445  1.00  0.00     0.058 A 
ATOM     93  C   UNL A   1      38.847  33.249  38.439  1.00  0.00     0.135 A 
ATOM     94  C   UNL A   1      40.332  34.966  37.638  1.00  0.00     0.135 A 
ATOM     95  F   UNL A   1      38.230  32.066  38.295  1.00  0.00    -0.206 F 
ATOM     96  C   UNL A   1      38.596  33.990  39.589  1.00  0.00     0.059 A 
ATOM     97  C   UNL A   1      40.111  35.713  38.790  1.00  0.00     0.059 A 
ATOM     98  F   UNL A   1      41.177  35.453  36.716  1.00  0.00    -0.206 F 
ATOM     99  C   UNL A   1      39.240  35.217  39.759  1.00  0.00     0.060 A 
BRANCH  99 100
ATOM    100  S   UNL A   1      38.960  36.130  41.291  1.00  0.00     0.124 S 
ATOM    101  O   UNL A   1      37.732  35.513  41.781  1.00  0.00    -0.237 OA
ATOM    102  O   UNL A   1      40.168  35.834  42.056  1.00  0.00    -0.237 OA
ATOM    103  O   UNL A   1      38.831  37.514  40.844  1.00  0.00    -0.744 OA
ENDBRANCH  99 100
ENDBRANCH  67  92
ENDBRANCH  41  42
ENDBRANCH  33  36
ENDBRANCH  31  32
ENDBRANCH  30  31
ENDBRANCH   1  30
TORSDOF 19
ENDMDL
