MODEL 1
REMARK VINA RESULT:     -10.9      0.000      0.000
REMARK SMILES CC(C)(C)c1cc(NC(=O)CSC[C@H]([NH3+])C(=O)NCCCCNC(=O)c2ccc(-c3c4nc(c(-c5c(F)cc(S(=O)(=O)[O-])cc5F)c5ccc([nH]5)c(-c5c(F)cc(S(=O)(=O)[O-])cc5F)c5nc(c(-c6c(F)cc(S(=O)(=O)[O-])cc6F)c6ccc3[nH]6)C=C5)C=C4)cc2)on1
REMARK SMILES IDX 19 1 18 2 16 3 17 4 14 6 13 7 12 8 11 9 9 10 8 11 10 13 7 14
REMARK SMILES IDX 5 15 6 16 93 17 92 18 2 19 1 20 3 21 4 22 15 23 20 27 21 28
REMARK SMILES IDX 22 29 23 30 24 31 25 33 26 34 27 35 91 36 28 37 90 38 29 39
REMARK SMILES IDX 30 40 31 41 84 42 32 43 89 44 83 45 85 46 33 47 88 48 82 49
REMARK SMILES IDX 81 50 34 52 68 53 47 54 67 55 48 56 51 57 66 58 86 59 49 60
REMARK SMILES IDX 50 61 65 63 87 64 52 65 35 66 36 67 45 68 37 69 38 70 44 71
REMARK SMILES IDX 46 72 39 73 40 74 41 75 42 76 43 77 69 78 70 79 79 80 71 81
REMARK SMILES IDX 72 82 78 83 80 84 73 85 74 86 75 87 76 88 77 89 53 90 54 91
REMARK SMILES IDX 63 92 55 93 56 94 62 95 64 96 57 97 58 98 59 99 60 100
REMARK SMILES IDX 61 101
REMARK H PARENT 18 5 8 12 15 24 15 25 15 26 23 32 85 51 51 62
REMARK Flexibility Score: inf
ROOT
ATOM      1  C   UNL A   1      36.943  21.340  25.417  1.00  0.00     0.116 C 
ENDROOT
BRANCH   1   2
ATOM      2  N   UNL A   1      35.935  21.614  26.422  1.00  0.00    -0.351 N 
ATOM      3  C   UNL A   1      34.581  21.484  26.416  1.00  0.00     0.279 C 
ATOM      4  O   UNL A   1      33.978  21.743  27.461  1.00  0.00    -0.268 OA
ATOM      5  H   UNL A   1      36.299  21.960  27.270  1.00  0.00     0.163 HD
BRANCH   3   6
ATOM      6  C   UNL A   1      33.810  21.039  25.165  1.00  0.00     0.280 C 
BRANCH   6   7
ATOM      7  C   UNL A   1      33.519  22.204  24.208  1.00  0.00     0.145 C 
BRANCH   7   8
ATOM      8  S   UNL A   1      32.152  23.311  24.714  1.00  0.00    -0.145 SA
BRANCH   8   9
ATOM      9  C   UNL A   1      31.794  24.286  23.206  1.00  0.00     0.170 C 
BRANCH   9  10
ATOM     10  C   UNL A   1      33.006  24.807  22.455  1.00  0.00     0.236 C 
ATOM     11  N   UNL A   1      33.660  25.958  22.771  1.00  0.00    -0.294 N 
ATOM     12  H   UNL A   1      34.530  26.093  22.331  1.00  0.00     0.173 HD
ATOM     13  O   UNL A   1      33.439  24.184  21.477  1.00  0.00    -0.274 OA
BRANCH  11  14
ATOM     14  C   UNL A   1      33.261  26.948  23.623  1.00  0.00     0.231 A 
ATOM     15  C   UNL A   1      32.867  28.317  25.308  1.00  0.00     0.091 A 
ATOM     16  C   UNL A   1      33.359  27.025  24.988  1.00  0.00     0.097 A 
ATOM     17  N   UNL A   1      32.479  28.960  24.200  1.00  0.00    -0.082 NA
ATOM     18  O   UNL A   1      32.739  28.105  23.153  1.00  0.00    -0.338 OA
BRANCH  15  19
ATOM     19  C   UNL A   1      32.809  28.991  26.663  1.00  0.00     0.008 C 
ATOM     20  C   UNL A   1      32.269  30.429  26.530  1.00  0.00     0.018 C 
ATOM     21  C   UNL A   1      34.200  29.068  27.328  1.00  0.00     0.018 C 
ATOM     22  C   UNL A   1      31.874  28.187  27.588  1.00  0.00     0.018 C 
ENDBRANCH  15  19
ENDBRANCH  11  14
ENDBRANCH   9  10
ENDBRANCH   8   9
ENDBRANCH   7   8
ENDBRANCH   6   7
BRANCH   6  23
ATOM     23  N   UNL A   1      32.583  20.290  25.545  1.00  0.00    -0.347 N 
ATOM     24  H   UNL A   1      32.822  19.573  26.231  1.00  0.00     0.345 HD
ATOM     25  H   UNL A   1      32.183  19.849  24.718  1.00  0.00     0.345 HD
ATOM     26  H   UNL A   1      31.903  20.934  25.949  1.00  0.00     0.345 HD
ENDBRANCH   6  23
ENDBRANCH   3   6
ENDBRANCH   1   2
BRANCH   1  27
ATOM     27  C   UNL A   1      37.436  22.615  24.741  1.00  0.00     0.023 C 
BRANCH  27  28
ATOM     28  C   UNL A   1      37.297  23.890  25.577  1.00  0.00     0.023 C 
BRANCH  28  29
ATOM     29  C   UNL A   1      38.389  24.124  26.616  1.00  0.00     0.116 C 
BRANCH  29  30
ATOM     30  N   UNL A   1      39.728  24.114  26.048  1.00  0.00    -0.352 N 
ATOM     31  C   UNL A   1      40.822  24.867  26.396  1.00  0.00     0.251 C 
ATOM     32  H   UNL A   1      39.868  23.477  25.310  1.00  0.00     0.163 HD
ATOM     33  O   UNL A   1      41.850  24.792  25.725  1.00  0.00    -0.269 OA
BRANCH  31  34
ATOM     34  C   UNL A   1      40.753  25.788  27.552  1.00  0.00     0.039 A 
ATOM     35  C   UNL A   1      41.707  26.802  27.663  1.00  0.00     0.014 A 
ATOM     36  C   UNL A   1      39.750  25.661  28.517  1.00  0.00     0.014 A 
ATOM     37  C   UNL A   1      41.618  27.729  28.703  1.00  0.00     0.010 A 
ATOM     38  C   UNL A   1      39.623  26.624  29.516  1.00  0.00     0.010 A 
ATOM     39  C   UNL A   1      40.555  27.668  29.621  1.00  0.00    -0.014 A 
BRANCH  39  40
ATOM     40  C   UNL A   1      40.416  28.676  30.705  1.00  0.00     0.031 A 
ATOM     41  C   UNL A   1      41.282  28.586  31.934  1.00  0.00     0.074 A 
ATOM     42  C   UNL A   1      39.485  29.647  30.605  1.00  0.00     0.049 A 
ATOM     43  N   UNL A   1      41.264  29.322  33.015  1.00  0.00    -0.248 NA
ATOM     44  C   UNL A   1      42.289  27.512  31.958  1.00  0.00     0.031 C 
ATOM     45  C   UNL A   1      38.562  29.825  29.482  1.00  0.00     0.029 A 
ATOM     46  N   UNL A   1      39.156  30.666  31.465  1.00  0.00    -0.354 N 
ATOM     47  C   UNL A   1      42.251  28.804  33.844  1.00  0.00     0.074 A 
ATOM     48  C   UNL A   1      42.809  27.653  33.169  1.00  0.00     0.031 C 
ATOM     49  C   UNL A   1      37.787  30.899  29.713  1.00  0.00     0.029 A 
ATOM     50  C   UNL A   1      38.132  31.465  31.013  1.00  0.00     0.049 A 
ATOM     51  H   UNL A   1      39.611  30.810  32.327  1.00  0.00     0.167 HD
ATOM     52  C   UNL A   1      42.676  29.261  35.047  1.00  0.00     0.037 A 
ATOM     53  C   UNL A   1      37.535  32.530  31.584  1.00  0.00     0.037 A 
ATOM     54  C   UNL A   1      42.132  30.417  35.710  1.00  0.00     0.049 A 
ATOM     55  C   UNL A   1      38.012  33.003  32.934  1.00  0.00     0.074 A 
ATOM     56  C   UNL A   1      42.501  30.965  36.926  1.00  0.00     0.029 A 
ATOM     57  N   UNL A   1      41.112  31.211  35.208  1.00  0.00    -0.354 N 
ATOM     58  N   UNL A   1      38.969  32.516  33.689  1.00  0.00    -0.248 NA
ATOM     59  C   UNL A   1      37.334  34.175  33.505  1.00  0.00     0.031 C 
ATOM     60  C   UNL A   1      41.688  32.075  37.172  1.00  0.00     0.029 A 
ATOM     61  C   UNL A   1      40.840  32.244  36.090  1.00  0.00     0.049 A 
ATOM     62  H   UNL A   1      40.649  31.062  34.352  1.00  0.00     0.167 HD
ATOM     63  C   UNL A   1      39.035  33.348  34.801  1.00  0.00     0.074 A 
ATOM     64  C   UNL A   1      38.026  34.370  34.620  1.00  0.00     0.031 C 
ATOM     65  C   UNL A   1      39.856  33.274  35.877  1.00  0.00     0.037 A 
BRANCH  52  66
ATOM     66  C   UNL A   1      43.803  28.524  35.713  1.00  0.00     0.058 A 
ATOM     67  C   UNL A   1      45.140  28.905  35.513  1.00  0.00     0.135 A 
ATOM     68  C   UNL A   1      43.550  27.462  36.597  1.00  0.00     0.135 A 
ATOM     69  F   UNL A   1      45.440  29.901  34.664  1.00  0.00    -0.206 F 
ATOM     70  C   UNL A   1      46.187  28.249  36.151  1.00  0.00     0.059 A 
ATOM     71  C   UNL A   1      44.580  26.808  37.266  1.00  0.00     0.059 A 
ATOM     72  F   UNL A   1      42.291  27.056  36.822  1.00  0.00    -0.206 F 
ATOM     73  C   UNL A   1      45.897  27.202  37.028  1.00  0.00     0.060 A 
BRANCH  73  74
ATOM     74  S   UNL A   1      47.268  26.375  37.861  1.00  0.00     0.124 S 
ATOM     75  O   UNL A   1      46.615  25.871  39.065  1.00  0.00    -0.237 OA
ATOM     76  O   UNL A   1      47.663  25.366  36.884  1.00  0.00    -0.237 OA
ATOM     77  O   UNL A   1      48.234  27.448  38.076  1.00  0.00    -0.744 OA
ENDBRANCH  73  74
ENDBRANCH  52  66
BRANCH  53  78
ATOM     78  C   UNL A   1      36.431  33.243  30.888  1.00  0.00     0.058 A 
ATOM     79  C   UNL A   1      36.701  34.165  29.865  1.00  0.00     0.135 A 
ATOM     80  C   UNL A   1      35.090  33.054  31.258  1.00  0.00     0.135 A 
ATOM     81  F   UNL A   1      37.968  34.385  29.479  1.00  0.00    -0.206 F 
ATOM     82  C   UNL A   1      35.689  34.904  29.262  1.00  0.00     0.059 A 
ATOM     83  C   UNL A   1      34.057  33.760  30.649  1.00  0.00     0.059 A 
ATOM     84  F   UNL A   1      34.775  32.170  32.216  1.00  0.00    -0.206 F 
ATOM     85  C   UNL A   1      34.369  34.700  29.667  1.00  0.00     0.060 A 
BRANCH  85  86
ATOM     86  S   UNL A   1      33.060  35.664  28.881  1.00  0.00     0.124 S 
ATOM     87  O   UNL A   1      32.335  36.170  30.041  1.00  0.00    -0.237 OA
ATOM     88  O   UNL A   1      33.817  36.653  28.121  1.00  0.00    -0.237 OA
ATOM     89  O   UNL A   1      32.353  34.672  28.077  1.00  0.00    -0.744 OA
ENDBRANCH  85  86
ENDBRANCH  53  78
BRANCH  65  90
ATOM     90  C   UNL A   1      39.748  34.361  36.909  1.00  0.00     0.058 A 
ATOM     91  C   UNL A   1      38.906  34.244  38.025  1.00  0.00     0.135 A 
ATOM     92  C   UNL A   1      40.539  35.517  36.800  1.00  0.00     0.135 A 
ATOM     93  F   UNL A   1      38.126  33.162  38.172  1.00  0.00    -0.206 F 
ATOM     94  C   UNL A   1      38.833  35.248  38.986  1.00  0.00     0.059 A 
ATOM     95  C   UNL A   1      40.501  36.520  37.763  1.00  0.00     0.059 A 
ATOM     96  F   UNL A   1      41.370  35.672  35.758  1.00  0.00    -0.206 F 
ATOM     97  C   UNL A   1      39.635  36.382  38.847  1.00  0.00     0.060 A 
BRANCH  97  98
ATOM     98  S   UNL A   1      39.557  37.662  40.118  1.00  0.00     0.124 S 
ATOM     99  O   UNL A   1      39.168  36.887  41.291  1.00  0.00    -0.237 OA
ATOM    100  O   UNL A   1      40.921  38.180  40.124  1.00  0.00    -0.237 OA
ATOM    101  O   UNL A   1      38.545  38.583  39.609  1.00  0.00    -0.744 OA
ENDBRANCH  97  98
ENDBRANCH  65  90
ENDBRANCH  39  40
ENDBRANCH  31  34
ENDBRANCH  29  30
ENDBRANCH  28  29
ENDBRANCH  27  28
ENDBRANCH   1  27
TORSDOF 21
ENDMDL
MODEL 2
REMARK VINA RESULT:     -10.7      2.085      3.864
REMARK SMILES CC(C)(C)c1cc(NC(=O)CSC[C@H]([NH3+])C(=O)NCCCCNC(=O)c2ccc(-c3c4nc(c(-c5c(F)cc(S(=O)(=O)[O-])cc5F)c5ccc([nH]5)c(-c5c(F)cc(S(=O)(=O)[O-])cc5F)c5nc(c(-c6c(F)cc(S(=O)(=O)[O-])cc6F)c6ccc3[nH]6)C=C5)C=C4)cc2)on1
REMARK SMILES IDX 19 1 18 2 16 3 17 4 14 6 13 7 12 8 11 9 9 10 8 11 10 13 7 14
REMARK SMILES IDX 5 15 6 16 93 17 92 18 2 19 1 20 3 21 4 22 15 23 20 27 21 28
REMARK SMILES IDX 22 29 23 30 24 31 25 33 26 34 27 35 91 36 28 37 90 38 29 39
REMARK SMILES IDX 30 40 31 41 84 42 32 43 89 44 83 45 85 46 33 47 88 48 82 49
REMARK SMILES IDX 81 50 34 52 68 53 47 54 67 55 48 56 51 57 66 58 86 59 49 60
REMARK SMILES IDX 50 61 65 63 87 64 52 65 35 66 36 67 45 68 37 69 38 70 44 71
REMARK SMILES IDX 46 72 39 73 40 74 41 75 42 76 43 77 69 78 70 79 79 80 71 81
REMARK SMILES IDX 72 82 78 83 80 84 73 85 74 86 75 87 76 88 77 89 53 90 54 91
REMARK SMILES IDX 63 92 55 93 56 94 62 95 64 96 57 97 58 98 59 99 60 100
REMARK SMILES IDX 61 101
REMARK H PARENT 18 5 8 12 15 24 15 25 15 26 23 32 85 51 51 62
REMARK Flexibility Score: inf
ROOT
ATOM      1  C   UNL A   1      40.430  22.142  27.626  1.00  0.00     0.116 C 
ENDROOT
BRANCH   1   2
ATOM      2  N   UNL A   1      39.647  21.509  26.581  1.00  0.00    -0.351 N 
ATOM      3  C   UNL A   1      38.575  21.933  25.860  1.00  0.00     0.279 C 
ATOM      4  O   UNL A   1      38.149  21.183  24.977  1.00  0.00    -0.268 OA
ATOM      5  H   UNL A   1      39.950  20.600  26.351  1.00  0.00     0.163 HD
BRANCH   3   6
ATOM      6  C   UNL A   1      37.900  23.287  26.121  1.00  0.00     0.280 C 
BRANCH   6   7
ATOM      7  C   UNL A   1      36.524  23.396  25.448  1.00  0.00     0.145 C 
BRANCH   7   8
ATOM      8  S   UNL A   1      35.089  23.103  26.546  1.00  0.00    -0.145 SA
BRANCH   8   9
ATOM      9  C   UNL A   1      33.663  23.727  25.582  1.00  0.00     0.170 C 
BRANCH   9  10
ATOM     10  C   UNL A   1      32.293  23.320  26.093  1.00  0.00     0.236 C 
ATOM     11  N   UNL A   1      31.793  22.058  26.011  1.00  0.00    -0.294 N 
ATOM     12  H   UNL A   1      30.980  21.881  26.537  1.00  0.00     0.173 HD
ATOM     13  O   UNL A   1      31.549  24.169  26.603  1.00  0.00    -0.274 OA
BRANCH  11  14
ATOM     14  C   UNL A   1      32.280  21.004  25.292  1.00  0.00     0.231 A 
ATOM     15  C   UNL A   1      33.075  19.088  24.538  1.00  0.00     0.091 A 
ATOM     16  C   UNL A   1      32.857  19.837  25.724  1.00  0.00     0.097 A 
ATOM     17  N   UNL A   1      32.671  19.778  23.465  1.00  0.00    -0.082 NA
ATOM     18  O   UNL A   1      32.166  20.966  23.944  1.00  0.00    -0.338 OA
BRANCH  15  19
ATOM     19  C   UNL A   1      33.615  17.680  24.403  1.00  0.00     0.008 C 
ATOM     20  C   UNL A   1      33.204  17.069  23.049  1.00  0.00     0.018 C 
ATOM     21  C   UNL A   1      33.089  16.752  25.520  1.00  0.00     0.018 C 
ATOM     22  C   UNL A   1      35.154  17.718  24.490  1.00  0.00     0.018 C 
ENDBRANCH  15  19
ENDBRANCH  11  14
ENDBRANCH   9  10
ENDBRANCH   8   9
ENDBRANCH   7   8
ENDBRANCH   6   7
BRANCH   6  23
ATOM     23  N   UNL A   1      38.809  24.404  25.751  1.00  0.00    -0.347 N 
ATOM     24  H   UNL A   1      39.687  24.312  26.263  1.00  0.00     0.345 HD
ATOM     25  H   UNL A   1      38.369  25.293  25.988  1.00  0.00     0.345 HD
ATOM     26  H   UNL A   1      38.994  24.374  24.748  1.00  0.00     0.345 HD
ENDBRANCH   6  23
ENDBRANCH   3   6
ENDBRANCH   1   2
BRANCH   1  27
ATOM     27  C   UNL A   1      41.897  21.732  27.567  1.00  0.00     0.023 C 
BRANCH  27  28
ATOM     28  C   UNL A   1      42.824  22.499  28.515  1.00  0.00     0.023 C 
BRANCH  28  29
ATOM     29  C   UNL A   1      43.648  23.614  27.878  1.00  0.00     0.116 C 
BRANCH  29  30
ATOM     30  N   UNL A   1      43.132  24.036  26.585  1.00  0.00    -0.352 N 
ATOM     31  C   UNL A   1      42.354  25.124  26.276  1.00  0.00     0.251 C 
ATOM     32  H   UNL A   1      43.377  23.459  25.824  1.00  0.00     0.163 HD
ATOM     33  O   UNL A   1      41.926  25.260  25.132  1.00  0.00    -0.269 OA
BRANCH  31  34
ATOM     34  C   UNL A   1      42.006  26.110  27.323  1.00  0.00     0.039 A 
ATOM     35  C   UNL A   1      40.989  25.799  28.228  1.00  0.00     0.014 A 
ATOM     36  C   UNL A   1      42.683  27.329  27.421  1.00  0.00     0.014 A 
ATOM     37  C   UNL A   1      40.694  26.680  29.271  1.00  0.00     0.010 A 
ATOM     38  C   UNL A   1      42.433  28.176  28.499  1.00  0.00     0.010 A 
ATOM     39  C   UNL A   1      41.436  27.862  29.435  1.00  0.00    -0.014 A 
BRANCH  39  40
ATOM     40  C   UNL A   1      41.170  28.786  30.569  1.00  0.00     0.031 A 
ATOM     41  C   UNL A   1      42.016  28.713  31.814  1.00  0.00     0.074 A 
ATOM     42  C   UNL A   1      40.147  29.662  30.499  1.00  0.00     0.049 A 
ATOM     43  N   UNL A   1      41.899  29.379  32.933  1.00  0.00    -0.248 NA
ATOM     44  C   UNL A   1      43.127  27.747  31.805  1.00  0.00     0.031 C 
ATOM     45  C   UNL A   1      39.234  29.810  29.363  1.00  0.00     0.029 A 
ATOM     46  N   UNL A   1      39.698  30.590  31.405  1.00  0.00    -0.354 N 
ATOM     47  C   UNL A   1      42.916  28.916  33.759  1.00  0.00     0.074 A 
ATOM     48  C   UNL A   1      43.604  27.869  33.035  1.00  0.00     0.031 C 
ATOM     49  C   UNL A   1      38.349  30.785  29.632  1.00  0.00     0.029 A 
ATOM     50  C   UNL A   1      38.607  31.306  30.971  1.00  0.00     0.049 A 
ATOM     51  H   UNL A   1      40.117  30.729  32.285  1.00  0.00     0.167 HD
ATOM     52  C   UNL A   1      43.267  29.343  34.996  1.00  0.00     0.037 A 
ATOM     53  C   UNL A   1      37.892  32.270  31.584  1.00  0.00     0.037 A 
ATOM     54  C   UNL A   1      42.594  30.398  35.707  1.00  0.00     0.049 A 
ATOM     55  C   UNL A   1      38.289  32.710  32.970  1.00  0.00     0.074 A 
ATOM     56  C   UNL A   1      42.879  30.908  36.962  1.00  0.00     0.029 A 
ATOM     57  N   UNL A   1      41.508  31.112  35.223  1.00  0.00    -0.354 N 
ATOM     58  N   UNL A   1      39.275  32.280  33.722  1.00  0.00    -0.248 NA
ATOM     59  C   UNL A   1      37.482  33.772  33.588  1.00  0.00     0.031 C 
ATOM     60  C   UNL A   1      41.951  31.915  37.247  1.00  0.00     0.029 A 
ATOM     61  C   UNL A   1      41.113  32.060  36.154  1.00  0.00     0.049 A 
ATOM     62  H   UNL A   1      41.081  30.967  34.348  1.00  0.00     0.167 HD
ATOM     63  C   UNL A   1      39.231  33.048  34.881  1.00  0.00     0.074 A 
ATOM     64  C   UNL A   1      38.127  33.971  34.729  1.00  0.00     0.031 C 
ATOM     65  C   UNL A   1      40.033  32.995  35.972  1.00  0.00     0.037 A 
BRANCH  52  66
ATOM     66  C   UNL A   1      44.450  28.687  35.650  1.00  0.00     0.058 A 
ATOM     67  C   UNL A   1      45.755  29.162  35.439  1.00  0.00     0.135 A 
ATOM     68  C   UNL A   1      44.281  27.608  36.534  1.00  0.00     0.135 A 
ATOM     69  F   UNL A   1      45.975  30.178  34.590  1.00  0.00    -0.206 F 
ATOM     70  C   UNL A   1      46.851  28.581  36.066  1.00  0.00     0.059 A 
ATOM     71  C   UNL A   1      45.361  27.028  37.191  1.00  0.00     0.059 A 
ATOM     72  F   UNL A   1      43.055  27.113  36.769  1.00  0.00    -0.206 F 
ATOM     73  C   UNL A   1      46.644  27.515  36.943  1.00  0.00     0.060 A 
BRANCH  73  74
ATOM     74  S   UNL A   1      48.078  26.785  37.761  1.00  0.00     0.124 S 
ATOM     75  O   UNL A   1      47.872  27.210  39.143  1.00  0.00    -0.237 OA
ATOM     76  O   UNL A   1      47.894  25.361  37.502  1.00  0.00    -0.237 OA
ATOM     77  O   UNL A   1      49.211  27.403  37.079  1.00  0.00    -0.744 OA
ENDBRANCH  73  74
ENDBRANCH  52  66
BRANCH  53  78
ATOM     78  C   UNL A   1      36.734  32.907  30.900  1.00  0.00     0.058 A 
ATOM     79  C   UNL A   1      36.931  33.815  29.847  1.00  0.00     0.135 A 
ATOM     80  C   UNL A   1      35.415  32.658  31.308  1.00  0.00     0.135 A 
ATOM     81  F   UNL A   1      38.175  34.090  29.423  1.00  0.00    -0.206 F 
ATOM     82  C   UNL A   1      35.867  34.485  29.253  1.00  0.00     0.059 A 
ATOM     83  C   UNL A   1      34.332  33.294  30.709  1.00  0.00     0.059 A 
ATOM     84  F   UNL A   1      35.171  31.784  32.296  1.00  0.00    -0.206 F 
ATOM     85  C   UNL A   1      34.570  34.223  29.696  1.00  0.00     0.060 A 
BRANCH  85  86
ATOM     86  S   UNL A   1      33.194  35.097  28.921  1.00  0.00     0.124 S 
ATOM     87  O   UNL A   1      33.868  36.259  28.353  1.00  0.00    -0.237 OA
ATOM     88  O   UNL A   1      32.702  34.113  27.963  1.00  0.00    -0.237 OA
ATOM     89  O   UNL A   1      32.300  35.372  30.042  1.00  0.00    -0.744 OA
ENDBRANCH  85  86
ENDBRANCH  53  78
BRANCH  65  90
ATOM     90  C   UNL A   1      39.793  34.003  37.060  1.00  0.00     0.058 A 
ATOM     91  C   UNL A   1      39.058  33.691  38.213  1.00  0.00     0.135 A 
ATOM     92  C   UNL A   1      40.350  35.290  36.964  1.00  0.00     0.135 A 
ATOM     93  F   UNL A   1      38.500  32.478  38.350  1.00  0.00    -0.206 F 
ATOM     94  C   UNL A   1      38.862  34.626  39.224  1.00  0.00     0.059 A 
ATOM     95  C   UNL A   1      40.189  36.232  37.975  1.00  0.00     0.059 A 
ATOM     96  F   UNL A   1      41.071  35.636  35.887  1.00  0.00    -0.206 F 
ATOM     97  C   UNL A   1      39.433  35.894  39.097  1.00  0.00     0.060 A 
BRANCH  97  98
ATOM     98  S   UNL A   1      39.200  37.089  40.430  1.00  0.00     0.124 S 
ATOM     99  O   UNL A   1      40.573  37.510  40.689  1.00  0.00    -0.237 OA
ATOM    100  O   UNL A   1      38.337  38.088  39.808  1.00  0.00    -0.237 OA
ATOM    101  O   UNL A   1      38.574  36.300  41.487  1.00  0.00    -0.744 OA
ENDBRANCH  97  98
ENDBRANCH  65  90
ENDBRANCH  39  40
ENDBRANCH  31  34
ENDBRANCH  29  30
ENDBRANCH  28  29
ENDBRANCH  27  28
ENDBRANCH   1  27
TORSDOF 21
ENDMDL
MODEL 3
REMARK VINA RESULT:     -10.7      0.664      8.248
REMARK SMILES CC(C)(C)c1cc(NC(=O)CSC[C@H]([NH3+])C(=O)NCCCCNC(=O)c2ccc(-c3c4nc(c(-c5c(F)cc(S(=O)(=O)[O-])cc5F)c5ccc([nH]5)c(-c5c(F)cc(S(=O)(=O)[O-])cc5F)c5nc(c(-c6c(F)cc(S(=O)(=O)[O-])cc6F)c6ccc3[nH]6)C=C5)C=C4)cc2)on1
REMARK SMILES IDX 19 1 18 2 16 3 17 4 14 6 13 7 12 8 11 9 9 10 8 11 10 13 7 14
REMARK SMILES IDX 5 15 6 16 93 17 92 18 2 19 1 20 3 21 4 22 15 23 20 27 21 28
REMARK SMILES IDX 22 29 23 30 24 31 25 33 26 34 27 35 91 36 28 37 90 38 29 39
REMARK SMILES IDX 30 40 31 41 84 42 32 43 89 44 83 45 85 46 33 47 88 48 82 49
REMARK SMILES IDX 81 50 34 52 68 53 47 54 67 55 48 56 51 57 66 58 86 59 49 60
REMARK SMILES IDX 50 61 65 63 87 64 52 65 35 66 36 67 45 68 37 69 38 70 44 71
REMARK SMILES IDX 46 72 39 73 40 74 41 75 42 76 43 77 69 78 70 79 79 80 71 81
REMARK SMILES IDX 72 82 78 83 80 84 73 85 74 86 75 87 76 88 77 89 53 90 54 91
REMARK SMILES IDX 63 92 55 93 56 94 62 95 64 96 57 97 58 98 59 99 60 100
REMARK SMILES IDX 61 101
REMARK H PARENT 18 5 8 12 15 24 15 25 15 26 23 32 85 51 51 62
REMARK Flexibility Score: inf
ROOT
ATOM      1  C   UNL A   1      36.752  21.787  25.520  1.00  0.00     0.116 C 
ENDROOT
BRANCH   1   2
ATOM      2  N   UNL A   1      35.722  21.932  26.530  1.00  0.00    -0.351 N 
ATOM      3  C   UNL A   1      34.478  21.396  26.647  1.00  0.00     0.279 C 
ATOM      4  O   UNL A   1      33.837  21.659  27.669  1.00  0.00    -0.268 OA
ATOM      5  H   UNL A   1      35.970  22.532  27.270  1.00  0.00     0.163 HD
BRANCH   3   6
ATOM      6  C   UNL A   1      33.869  20.499  25.559  1.00  0.00     0.280 C 
BRANCH   6   7
ATOM      7  C   UNL A   1      33.274  21.308  24.397  1.00  0.00     0.145 C 
BRANCH   7   8
ATOM      8  S   UNL A   1      32.225  22.726  24.885  1.00  0.00    -0.145 SA
BRANCH   8   9
ATOM      9  C   UNL A   1      31.919  23.609  23.311  1.00  0.00     0.170 C 
BRANCH   9  10
ATOM     10  C   UNL A   1      33.152  24.138  22.601  1.00  0.00     0.236 C 
ATOM     11  N   UNL A   1      33.737  25.334  22.880  1.00  0.00    -0.294 N 
ATOM     12  H   UNL A   1      34.626  25.481  22.484  1.00  0.00     0.173 HD
ATOM     13  O   UNL A   1      33.671  23.475  21.693  1.00  0.00    -0.274 OA
BRANCH  11  14
ATOM     14  C   UNL A   1      33.245  26.357  23.639  1.00  0.00     0.231 A 
ATOM     15  C   UNL A   1      32.749  27.856  25.182  1.00  0.00     0.091 A 
ATOM     16  C   UNL A   1      33.409  26.616  24.976  1.00  0.00     0.097 A 
ATOM     17  N   UNL A   1      32.206  28.294  24.039  1.00  0.00    -0.082 NA
ATOM     18  O   UNL A   1      32.529  27.360  23.081  1.00  0.00    -0.338 OA
BRANCH  15  19
ATOM     19  C   UNL A   1      32.670  28.678  26.450  1.00  0.00     0.008 C 
ATOM     20  C   UNL A   1      31.937  30.008  26.189  1.00  0.00     0.018 C 
ATOM     21  C   UNL A   1      34.071  29.012  27.008  1.00  0.00     0.018 C 
ATOM     22  C   UNL A   1      31.900  27.882  27.522  1.00  0.00     0.018 C 
ENDBRANCH  15  19
ENDBRANCH  11  14
ENDBRANCH   9  10
ENDBRANCH   8   9
ENDBRANCH   7   8
ENDBRANCH   6   7
BRANCH   6  23
ATOM     23  N   UNL A   1      32.896  19.545  26.152  1.00  0.00    -0.347 N 
ATOM     24  H   UNL A   1      32.152  20.065  26.618  1.00  0.00     0.345 HD
ATOM     25  H   UNL A   1      33.371  18.950  26.830  1.00  0.00     0.345 HD
ATOM     26  H   UNL A   1      32.495  18.965  25.414  1.00  0.00     0.345 HD
ENDBRANCH   6  23
ENDBRANCH   3   6
ENDBRANCH   1   2
BRANCH   1  27
ATOM     27  C   UNL A   1      37.389  23.125  25.158  1.00  0.00     0.023 C 
BRANCH  27  28
ATOM     28  C   UNL A   1      37.768  24.008  26.350  1.00  0.00     0.023 C 
BRANCH  28  29
ATOM     29  C   UNL A   1      39.185  23.825  26.885  1.00  0.00     0.116 C 
BRANCH  29  30
ATOM     30  N   UNL A   1      40.205  24.350  25.990  1.00  0.00    -0.352 N 
ATOM     31  C   UNL A   1      40.999  25.460  26.137  1.00  0.00     0.251 C 
ATOM     32  H   UNL A   1      40.345  23.835  25.162  1.00  0.00     0.163 HD
ATOM     33  O   UNL A   1      41.737  25.806  25.218  1.00  0.00    -0.269 OA
BRANCH  31  34
ATOM     34  C   UNL A   1      40.941  26.254  27.385  1.00  0.00     0.039 A 
ATOM     35  C   UNL A   1      41.953  27.185  27.638  1.00  0.00     0.014 A 
ATOM     36  C   UNL A   1      39.893  26.093  28.295  1.00  0.00     0.014 A 
ATOM     37  C   UNL A   1      41.880  27.999  28.770  1.00  0.00     0.010 A 
ATOM     38  C   UNL A   1      39.788  26.950  29.390  1.00  0.00     0.010 A 
ATOM     39  C   UNL A   1      40.780  27.911  29.640  1.00  0.00    -0.014 A 
BRANCH  39  40
ATOM     40  C   UNL A   1      40.660  28.805  30.822  1.00  0.00     0.031 A 
ATOM     41  C   UNL A   1      39.643  29.916  30.826  1.00  0.00     0.074 A 
ATOM     42  C   UNL A   1      41.491  28.647  31.872  1.00  0.00     0.049 A 
ATOM     43  N   UNL A   1      39.432  30.842  31.726  1.00  0.00    -0.248 NA
ATOM     44  C   UNL A   1      38.759  30.010  29.652  1.00  0.00     0.031 C 
ATOM     45  C   UNL A   1      42.540  27.631  31.979  1.00  0.00     0.029 A 
ATOM     46  N   UNL A   1      41.588  29.344  33.052  1.00  0.00    -0.354 N 
ATOM     47  C   UNL A   1      38.397  31.624  31.231  1.00  0.00     0.074 A 
ATOM     48  C   UNL A   1      38.061  31.103  29.923  1.00  0.00     0.031 C 
ATOM     49  C   UNL A   1      43.160  27.757  33.165  1.00  0.00     0.029 A 
ATOM     50  C   UNL A   1      42.577  28.883  33.888  1.00  0.00     0.049 A 
ATOM     51  H   UNL A   1      41.003  30.104  33.277  1.00  0.00     0.167 HD
ATOM     52  C   UNL A   1      37.761  32.664  31.822  1.00  0.00     0.037 A 
ATOM     53  C   UNL A   1      42.975  29.322  35.099  1.00  0.00     0.037 A 
ATOM     54  C   UNL A   1      38.083  33.171  33.129  1.00  0.00     0.049 A 
ATOM     55  C   UNL A   1      42.265  30.497  35.723  1.00  0.00     0.074 A 
ATOM     56  C   UNL A   1      37.491  34.215  33.819  1.00  0.00     0.029 A 
ATOM     57  N   UNL A   1      39.076  32.662  33.953  1.00  0.00    -0.354 N 
ATOM     58  N   UNL A   1      41.267  31.205  35.250  1.00  0.00    -0.248 NA
ATOM     59  C   UNL A   1      42.731  30.927  37.050  1.00  0.00     0.031 C 
ATOM     60  C   UNL A   1      38.142  34.354  35.048  1.00  0.00     0.029 A 
ATOM     61  C   UNL A   1      39.113  33.371  35.143  1.00  0.00     0.049 A 
ATOM     62  H   UNL A   1      39.668  31.909  33.725  1.00  0.00     0.167 HD
ATOM     63  C   UNL A   1      40.959  32.134  36.239  1.00  0.00     0.074 A 
ATOM     64  C   UNL A   1      41.872  31.896  37.336  1.00  0.00     0.031 C 
ATOM     65  C   UNL A   1      40.006  33.098  36.239  1.00  0.00     0.037 A 
BRANCH  52  66
ATOM     66  C   UNL A   1      36.632  33.310  31.068  1.00  0.00     0.058 A 
ATOM     67  C   UNL A   1      35.294  33.093  31.433  1.00  0.00     0.135 A 
ATOM     68  C   UNL A   1      36.885  34.193  30.005  1.00  0.00     0.135 A 
ATOM     69  F   UNL A   1      34.995  32.244  32.430  1.00  0.00    -0.206 F 
ATOM     70  C   UNL A   1      34.246  33.712  30.762  1.00  0.00     0.059 A 
ATOM     71  C   UNL A   1      35.853  34.843  29.335  1.00  0.00     0.059 A 
ATOM     72  F   UNL A   1      38.146  34.435  29.612  1.00  0.00    -0.206 F 
ATOM     73  C   UNL A   1      34.535  34.587  29.714  1.00  0.00     0.060 A 
BRANCH  73  74
ATOM     74  S   UNL A   1      33.162  35.396  28.866  1.00  0.00     0.124 S 
ATOM     75  O   UNL A   1      32.400  35.929  29.992  1.00  0.00    -0.237 OA
ATOM     76  O   UNL A   1      33.845  36.384  28.038  1.00  0.00    -0.237 OA
ATOM     77  O   UNL A   1      32.522  34.305  28.138  1.00  0.00    -0.744 OA
ENDBRANCH  73  74
ENDBRANCH  52  66
BRANCH  53  78
ATOM     78  C   UNL A   1      44.087  28.649  35.822  1.00  0.00     0.058 A 
ATOM     79  C   UNL A   1      45.420  29.032  35.609  1.00  0.00     0.135 A 
ATOM     80  C   UNL A   1      43.847  27.585  36.705  1.00  0.00     0.135 A 
ATOM     81  F   UNL A   1      45.701  30.042  34.771  1.00  0.00    -0.206 F 
ATOM     82  C   UNL A   1      46.478  28.359  36.211  1.00  0.00     0.059 A 
ATOM     83  C   UNL A   1      44.888  26.914  37.341  1.00  0.00     0.059 A 
ATOM     84  F   UNL A   1      42.590  27.192  36.959  1.00  0.00    -0.206 F 
ATOM     85  C   UNL A   1      46.202  27.295  37.070  1.00  0.00     0.060 A 
BRANCH  85  86
ATOM     86  S   UNL A   1      47.580  26.423  37.846  1.00  0.00     0.124 S 
ATOM     87  O   UNL A   1      48.645  26.636  36.872  1.00  0.00    -0.237 OA
ATOM     88  O   UNL A   1      47.722  27.134  39.112  1.00  0.00    -0.237 OA
ATOM     89  O   UNL A   1      47.089  25.053  37.955  1.00  0.00    -0.744 OA
ENDBRANCH  85  86
ENDBRANCH  53  78
BRANCH  65  90
ATOM     90  C   UNL A   1      39.854  33.923  37.485  1.00  0.00     0.058 A 
ATOM     91  C   UNL A   1      40.583  35.104  37.687  1.00  0.00     0.135 A 
ATOM     92  C   UNL A   1      38.925  33.547  38.471  1.00  0.00     0.135 A 
ATOM     93  F   UNL A   1      41.486  35.503  36.779  1.00  0.00    -0.206 F 
ATOM     94  C   UNL A   1      40.416  35.873  38.835  1.00  0.00     0.059 A 
ATOM     95  C   UNL A   1      38.724  34.315  39.614  1.00  0.00     0.059 A 
ATOM     96  F   UNL A   1      38.194  32.433  38.321  1.00  0.00    -0.206 F 
ATOM     97  C   UNL A   1      39.483  35.470  39.792  1.00  0.00     0.060 A 
BRANCH  97  98
ATOM     98  S   UNL A   1      39.251  36.493  41.262  1.00  0.00     0.124 S 
ATOM     99  O   UNL A   1      38.748  37.733  40.680  1.00  0.00    -0.237 OA
ATOM    100  O   UNL A   1      38.284  35.717  42.033  1.00  0.00    -0.237 OA
ATOM    101  O   UNL A   1      40.590  36.567  41.839  1.00  0.00    -0.744 OA
ENDBRANCH  97  98
ENDBRANCH  65  90
ENDBRANCH  39  40
ENDBRANCH  31  34
ENDBRANCH  29  30
ENDBRANCH  28  29
ENDBRANCH  27  28
ENDBRANCH   1  27
TORSDOF 21
ENDMDL
