MODEL 1
REMARK VINA RESULT:     -12.4      0.000      0.000
REMARK SMILES N#CCOc1ccc2[nH]cc([C@H](C(=O)NCCCCNC(=O)c3ccc(-c4c5nc(c(-c6c(F)cc(S(=O)(=O)[O-])cc6F)c6ccc([nH]6)c(-c6c(F)cc(S(=O)(=O)[O-])cc6F)c6nc(c(-c7c(F)cc(S(=O)(=O)[O-])cc7F)c7ccc4[nH]7)C=C6)C=C5)cc3)[NH+]3CC[NH+]([C@@H]4CCS(=O)(=O)C4)CC3)c2c1
REMARK SMILES IDX 17 1 16 2 15 3 13 4 14 5 12 7 11 8 5 9 6 10 103 11 7 12
REMARK SMILES IDX 102 13 8 14 9 15 10 16 4 18 3 19 2 20 1 21 89 22 90 23
REMARK SMILES IDX 101 24 91 26 100 27 92 28 93 30 94 31 99 32 95 33 96 34
REMARK SMILES IDX 97 35 98 36 18 37 19 38 20 39 21 40 22 42 23 43 24 44 88 45
REMARK SMILES IDX 25 46 87 47 26 48 27 49 28 50 81 51 29 52 86 53 80 54 82 55
REMARK SMILES IDX 30 56 85 57 79 58 78 59 31 61 65 62 44 63 64 64 45 65 48 66
REMARK SMILES IDX 63 67 83 68 46 69 47 70 62 72 84 73 49 74 32 75 33 76 42 77
REMARK SMILES IDX 34 78 35 79 41 80 43 81 36 82 37 83 38 84 39 85 40 86 66 87
REMARK SMILES IDX 67 88 76 89 68 90 69 91 75 92 77 93 70 94 71 95 72 96 73 97
REMARK SMILES IDX 74 98 50 99 51 100 60 101 52 102 53 103 59 104 61 105 54 106
REMARK SMILES IDX 55 107 56 108 57 109 58 110
REMARK H PARENT 15 6 9 17 89 25 92 29 20 41 82 60 48 71
REMARK Flexibility Score: inf
ROOT
ATOM      1  C   UNL A   1      33.322  28.373  24.335  1.00  0.00     0.023 C 
ENDROOT
BRANCH   1   2
ATOM      2  C   UNL A   1      33.992  28.241  22.970  1.00  0.00     0.116 C 
BRANCH   2   3
ATOM      3  N   UNL A   1      33.047  27.729  22.006  1.00  0.00    -0.351 N 
ATOM      4  C   UNL A   1      32.063  26.805  22.159  1.00  0.00     0.283 C 
ATOM      5  O   UNL A   1      31.588  26.353  21.113  1.00  0.00    -0.268 OA
ATOM      6  H   UNL A   1      33.129  28.107  21.100  1.00  0.00     0.163 HD
BRANCH   4   7
ATOM      7  C   UNL A   1      31.573  26.408  23.568  1.00  0.00     0.308 C 
BRANCH   7   8
ATOM      8  C   UNL A   1      30.091  26.647  23.759  1.00  0.00     0.045 A 
ATOM      9  C   UNL A   1      28.905  30.162  22.939  1.00  0.00     0.121 A 
ATOM     10  C   UNL A   1      27.565  29.800  22.782  1.00  0.00     0.048 A 
ATOM     11  C   UNL A   1      29.802  29.218  23.382  1.00  0.00     0.057 A 
ATOM     12  C   UNL A   1      27.082  28.553  23.212  1.00  0.00     0.030 A 
ATOM     13  C   UNL A   1      29.395  27.891  23.610  1.00  0.00     0.013 A 
ATOM     14  C   UNL A   1      28.032  27.608  23.598  1.00  0.00     0.046 A 
ATOM     15  N   UNL A   1      27.892  26.295  23.981  1.00  0.00    -0.361 N 
ATOM     16  C   UNL A   1      29.123  25.696  24.045  1.00  0.00     0.094 A 
ATOM     17  H   UNL A   1      27.036  25.853  24.180  1.00  0.00     0.166 HD
BRANCH   9  18
ATOM     18  O   UNL A   1      29.472  31.365  22.564  1.00  0.00    -0.479 OA
BRANCH  18  19
ATOM     19  C   UNL A   1      28.694  32.522  22.968  1.00  0.00     0.349 C 
BRANCH  19  20
ATOM     20  C   UNL A   1      28.036  33.000  21.685  1.00  0.00     0.104 C 
ATOM     21  N   UNL A   1      27.491  33.397  20.619  1.00  0.00    -0.195 NA
ENDBRANCH  19  20
ENDBRANCH  18  19
ENDBRANCH   9  18
ENDBRANCH   7   8
BRANCH   7  22
ATOM     22  N   UNL A   1      31.967  25.020  23.920  1.00  0.00    -0.312 N 
ATOM     23  C   UNL A   1      33.324  24.589  23.531  1.00  0.00     0.325 C 
ATOM     24  C   UNL A   1      31.660  24.740  25.334  1.00  0.00     0.325 C 
ATOM     25  H   UNL A   1      31.386  24.432  23.324  1.00  0.00     0.349 HD
ATOM     26  C   UNL A   1      34.440  24.511  24.608  1.00  0.00     0.324 C 
ATOM     27  C   UNL A   1      32.817  24.896  26.337  1.00  0.00     0.324 C 
ATOM     28  N   UNL A   1      34.019  24.159  25.971  1.00  0.00    -0.322 N 
ATOM     29  H   UNL A   1      34.731  24.497  26.619  1.00  0.00     0.348 HD
BRANCH  28  30
ATOM     30  C   UNL A   1      34.152  22.757  26.363  1.00  0.00     0.200 C 
ATOM     31  C   UNL A   1      35.121  21.835  25.600  1.00  0.00     0.082 C 
ATOM     32  C   UNL A   1      32.813  22.010  26.466  1.00  0.00     0.201 C 
ATOM     33  C   UNL A   1      34.386  21.034  24.538  1.00  0.00     0.143 C 
ATOM     34  S   UNL A   1      32.674  21.003  25.001  1.00  0.00     0.156 S 
ATOM     35  O   UNL A   1      31.924  21.702  23.980  1.00  0.00    -0.229 OA
ATOM     36  O   UNL A   1      32.335  19.649  25.396  1.00  0.00    -0.229 OA
ENDBRANCH  28  30
ENDBRANCH   7  22
ENDBRANCH   4   7
ENDBRANCH   2   3
ENDBRANCH   1   2
BRANCH   1  37
ATOM     37  C   UNL A   1      34.290  28.276  25.520  1.00  0.00     0.023 C 
BRANCH  37  38
ATOM     38  C   UNL A   1      33.642  28.407  26.894  1.00  0.00     0.116 C 
BRANCH  38  39
ATOM     39  N   UNL A   1      33.501  29.791  27.314  1.00  0.00    -0.352 N 
ATOM     40  C   UNL A   1      34.401  30.583  27.979  1.00  0.00     0.251 C 
ATOM     41  H   UNL A   1      32.642  30.217  27.091  1.00  0.00     0.163 HD
ATOM     42  O   UNL A   1      34.066  31.693  28.376  1.00  0.00    -0.269 OA
BRANCH  40  43
ATOM     43  C   UNL A   1      35.759  30.067  28.240  1.00  0.00     0.039 A 
ATOM     44  C   UNL A   1      36.714  30.159  27.227  1.00  0.00     0.014 A 
ATOM     45  C   UNL A   1      36.094  29.533  29.488  1.00  0.00     0.014 A 
ATOM     46  C   UNL A   1      38.027  29.765  27.486  1.00  0.00     0.010 A 
ATOM     47  C   UNL A   1      37.420  29.214  29.766  1.00  0.00     0.010 A 
ATOM     48  C   UNL A   1      38.398  29.323  28.767  1.00  0.00    -0.014 A 
BRANCH  48  49
ATOM     49  C   UNL A   1      39.808  28.973  29.075  1.00  0.00     0.031 A 
ATOM     50  C   UNL A   1      40.713  29.988  29.719  1.00  0.00     0.074 A 
ATOM     51  C   UNL A   1      40.282  27.758  28.735  1.00  0.00     0.049 A 
ATOM     52  N   UNL A   1      41.982  29.888  30.019  1.00  0.00    -0.248 NA
ATOM     53  C   UNL A   1      40.122  31.296  30.046  1.00  0.00     0.031 C 
ATOM     54  C   UNL A   1      39.512  26.705  28.068  1.00  0.00     0.029 A 
ATOM     55  N   UNL A   1      41.526  27.203  28.896  1.00  0.00    -0.354 N 
ATOM     56  C   UNL A   1      42.341  31.115  30.563  1.00  0.00     0.074 A 
ATOM     57  C   UNL A   1      41.173  31.965  30.495  1.00  0.00     0.031 C 
ATOM     58  C   UNL A   1      40.291  25.626  27.903  1.00  0.00     0.029 A 
ATOM     59  C   UNL A   1      41.628  25.920  28.410  1.00  0.00     0.049 A 
ATOM     60  H   UNL A   1      42.277  27.679  29.319  1.00  0.00     0.167 HD
ATOM     61  C   UNL A   1      43.529  31.490  31.097  1.00  0.00     0.037 A 
ATOM     62  C   UNL A   1      42.680  25.080  28.369  1.00  0.00     0.037 A 
ATOM     63  C   UNL A   1      44.681  30.630  31.176  1.00  0.00     0.049 A 
ATOM     64  C   UNL A   1      43.996  25.531  28.945  1.00  0.00     0.074 A 
ATOM     65  C   UNL A   1      45.916  30.900  31.738  1.00  0.00     0.029 A 
ATOM     66  N   UNL A   1      44.743  29.338  30.677  1.00  0.00    -0.354 N 
ATOM     67  N   UNL A   1      44.300  26.674  29.512  1.00  0.00    -0.248 NA
ATOM     68  C   UNL A   1      45.112  24.577  28.881  1.00  0.00     0.031 C 
ATOM     69  C   UNL A   1      46.742  29.791  31.533  1.00  0.00     0.029 A 
ATOM     70  C   UNL A   1      46.004  28.806  30.897  1.00  0.00     0.049 A 
ATOM     71  H   UNL A   1      44.002  28.867  30.233  1.00  0.00     0.167 HD
ATOM     72  C   UNL A   1      45.631  26.565  29.899  1.00  0.00     0.074 A 
ATOM     73  C   UNL A   1      46.069  25.239  29.516  1.00  0.00     0.031 C 
ATOM     74  C   UNL A   1      46.422  27.478  30.518  1.00  0.00     0.037 A 
BRANCH  61  75
ATOM     75  C   UNL A   1      43.641  32.888  31.644  1.00  0.00     0.058 A 
ATOM     76  C   UNL A   1      44.003  33.972  30.828  1.00  0.00     0.135 A 
ATOM     77  C   UNL A   1      43.339  33.155  32.989  1.00  0.00     0.135 A 
ATOM     78  F   UNL A   1      44.319  33.771  29.538  1.00  0.00    -0.206 F 
ATOM     79  C   UNL A   1      44.084  35.266  31.330  1.00  0.00     0.059 A 
ATOM     80  C   UNL A   1      43.383  34.447  33.505  1.00  0.00     0.059 A 
ATOM     81  F   UNL A   1      42.990  32.157  33.816  1.00  0.00    -0.206 F 
ATOM     82  C   UNL A   1      43.769  35.494  32.670  1.00  0.00     0.060 A 
BRANCH  82  83
ATOM     83  S   UNL A   1      43.866  37.184  33.300  1.00  0.00     0.124 S 
ATOM     84  O   UNL A   1      45.137  37.154  34.017  1.00  0.00    -0.237 OA
ATOM     85  O   UNL A   1      43.850  37.973  32.072  1.00  0.00    -0.237 OA
ATOM     86  O   UNL A   1      42.676  37.305  34.136  1.00  0.00    -0.744 OA
ENDBRANCH  82  83
ENDBRANCH  61  75
BRANCH  62  87
ATOM     87  C   UNL A   1      42.534  23.723  27.774  1.00  0.00     0.058 A 
ATOM     88  C   UNL A   1      42.357  22.593  28.586  1.00  0.00     0.135 A 
ATOM     89  C   UNL A   1      42.575  23.527  26.384  1.00  0.00     0.135 A 
ATOM     90  F   UNL A   1      42.316  22.726  29.921  1.00  0.00    -0.206 F 
ATOM     91  C   UNL A   1      42.255  21.315  28.046  1.00  0.00     0.059 A 
ATOM     92  C   UNL A   1      42.444  22.263  25.819  1.00  0.00     0.059 A 
ATOM     93  F   UNL A   1      42.724  24.577  25.561  1.00  0.00    -0.206 F 
ATOM     94  C   UNL A   1      42.298  21.161  26.660  1.00  0.00     0.060 A 
BRANCH  94  95
ATOM     95  S   UNL A   1      42.136  19.500  25.968  1.00  0.00     0.124 S 
ATOM     96  O   UNL A   1      40.698  19.415  25.744  1.00  0.00    -0.237 OA
ATOM     97  O   UNL A   1      42.966  19.586  24.771  1.00  0.00    -0.237 OA
ATOM     98  O   UNL A   1      42.662  18.644  27.027  1.00  0.00    -0.744 OA
ENDBRANCH  94  95
ENDBRANCH  62  87
BRANCH  74  99
ATOM     99  C   UNL A   1      47.828  27.066  30.854  1.00  0.00     0.058 A 
ATOM    100  C   UNL A   1      48.132  26.349  32.021  1.00  0.00     0.135 A 
ATOM    101  C   UNL A   1      48.881  27.349  29.967  1.00  0.00     0.135 A 
ATOM    102  F   UNL A   1      47.166  26.057  32.907  1.00  0.00    -0.206 F 
ATOM    103  C   UNL A   1      49.433  25.949  32.312  1.00  0.00     0.059 A 
ATOM    104  C   UNL A   1      50.183  26.930  30.220  1.00  0.00     0.059 A 
ATOM    105  F   UNL A   1      48.645  28.023  28.830  1.00  0.00    -0.206 F 
ATOM    106  C   UNL A   1      50.452  26.242  31.402  1.00  0.00     0.060 A 
BRANCH 106 107
ATOM    107  S   UNL A   1      52.128  25.686  31.775  1.00  0.00     0.124 S 
ATOM    108  O   UNL A   1      52.803  25.911  30.501  1.00  0.00    -0.237 OA
ATOM    109  O   UNL A   1      52.516  26.575  32.865  1.00  0.00    -0.237 OA
ATOM    110  O   UNL A   1      51.947  24.287  32.151  1.00  0.00    -0.744 OA
ENDBRANCH 106 107
ENDBRANCH  74  99
ENDBRANCH  48  49
ENDBRANCH  40  43
ENDBRANCH  38  39
ENDBRANCH  37  38
ENDBRANCH   1  37
TORSDOF 20
ENDMDL
MODEL 2
REMARK VINA RESULT:     -12.1      2.207      2.679
REMARK SMILES N#CCOc1ccc2[nH]cc([C@H](C(=O)NCCCCNC(=O)c3ccc(-c4c5nc(c(-c6c(F)cc(S(=O)(=O)[O-])cc6F)c6ccc([nH]6)c(-c6c(F)cc(S(=O)(=O)[O-])cc6F)c6nc(c(-c7c(F)cc(S(=O)(=O)[O-])cc7F)c7ccc4[nH]7)C=C6)C=C5)cc3)[NH+]3CC[NH+]([C@@H]4CCS(=O)(=O)C4)CC3)c2c1
REMARK SMILES IDX 17 1 16 2 15 3 13 4 14 5 12 7 11 8 5 9 6 10 103 11 7 12
REMARK SMILES IDX 102 13 8 14 9 15 10 16 4 18 3 19 2 20 1 21 89 22 90 23
REMARK SMILES IDX 101 24 91 26 100 27 92 28 93 30 94 31 99 32 95 33 96 34
REMARK SMILES IDX 97 35 98 36 18 37 19 38 20 39 21 40 22 42 23 43 24 44 88 45
REMARK SMILES IDX 25 46 87 47 26 48 27 49 28 50 81 51 29 52 86 53 80 54 82 55
REMARK SMILES IDX 30 56 85 57 79 58 78 59 31 61 65 62 44 63 64 64 45 65 48 66
REMARK SMILES IDX 63 67 83 68 46 69 47 70 62 72 84 73 49 74 32 75 33 76 42 77
REMARK SMILES IDX 34 78 35 79 41 80 43 81 36 82 37 83 38 84 39 85 40 86 66 87
REMARK SMILES IDX 67 88 76 89 68 90 69 91 75 92 77 93 70 94 71 95 72 96 73 97
REMARK SMILES IDX 74 98 50 99 51 100 60 101 52 102 53 103 59 104 61 105 54 106
REMARK SMILES IDX 55 107 56 108 57 109 58 110
REMARK H PARENT 15 6 9 17 89 25 92 29 20 41 82 60 48 71
REMARK Flexibility Score: inf
ROOT
ATOM      1  C   UNL A   1      33.382  28.488  23.981  1.00  0.00     0.023 C 
ENDROOT
BRANCH   1   2
ATOM      2  C   UNL A   1      34.012  28.190  22.623  1.00  0.00     0.116 C 
BRANCH   2   3
ATOM      3  N   UNL A   1      33.026  27.617  21.738  1.00  0.00    -0.351 N 
ATOM      4  C   UNL A   1      32.072  26.684  21.988  1.00  0.00     0.283 C 
ATOM      5  O   UNL A   1      31.549  26.175  20.991  1.00  0.00    -0.268 OA
ATOM      6  H   UNL A   1      33.049  27.955  20.813  1.00  0.00     0.163 HD
BRANCH   4   7
ATOM      7  C   UNL A   1      31.669  26.343  23.439  1.00  0.00     0.308 C 
BRANCH   7   8
ATOM      8  C   UNL A   1      30.210  26.627  23.722  1.00  0.00     0.045 A 
ATOM      9  C   UNL A   1      28.923  29.940  22.378  1.00  0.00     0.121 A 
ATOM     10  C   UNL A   1      27.577  29.568  22.419  1.00  0.00     0.048 A 
ATOM     11  C   UNL A   1      29.866  29.086  22.902  1.00  0.00     0.057 A 
ATOM     12  C   UNL A   1      27.147  28.428  23.118  1.00  0.00     0.030 A 
ATOM     13  C   UNL A   1      29.494  27.828  23.410  1.00  0.00     0.013 A 
ATOM     14  C   UNL A   1      28.138  27.561  23.581  1.00  0.00     0.046 A 
ATOM     15  N   UNL A   1      28.045  26.344  24.213  1.00  0.00    -0.361 N 
ATOM     16  C   UNL A   1      29.281  25.755  24.271  1.00  0.00     0.094 A 
ATOM     17  H   UNL A   1      27.216  25.955  24.571  1.00  0.00     0.166 HD
BRANCH   9  18
ATOM     18  O   UNL A   1      29.442  31.047  21.734  1.00  0.00    -0.479 OA
BRANCH  18  19
ATOM     19  C   UNL A   1      28.440  32.038  21.389  1.00  0.00     0.349 C 
BRANCH  19  20
ATOM     20  C   UNL A   1      28.625  33.137  22.421  1.00  0.00     0.104 C 
ATOM     21  N   UNL A   1      28.780  34.050  23.278  1.00  0.00    -0.195 NA
ENDBRANCH  19  20
ENDBRANCH  18  19
ENDBRANCH   9  18
ENDBRANCH   7   8
BRANCH   7  22
ATOM     22  N   UNL A   1      32.052  24.956  23.808  1.00  0.00    -0.312 N 
ATOM     23  C   UNL A   1      33.407  24.511  23.428  1.00  0.00     0.325 C 
ATOM     24  C   UNL A   1      31.738  24.693  25.223  1.00  0.00     0.325 C 
ATOM     25  H   UNL A   1      31.469  24.366  23.215  1.00  0.00     0.349 HD
ATOM     26  C   UNL A   1      34.519  24.436  24.510  1.00  0.00     0.324 C 
ATOM     27  C   UNL A   1      32.892  24.852  26.228  1.00  0.00     0.324 C 
ATOM     28  N   UNL A   1      34.090  24.102  25.875  1.00  0.00    -0.322 N 
ATOM     29  H   UNL A   1      34.802  24.441  26.522  1.00  0.00     0.348 HD
BRANCH  28  30
ATOM     30  C   UNL A   1      34.211  22.703  26.283  1.00  0.00     0.200 C 
ATOM     31  C   UNL A   1      35.165  21.762  25.524  1.00  0.00     0.082 C 
ATOM     32  C   UNL A   1      32.865  21.972  26.405  1.00  0.00     0.201 C 
ATOM     33  C   UNL A   1      34.413  20.957  24.477  1.00  0.00     0.143 C 
ATOM     34  S   UNL A   1      32.704  20.949  24.953  1.00  0.00     0.156 S 
ATOM     35  O   UNL A   1      31.953  21.644  23.930  1.00  0.00    -0.229 OA
ATOM     36  O   UNL A   1      32.354  19.604  25.367  1.00  0.00    -0.229 OA
ENDBRANCH  28  30
ENDBRANCH   7  22
ENDBRANCH   4   7
ENDBRANCH   2   3
ENDBRANCH   1   2
BRANCH   1  37
ATOM     37  C   UNL A   1      34.246  28.074  25.178  1.00  0.00     0.023 C 
BRANCH  37  38
ATOM     38  C   UNL A   1      33.669  28.430  26.543  1.00  0.00     0.116 C 
BRANCH  38  39
ATOM     39  N   UNL A   1      33.529  29.865  26.732  1.00  0.00    -0.352 N 
ATOM     40  C   UNL A   1      34.327  30.718  27.450  1.00  0.00     0.251 C 
ATOM     41  H   UNL A   1      32.758  30.279  26.284  1.00  0.00     0.163 HD
ATOM     42  O   UNL A   1      33.986  31.884  27.616  1.00  0.00    -0.269 OA
BRANCH  40  43
ATOM     43  C   UNL A   1      35.575  30.206  28.049  1.00  0.00     0.039 A 
ATOM     44  C   UNL A   1      36.768  30.367  27.344  1.00  0.00     0.014 A 
ATOM     45  C   UNL A   1      35.569  29.606  29.312  1.00  0.00     0.014 A 
ATOM     46  C   UNL A   1      37.970  29.976  27.934  1.00  0.00     0.010 A 
ATOM     47  C   UNL A   1      36.776  29.289  29.928  1.00  0.00     0.010 A 
ATOM     48  C   UNL A   1      37.988  29.467  29.243  1.00  0.00    -0.014 A 
BRANCH  48  49
ATOM     49  C   UNL A   1      39.268  29.119  29.910  1.00  0.00     0.031 A 
ATOM     50  C   UNL A   1      39.725  29.894  31.116  1.00  0.00     0.074 A 
ATOM     51  C   UNL A   1      40.037  28.135  29.402  1.00  0.00     0.049 A 
ATOM     52  N   UNL A   1      40.832  29.772  31.803  1.00  0.00    -0.248 NA
ATOM     53  C   UNL A   1      38.835  30.961  31.599  1.00  0.00     0.031 C 
ATOM     54  C   UNL A   1      39.719  27.342  28.212  1.00  0.00     0.029 A 
ATOM     55  N   UNL A   1      41.246  27.637  29.816  1.00  0.00    -0.354 N 
ATOM     56  C   UNL A   1      40.773  30.746  32.792  1.00  0.00     0.074 A 
ATOM     57  C   UNL A   1      39.552  31.492  32.579  1.00  0.00     0.031 C 
ATOM     58  C   UNL A   1      40.693  26.441  28.010  1.00  0.00     0.029 A 
ATOM     59  C   UNL A   1      41.726  26.619  29.025  1.00  0.00     0.049 A 
ATOM     60  H   UNL A   1      41.727  27.977  30.605  1.00  0.00     0.167 HD
ATOM     61  C   UNL A   1      41.644  30.980  33.803  1.00  0.00     0.037 A 
ATOM     62  C   UNL A   1      42.872  25.915  29.104  1.00  0.00     0.037 A 
ATOM     63  C   UNL A   1      42.849  30.222  34.017  1.00  0.00     0.049 A 
ATOM     64  C   UNL A   1      43.836  26.213  30.222  1.00  0.00     0.074 A 
ATOM     65  C   UNL A   1      43.775  30.351  35.037  1.00  0.00     0.029 A 
ATOM     66  N   UNL A   1      43.298  29.197  33.198  1.00  0.00    -0.354 N 
ATOM     67  N   UNL A   1      43.733  27.097  31.185  1.00  0.00    -0.248 NA
ATOM     68  C   UNL A   1      45.069  25.414  30.268  1.00  0.00     0.031 C 
ATOM     69  C   UNL A   1      44.810  29.440  34.807  1.00  0.00     0.029 A 
ATOM     70  C   UNL A   1      44.500  28.700  33.676  1.00  0.00     0.049 A 
ATOM     71  H   UNL A   1      42.832  28.869  32.396  1.00  0.00     0.167 HD
ATOM     72  C   UNL A   1      44.873  26.940  31.968  1.00  0.00     0.074 A 
ATOM     73  C   UNL A   1      45.642  25.866  31.375  1.00  0.00     0.031 C 
ATOM     74  C   UNL A   1      45.249  27.622  33.079  1.00  0.00     0.037 A 
BRANCH  61  75
ATOM     75  C   UNL A   1      41.324  32.098  34.759  1.00  0.00     0.058 A 
ATOM     76  C   UNL A   1      41.829  33.395  34.574  1.00  0.00     0.135 A 
ATOM     77  C   UNL A   1      40.464  31.882  35.849  1.00  0.00     0.135 A 
ATOM     78  F   UNL A   1      42.669  33.655  33.559  1.00  0.00    -0.206 F 
ATOM     79  C   UNL A   1      41.513  34.431  35.446  1.00  0.00     0.059 A 
ATOM     80  C   UNL A   1      40.110  32.911  36.716  1.00  0.00     0.059 A 
ATOM     81  F   UNL A   1      39.954  30.661  36.077  1.00  0.00    -0.206 F 
ATOM     82  C   UNL A   1      40.650  34.180  36.513  1.00  0.00     0.060 A 
BRANCH  82  83
ATOM     83  S   UNL A   1      40.241  35.542  37.625  1.00  0.00     0.124 S 
ATOM     84  O   UNL A   1      39.123  34.978  38.376  1.00  0.00    -0.237 OA
ATOM     85  O   UNL A   1      41.482  35.715  38.373  1.00  0.00    -0.237 OA
ATOM     86  O   UNL A   1      39.900  36.633  36.718  1.00  0.00    -0.744 OA
ENDBRANCH  82  83
ENDBRANCH  61  75
BRANCH  62  87
ATOM     87  C   UNL A   1      43.169  24.851  28.106  1.00  0.00     0.058 A 
ATOM     88  C   UNL A   1      42.867  23.506  28.371  1.00  0.00     0.135 A 
ATOM     89  C   UNL A   1      43.765  25.154  26.872  1.00  0.00     0.135 A 
ATOM     90  F   UNL A   1      42.301  23.164  29.539  1.00  0.00    -0.206 F 
ATOM     91  C   UNL A   1      43.171  22.498  27.463  1.00  0.00     0.059 A 
ATOM     92  C   UNL A   1      44.050  24.166  25.934  1.00  0.00     0.059 A 
ATOM     93  F   UNL A   1      44.058  26.426  26.560  1.00  0.00    -0.206 F 
ATOM     94  C   UNL A   1      43.762  22.838  26.246  1.00  0.00     0.060 A 
BRANCH  94  95
ATOM     95  S   UNL A   1      44.127  21.523  25.062  1.00  0.00     0.124 S 
ATOM     96  O   UNL A   1      44.029  22.235  23.794  1.00  0.00    -0.237 OA
ATOM     97  O   UNL A   1      45.468  21.115  25.464  1.00  0.00    -0.237 OA
ATOM     98  O   UNL A   1      43.076  20.543  25.318  1.00  0.00    -0.744 OA
ENDBRANCH  94  95
ENDBRANCH  62  87
BRANCH  74  99
ATOM     99  C   UNL A   1      46.529  27.205  33.749  1.00  0.00     0.058 A 
ATOM    100  C   UNL A   1      46.561  26.200  34.728  1.00  0.00     0.135 A 
ATOM    101  C   UNL A   1      47.751  27.788  33.369  1.00  0.00     0.135 A 
ATOM    102  F   UNL A   1      45.423  25.615  35.134  1.00  0.00    -0.206 F 
ATOM    103  C   UNL A   1      47.754  25.803  35.324  1.00  0.00     0.059 A 
ATOM    104  C   UNL A   1      48.959  27.383  33.927  1.00  0.00     0.059 A 
ATOM    105  F   UNL A   1      47.780  28.746  32.430  1.00  0.00    -0.206 F 
ATOM    106  C   UNL A   1      48.949  26.398  34.915  1.00  0.00     0.060 A 
BRANCH 106 107
ATOM    107  S   UNL A   1      50.492  25.848  35.672  1.00  0.00     0.124 S 
ATOM    108  O   UNL A   1      50.007  25.174  36.872  1.00  0.00    -0.237 OA
ATOM    109  O   UNL A   1      51.053  24.982  34.640  1.00  0.00    -0.237 OA
ATOM    110  O   UNL A   1      51.221  27.092  35.902  1.00  0.00    -0.744 OA
ENDBRANCH 106 107
ENDBRANCH  74  99
ENDBRANCH  48  49
ENDBRANCH  40  43
ENDBRANCH  38  39
ENDBRANCH  37  38
ENDBRANCH   1  37
TORSDOF 20
ENDMDL
MODEL 3
REMARK VINA RESULT:     -11.8      4.372      9.742
REMARK SMILES N#CCOc1ccc2[nH]cc([C@H](C(=O)NCCCCNC(=O)c3ccc(-c4c5nc(c(-c6c(F)cc(S(=O)(=O)[O-])cc6F)c6ccc([nH]6)c(-c6c(F)cc(S(=O)(=O)[O-])cc6F)c6nc(c(-c7c(F)cc(S(=O)(=O)[O-])cc7F)c7ccc4[nH]7)C=C6)C=C5)cc3)[NH+]3CC[NH+]([C@@H]4CCS(=O)(=O)C4)CC3)c2c1
REMARK SMILES IDX 17 1 16 2 15 3 13 4 14 5 12 7 11 8 5 9 6 10 103 11 7 12
REMARK SMILES IDX 102 13 8 14 9 15 10 16 4 18 3 19 2 20 1 21 89 22 90 23
REMARK SMILES IDX 101 24 91 26 100 27 92 28 93 30 94 31 99 32 95 33 96 34
REMARK SMILES IDX 97 35 98 36 18 37 19 38 20 39 21 40 22 42 23 43 24 44 88 45
REMARK SMILES IDX 25 46 87 47 26 48 27 49 28 50 81 51 29 52 86 53 80 54 82 55
REMARK SMILES IDX 30 56 85 57 79 58 78 59 31 61 65 62 44 63 64 64 45 65 48 66
REMARK SMILES IDX 63 67 83 68 46 69 47 70 62 72 84 73 49 74 32 75 33 76 42 77
REMARK SMILES IDX 34 78 35 79 41 80 43 81 36 82 37 83 38 84 39 85 40 86 66 87
REMARK SMILES IDX 67 88 76 89 68 90 69 91 75 92 77 93 70 94 71 95 72 96 73 97
REMARK SMILES IDX 74 98 50 99 51 100 60 101 52 102 53 103 59 104 61 105 54 106
REMARK SMILES IDX 55 107 56 108 57 109 58 110
REMARK H PARENT 15 6 9 17 89 25 92 29 20 41 82 60 48 71
REMARK Flexibility Score: inf
ROOT
ATOM      1  C   UNL A   1      36.746  24.362  26.386  1.00  0.00     0.023 C 
ENDROOT
BRANCH   1   2
ATOM      2  C   UNL A   1      35.453  23.866  25.744  1.00  0.00     0.116 C 
BRANCH   2   3
ATOM      3  N   UNL A   1      35.253  24.519  24.472  1.00  0.00    -0.351 N 
ATOM      4  C   UNL A   1      34.115  24.685  23.749  1.00  0.00     0.283 C 
ATOM      5  O   UNL A   1      34.274  25.033  22.575  1.00  0.00    -0.268 OA
ATOM      6  H   UNL A   1      36.066  24.900  24.067  1.00  0.00     0.163 HD
BRANCH   4   7
ATOM      7  C   UNL A   1      32.733  24.484  24.407  1.00  0.00     0.308 C 
BRANCH   7   8
ATOM      8  C   UNL A   1      31.755  25.585  24.059  1.00  0.00     0.045 A 
ATOM      9  C   UNL A   1      32.023  28.714  26.197  1.00  0.00     0.121 A 
ATOM     10  C   UNL A   1      31.366  29.538  25.282  1.00  0.00     0.048 A 
ATOM     11  C   UNL A   1      32.096  27.363  25.945  1.00  0.00     0.057 A 
ATOM     12  C   UNL A   1      30.645  29.011  24.198  1.00  0.00     0.030 A 
ATOM     13  C   UNL A   1      31.578  26.826  24.752  1.00  0.00     0.013 A 
ATOM     14  C   UNL A   1      30.795  27.647  23.945  1.00  0.00     0.046 A 
ATOM     15  N   UNL A   1      30.301  26.860  22.933  1.00  0.00    -0.361 N 
ATOM     16  C   UNL A   1      30.900  25.627  22.968  1.00  0.00     0.094 A 
ATOM     17  H   UNL A   1      29.620  27.140  22.281  1.00  0.00     0.166 HD
BRANCH   9  18
ATOM     18  O   UNL A   1      32.743  29.134  27.300  1.00  0.00    -0.479 OA
BRANCH  18  19
ATOM     19  C   UNL A   1      34.181  29.048  27.120  1.00  0.00     0.349 C 
BRANCH  19  20
ATOM     20  C   UNL A   1      34.687  30.438  27.467  1.00  0.00     0.104 C 
ATOM     21  N   UNL A   1      35.107  31.592  27.755  1.00  0.00    -0.195 NA
ENDBRANCH  19  20
ENDBRANCH  18  19
ENDBRANCH   9  18
ENDBRANCH   7   8
BRANCH   7  22
ATOM     22  N   UNL A   1      32.179  23.134  24.128  1.00  0.00    -0.312 N 
ATOM     23  C   UNL A   1      32.957  22.263  23.227  1.00  0.00     0.325 C 
ATOM     24  C   UNL A   1      31.797  22.464  25.383  1.00  0.00     0.325 C 
ATOM     25  H   UNL A   1      31.344  23.312  23.571  1.00  0.00     0.349 HD
ATOM     26  C   UNL A   1      33.803  21.105  23.823  1.00  0.00     0.324 C 
ATOM     27  C   UNL A   1      32.819  21.482  25.982  1.00  0.00     0.324 C 
ATOM     28  N   UNL A   1      33.286  20.470  25.043  1.00  0.00    -0.322 N 
ATOM     29  H   UNL A   1      34.067  20.022  25.522  1.00  0.00     0.348 HD
BRANCH  28  30
ATOM     30  C   UNL A   1      32.521  19.236  24.874  1.00  0.00     0.200 C 
ATOM     31  C   UNL A   1      32.508  18.182  25.996  1.00  0.00     0.082 C 
ATOM     32  C   UNL A   1      32.823  18.491  23.565  1.00  0.00     0.201 C 
ATOM     33  C   UNL A   1      33.532  17.091  25.728  1.00  0.00     0.143 C 
ATOM     34  S   UNL A   1      33.876  17.117  23.988  1.00  0.00     0.156 S 
ATOM     35  O   UNL A   1      35.266  17.478  23.814  1.00  0.00    -0.229 OA
ATOM     36  O   UNL A   1      33.328  15.910  23.398  1.00  0.00    -0.229 OA
ENDBRANCH  28  30
ENDBRANCH   7  22
ENDBRANCH   4   7
ENDBRANCH   2   3
ENDBRANCH   1   2
BRANCH   1  37
ATOM     37  C   UNL A   1      37.994  23.575  25.971  1.00  0.00     0.023 C 
BRANCH  37  38
ATOM     38  C   UNL A   1      39.146  23.620  26.968  1.00  0.00     0.116 C 
BRANCH  38  39
ATOM     39  N   UNL A   1      40.438  23.782  26.320  1.00  0.00    -0.352 N 
ATOM     40  C   UNL A   1      41.342  24.803  26.451  1.00  0.00     0.251 C 
ATOM     41  H   UNL A   1      40.697  23.059  25.705  1.00  0.00     0.163 HD
ATOM     42  O   UNL A   1      42.329  24.846  25.724  1.00  0.00    -0.269 OA
BRANCH  40  43
ATOM     43  C   UNL A   1      41.094  25.863  27.447  1.00  0.00     0.039 A 
ATOM     44  C   UNL A   1      40.104  25.657  28.408  1.00  0.00     0.014 A 
ATOM     45  C   UNL A   1      41.859  27.033  27.453  1.00  0.00     0.014 A 
ATOM     46  C   UNL A   1      39.918  26.605  29.415  1.00  0.00     0.010 A 
ATOM     47  C   UNL A   1      41.724  27.938  28.501  1.00  0.00     0.010 A 
ATOM     48  C   UNL A   1      40.750  27.735  29.490  1.00  0.00    -0.014 A 
BRANCH  48  49
ATOM     49  C   UNL A   1      40.613  28.711  30.600  1.00  0.00     0.031 A 
ATOM     50  C   UNL A   1      41.486  28.595  31.820  1.00  0.00     0.074 A 
ATOM     51  C   UNL A   1      39.672  29.674  30.527  1.00  0.00     0.049 A 
ATOM     52  N   UNL A   1      41.481  29.318  32.909  1.00  0.00    -0.248 NA
ATOM     53  C   UNL A   1      42.478  27.508  31.827  1.00  0.00     0.031 C 
ATOM     54  C   UNL A   1      38.737  29.861  29.414  1.00  0.00     0.029 A 
ATOM     55  N   UNL A   1      39.340  30.673  31.407  1.00  0.00    -0.354 N 
ATOM     56  C   UNL A   1      42.461  28.773  33.730  1.00  0.00     0.074 A 
ATOM     57  C   UNL A   1      42.998  27.621  33.041  1.00  0.00     0.031 C 
ATOM     58  C   UNL A   1      37.959  30.925  29.666  1.00  0.00     0.029 A 
ATOM     59  C   UNL A   1      38.305  31.470  30.975  1.00  0.00     0.049 A 
ATOM     60  H   UNL A   1      39.799  30.806  32.268  1.00  0.00     0.167 HD
ATOM     61  C   UNL A   1      42.894  29.211  34.937  1.00  0.00     0.037 A 
ATOM     62  C   UNL A   1      37.698  32.516  31.571  1.00  0.00     0.037 A 
ATOM     63  C   UNL A   1      42.365  30.370  35.608  1.00  0.00     0.049 A 
ATOM     64  C   UNL A   1      38.181  32.965  32.924  1.00  0.00     0.074 A 
ATOM     65  C   UNL A   1      42.765  30.921  36.813  1.00  0.00     0.029 A 
ATOM     66  N   UNL A   1      41.321  31.153  35.138  1.00  0.00    -0.354 N 
ATOM     67  N   UNL A   1      39.151  32.475  33.658  1.00  0.00    -0.248 NA
ATOM     68  C   UNL A   1      37.490  34.113  33.529  1.00  0.00     0.031 C 
ATOM     69  C   UNL A   1      41.930  32.007  37.096  1.00  0.00     0.029 A 
ATOM     70  C   UNL A   1      41.048  32.169  36.040  1.00  0.00     0.049 A 
ATOM     71  H   UNL A   1      40.845  31.009  34.289  1.00  0.00     0.167 HD
ATOM     72  C   UNL A   1      39.207  33.273  34.796  1.00  0.00     0.074 A 
ATOM     73  C   UNL A   1      38.183  34.286  34.645  1.00  0.00     0.031 C 
ATOM     74  C   UNL A   1      40.031  33.178  35.870  1.00  0.00     0.037 A 
BRANCH  61  75
ATOM     75  C   UNL A   1      43.998  28.439  35.608  1.00  0.00     0.058 A 
ATOM     76  C   UNL A   1      45.351  28.731  35.372  1.00  0.00     0.135 A 
ATOM     77  C   UNL A   1      43.700  27.425  36.534  1.00  0.00     0.135 A 
ATOM     78  F   UNL A   1      45.693  29.678  34.484  1.00  0.00    -0.206 F 
ATOM     79  C   UNL A   1      46.369  28.031  36.011  1.00  0.00     0.059 A 
ATOM     80  C   UNL A   1      44.703  26.733  37.208  1.00  0.00     0.059 A 
ATOM     81  F   UNL A   1      42.424  27.101  36.796  1.00  0.00    -0.206 F 
ATOM     82  C   UNL A   1      46.035  27.036  36.930  1.00  0.00     0.060 A 
BRANCH  82  83
ATOM     83  S   UNL A   1      47.371  26.149  37.759  1.00  0.00     0.124 S 
ATOM     84  O   UNL A   1      47.068  26.414  39.162  1.00  0.00    -0.237 OA
ATOM     85  O   UNL A   1      47.155  24.776  37.313  1.00  0.00    -0.237 OA
ATOM     86  O   UNL A   1      48.576  26.790  37.246  1.00  0.00    -0.744 OA
ENDBRANCH  82  83
ENDBRANCH  61  75
BRANCH  62  87
ATOM     87  C   UNL A   1      36.577  33.219  30.889  1.00  0.00     0.058 A 
ATOM     88  C   UNL A   1      36.816  34.079  29.805  1.00  0.00     0.135 A 
ATOM     89  C   UNL A   1      35.248  33.053  31.309  1.00  0.00     0.135 A 
ATOM     90  F   UNL A   1      38.069  34.275  29.369  1.00  0.00    -0.206 F 
ATOM     91  C   UNL A   1      35.782  34.770  29.182  1.00  0.00     0.059 A 
ATOM     92  C   UNL A   1      34.194  33.710  30.681  1.00  0.00     0.059 A 
ATOM     93  F   UNL A   1      34.963  32.229  32.329  1.00  0.00    -0.206 F 
ATOM     94  C   UNL A   1      34.474  34.578  29.627  1.00  0.00     0.060 A 
BRANCH  94  95
ATOM     95  S   UNL A   1      33.137  35.460  28.791  1.00  0.00     0.124 S 
ATOM     96  O   UNL A   1      33.878  36.444  28.011  1.00  0.00    -0.237 OA
ATOM     97  O   UNL A   1      32.496  34.392  28.032  1.00  0.00    -0.237 OA
ATOM     98  O   UNL A   1      32.348  35.996  29.896  1.00  0.00    -0.744 OA
ENDBRANCH  94  95
ENDBRANCH  62  87
BRANCH  74  99
ATOM     99  C   UNL A   1      39.889  34.216  36.949  1.00  0.00     0.058 A 
ATOM    100  C   UNL A   1      40.523  35.465  36.865  1.00  0.00     0.135 A 
ATOM    101  C   UNL A   1      39.064  33.973  38.061  1.00  0.00     0.135 A 
ATOM    102  F   UNL A   1      41.328  35.746  35.828  1.00  0.00    -0.206 F 
ATOM    103  C   UNL A   1      40.365  36.429  37.856  1.00  0.00     0.059 A 
ATOM    104  C   UNL A   1      38.865  34.934  39.047  1.00  0.00     0.059 A 
ATOM    105  F   UNL A   1      38.425  32.800  38.186  1.00  0.00    -0.206 F 
ATOM    106  C   UNL A   1      39.531  36.155  38.942  1.00  0.00     0.060 A 
BRANCH 106 107
ATOM    107  S   UNL A   1      39.308  37.428  40.201  1.00  0.00     0.124 S 
ATOM    108  O   UNL A   1      40.651  37.991  40.292  1.00  0.00    -0.237 OA
ATOM    109  O   UNL A   1      38.297  38.290  39.597  1.00  0.00    -0.237 OA
ATOM    110  O   UNL A   1      38.862  36.676  41.371  1.00  0.00    -0.744 OA
ENDBRANCH 106 107
ENDBRANCH  74  99
ENDBRANCH  48  49
ENDBRANCH  40  43
ENDBRANCH  38  39
ENDBRANCH  37  38
ENDBRANCH   1  37
TORSDOF 20
ENDMDL
