MODEL 1
REMARK VINA RESULT:      -9.6      0.000      0.000
REMARK SMILES C[N@@H+](CCCCC(=O)NCCCCNC(=O)c1ccc(-c2c3nc(c(-c4c(F)cc(S(=O)(=O)[O-])cc4F)c4ccc([nH]4)c(-c4c(F)cc(S(=O)(=O)[O-])cc4F)c4nc(c(-c5c(F)cc(S(=O)(=O)[O-])cc5F)c5ccc2[nH]5)C=C4)C=C3)cc1)CC(C)(C)O
REMARK SMILES IDX 7 1 8 2 9 3 6 5 5 6 4 7 3 8 2 9 1 10 83 12 84 13 85 14 86 15
REMARK SMILES IDX 87 16 10 18 11 19 12 20 13 21 14 22 15 23 16 25 17 26 18 27
REMARK SMILES IDX 82 28 19 29 81 30 20 31 21 32 22 33 75 34 23 35 80 36 74 37
REMARK SMILES IDX 76 38 24 39 79 40 73 41 72 42 25 44 59 45 38 46 58 47 39 48
REMARK SMILES IDX 42 49 57 50 77 51 40 52 41 53 56 55 78 56 43 57 26 58 27 59
REMARK SMILES IDX 36 60 28 61 29 62 35 63 37 64 30 65 31 66 32 67 33 68 34 69
REMARK SMILES IDX 60 70 61 71 70 72 62 73 63 74 69 75 71 76 64 77 65 78 66 79
REMARK SMILES IDX 67 80 68 81 44 82 45 83 54 84 46 85 47 86 53 87 55 88 48 89
REMARK SMILES IDX 49 90 50 91 51 92 52 93
REMARK H PARENT 9 4 2 11 87 17 14 24 76 43 42 54
REMARK Flexibility Score: inf
ROOT
ATOM      1  C   UNL A   1      30.343  28.863  22.705  1.00  0.00     0.219 C 
ATOM      2  O   UNL A   1      29.908  29.411  21.691  1.00  0.00    -0.275 OA
ATOM      3  N   UNL A   1      30.820  29.642  23.716  1.00  0.00    -0.356 N 
ATOM      4  H   UNL A   1      30.712  30.612  23.585  1.00  0.00     0.163 HD
ENDROOT
BRANCH   1   5
ATOM      5  C   UNL A   1      30.336  27.350  22.835  1.00  0.00     0.100 C 
BRANCH   5   6
ATOM      6  C   UNL A   1      31.461  26.662  22.056  1.00  0.00     0.016 C 
BRANCH   6   7
ATOM      7  C   UNL A   1      32.210  25.564  22.820  1.00  0.00     0.062 C 
BRANCH   7   8
ATOM      8  C   UNL A   1      32.857  24.465  21.975  1.00  0.00     0.262 C 
BRANCH   8   9
ATOM      9  N   UNL A   1      33.512  23.366  22.688  1.00  0.00    -0.335 N 
ATOM     10  C   UNL A   1      32.694  22.172  22.769  1.00  0.00     0.332 C 
ATOM     11  H   UNL A   1      34.290  23.073  22.098  1.00  0.00     0.347 HD
BRANCH   9  12
ATOM     12  C   UNL A   1      34.226  23.766  23.908  1.00  0.00     0.296 C 
BRANCH  12  13
ATOM     13  C   UNL A   1      35.585  23.135  24.377  1.00  0.00     0.108 C 
ATOM     14  C   UNL A   1      35.404  21.808  25.117  1.00  0.00     0.048 C 
ATOM     15  C   UNL A   1      36.458  22.910  23.133  1.00  0.00     0.048 C 
BRANCH  13  16
ATOM     16  O   UNL A   1      36.318  24.008  25.232  1.00  0.00    -0.385 OA
ATOM     17  H   UNL A   1      37.166  23.597  25.463  1.00  0.00     0.211 HD
ENDBRANCH  13  16
ENDBRANCH  12  13
ENDBRANCH   9  12
ENDBRANCH   8   9
ENDBRANCH   7   8
ENDBRANCH   6   7
ENDBRANCH   5   6
ENDBRANCH   1   5
BRANCH   3  18
ATOM     18  C   UNL A   1      31.461  29.252  24.954  1.00  0.00     0.116 C 
BRANCH  18  19
ATOM     19  C   UNL A   1      32.840  28.641  24.688  1.00  0.00     0.023 C 
BRANCH  19  20
ATOM     20  C   UNL A   1      33.944  29.057  25.641  1.00  0.00     0.023 C 
BRANCH  20  21
ATOM     21  C   UNL A   1      33.557  28.987  27.104  1.00  0.00     0.116 C 
BRANCH  21  22
ATOM     22  N   UNL A   1      33.541  30.271  27.799  1.00  0.00    -0.352 N 
ATOM     23  C   UNL A   1      34.600  30.846  28.471  1.00  0.00     0.251 C 
ATOM     24  H   UNL A   1      32.695  30.775  27.786  1.00  0.00     0.163 HD
ATOM     25  O   UNL A   1      34.486  31.910  29.067  1.00  0.00    -0.269 OA
BRANCH  23  26
ATOM     26  C   UNL A   1      35.864  30.086  28.489  1.00  0.00     0.039 A 
ATOM     27  C   UNL A   1      36.734  30.201  27.404  1.00  0.00     0.014 A 
ATOM     28  C   UNL A   1      36.268  29.483  29.681  1.00  0.00     0.014 A 
ATOM     29  C   UNL A   1      38.058  29.786  27.554  1.00  0.00     0.010 A 
ATOM     30  C   UNL A   1      37.609  29.181  29.860  1.00  0.00     0.010 A 
ATOM     31  C   UNL A   1      38.517  29.326  28.799  1.00  0.00    -0.014 A 
BRANCH  31  32
ATOM     32  C   UNL A   1      39.941  28.965  29.019  1.00  0.00     0.031 A 
ATOM     33  C   UNL A   1      40.876  29.995  29.594  1.00  0.00     0.074 A 
ATOM     34  C   UNL A   1      40.406  27.761  28.630  1.00  0.00     0.049 A 
ATOM     35  N   UNL A   1      42.170  29.930  29.766  1.00  0.00    -0.248 NA
ATOM     36  C   UNL A   1      40.284  31.287  29.978  1.00  0.00     0.031 C 
ATOM     37  C   UNL A   1      39.616  26.705  27.990  1.00  0.00     0.029 A 
ATOM     38  N   UNL A   1      41.666  27.223  28.709  1.00  0.00    -0.354 N 
ATOM     39  C   UNL A   1      42.546  31.182  30.239  1.00  0.00     0.074 A 
ATOM     40  C   UNL A   1      41.358  32.004  30.264  1.00  0.00     0.031 C 
ATOM     41  C   UNL A   1      40.400  25.637  27.771  1.00  0.00     0.029 A 
ATOM     42  C   UNL A   1      41.753  25.939  28.223  1.00  0.00     0.049 A 
ATOM     43  H   UNL A   1      42.437  27.711  29.078  1.00  0.00     0.167 HD
ATOM     44  C   UNL A   1      43.764  31.600  30.652  1.00  0.00     0.037 A 
ATOM     45  C   UNL A   1      42.807  25.101  28.159  1.00  0.00     0.037 A 
ATOM     46  C   UNL A   1      44.925  30.754  30.696  1.00  0.00     0.049 A 
ATOM     47  C   UNL A   1      44.138  25.564  28.687  1.00  0.00     0.074 A 
ATOM     48  C   UNL A   1      46.187  31.047  31.180  1.00  0.00     0.029 A 
ATOM     49  N   UNL A   1      44.957  29.440  30.252  1.00  0.00    -0.354 N 
ATOM     50  N   UNL A   1      44.463  26.729  29.195  1.00  0.00    -0.248 NA
ATOM     51  C   UNL A   1      45.245  24.599  28.640  1.00  0.00     0.031 C 
ATOM     52  C   UNL A   1      46.991  29.915  31.009  1.00  0.00     0.029 A 
ATOM     53  C   UNL A   1      46.220  28.908  30.446  1.00  0.00     0.049 A 
ATOM     54  H   UNL A   1      44.196  28.958  29.857  1.00  0.00     0.167 HD
ATOM     55  C   UNL A   1      45.803  26.629  29.552  1.00  0.00     0.074 A 
ATOM     56  C   UNL A   1      46.226  25.286  29.211  1.00  0.00     0.031 C 
ATOM     57  C   UNL A   1      46.610  27.563  30.113  1.00  0.00     0.037 A 
BRANCH  44  58
ATOM     58  C   UNL A   1      43.886  33.025  31.111  1.00  0.00     0.058 A 
ATOM     59  C   UNL A   1      44.213  34.059  30.219  1.00  0.00     0.135 A 
ATOM     60  C   UNL A   1      43.678  33.362  32.458  1.00  0.00     0.135 A 
ATOM     61  F   UNL A   1      44.444  33.788  28.925  1.00  0.00    -0.206 F 
ATOM     62  C   UNL A   1      44.367  35.371  30.652  1.00  0.00     0.059 A 
ATOM     63  C   UNL A   1      43.799  34.673  32.909  1.00  0.00     0.059 A 
ATOM     64  F   UNL A   1      43.367  32.411  33.353  1.00  0.00    -0.206 F 
ATOM     65  C   UNL A   1      44.162  35.667  32.000  1.00  0.00     0.060 A 
BRANCH  65  66
ATOM     66  S   UNL A   1      44.372  37.374  32.550  1.00  0.00     0.124 S 
ATOM     67  O   UNL A   1      44.168  38.107  31.303  1.00  0.00    -0.237 OA
ATOM     68  O   UNL A   1      43.315  37.516  33.547  1.00  0.00    -0.237 OA
ATOM     69  O   UNL A   1      45.733  37.396  33.076  1.00  0.00    -0.744 OA
ENDBRANCH  65  66
ENDBRANCH  44  58
BRANCH  45  70
ATOM     70  C   UNL A   1      42.638  23.724  27.623  1.00  0.00     0.058 A 
ATOM     71  C   UNL A   1      42.419  22.640  28.488  1.00  0.00     0.135 A 
ATOM     72  C   UNL A   1      42.682  23.460  26.246  1.00  0.00     0.135 A 
ATOM     73  F   UNL A   1      42.374  22.842  29.814  1.00  0.00    -0.206 F 
ATOM     74  C   UNL A   1      42.268  21.343  28.011  1.00  0.00     0.059 A 
ATOM     75  C   UNL A   1      42.513  22.172  25.742  1.00  0.00     0.059 A 
ATOM     76  F   UNL A   1      42.870  24.464  25.375  1.00  0.00    -0.206 F 
ATOM     77  C   UNL A   1      42.316  21.119  26.634  1.00  0.00     0.060 A 
BRANCH  77  78
ATOM     78  S   UNL A   1      42.072  19.437  26.020  1.00  0.00     0.124 S 
ATOM     79  O   UNL A   1      42.576  18.642  27.133  1.00  0.00    -0.237 OA
ATOM     80  O   UNL A   1      40.628  19.394  25.808  1.00  0.00    -0.237 OA
ATOM     81  O   UNL A   1      42.877  19.405  24.804  1.00  0.00    -0.744 OA
ENDBRANCH  77  78
ENDBRANCH  45  70
BRANCH  57  82
ATOM     82  C   UNL A   1      48.021  27.156  30.426  1.00  0.00     0.058 A 
ATOM     83  C   UNL A   1      49.076  27.436  29.545  1.00  0.00     0.135 A 
ATOM     84  C   UNL A   1      48.327  26.541  31.650  1.00  0.00     0.135 A 
ATOM     85  F   UNL A   1      48.832  28.018  28.359  1.00  0.00    -0.206 F 
ATOM     86  C   UNL A   1      50.389  27.103  29.861  1.00  0.00     0.059 A 
ATOM     87  C   UNL A   1      49.635  26.222  31.996  1.00  0.00     0.059 A 
ATOM     88  F   UNL A   1      47.351  26.266  32.530  1.00  0.00    -0.206 F 
ATOM     89  C   UNL A   1      50.659  26.499  31.091  1.00  0.00     0.060 A 
BRANCH  89  90
ATOM     90  S   UNL A   1      52.370  26.112  31.510  1.00  0.00     0.124 S 
ATOM     91  O   UNL A   1      52.705  27.205  32.417  1.00  0.00    -0.237 OA
ATOM     92  O   UNL A   1      52.253  24.792  32.125  1.00  0.00    -0.237 OA
ATOM     93  O   UNL A   1      53.050  26.136  30.219  1.00  0.00    -0.744 OA
ENDBRANCH  89  90
ENDBRANCH  57  82
ENDBRANCH  31  32
ENDBRANCH  23  26
ENDBRANCH  21  22
ENDBRANCH  20  21
ENDBRANCH  19  20
ENDBRANCH  18  19
ENDBRANCH   3  18
TORSDOF 21
ENDMDL
MODEL 2
REMARK VINA RESULT:      -9.1      3.280      9.243
REMARK SMILES C[N@@H+](CCCCC(=O)NCCCCNC(=O)c1ccc(-c2c3nc(c(-c4c(F)cc(S(=O)(=O)[O-])cc4F)c4ccc([nH]4)c(-c4c(F)cc(S(=O)(=O)[O-])cc4F)c4nc(c(-c5c(F)cc(S(=O)(=O)[O-])cc5F)c5ccc2[nH]5)C=C4)C=C3)cc1)CC(C)(C)O
REMARK SMILES IDX 7 1 8 2 9 3 6 5 5 6 4 7 3 8 2 9 1 10 83 12 84 13 85 14 86 15
REMARK SMILES IDX 87 16 10 18 11 19 12 20 13 21 14 22 15 23 16 25 17 26 18 27
REMARK SMILES IDX 82 28 19 29 81 30 20 31 21 32 22 33 75 34 23 35 80 36 74 37
REMARK SMILES IDX 76 38 24 39 79 40 73 41 72 42 25 44 59 45 38 46 58 47 39 48
REMARK SMILES IDX 42 49 57 50 77 51 40 52 41 53 56 55 78 56 43 57 26 58 27 59
REMARK SMILES IDX 36 60 28 61 29 62 35 63 37 64 30 65 31 66 32 67 33 68 34 69
REMARK SMILES IDX 60 70 61 71 70 72 62 73 63 74 69 75 71 76 64 77 65 78 66 79
REMARK SMILES IDX 67 80 68 81 44 82 45 83 54 84 46 85 47 86 53 87 55 88 48 89
REMARK SMILES IDX 49 90 50 91 51 92 52 93
REMARK H PARENT 9 4 2 11 87 17 14 24 76 43 42 54
REMARK Flexibility Score: inf
ROOT
ATOM      1  C   UNL A   1      32.627  24.066  23.449  1.00  0.00     0.219 C 
ATOM      2  O   UNL A   1      32.733  24.750  22.429  1.00  0.00    -0.275 OA
ATOM      3  N   UNL A   1      33.284  24.466  24.574  1.00  0.00    -0.356 N 
ATOM      4  H   UNL A   1      33.746  25.332  24.504  1.00  0.00     0.163 HD
ENDROOT
BRANCH   1   5
ATOM      5  C   UNL A   1      31.773  22.812  23.459  1.00  0.00     0.100 C 
BRANCH   5   6
ATOM      6  C   UNL A   1      32.419  21.623  22.740  1.00  0.00     0.016 C 
BRANCH   6   7
ATOM      7  C   UNL A   1      32.235  20.264  23.426  1.00  0.00     0.062 C 
BRANCH   7   8
ATOM      8  C   UNL A   1      32.431  20.233  24.943  1.00  0.00     0.262 C 
BRANCH   8   9
ATOM      9  N   UNL A   1      33.435  19.308  25.472  1.00  0.00    -0.335 N 
ATOM     10  C   UNL A   1      34.690  19.353  24.746  1.00  0.00     0.332 C 
ATOM     11  H   UNL A   1      33.689  19.666  26.392  1.00  0.00     0.347 HD
BRANCH   9  12
ATOM     12  C   UNL A   1      32.920  17.978  25.824  1.00  0.00     0.296 C 
BRANCH  12  13
ATOM     13  C   UNL A   1      33.201  16.678  24.990  1.00  0.00     0.108 C 
ATOM     14  C   UNL A   1      34.680  16.288  24.971  1.00  0.00     0.048 C 
ATOM     15  C   UNL A   1      32.380  15.534  25.602  1.00  0.00     0.048 C 
BRANCH  13  16
ATOM     16  O   UNL A   1      32.771  16.803  23.637  1.00  0.00    -0.385 OA
ATOM     17  H   UNL A   1      31.811  16.676  23.589  1.00  0.00     0.211 HD
ENDBRANCH  13  16
ENDBRANCH  12  13
ENDBRANCH   9  12
ENDBRANCH   8   9
ENDBRANCH   7   8
ENDBRANCH   6   7
ENDBRANCH   5   6
ENDBRANCH   1   5
BRANCH   3  18
ATOM     18  C   UNL A   1      33.398  23.804  25.856  1.00  0.00     0.116 C 
BRANCH  18  19
ATOM     19  C   UNL A   1      34.831  23.320  26.096  1.00  0.00     0.023 C 
BRANCH  19  20
ATOM     20  C   UNL A   1      35.614  22.928  24.857  1.00  0.00     0.023 C 
BRANCH  20  21
ATOM     21  C   UNL A   1      37.070  23.344  24.888  1.00  0.00     0.116 C 
BRANCH  21  22
ATOM     22  N   UNL A   1      37.981  22.355  25.455  1.00  0.00    -0.352 N 
ATOM     23  C   UNL A   1      39.020  22.611  26.326  1.00  0.00     0.251 C 
ATOM     24  H   UNL A   1      37.840  21.416  25.192  1.00  0.00     0.163 HD
ATOM     25  O   UNL A   1      39.767  21.723  26.720  1.00  0.00    -0.269 OA
BRANCH  23  26
ATOM     26  C   UNL A   1      39.228  24.018  26.714  1.00  0.00     0.039 A 
ATOM     27  C   UNL A   1      39.030  24.387  28.045  1.00  0.00     0.014 A 
ATOM     28  C   UNL A   1      39.854  24.878  25.809  1.00  0.00     0.014 A 
ATOM     29  C   UNL A   1      39.551  25.599  28.495  1.00  0.00     0.010 A 
ATOM     30  C   UNL A   1      40.468  26.025  26.289  1.00  0.00     0.010 A 
ATOM     31  C   UNL A   1      40.321  26.399  27.634  1.00  0.00    -0.014 A 
BRANCH  31  32
ATOM     32  C   UNL A   1      40.969  27.650  28.105  1.00  0.00     0.031 A 
ATOM     33  C   UNL A   1      42.467  27.775  28.018  1.00  0.00     0.074 A 
ATOM     34  C   UNL A   1      40.235  28.623  28.681  1.00  0.00     0.049 A 
ATOM     35  N   UNL A   1      43.243  28.725  28.467  1.00  0.00    -0.248 NA
ATOM     36  C   UNL A   1      43.190  26.658  27.386  1.00  0.00     0.031 C 
ATOM     37  C   UNL A   1      38.785  28.587  28.893  1.00  0.00     0.029 A 
ATOM     38  N   UNL A   1      40.611  29.835  29.203  1.00  0.00    -0.354 N 
ATOM     39  C   UNL A   1      44.541  28.301  28.208  1.00  0.00     0.074 A 
ATOM     40  C   UNL A   1      44.451  26.982  27.624  1.00  0.00     0.031 C 
ATOM     41  C   UNL A   1      38.393  29.738  29.465  1.00  0.00     0.029 A 
ATOM     42  C   UNL A   1      39.562  30.581  29.689  1.00  0.00     0.049 A 
ATOM     43  H   UNL A   1      41.546  30.143  29.228  1.00  0.00     0.167 HD
ATOM     44  C   UNL A   1      45.704  28.963  28.403  1.00  0.00     0.037 A 
ATOM     45  C   UNL A   1      39.549  31.807  30.246  1.00  0.00     0.037 A 
ATOM     46  C   UNL A   1      45.782  30.304  28.913  1.00  0.00     0.049 A 
ATOM     47  C   UNL A   1      40.848  32.555  30.391  1.00  0.00     0.074 A 
ATOM     48  C   UNL A   1      46.899  31.104  29.067  1.00  0.00     0.029 A 
ATOM     49  N   UNL A   1      44.691  31.048  29.338  1.00  0.00    -0.354 N 
ATOM     50  N   UNL A   1      42.061  32.166  30.077  1.00  0.00    -0.248 NA
ATOM     51  C   UNL A   1      40.777  33.908  30.959  1.00  0.00     0.031 C 
ATOM     52  C   UNL A   1      46.487  32.327  29.606  1.00  0.00     0.029 A 
ATOM     53  C   UNL A   1      45.108  32.299  29.759  1.00  0.00     0.049 A 
ATOM     54  H   UNL A   1      43.758  30.733  29.340  1.00  0.00     0.167 HD
ATOM     55  C   UNL A   1      42.894  33.236  30.385  1.00  0.00     0.074 A 
ATOM     56  C   UNL A   1      42.046  34.291  30.900  1.00  0.00     0.031 C 
ATOM     57  C   UNL A   1      44.240  33.336  30.252  1.00  0.00     0.037 A 
BRANCH  44  58
ATOM     58  C   UNL A   1      46.974  28.251  28.035  1.00  0.00     0.058 A 
ATOM     59  C   UNL A   1      47.663  27.451  28.961  1.00  0.00     0.135 A 
ATOM     60  C   UNL A   1      47.513  28.371  26.744  1.00  0.00     0.135 A 
ATOM     61  F   UNL A   1      47.203  27.320  30.216  1.00  0.00    -0.206 F 
ATOM     62  C   UNL A   1      48.861  26.827  28.634  1.00  0.00     0.059 A 
ATOM     63  C   UNL A   1      48.696  27.732  26.385  1.00  0.00     0.059 A 
ATOM     64  F   UNL A   1      46.897  29.126  25.822  1.00  0.00    -0.206 F 
ATOM     65  C   UNL A   1      49.372  26.977  27.344  1.00  0.00     0.060 A 
BRANCH  65  66
ATOM     66  S   UNL A   1      50.932  26.165  26.933  1.00  0.00     0.124 S 
ATOM     67  O   UNL A   1      50.659  24.790  27.345  1.00  0.00    -0.237 OA
ATOM     68  O   UNL A   1      51.032  26.387  25.494  1.00  0.00    -0.237 OA
ATOM     69  O   UNL A   1      51.910  26.881  27.745  1.00  0.00    -0.744 OA
ENDBRANCH  65  66
ENDBRANCH  44  58
BRANCH  45  70
ATOM     70  C   UNL A   1      38.263  32.430  30.659  1.00  0.00     0.058 A 
ATOM     71  C   UNL A   1      37.788  32.291  31.972  1.00  0.00     0.135 A 
ATOM     72  C   UNL A   1      37.488  33.181  29.761  1.00  0.00     0.135 A 
ATOM     73  F   UNL A   1      38.490  31.578  32.865  1.00  0.00    -0.206 F 
ATOM     74  C   UNL A   1      36.583  32.857  32.377  1.00  0.00     0.059 A 
ATOM     75  C   UNL A   1      36.290  33.774  30.149  1.00  0.00     0.059 A 
ATOM     76  F   UNL A   1      37.908  33.360  28.499  1.00  0.00    -0.206 F 
ATOM     77  C   UNL A   1      35.841  33.598  31.457  1.00  0.00     0.060 A 
BRANCH  77  78
ATOM     78  S   UNL A   1      34.301  34.368  32.005  1.00  0.00     0.124 S 
ATOM     79  O   UNL A   1      34.795  35.563  32.679  1.00  0.00    -0.237 OA
ATOM     80  O   UNL A   1      33.602  34.591  30.743  1.00  0.00    -0.237 OA
ATOM     81  O   UNL A   1      33.708  33.353  32.869  1.00  0.00    -0.744 OA
ENDBRANCH  77  78
ENDBRANCH  45  70
BRANCH  57  82
ATOM     82  C   UNL A   1      44.875  34.642  30.635  1.00  0.00     0.058 A 
ATOM     83  C   UNL A   1      45.008  35.690  29.714  1.00  0.00     0.135 A 
ATOM     84  C   UNL A   1      45.292  34.866  31.957  1.00  0.00     0.135 A 
ATOM     85  F   UNL A   1      44.629  35.521  28.437  1.00  0.00    -0.206 F 
ATOM     86  C   UNL A   1      45.550  36.916  30.086  1.00  0.00     0.059 A 
ATOM     87  C   UNL A   1      45.815  36.090  32.356  1.00  0.00     0.059 A 
ATOM     88  F   UNL A   1      45.173  33.896  32.877  1.00  0.00    -0.206 F 
ATOM     89  C   UNL A   1      45.948  37.107  31.411  1.00  0.00     0.060 A 
BRANCH  89  90
ATOM     90  S   UNL A   1      46.609  38.715  31.894  1.00  0.00     0.124 S 
ATOM     91  O   UNL A   1      45.509  39.260  32.682  1.00  0.00    -0.237 OA
ATOM     92  O   UNL A   1      47.807  38.350  32.646  1.00  0.00    -0.237 OA
ATOM     93  O   UNL A   1      46.857  39.378  30.618  1.00  0.00    -0.744 OA
ENDBRANCH  89  90
ENDBRANCH  57  82
ENDBRANCH  31  32
ENDBRANCH  23  26
ENDBRANCH  21  22
ENDBRANCH  20  21
ENDBRANCH  19  20
ENDBRANCH  18  19
ENDBRANCH   3  18
TORSDOF 21
ENDMDL
MODEL 3
REMARK VINA RESULT:      -9.1      3.163      5.090
REMARK SMILES C[N@@H+](CCCCC(=O)NCCCCNC(=O)c1ccc(-c2c3nc(c(-c4c(F)cc(S(=O)(=O)[O-])cc4F)c4ccc([nH]4)c(-c4c(F)cc(S(=O)(=O)[O-])cc4F)c4nc(c(-c5c(F)cc(S(=O)(=O)[O-])cc5F)c5ccc2[nH]5)C=C4)C=C3)cc1)CC(C)(C)O
REMARK SMILES IDX 7 1 8 2 9 3 6 5 5 6 4 7 3 8 2 9 1 10 83 12 84 13 85 14 86 15
REMARK SMILES IDX 87 16 10 18 11 19 12 20 13 21 14 22 15 23 16 25 17 26 18 27
REMARK SMILES IDX 82 28 19 29 81 30 20 31 21 32 22 33 75 34 23 35 80 36 74 37
REMARK SMILES IDX 76 38 24 39 79 40 73 41 72 42 25 44 59 45 38 46 58 47 39 48
REMARK SMILES IDX 42 49 57 50 77 51 40 52 41 53 56 55 78 56 43 57 26 58 27 59
REMARK SMILES IDX 36 60 28 61 29 62 35 63 37 64 30 65 31 66 32 67 33 68 34 69
REMARK SMILES IDX 60 70 61 71 70 72 62 73 63 74 69 75 71 76 64 77 65 78 66 79
REMARK SMILES IDX 67 80 68 81 44 82 45 83 54 84 46 85 47 86 53 87 55 88 48 89
REMARK SMILES IDX 49 90 50 91 51 92 52 93
REMARK H PARENT 9 4 2 11 87 17 14 24 76 43 42 54
REMARK Flexibility Score: inf
ROOT
ATOM      1  C   UNL A   1      35.334  33.814  29.755  1.00  0.00     0.219 C 
ATOM      2  O   UNL A   1      34.401  33.907  30.555  1.00  0.00    -0.275 OA
ATOM      3  N   UNL A   1      36.566  34.256  30.133  1.00  0.00    -0.356 N 
ATOM      4  H   UNL A   1      36.635  34.559  31.067  1.00  0.00     0.163 HD
ENDROOT
BRANCH   1   5
ATOM      5  C   UNL A   1      35.121  33.207  28.380  1.00  0.00     0.100 C 
BRANCH   5   6
ATOM      6  C   UNL A   1      35.149  31.676  28.374  1.00  0.00     0.016 C 
BRANCH   6   7
ATOM      7  C   UNL A   1      33.994  31.002  27.625  1.00  0.00     0.062 C 
BRANCH   7   8
ATOM      8  C   UNL A   1      34.180  29.526  27.267  1.00  0.00     0.262 C 
BRANCH   8   9
ATOM      9  N   UNL A   1      33.149  28.899  26.439  1.00  0.00    -0.335 N 
ATOM     10  C   UNL A   1      32.036  28.380  27.210  1.00  0.00     0.332 C 
ATOM     11  H   UNL A   1      32.724  29.654  25.901  1.00  0.00     0.347 HD
BRANCH   9  12
ATOM     12  C   UNL A   1      33.664  28.046  25.359  1.00  0.00     0.296 C 
BRANCH  12  13
ATOM     13  C   UNL A   1      33.339  28.263  23.838  1.00  0.00     0.108 C 
ATOM     14  C   UNL A   1      33.306  26.958  23.041  1.00  0.00     0.048 C 
ATOM     15  C   UNL A   1      31.971  28.956  23.740  1.00  0.00     0.048 C 
BRANCH  13  16
ATOM     16  O   UNL A   1      34.276  29.131  23.205  1.00  0.00    -0.385 OA
ATOM     17  H   UNL A   1      33.818  29.924  22.885  1.00  0.00     0.211 HD
ENDBRANCH  13  16
ENDBRANCH  12  13
ENDBRANCH   9  12
ENDBRANCH   8   9
ENDBRANCH   7   8
ENDBRANCH   6   7
ENDBRANCH   5   6
ENDBRANCH   1   5
BRANCH   3  18
ATOM     18  C   UNL A   1      37.788  34.345  29.362  1.00  0.00     0.116 C 
BRANCH  18  19
ATOM     19  C   UNL A   1      38.939  33.633  30.077  1.00  0.00     0.023 C 
BRANCH  19  20
ATOM     20  C   UNL A   1      38.971  33.777  31.587  1.00  0.00     0.023 C 
BRANCH  20  21
ATOM     21  C   UNL A   1      38.747  32.480  32.337  1.00  0.00     0.116 C 
BRANCH  21  22
ATOM     22  N   UNL A   1      37.386  31.955  32.265  1.00  0.00    -0.352 N 
ATOM     23  C   UNL A   1      36.991  30.808  31.606  1.00  0.00     0.251 C 
ATOM     24  H   UNL A   1      36.685  32.465  32.732  1.00  0.00     0.163 HD
ATOM     25  O   UNL A   1      35.816  30.463  31.559  1.00  0.00    -0.269 OA
BRANCH  23  26
ATOM     26  C   UNL A   1      38.044  30.049  30.908  1.00  0.00     0.039 A 
ATOM     27  C   UNL A   1      38.233  30.261  29.542  1.00  0.00     0.014 A 
ATOM     28  C   UNL A   1      38.977  29.341  31.667  1.00  0.00     0.014 A 
ATOM     29  C   UNL A   1      39.422  29.834  28.950  1.00  0.00     0.010 A 
ATOM     30  C   UNL A   1      40.202  29.023  31.100  1.00  0.00     0.010 A 
ATOM     31  C   UNL A   1      40.437  29.263  29.736  1.00  0.00    -0.014 A 
BRANCH  31  32
ATOM     32  C   UNL A   1      41.750  28.883  29.158  1.00  0.00     0.031 A 
ATOM     33  C   UNL A   1      42.824  29.930  29.030  1.00  0.00     0.074 A 
ATOM     34  C   UNL A   1      41.947  27.640  28.675  1.00  0.00     0.049 A 
ATOM     35  N   UNL A   1      43.996  29.845  28.460  1.00  0.00    -0.248 NA
ATOM     36  C   UNL A   1      42.517  31.264  29.573  1.00  0.00     0.031 C 
ATOM     37  C   UNL A   1      40.958  26.558  28.669  1.00  0.00     0.029 A 
ATOM     38  N   UNL A   1      43.051  27.077  28.083  1.00  0.00    -0.354 N 
ATOM     39  C   UNL A   1      44.544  31.120  28.541  1.00  0.00     0.074 A 
ATOM     40  C   UNL A   1      43.553  31.973  29.155  1.00  0.00     0.031 C 
ATOM     41  C   UNL A   1      41.512  25.455  28.139  1.00  0.00     0.029 A 
ATOM     42  C   UNL A   1      42.882  25.756  27.737  1.00  0.00     0.049 A 
ATOM     43  H   UNL A   1      43.886  27.572  27.922  1.00  0.00     0.167 HD
ATOM     44  C   UNL A   1      45.777  31.537  28.173  1.00  0.00     0.037 A 
ATOM     45  C   UNL A   1      43.741  24.888  27.166  1.00  0.00     0.037 A 
ATOM     46  C   UNL A   1      46.785  30.667  27.633  1.00  0.00     0.049 A 
ATOM     47  C   UNL A   1      45.130  25.356  26.827  1.00  0.00     0.074 A 
ATOM     48  C   UNL A   1      48.096  30.964  27.310  1.00  0.00     0.029 A 
ATOM     49  N   UNL A   1      46.595  29.322  27.354  1.00  0.00    -0.354 N 
ATOM     50  N   UNL A   1      45.657  26.549  26.973  1.00  0.00    -0.248 NA
ATOM     51  C   UNL A   1      46.046  24.361  26.251  1.00  0.00     0.031 C 
ATOM     52  C   UNL A   1      48.695  29.801  26.813  1.00  0.00     0.029 A 
ATOM     53  C   UNL A   1      47.764  28.774  26.857  1.00  0.00     0.049 A 
ATOM     54  H   UNL A   1      45.753  28.830  27.489  1.00  0.00     0.167 HD
ATOM     55  C   UNL A   1      46.971  26.442  26.533  1.00  0.00     0.074 A 
ATOM     56  C   UNL A   1      47.163  25.066  26.124  1.00  0.00     0.031 C 
ATOM     57  C   UNL A   1      47.933  27.396  26.473  1.00  0.00     0.037 A 
BRANCH  44  58
ATOM     58  C   UNL A   1      46.102  32.990  28.370  1.00  0.00     0.058 A 
ATOM     59  C   UNL A   1      45.937  33.927  27.337  1.00  0.00     0.135 A 
ATOM     60  C   UNL A   1      46.587  33.453  29.604  1.00  0.00     0.135 A 
ATOM     61  F   UNL A   1      45.497  33.534  26.131  1.00  0.00    -0.206 F 
ATOM     62  C   UNL A   1      46.278  35.264  27.507  1.00  0.00     0.059 A 
ATOM     63  C   UNL A   1      46.907  34.793  29.805  1.00  0.00     0.059 A 
ATOM     64  F   UNL A   1      46.767  32.600  30.623  1.00  0.00    -0.206 F 
ATOM     65  C   UNL A   1      46.766  35.686  28.744  1.00  0.00     0.060 A 
BRANCH  65  66
ATOM     66  S   UNL A   1      47.211  37.425  28.948  1.00  0.00     0.124 S 
ATOM     67  O   UNL A   1      46.072  37.925  29.715  1.00  0.00    -0.237 OA
ATOM     68  O   UNL A   1      48.474  37.342  29.674  1.00  0.00    -0.237 OA
ATOM     69  O   UNL A   1      47.309  37.913  27.577  1.00  0.00    -0.744 OA
ENDBRANCH  65  66
ENDBRANCH  44  58
BRANCH  45  70
ATOM     70  C   UNL A   1      43.334  23.477  26.928  1.00  0.00     0.058 A 
ATOM     71  C   UNL A   1      43.062  23.019  25.630  1.00  0.00     0.135 A 
ATOM     72  C   UNL A   1      43.215  22.559  27.983  1.00  0.00     0.135 A 
ATOM     73  F   UNL A   1      43.156  23.861  24.590  1.00  0.00    -0.206 F 
ATOM     74  C   UNL A   1      42.671  21.707  25.386  1.00  0.00     0.059 A 
ATOM     75  C   UNL A   1      42.846  21.235  27.760  1.00  0.00     0.059 A 
ATOM     76  F   UNL A   1      43.482  22.942  29.241  1.00  0.00    -0.206 F 
ATOM     77  C   UNL A   1      42.566  20.821  26.459  1.00  0.00     0.060 A 
BRANCH  77  78
ATOM     78  S   UNL A   1      42.103  19.107  26.126  1.00  0.00     0.124 S 
ATOM     79  O   UNL A   1      40.682  19.239  25.828  1.00  0.00    -0.237 OA
ATOM     80  O   UNL A   1      42.963  18.769  24.995  1.00  0.00    -0.237 OA
ATOM     81  O   UNL A   1      42.427  18.424  27.374  1.00  0.00    -0.744 OA
ENDBRANCH  77  78
ENDBRANCH  45  70
BRANCH  57  82
ATOM     82  C   UNL A   1      49.288  26.978  25.981  1.00  0.00     0.058 A 
ATOM     83  C   UNL A   1      49.625  27.040  24.621  1.00  0.00     0.135 A 
ATOM     84  C   UNL A   1      50.280  26.577  26.891  1.00  0.00     0.135 A 
ATOM     85  F   UNL A   1      48.709  27.413  23.713  1.00  0.00    -0.206 F 
ATOM     86  C   UNL A   1      50.898  26.701  24.176  1.00  0.00     0.059 A 
ATOM     87  C   UNL A   1      51.565  26.256  26.470  1.00  0.00     0.059 A 
ATOM     88  F   UNL A   1      50.007  26.514  28.204  1.00  0.00    -0.206 F 
ATOM     89  C   UNL A   1      51.863  26.313  25.108  1.00  0.00     0.060 A 
BRANCH  89  90
ATOM     90  S   UNL A   1      53.524  25.918  24.525  1.00  0.00     0.124 S 
ATOM     91  O   UNL A   1      53.495  26.454  23.169  1.00  0.00    -0.237 OA
ATOM     92  O   UNL A   1      54.370  26.638  25.473  1.00  0.00    -0.237 OA
ATOM     93  O   UNL A   1      53.581  24.463  24.625  1.00  0.00    -0.744 OA
ENDBRANCH  89  90
ENDBRANCH  57  82
ENDBRANCH  31  32
ENDBRANCH  23  26
ENDBRANCH  21  22
ENDBRANCH  20  21
ENDBRANCH  19  20
ENDBRANCH  18  19
ENDBRANCH   3  18
TORSDOF 21
ENDMDL
