MODEL 1
REMARK VINA RESULT:     -10.5      0.000      0.000
REMARK SMILES C/C(=C(/F)C(=O)NCCCCNC(=O)c1ccc(-c2c3nc(c(-c4c(F)cc(S(=O)(=O)[O-])cc4F)c4ccc([nH]4)c(-c4c(F)cc(S(=O)(=O)[O-])cc4F)c4nc(c(-c5c(F)cc(S(=O)(=O)[O-])cc5F)c5ccc2[nH]5)C=C4)C=C3)cc1)c1ccccc1F
REMARK SMILES IDX 10 1 9 2 8 3 7 4 5 5 6 6 3 8 1 9 2 10 4 11 81 12 82 13 86 14
REMARK SMILES IDX 83 15 85 16 87 17 84 18 11 19 12 20 13 21 14 23 15 24 16 25
REMARK SMILES IDX 80 26 17 27 79 28 18 29 19 30 20 31 73 32 21 33 78 34 72 35
REMARK SMILES IDX 74 36 22 37 77 38 71 39 70 40 23 42 57 43 36 44 56 45 37 46
REMARK SMILES IDX 40 47 55 48 75 49 38 50 39 51 54 53 76 54 41 55 24 56 25 57
REMARK SMILES IDX 34 58 26 59 27 60 33 61 35 62 28 63 29 64 30 65 31 66 32 67
REMARK SMILES IDX 58 68 59 69 68 70 60 71 61 72 67 73 69 74 62 75 63 76 64 77
REMARK SMILES IDX 65 78 66 79 42 80 43 81 52 82 44 83 45 84 51 85 53 86 46 87
REMARK SMILES IDX 47 88 48 89 49 90 50 91
REMARK H PARENT 7 7 12 22 74 41 40 52
REMARK Flexibility Score: inf
ROOT
ATOM      1  C   UNL A   1      41.247  20.072  27.534  1.00  0.00     0.023 C 
ENDROOT
BRANCH   1   2
ATOM      2  C   UNL A   1      41.674  19.541  26.160  1.00  0.00     0.023 C 
BRANCH   2   3
ATOM      3  C   UNL A   1      43.071  18.925  26.126  1.00  0.00     0.116 C 
BRANCH   3   4
ATOM      4  N   UNL A   1      43.634  18.976  24.786  1.00  0.00    -0.350 N 
ATOM      5  C   UNL A   1      44.515  19.826  24.183  1.00  0.00     0.280 C 
ATOM      6  O   UNL A   1      44.752  19.622  22.993  1.00  0.00    -0.267 OA
ATOM      7  H   UNL A   1      43.316  18.254  24.197  1.00  0.00     0.163 HD
BRANCH   5   8
ATOM      8  C   UNL A   1      45.178  20.924  24.954  1.00  0.00     0.191 C 
ATOM      9  C   UNL A   1      43.339  22.693  24.788  1.00  0.00     0.048 C 
ATOM     10  C   UNL A   1      44.690  22.161  25.183  1.00  0.00     0.001 C 
ATOM     11  F   UNL A   1      46.390  20.616  25.466  1.00  0.00    -0.201 F 
BRANCH  10  12
ATOM     12  C   UNL A   1      45.565  23.136  25.885  1.00  0.00     0.016 A 
ATOM     13  C   UNL A   1      45.445  23.312  27.277  1.00  0.00     0.011 A 
ATOM     14  C   UNL A   1      46.538  23.886  25.214  1.00  0.00     0.130 A 
ATOM     15  C   UNL A   1      46.252  24.226  27.960  1.00  0.00     0.001 A 
ATOM     16  C   UNL A   1      47.351  24.795  25.892  1.00  0.00     0.040 A 
ATOM     17  F   UNL A   1      46.703  23.761  23.889  1.00  0.00    -0.206 F 
ATOM     18  C   UNL A   1      47.204  24.970  27.266  1.00  0.00     0.003 A 
ENDBRANCH  10  12
ENDBRANCH   5   8
ENDBRANCH   3   4
ENDBRANCH   2   3
ENDBRANCH   1   2
BRANCH   1  19
ATOM     19  C   UNL A   1      40.758  21.519  27.557  1.00  0.00     0.116 C 
BRANCH  19  20
ATOM     20  N   UNL A   1      39.548  21.718  26.776  1.00  0.00    -0.352 N 
ATOM     21  C   UNL A   1      38.869  22.878  26.500  1.00  0.00     0.251 C 
ATOM     22  H   UNL A   1      39.160  20.902  26.386  1.00  0.00     0.163 HD
ATOM     23  O   UNL A   1      37.778  22.814  25.930  1.00  0.00    -0.269 OA
BRANCH  21  24
ATOM     24  C   UNL A   1      39.417  24.192  26.905  1.00  0.00     0.039 A 
ATOM     25  C   UNL A   1      39.296  24.581  28.241  1.00  0.00     0.014 A 
ATOM     26  C   UNL A   1      40.029  25.047  25.984  1.00  0.00     0.014 A 
ATOM     27  C   UNL A   1      39.832  25.800  28.661  1.00  0.00     0.010 A 
ATOM     28  C   UNL A   1      40.630  26.228  26.420  1.00  0.00     0.010 A 
ATOM     29  C   UNL A   1      40.532  26.622  27.762  1.00  0.00    -0.014 A 
BRANCH  29  30
ATOM     30  C   UNL A   1      41.168  27.883  28.230  1.00  0.00     0.031 A 
ATOM     31  C   UNL A   1      42.656  28.081  28.124  1.00  0.00     0.074 A 
ATOM     32  C   UNL A   1      40.397  28.848  28.771  1.00  0.00     0.049 A 
ATOM     33  N   UNL A   1      43.374  29.126  28.448  1.00  0.00    -0.248 NA
ATOM     34  C   UNL A   1      43.447  26.952  27.608  1.00  0.00     0.031 C 
ATOM     35  C   UNL A   1      38.952  28.751  28.990  1.00  0.00     0.029 A 
ATOM     36  N   UNL A   1      40.717  30.101  29.233  1.00  0.00    -0.354 N 
ATOM     37  C   UNL A   1      44.695  28.782  28.179  1.00  0.00     0.074 A 
ATOM     38  C   UNL A   1      44.685  27.409  27.724  1.00  0.00     0.031 C 
ATOM     39  C   UNL A   1      38.504  29.909  29.503  1.00  0.00     0.029 A 
ATOM     40  C   UNL A   1      39.633  30.818  29.682  1.00  0.00     0.049 A 
ATOM     41  H   UNL A   1      41.636  30.453  29.241  1.00  0.00     0.167 HD
ATOM     42  C   UNL A   1      45.809  29.548  28.274  1.00  0.00     0.037 A 
ATOM     43  C   UNL A   1      39.552  32.069  30.176  1.00  0.00     0.037 A 
ATOM     44  C   UNL A   1      45.809  30.920  28.714  1.00  0.00     0.049 A 
ATOM     45  C   UNL A   1      40.802  32.902  30.261  1.00  0.00     0.074 A 
ATOM     46  C   UNL A   1      46.877  31.797  28.794  1.00  0.00     0.029 A 
ATOM     47  N   UNL A   1      44.690  31.615  29.150  1.00  0.00    -0.354 N 
ATOM     48  N   UNL A   1      42.031  32.585  29.929  1.00  0.00    -0.248 NA
ATOM     49  C   UNL A   1      40.652  34.270  30.775  1.00  0.00     0.031 C 
ATOM     50  C   UNL A   1      46.412  33.007  29.324  1.00  0.00     0.029 A 
ATOM     51  C   UNL A   1      45.045  32.903  29.520  1.00  0.00     0.049 A 
ATOM     52  H   UNL A   1      43.778  31.248  29.190  1.00  0.00     0.167 HD
ATOM     53  C   UNL A   1      42.795  33.721  30.169  1.00  0.00     0.074 A 
ATOM     54  C   UNL A   1      41.886  34.739  30.654  1.00  0.00     0.031 C 
ATOM     55  C   UNL A   1      44.129  33.907  30.004  1.00  0.00     0.037 A 
BRANCH  42  56
ATOM     56  C   UNL A   1      47.123  28.922  27.886  1.00  0.00     0.058 A 
ATOM     57  C   UNL A   1      47.552  28.877  26.549  1.00  0.00     0.135 A 
ATOM     58  C   UNL A   1      47.984  28.400  28.865  1.00  0.00     0.135 A 
ATOM     59  F   UNL A   1      46.765  29.348  25.569  1.00  0.00    -0.206 F 
ATOM     60  C   UNL A   1      48.774  28.313  26.194  1.00  0.00     0.059 A 
ATOM     61  C   UNL A   1      49.224  27.858  28.536  1.00  0.00     0.059 A 
ATOM     62  F   UNL A   1      47.628  28.416  30.159  1.00  0.00    -0.206 F 
ATOM     63  C   UNL A   1      49.603  27.807  27.195  1.00  0.00     0.060 A 
BRANCH  63  64
ATOM     64  S   UNL A   1      51.189  27.088  26.717  1.00  0.00     0.124 S 
ATOM     65  O   UNL A   1      51.901  27.078  27.992  1.00  0.00    -0.237 OA
ATOM     66  O   UNL A   1      50.795  25.779  26.202  1.00  0.00    -0.237 OA
ATOM     67  O   UNL A   1      51.702  28.022  25.721  1.00  0.00    -0.744 OA
ENDBRANCH  63  64
ENDBRANCH  42  56
BRANCH  43  68
ATOM     68  C   UNL A   1      38.235  32.622  30.595  1.00  0.00     0.058 A 
ATOM     69  C   UNL A   1      37.788  32.505  31.919  1.00  0.00     0.135 A 
ATOM     70  C   UNL A   1      37.400  33.282  29.680  1.00  0.00     0.135 A 
ATOM     71  F   UNL A   1      38.548  31.878  32.831  1.00  0.00    -0.206 F 
ATOM     72  C   UNL A   1      36.551  32.999  32.318  1.00  0.00     0.059 A 
ATOM     73  C   UNL A   1      36.171  33.812  30.062  1.00  0.00     0.059 A 
ATOM     74  F   UNL A   1      37.789  33.438  28.405  1.00  0.00    -0.206 F 
ATOM     75  C   UNL A   1      35.750  33.653  31.381  1.00  0.00     0.060 A 
BRANCH  75  76
ATOM     76  S   UNL A   1      34.163  34.328  31.918  1.00  0.00     0.124 S 
ATOM     77  O   UNL A   1      33.475  34.511  30.645  1.00  0.00    -0.237 OA
ATOM     78  O   UNL A   1      33.651  33.262  32.773  1.00  0.00    -0.237 OA
ATOM     79  O   UNL A   1      34.539  35.555  32.615  1.00  0.00    -0.744 OA
ENDBRANCH  75  76
ENDBRANCH  43  68
BRANCH  55  80
ATOM     80  C   UNL A   1      44.677  35.272  30.321  1.00  0.00     0.058 A 
ATOM     81  C   UNL A   1      45.124  35.612  31.608  1.00  0.00     0.135 A 
ATOM     82  C   UNL A   1      44.769  36.251  29.318  1.00  0.00     0.135 A 
ATOM     83  F   UNL A   1      45.057  34.715  32.605  1.00  0.00    -0.206 F 
ATOM     84  C   UNL A   1      45.598  36.886  31.901  1.00  0.00     0.059 A 
ATOM     85  C   UNL A   1      45.272  37.522  29.580  1.00  0.00     0.059 A 
ATOM     86  F   UNL A   1      44.370  35.977  28.066  1.00  0.00    -0.206 F 
ATOM     87  C   UNL A   1      45.664  37.836  30.880  1.00  0.00     0.060 A 
BRANCH  87  88
ATOM     88  S   UNL A   1      46.278  39.487  31.273  1.00  0.00     0.124 S 
ATOM     89  O   UNL A   1      45.778  40.263  30.143  1.00  0.00    -0.237 OA
ATOM     90  O   UNL A   1      45.644  39.761  32.558  1.00  0.00    -0.237 OA
ATOM     91  O   UNL A   1      47.726  39.309  31.320  1.00  0.00    -0.744 OA
ENDBRANCH  87  88
ENDBRANCH  55  80
ENDBRANCH  29  30
ENDBRANCH  21  24
ENDBRANCH  19  20
ENDBRANCH   1  19
TORSDOF 15
ENDMDL
MODEL 2
REMARK VINA RESULT:     -10.4      5.185     11.569
REMARK SMILES C/C(=C(/F)C(=O)NCCCCNC(=O)c1ccc(-c2c3nc(c(-c4c(F)cc(S(=O)(=O)[O-])cc4F)c4ccc([nH]4)c(-c4c(F)cc(S(=O)(=O)[O-])cc4F)c4nc(c(-c5c(F)cc(S(=O)(=O)[O-])cc5F)c5ccc2[nH]5)C=C4)C=C3)cc1)c1ccccc1F
REMARK SMILES IDX 10 1 9 2 8 3 7 4 5 5 6 6 3 8 1 9 2 10 4 11 81 12 82 13 86 14
REMARK SMILES IDX 83 15 85 16 87 17 84 18 11 19 12 20 13 21 14 23 15 24 16 25
REMARK SMILES IDX 80 26 17 27 79 28 18 29 19 30 20 31 73 32 21 33 78 34 72 35
REMARK SMILES IDX 74 36 22 37 77 38 71 39 70 40 23 42 57 43 36 44 56 45 37 46
REMARK SMILES IDX 40 47 55 48 75 49 38 50 39 51 54 53 76 54 41 55 24 56 25 57
REMARK SMILES IDX 34 58 26 59 27 60 33 61 35 62 28 63 29 64 30 65 31 66 32 67
REMARK SMILES IDX 58 68 59 69 68 70 60 71 61 72 67 73 69 74 62 75 63 76 64 77
REMARK SMILES IDX 65 78 66 79 42 80 43 81 52 82 44 83 45 84 51 85 53 86 46 87
REMARK SMILES IDX 47 88 48 89 49 90 50 91
REMARK H PARENT 7 7 12 22 74 41 40 52
REMARK Flexibility Score: inf
ROOT
ATOM      1  C   UNL A   1      32.485  27.549  26.706  1.00  0.00     0.023 C 
ENDROOT
BRANCH   1   2
ATOM      2  C   UNL A   1      32.468  26.519  25.570  1.00  0.00     0.023 C 
BRANCH   2   3
ATOM      3  C   UNL A   1      33.425  26.830  24.420  1.00  0.00     0.116 C 
BRANCH   3   4
ATOM      4  N   UNL A   1      32.945  26.258  23.172  1.00  0.00    -0.350 N 
ATOM      5  C   UNL A   1      31.957  26.622  22.305  1.00  0.00     0.280 C 
ATOM      6  O   UNL A   1      31.763  25.880  21.344  1.00  0.00    -0.267 OA
ATOM      7  H   UNL A   1      33.431  25.447  22.898  1.00  0.00     0.163 HD
BRANCH   5   8
ATOM      8  C   UNL A   1      31.179  27.885  22.509  1.00  0.00     0.191 C 
ATOM      9  C   UNL A   1      29.168  26.918  23.756  1.00  0.00     0.048 C 
ATOM     10  C   UNL A   1      29.971  28.006  23.098  1.00  0.00     0.001 C 
ATOM     11  F   UNL A   1      31.775  29.007  22.047  1.00  0.00    -0.201 F 
BRANCH  10  12
ATOM     12  C   UNL A   1      29.328  29.346  23.100  1.00  0.00     0.016 A 
ATOM     13  C   UNL A   1      28.253  29.611  22.230  1.00  0.00     0.011 A 
ATOM     14  C   UNL A   1      29.736  30.370  23.963  1.00  0.00     0.130 A 
ATOM     15  C   UNL A   1      27.634  30.863  22.210  1.00  0.00     0.001 A 
ATOM     16  C   UNL A   1      29.118  31.620  23.951  1.00  0.00     0.040 A 
ATOM     17  F   UNL A   1      30.753  30.178  24.816  1.00  0.00    -0.206 F 
ATOM     18  C   UNL A   1      28.068  31.870  23.069  1.00  0.00     0.003 A 
ENDBRANCH  10  12
ENDBRANCH   5   8
ENDBRANCH   3   4
ENDBRANCH   2   3
ENDBRANCH   1   2
BRANCH   1  19
ATOM     19  C   UNL A   1      33.808  28.286  26.906  1.00  0.00     0.116 C 
BRANCH  19  20
ATOM     20  N   UNL A   1      33.630  29.643  27.396  1.00  0.00    -0.352 N 
ATOM     21  C   UNL A   1      34.504  30.443  28.089  1.00  0.00     0.251 C 
ATOM     22  H   UNL A   1      32.754  30.048  27.202  1.00  0.00     0.163 HD
ATOM     23  O   UNL A   1      34.106  31.520  28.537  1.00  0.00    -0.269 OA
BRANCH  21  24
ATOM     24  C   UNL A   1      35.900  30.012  28.325  1.00  0.00     0.039 A 
ATOM     25  C   UNL A   1      36.809  30.086  27.267  1.00  0.00     0.014 A 
ATOM     26  C   UNL A   1      36.317  29.522  29.567  1.00  0.00     0.014 A 
ATOM     27  C   UNL A   1      38.141  29.719  27.468  1.00  0.00     0.010 A 
ATOM     28  C   UNL A   1      37.662  29.228  29.786  1.00  0.00     0.010 A 
ATOM     29  C   UNL A   1      38.589  29.315  28.737  1.00  0.00    -0.014 A 
BRANCH  29  30
ATOM     30  C   UNL A   1      40.024  28.998  28.966  1.00  0.00     0.031 A 
ATOM     31  C   UNL A   1      40.951  30.016  29.576  1.00  0.00     0.074 A 
ATOM     32  C   UNL A   1      40.498  27.789  28.603  1.00  0.00     0.049 A 
ATOM     33  N   UNL A   1      42.219  29.900  29.878  1.00  0.00    -0.248 NA
ATOM     34  C   UNL A   1      40.389  31.345  29.863  1.00  0.00     0.031 C 
ATOM     35  C   UNL A   1      39.717  26.739  27.943  1.00  0.00     0.029 A 
ATOM     36  N   UNL A   1      41.746  27.234  28.740  1.00  0.00    -0.354 N 
ATOM     37  C   UNL A   1      42.605  31.135  30.387  1.00  0.00     0.074 A 
ATOM     38  C   UNL A   1      41.454  32.005  30.295  1.00  0.00     0.031 C 
ATOM     39  C   UNL A   1      40.490  25.656  27.771  1.00  0.00     0.029 A 
ATOM     40  C   UNL A   1      41.830  25.942  28.276  1.00  0.00     0.049 A 
ATOM     41  H   UNL A   1      42.509  27.715  29.134  1.00  0.00     0.167 HD
ATOM     42  C   UNL A   1      43.800  31.502  30.911  1.00  0.00     0.037 A 
ATOM     43  C   UNL A   1      42.866  25.080  28.264  1.00  0.00     0.037 A 
ATOM     44  C   UNL A   1      44.939  30.625  31.015  1.00  0.00     0.049 A 
ATOM     45  C   UNL A   1      44.179  25.508  28.861  1.00  0.00     0.074 A 
ATOM     46  C   UNL A   1      46.177  30.885  31.578  1.00  0.00     0.029 A 
ATOM     47  N   UNL A   1      44.983  29.320  30.544  1.00  0.00    -0.354 N 
ATOM     48  N   UNL A   1      44.503  26.656  29.408  1.00  0.00    -0.248 NA
ATOM     49  C   UNL A   1      45.264  24.518  28.853  1.00  0.00     0.031 C 
ATOM     50  C   UNL A   1      46.984  29.754  31.404  1.00  0.00     0.029 A 
ATOM     51  C   UNL A   1      46.232  28.769  30.785  1.00  0.00     0.049 A 
ATOM     52  H   UNL A   1      44.236  28.854  30.104  1.00  0.00     0.167 HD
ATOM     53  C   UNL A   1      45.820  26.517  29.832  1.00  0.00     0.074 A 
ATOM     54  C   UNL A   1      46.224  25.167  29.497  1.00  0.00     0.031 C 
ATOM     55  C   UNL A   1      46.623  27.424  30.443  1.00  0.00     0.037 A 
BRANCH  42  56
ATOM     56  C   UNL A   1      43.936  32.912  31.422  1.00  0.00     0.058 A 
ATOM     57  C   UNL A   1      44.361  33.961  30.589  1.00  0.00     0.135 A 
ATOM     58  C   UNL A   1      43.596  33.230  32.748  1.00  0.00     0.135 A 
ATOM     59  F   UNL A   1      44.713  33.714  29.317  1.00  0.00    -0.206 F 
ATOM     60  C   UNL A   1      44.471  35.266  31.058  1.00  0.00     0.059 A 
ATOM     61  C   UNL A   1      43.670  34.534  33.230  1.00  0.00     0.059 A 
ATOM     62  F   UNL A   1      43.183  32.270  33.590  1.00  0.00    -0.206 F 
ATOM     63  C   UNL A   1      44.122  35.543  32.380  1.00  0.00     0.060 A 
BRANCH  63  64
ATOM     64  S   UNL A   1      44.261  37.245  32.969  1.00  0.00     0.124 S 
ATOM     65  O   UNL A   1      44.222  37.991  31.714  1.00  0.00    -0.237 OA
ATOM     66  O   UNL A   1      43.083  37.377  33.821  1.00  0.00    -0.237 OA
ATOM     67  O   UNL A   1      45.542  37.261  33.668  1.00  0.00    -0.744 OA
ENDBRANCH  63  64
ENDBRANCH  42  56
BRANCH  43  68
ATOM     68  C   UNL A   1      42.693  23.714  27.698  1.00  0.00     0.058 A 
ATOM     69  C   UNL A   1      42.456  22.610  28.530  1.00  0.00     0.135 A 
ATOM     70  C   UNL A   1      42.758  23.487  26.314  1.00  0.00     0.135 A 
ATOM     71  F   UNL A   1      42.390  22.775  29.861  1.00  0.00    -0.206 F 
ATOM     72  C   UNL A   1      42.312  21.326  28.016  1.00  0.00     0.059 A 
ATOM     73  C   UNL A   1      42.588  22.216  25.774  1.00  0.00     0.059 A 
ATOM     74  F   UNL A   1      42.964  24.512  25.473  1.00  0.00    -0.206 F 
ATOM     75  C   UNL A   1      42.379  21.139  26.635  1.00  0.00     0.060 A 
BRANCH  75  76
ATOM     76  S   UNL A   1      42.151  19.474  25.972  1.00  0.00     0.124 S 
ATOM     77  O   UNL A   1      40.710  19.441  25.750  1.00  0.00    -0.237 OA
ATOM     78  O   UNL A   1      42.982  19.506  24.773  1.00  0.00    -0.237 OA
ATOM     79  O   UNL A   1      42.645  18.616  27.046  1.00  0.00    -0.744 OA
ENDBRANCH  75  76
ENDBRANCH  43  68
BRANCH  55  80
ATOM     80  C   UNL A   1      48.009  26.972  30.816  1.00  0.00     0.058 A 
ATOM     81  C   UNL A   1      48.262  26.244  31.990  1.00  0.00     0.135 A 
ATOM     82  C   UNL A   1      49.100  27.262  29.979  1.00  0.00     0.135 A 
ATOM     83  F   UNL A   1      47.256  25.941  32.827  1.00  0.00    -0.206 F 
ATOM     84  C   UNL A   1      49.551  25.859  32.344  1.00  0.00     0.059 A 
ATOM     85  C   UNL A   1      50.393  26.858  30.297  1.00  0.00     0.059 A 
ATOM     86  F   UNL A   1      48.915  27.943  28.838  1.00  0.00    -0.206 F 
ATOM     87  C   UNL A   1      50.611  26.175  31.492  1.00  0.00     0.060 A 
BRANCH  87  88
ATOM     88  S   UNL A   1      52.279  25.673  31.964  1.00  0.00     0.124 S 
ATOM     89  O   UNL A   1      52.065  24.290  32.377  1.00  0.00    -0.237 OA
ATOM     90  O   UNL A   1      53.025  25.855  30.723  1.00  0.00    -0.237 OA
ATOM     91  O   UNL A   1      52.623  26.603  33.036  1.00  0.00    -0.744 OA
ENDBRANCH  87  88
ENDBRANCH  55  80
ENDBRANCH  29  30
ENDBRANCH  21  24
ENDBRANCH  19  20
ENDBRANCH   1  19
TORSDOF 15
ENDMDL
MODEL 3
REMARK VINA RESULT:     -10.4      4.286     10.585
REMARK SMILES C/C(=C(/F)C(=O)NCCCCNC(=O)c1ccc(-c2c3nc(c(-c4c(F)cc(S(=O)(=O)[O-])cc4F)c4ccc([nH]4)c(-c4c(F)cc(S(=O)(=O)[O-])cc4F)c4nc(c(-c5c(F)cc(S(=O)(=O)[O-])cc5F)c5ccc2[nH]5)C=C4)C=C3)cc1)c1ccccc1F
REMARK SMILES IDX 10 1 9 2 8 3 7 4 5 5 6 6 3 8 1 9 2 10 4 11 81 12 82 13 86 14
REMARK SMILES IDX 83 15 85 16 87 17 84 18 11 19 12 20 13 21 14 23 15 24 16 25
REMARK SMILES IDX 80 26 17 27 79 28 18 29 19 30 20 31 73 32 21 33 78 34 72 35
REMARK SMILES IDX 74 36 22 37 77 38 71 39 70 40 23 42 57 43 36 44 56 45 37 46
REMARK SMILES IDX 40 47 55 48 75 49 38 50 39 51 54 53 76 54 41 55 24 56 25 57
REMARK SMILES IDX 34 58 26 59 27 60 33 61 35 62 28 63 29 64 30 65 31 66 32 67
REMARK SMILES IDX 58 68 59 69 68 70 60 71 61 72 67 73 69 74 62 75 63 76 64 77
REMARK SMILES IDX 65 78 66 79 42 80 43 81 52 82 44 83 45 84 51 85 53 86 46 87
REMARK SMILES IDX 47 88 48 89 49 90 50 91
REMARK H PARENT 7 7 12 22 74 41 40 52
REMARK Flexibility Score: inf
ROOT
ATOM      1  C   UNL A   1      32.300  27.470  26.896  1.00  0.00     0.023 C 
ENDROOT
BRANCH   1   2
ATOM      2  C   UNL A   1      31.649  27.564  25.511  1.00  0.00     0.023 C 
BRANCH   2   3
ATOM      3  C   UNL A   1      31.215  26.222  24.924  1.00  0.00     0.116 C 
BRANCH   3   4
ATOM      4  N   UNL A   1      30.864  25.280  25.973  1.00  0.00    -0.350 N 
ATOM      5  C   UNL A   1      31.474  24.158  26.454  1.00  0.00     0.280 C 
ATOM      6  O   UNL A   1      30.879  23.538  27.334  1.00  0.00    -0.267 OA
ATOM      7  H   UNL A   1      30.018  25.494  26.429  1.00  0.00     0.163 HD
BRANCH   5   8
ATOM      8  C   UNL A   1      32.819  23.736  25.949  1.00  0.00     0.191 C 
ATOM      9  C   UNL A   1      32.071  21.993  24.234  1.00  0.00     0.048 C 
ATOM     10  C   UNL A   1      33.076  22.786  25.026  1.00  0.00     0.001 C 
ATOM     11  F   UNL A   1      33.868  24.393  26.490  1.00  0.00    -0.201 F 
BRANCH  10  12
ATOM     12  C   UNL A   1      34.497  22.449  24.748  1.00  0.00     0.016 A 
ATOM     13  C   UNL A   1      35.099  21.354  25.395  1.00  0.00     0.011 A 
ATOM     14  C   UNL A   1      35.271  23.174  23.834  1.00  0.00     0.130 A 
ATOM     15  C   UNL A   1      36.434  21.020  25.154  1.00  0.00     0.001 A 
ATOM     16  C   UNL A   1      36.603  22.842  23.586  1.00  0.00     0.040 A 
ATOM     17  F   UNL A   1      34.753  24.227  23.184  1.00  0.00    -0.206 F 
ATOM     18  C   UNL A   1      37.188  21.766  24.250  1.00  0.00     0.003 A 
ENDBRANCH  10  12
ENDBRANCH   5   8
ENDBRANCH   3   4
ENDBRANCH   2   3
ENDBRANCH   1   2
BRANCH   1  19
ATOM     19  C   UNL A   1      33.633  28.200  27.047  1.00  0.00     0.116 C 
BRANCH  19  20
ATOM     20  N   UNL A   1      33.474  29.590  27.443  1.00  0.00    -0.352 N 
ATOM     21  C   UNL A   1      34.367  30.429  28.061  1.00  0.00     0.251 C 
ATOM     22  H   UNL A   1      32.597  29.988  27.238  1.00  0.00     0.163 HD
ATOM     23  O   UNL A   1      33.985  31.538  28.439  1.00  0.00    -0.269 OA
BRANCH  21  24
ATOM     24  C   UNL A   1      35.764  30.005  28.301  1.00  0.00     0.039 A 
ATOM     25  C   UNL A   1      36.679  30.102  27.250  1.00  0.00     0.014 A 
ATOM     26  C   UNL A   1      36.175  29.499  29.538  1.00  0.00     0.014 A 
ATOM     27  C   UNL A   1      38.012  29.740  27.455  1.00  0.00     0.010 A 
ATOM     28  C   UNL A   1      37.521  29.211  29.762  1.00  0.00     0.010 A 
ATOM     29  C   UNL A   1      38.455  29.321  28.721  1.00  0.00    -0.014 A 
BRANCH  29  30
ATOM     30  C   UNL A   1      39.891  29.010  28.955  1.00  0.00     0.031 A 
ATOM     31  C   UNL A   1      40.811  30.034  29.564  1.00  0.00     0.074 A 
ATOM     32  C   UNL A   1      40.370  27.802  28.597  1.00  0.00     0.049 A 
ATOM     33  N   UNL A   1      42.079  29.924  29.871  1.00  0.00    -0.248 NA
ATOM     34  C   UNL A   1      40.243  31.362  29.845  1.00  0.00     0.031 C 
ATOM     35  C   UNL A   1      39.596  26.747  27.939  1.00  0.00     0.029 A 
ATOM     36  N   UNL A   1      41.620  27.253  28.740  1.00  0.00    -0.354 N 
ATOM     37  C   UNL A   1      42.459  31.163  30.377  1.00  0.00     0.074 A 
ATOM     38  C   UNL A   1      41.304  32.028  30.277  1.00  0.00     0.031 C 
ATOM     39  C   UNL A   1      40.374  25.666  27.772  1.00  0.00     0.029 A 
ATOM     40  C   UNL A   1      41.711  25.959  28.281  1.00  0.00     0.049 A 
ATOM     41  H   UNL A   1      42.380  27.739  29.134  1.00  0.00     0.167 HD
ATOM     42  C   UNL A   1      43.651  31.536  30.903  1.00  0.00     0.037 A 
ATOM     43  C   UNL A   1      42.751  25.102  28.274  1.00  0.00     0.037 A 
ATOM     44  C   UNL A   1      44.793  30.665  31.013  1.00  0.00     0.049 A 
ATOM     45  C   UNL A   1      44.060  25.538  28.874  1.00  0.00     0.074 A 
ATOM     46  C   UNL A   1      46.028  30.932  31.578  1.00  0.00     0.029 A 
ATOM     47  N   UNL A   1      44.843  29.359  30.546  1.00  0.00    -0.354 N 
ATOM     48  N   UNL A   1      44.378  26.689  29.418  1.00  0.00    -0.248 NA
ATOM     49  C   UNL A   1      45.150  24.552  28.872  1.00  0.00     0.031 C 
ATOM     50  C   UNL A   1      46.840  29.804  31.410  1.00  0.00     0.029 A 
ATOM     51  C   UNL A   1      46.094  28.814  30.792  1.00  0.00     0.049 A 
ATOM     52  H   UNL A   1      44.099  28.888  30.106  1.00  0.00     0.167 HD
ATOM     53  C   UNL A   1      45.694  26.556  29.846  1.00  0.00     0.074 A 
ATOM     54  C   UNL A   1      46.105  25.207  29.517  1.00  0.00     0.031 C 
ATOM     55  C   UNL A   1      46.491  27.469  30.457  1.00  0.00     0.037 A 
BRANCH  42  56
ATOM     56  C   UNL A   1      43.779  32.949  31.409  1.00  0.00     0.058 A 
ATOM     57  C   UNL A   1      43.514  33.280  32.749  1.00  0.00     0.135 A 
ATOM     58  C   UNL A   1      44.216  33.978  30.559  1.00  0.00     0.135 A 
ATOM     59  F   UNL A   1      43.080  32.340  33.604  1.00  0.00    -0.206 F 
ATOM     60  C   UNL A   1      43.648  34.582  33.219  1.00  0.00     0.059 A 
ATOM     61  C   UNL A   1      44.387  35.283  31.015  1.00  0.00     0.059 A 
ATOM     62  F   UNL A   1      44.486  33.723  29.269  1.00  0.00    -0.206 F 
ATOM     63  C   UNL A   1      44.087  35.577  32.345  1.00  0.00     0.060 A 
BRANCH  63  64
ATOM     64  S   UNL A   1      44.266  37.259  32.975  1.00  0.00     0.124 S 
ATOM     65  O   UNL A   1      44.287  38.034  31.738  1.00  0.00    -0.237 OA
ATOM     66  O   UNL A   1      43.069  37.413  33.798  1.00  0.00    -0.237 OA
ATOM     67  O   UNL A   1      45.526  37.217  33.710  1.00  0.00    -0.744 OA
ENDBRANCH  63  64
ENDBRANCH  42  56
BRANCH  43  68
ATOM     68  C   UNL A   1      42.585  23.733  27.713  1.00  0.00     0.058 A 
ATOM     69  C   UNL A   1      42.395  22.625  28.550  1.00  0.00     0.135 A 
ATOM     70  C   UNL A   1      42.610  23.508  26.327  1.00  0.00     0.135 A 
ATOM     71  F   UNL A   1      42.369  22.787  29.883  1.00  0.00    -0.206 F 
ATOM     72  C   UNL A   1      42.259  21.338  28.040  1.00  0.00     0.059 A 
ATOM     73  C   UNL A   1      42.446  22.235  25.791  1.00  0.00     0.059 A 
ATOM     74  F   UNL A   1      42.770  24.537  25.481  1.00  0.00    -0.206 F 
ATOM     75  C   UNL A   1      42.284  21.154  26.657  1.00  0.00     0.060 A 
BRANCH  75  76
ATOM     76  S   UNL A   1      42.066  19.485  26.000  1.00  0.00     0.124 S 
ATOM     77  O   UNL A   1      42.906  19.526  24.808  1.00  0.00    -0.237 OA
ATOM     78  O   UNL A   1      42.556  18.659  27.099  1.00  0.00    -0.237 OA
ATOM     79  O   UNL A   1      40.629  19.406  25.758  1.00  0.00    -0.744 OA
ENDBRANCH  75  76
ENDBRANCH  43  68
BRANCH  55  80
ATOM     80  C   UNL A   1      47.879  27.024  30.835  1.00  0.00     0.058 A 
ATOM     81  C   UNL A   1      48.987  27.267  30.009  1.00  0.00     0.135 A 
ATOM     82  C   UNL A   1      48.103  26.358  32.052  1.00  0.00     0.135 A 
ATOM     83  F   UNL A   1      48.829  27.898  28.834  1.00  0.00    -0.206 F 
ATOM     84  C   UNL A   1      50.260  26.823  30.351  1.00  0.00     0.059 A 
ATOM     85  C   UNL A   1      49.374  25.935  32.430  1.00  0.00     0.059 A 
ATOM     86  F   UNL A   1      47.083  26.112  32.888  1.00  0.00    -0.206 F 
ATOM     87  C   UNL A   1      50.442  26.154  31.562  1.00  0.00     0.060 A 
BRANCH  87  88
ATOM     88  S   UNL A   1      52.099  25.581  31.993  1.00  0.00     0.124 S 
ATOM     89  O   UNL A   1      52.845  25.899  30.781  1.00  0.00    -0.237 OA
ATOM     90  O   UNL A   1      52.417  26.391  33.164  1.00  0.00    -0.237 OA
ATOM     91  O   UNL A   1      51.908  24.158  32.257  1.00  0.00    -0.744 OA
ENDBRANCH  87  88
ENDBRANCH  55  80
ENDBRANCH  29  30
ENDBRANCH  21  24
ENDBRANCH  19  20
ENDBRANCH   1  19
TORSDOF 15
ENDMDL
