MODEL 1
REMARK VINA RESULT:     -10.9      0.000      0.000
REMARK SMILES C[C@@H](CCO)Sc1cc(C(=O)NCCCCNC(=O)c2ccc(-c3c4nc(c(-c5c(F)cc(S(=O)(=O)[O-])cc5F)c5ccc([nH]5)c(-c5c(F)cc(S(=O)(=O)[O-])cc5F)c5nc(c(-c6c(F)cc(S(=O)(=O)[O-])cc6F)c6ccc3[nH]6)C=C5)C=C4)cc2)c2ccccc2n1
REMARK SMILES IDX 13 1 12 2 10 3 11 4 9 6 7 7 8 8 92 9 91 10 86 11 90 12 87 13
REMARK SMILES IDX 89 14 88 15 6 16 2 17 1 18 3 19 4 20 5 21 14 23 15 24 16 25
REMARK SMILES IDX 17 26 18 27 19 29 20 30 21 31 85 32 22 33 84 34 23 35 24 36
REMARK SMILES IDX 25 37 78 38 26 39 83 40 77 41 79 42 27 43 82 44 76 45 75 46
REMARK SMILES IDX 28 48 62 49 41 50 61 51 42 52 45 53 60 54 80 55 43 56 44 57
REMARK SMILES IDX 59 59 81 60 46 61 29 62 30 63 39 64 31 65 32 66 38 67 40 68
REMARK SMILES IDX 33 69 34 70 35 71 36 72 37 73 63 74 64 75 73 76 65 77 66 78
REMARK SMILES IDX 72 79 74 80 67 81 68 82 69 83 70 84 71 85 47 86 48 87 57 88
REMARK SMILES IDX 49 89 50 90 56 91 58 92 51 93 52 94 53 95 54 96 55 97
REMARK H PARENT 12 5 5 22 17 28 79 47 45 58
REMARK Flexibility Score: inf
ROOT
ATOM      1  C   UNL A   1      34.516  29.370  27.233  1.00  0.00     0.116 C 
ENDROOT
BRANCH   1   2
ATOM      2  N   UNL A   1      33.289  28.715  27.640  1.00  0.00    -0.352 N 
ATOM      3  C   UNL A   1      32.247  28.134  26.972  1.00  0.00     0.252 C 
ATOM      4  O   UNL A   1      31.254  27.874  27.659  1.00  0.00    -0.269 OA
ATOM      5  H   UNL A   1      33.183  28.680  28.617  1.00  0.00     0.163 HD
BRANCH   3   6
ATOM      6  C   UNL A   1      32.231  27.683  25.545  1.00  0.00     0.051 A 
ATOM      7  C   UNL A   1      31.400  28.318  23.385  1.00  0.00     0.098 A 
ATOM      8  C   UNL A   1      31.426  28.509  24.747  1.00  0.00     0.050 A 
ATOM      9  N   UNL A   1      31.950  27.242  22.798  1.00  0.00    -0.241 NA
ATOM     10  C   UNL A   1      32.669  26.399  23.550  1.00  0.00     0.072 A 
ATOM     11  C   UNL A   1      32.958  26.642  24.909  1.00  0.00     0.013 A 
ATOM     12  C   UNL A   1      33.221  25.298  22.905  1.00  0.00     0.029 A 
ATOM     13  C   UNL A   1      34.001  25.871  25.463  1.00  0.00     0.011 A 
ATOM     14  C   UNL A   1      34.134  24.457  23.535  1.00  0.00     0.002 A 
ATOM     15  C   UNL A   1      34.559  24.771  24.810  1.00  0.00     0.001 A 
BRANCH   7  16
ATOM     16  S   UNL A   1      30.708  29.536  22.301  1.00  0.00    -0.103 SA
BRANCH  16  17
ATOM     17  C   UNL A   1      28.892  29.422  22.664  1.00  0.00     0.052 C 
ATOM     18  C   UNL A   1      28.439  28.040  23.133  1.00  0.00     0.020 C 
BRANCH  17  19
ATOM     19  C   UNL A   1      28.307  30.584  23.490  1.00  0.00     0.043 C 
BRANCH  19  20
ATOM     20  C   UNL A   1      28.069  31.910  22.770  1.00  0.00     0.157 C 
BRANCH  20  21
ATOM     21  O   UNL A   1      29.232  32.721  22.860  1.00  0.00    -0.396 OA
ATOM     22  H   UNL A   1      29.016  33.626  22.588  1.00  0.00     0.210 HD
ENDBRANCH  20  21
ENDBRANCH  19  20
ENDBRANCH  17  19
ENDBRANCH  16  17
ENDBRANCH   7  16
ENDBRANCH   3   6
ENDBRANCH   1   2
BRANCH   1  23
ATOM     23  C   UNL A   1      34.667  30.672  28.035  1.00  0.00     0.023 C 
BRANCH  23  24
ATOM     24  C   UNL A   1      33.467  31.608  28.006  1.00  0.00     0.023 C 
BRANCH  24  25
ATOM     25  C   UNL A   1      33.686  32.870  27.190  1.00  0.00     0.116 C 
BRANCH  25  26
ATOM     26  N   UNL A   1      32.972  34.033  27.702  1.00  0.00    -0.352 N 
ATOM     27  C   UNL A   1      33.241  34.767  28.834  1.00  0.00     0.251 C 
ATOM     28  H   UNL A   1      32.198  34.331  27.170  1.00  0.00     0.163 HD
ATOM     29  O   UNL A   1      32.502  35.687  29.166  1.00  0.00    -0.269 OA
BRANCH  27  30
ATOM     30  C   UNL A   1      34.396  34.384  29.667  1.00  0.00     0.039 A 
ATOM     31  C   UNL A   1      34.164  33.713  30.868  1.00  0.00     0.014 A 
ATOM     32  C   UNL A   1      35.700  34.599  29.211  1.00  0.00     0.014 A 
ATOM     33  C   UNL A   1      35.244  33.181  31.572  1.00  0.00     0.010 A 
ATOM     34  C   UNL A   1      36.762  33.988  29.863  1.00  0.00     0.010 A 
ATOM     35  C   UNL A   1      36.546  33.273  31.049  1.00  0.00    -0.014 A 
BRANCH  35  36
ATOM     36  C   UNL A   1      37.688  32.618  31.730  1.00  0.00     0.031 A 
ATOM     37  C   UNL A   1      38.165  33.127  33.060  1.00  0.00     0.074 A 
ATOM     38  C   UNL A   1      38.332  31.606  31.115  1.00  0.00     0.049 A 
ATOM     39  N   UNL A   1      39.155  32.700  33.800  1.00  0.00    -0.248 NA
ATOM     40  C   UNL A   1      37.461  34.295  33.618  1.00  0.00     0.031 C 
ATOM     41  C   UNL A   1      38.016  31.084  29.782  1.00  0.00     0.029 A 
ATOM     42  N   UNL A   1      39.388  30.836  31.529  1.00  0.00    -0.354 N 
ATOM     43  C   UNL A   1      39.203  33.551  34.896  1.00  0.00     0.074 A 
ATOM     44  C   UNL A   1      38.184  34.558  34.696  1.00  0.00     0.031 C 
ATOM     45  C   UNL A   1      38.834  30.055  29.506  1.00  0.00     0.029 A 
ATOM     46  C   UNL A   1      39.744  29.858  30.629  1.00  0.00     0.049 A 
ATOM     47  H   UNL A   1      39.847  30.968  32.389  1.00  0.00     0.167 HD
ATOM     48  C   UNL A   1      40.001  33.481  35.988  1.00  0.00     0.037 A 
ATOM     49  C   UNL A   1      40.687  28.900  30.712  1.00  0.00     0.037 A 
ATOM     50  C   UNL A   1      40.984  32.452  36.198  1.00  0.00     0.049 A 
ATOM     51  C   UNL A   1      41.512  28.798  31.965  1.00  0.00     0.074 A 
ATOM     52  C   UNL A   1      41.803  32.252  37.295  1.00  0.00     0.029 A 
ATOM     53  N   UNL A   1      41.272  31.441  35.293  1.00  0.00    -0.354 N 
ATOM     54  N   UNL A   1      41.495  29.569  33.027  1.00  0.00    -0.248 NA
ATOM     55  C   UNL A   1      42.468  27.686  32.040  1.00  0.00     0.031 C 
ATOM     56  C   UNL A   1      42.603  31.130  37.044  1.00  0.00     0.029 A 
ATOM     57  C   UNL A   1      42.257  30.614  35.805  1.00  0.00     0.049 A 
ATOM     58  H   UNL A   1      40.841  31.329  34.415  1.00  0.00     0.167 HD
ATOM     59  C   UNL A   1      42.417  29.019  33.909  1.00  0.00     0.074 A 
ATOM     60  C   UNL A   1      42.965  27.845  33.259  1.00  0.00     0.031 C 
ATOM     61  C   UNL A   1      42.780  29.445  35.144  1.00  0.00     0.037 A 
BRANCH  48  62
ATOM     62  C   UNL A   1      39.824  34.538  37.041  1.00  0.00     0.058 A 
ATOM     63  C   UNL A   1      40.472  35.781  36.950  1.00  0.00     0.135 A 
ATOM     64  C   UNL A   1      38.993  34.314  38.151  1.00  0.00     0.135 A 
ATOM     65  F   UNL A   1      41.295  36.040  35.920  1.00  0.00    -0.206 F 
ATOM     66  C   UNL A   1      40.330  36.751  37.936  1.00  0.00     0.059 A 
ATOM     67  C   UNL A   1      38.815  35.281  39.136  1.00  0.00     0.059 A 
ATOM     68  F   UNL A   1      38.352  33.143  38.289  1.00  0.00    -0.206 F 
ATOM     69  C   UNL A   1      39.502  36.489  39.029  1.00  0.00     0.060 A 
BRANCH  69  70
ATOM     70  S   UNL A   1      39.330  37.756  40.304  1.00  0.00     0.124 S 
ATOM     71  O   UNL A   1      40.688  38.288  40.367  1.00  0.00    -0.237 OA
ATOM     72  O   UNL A   1      38.327  38.647  39.729  1.00  0.00    -0.237 OA
ATOM     73  O   UNL A   1      38.896  36.999  41.474  1.00  0.00    -0.744 OA
ENDBRANCH  69  70
ENDBRANCH  48  62
BRANCH  49  74
ATOM     74  C   UNL A   1      40.855  27.925  29.603  1.00  0.00     0.058 A 
ATOM     75  C   UNL A   1      39.957  26.860  29.442  1.00  0.00     0.135 A 
ATOM     76  C   UNL A   1      41.898  28.049  28.674  1.00  0.00     0.135 A 
ATOM     77  F   UNL A   1      38.944  26.701  30.308  1.00  0.00    -0.206 F 
ATOM     78  C   UNL A   1      40.097  25.939  28.410  1.00  0.00     0.059 A 
ATOM     79  C   UNL A   1      42.046  27.153  27.620  1.00  0.00     0.059 A 
ATOM     80  F   UNL A   1      42.770  29.065  28.772  1.00  0.00    -0.206 F 
ATOM     81  C   UNL A   1      41.146  26.094  27.503  1.00  0.00     0.060 A 
BRANCH  81  82
ATOM     82  S   UNL A   1      41.290  24.923  26.134  1.00  0.00     0.124 S 
ATOM     83  O   UNL A   1      39.937  24.381  26.069  1.00  0.00    -0.237 OA
ATOM     84  O   UNL A   1      41.687  25.788  25.028  1.00  0.00    -0.237 OA
ATOM     85  O   UNL A   1      42.322  23.998  26.596  1.00  0.00    -0.744 OA
ENDBRANCH  81  82
ENDBRANCH  49  74
BRANCH  61  86
ATOM     86  C   UNL A   1      43.788  28.614  35.884  1.00  0.00     0.058 A 
ATOM     87  C   UNL A   1      43.402  27.545  36.705  1.00  0.00     0.135 A 
ATOM     88  C   UNL A   1      45.161  28.879  35.747  1.00  0.00     0.135 A 
ATOM     89  F   UNL A   1      42.100  27.256  36.870  1.00  0.00    -0.206 F 
ATOM     90  C   UNL A   1      44.340  26.786  37.396  1.00  0.00     0.059 A 
ATOM     91  C   UNL A   1      46.118  28.118  36.410  1.00  0.00     0.059 A 
ATOM     92  F   UNL A   1      45.581  29.883  34.963  1.00  0.00    -0.206 F 
ATOM     93  C   UNL A   1      45.695  27.084  37.247  1.00  0.00     0.060 A 
BRANCH  93  94
ATOM     94  S   UNL A   1      46.908  26.090  38.141  1.00  0.00     0.124 S 
ATOM     95  O   UNL A   1      46.060  25.388  39.099  1.00  0.00    -0.237 OA
ATOM     96  O   UNL A   1      47.485  25.268  37.084  1.00  0.00    -0.237 OA
ATOM     97  O   UNL A   1      47.808  27.089  38.711  1.00  0.00    -0.744 OA
ENDBRANCH  93  94
ENDBRANCH  61  86
ENDBRANCH  35  36
ENDBRANCH  27  30
ENDBRANCH  25  26
ENDBRANCH  24  25
ENDBRANCH  23  24
ENDBRANCH   1  23
TORSDOF 19
ENDMDL
MODEL 2
REMARK VINA RESULT:     -10.9      3.156      9.405
REMARK SMILES C[C@@H](CCO)Sc1cc(C(=O)NCCCCNC(=O)c2ccc(-c3c4nc(c(-c5c(F)cc(S(=O)(=O)[O-])cc5F)c5ccc([nH]5)c(-c5c(F)cc(S(=O)(=O)[O-])cc5F)c5nc(c(-c6c(F)cc(S(=O)(=O)[O-])cc6F)c6ccc3[nH]6)C=C5)C=C4)cc2)c2ccccc2n1
REMARK SMILES IDX 13 1 12 2 10 3 11 4 9 6 7 7 8 8 92 9 91 10 86 11 90 12 87 13
REMARK SMILES IDX 89 14 88 15 6 16 2 17 1 18 3 19 4 20 5 21 14 23 15 24 16 25
REMARK SMILES IDX 17 26 18 27 19 29 20 30 21 31 85 32 22 33 84 34 23 35 24 36
REMARK SMILES IDX 25 37 78 38 26 39 83 40 77 41 79 42 27 43 82 44 76 45 75 46
REMARK SMILES IDX 28 48 62 49 41 50 61 51 42 52 45 53 60 54 80 55 43 56 44 57
REMARK SMILES IDX 59 59 81 60 46 61 29 62 30 63 39 64 31 65 32 66 38 67 40 68
REMARK SMILES IDX 33 69 34 70 35 71 36 72 37 73 63 74 64 75 73 76 65 77 66 78
REMARK SMILES IDX 72 79 74 80 67 81 68 82 69 83 70 84 71 85 47 86 48 87 57 88
REMARK SMILES IDX 49 89 50 90 56 91 58 92 51 93 52 94 53 95 54 96 55 97
REMARK H PARENT 12 5 5 22 17 28 79 47 45 58
REMARK Flexibility Score: inf
ROOT
ATOM      1  C   UNL A   1      38.162  22.830  26.090  1.00  0.00     0.116 C 
ENDROOT
BRANCH   1   2
ATOM      2  N   UNL A   1      37.778  23.046  24.710  1.00  0.00    -0.352 N 
ATOM      3  C   UNL A   1      36.619  22.883  24.002  1.00  0.00     0.252 C 
ATOM      4  O   UNL A   1      36.731  22.960  22.774  1.00  0.00    -0.269 OA
ATOM      5  H   UNL A   1      38.518  23.387  24.158  1.00  0.00     0.163 HD
BRANCH   3   6
ATOM      6  C   UNL A   1      35.237  22.741  24.556  1.00  0.00     0.051 A 
ATOM      7  C   UNL A   1      33.643  21.074  25.219  1.00  0.00     0.098 A 
ATOM      8  C   UNL A   1      34.834  21.398  24.614  1.00  0.00     0.050 A 
ATOM      9  N   UNL A   1      32.739  22.003  25.577  1.00  0.00    -0.241 NA
ATOM     10  C   UNL A   1      33.073  23.296  25.469  1.00  0.00     0.072 A 
ATOM     11  C   UNL A   1      34.362  23.724  25.091  1.00  0.00     0.013 A 
ATOM     12  C   UNL A   1      32.112  24.225  25.848  1.00  0.00     0.029 A 
ATOM     13  C   UNL A   1      34.665  25.075  25.364  1.00  0.00     0.011 A 
ATOM     14  C   UNL A   1      32.402  25.582  25.956  1.00  0.00     0.002 A 
ATOM     15  C   UNL A   1      33.700  26.004  25.753  1.00  0.00     0.001 A 
BRANCH   7  16
ATOM     16  S   UNL A   1      33.257  19.399  25.647  1.00  0.00    -0.103 SA
BRANCH  16  17
ATOM     17  C   UNL A   1      34.053  18.433  24.278  1.00  0.00     0.052 C 
ATOM     18  C   UNL A   1      35.312  17.679  24.703  1.00  0.00     0.020 C 
BRANCH  17  19
ATOM     19  C   UNL A   1      33.091  17.600  23.408  1.00  0.00     0.043 C 
BRANCH  19  20
ATOM     20  C   UNL A   1      31.982  18.348  22.670  1.00  0.00     0.157 C 
BRANCH  20  21
ATOM     21  O   UNL A   1      31.747  17.737  21.409  1.00  0.00    -0.396 OA
ATOM     22  H   UNL A   1      32.237  16.902  21.358  1.00  0.00     0.210 HD
ENDBRANCH  20  21
ENDBRANCH  19  20
ENDBRANCH  17  19
ENDBRANCH  16  17
ENDBRANCH   7  16
ENDBRANCH   3   6
ENDBRANCH   1   2
BRANCH   1  23
ATOM     23  C   UNL A   1      39.649  22.447  26.131  1.00  0.00     0.023 C 
BRANCH  23  24
ATOM     24  C   UNL A   1      40.300  22.472  27.507  1.00  0.00     0.023 C 
BRANCH  24  25
ATOM     25  C   UNL A   1      41.478  23.424  27.617  1.00  0.00     0.116 C 
BRANCH  25  26
ATOM     26  N   UNL A   1      41.877  24.016  26.345  1.00  0.00    -0.352 N 
ATOM     27  C   UNL A   1      41.895  25.345  25.994  1.00  0.00     0.251 C 
ATOM     28  H   UNL A   1      42.171  23.383  25.651  1.00  0.00     0.163 HD
ATOM     29  O   UNL A   1      42.199  25.680  24.853  1.00  0.00    -0.269 OA
BRANCH  27  30
ATOM     30  C   UNL A   1      41.482  26.347  26.994  1.00  0.00     0.039 A 
ATOM     31  C   UNL A   1      40.407  26.053  27.833  1.00  0.00     0.014 A 
ATOM     32  C   UNL A   1      42.219  27.523  27.164  1.00  0.00     0.014 A 
ATOM     33  C   UNL A   1      40.124  26.904  28.901  1.00  0.00     0.010 A 
ATOM     34  C   UNL A   1      41.994  28.316  28.281  1.00  0.00     0.010 A 
ATOM     35  C   UNL A   1      40.946  28.014  29.161  1.00  0.00    -0.014 A 
BRANCH  35  36
ATOM     36  C   UNL A   1      40.724  28.864  30.355  1.00  0.00     0.031 A 
ATOM     37  C   UNL A   1      41.568  28.672  31.583  1.00  0.00     0.074 A 
ATOM     38  C   UNL A   1      39.720  29.763  30.350  1.00  0.00     0.049 A 
ATOM     39  N   UNL A   1      41.513  29.302  32.728  1.00  0.00    -0.248 NA
ATOM     40  C   UNL A   1      42.583  27.606  31.535  1.00  0.00     0.031 C 
ATOM     41  C   UNL A   1      38.777  29.977  29.248  1.00  0.00     0.029 A 
ATOM     42  N   UNL A   1      39.322  30.664  31.303  1.00  0.00    -0.354 N 
ATOM     43  C   UNL A   1      42.470  28.702  33.536  1.00  0.00     0.074 A 
ATOM     44  C   UNL A   1      43.048  27.616  32.775  1.00  0.00     0.031 C 
ATOM     45  C   UNL A   1      37.937  30.972  29.573  1.00  0.00     0.029 A 
ATOM     46  C   UNL A   1      38.266  31.453  30.911  1.00  0.00     0.049 A 
ATOM     47  H   UNL A   1      39.751  30.741  32.185  1.00  0.00     0.167 HD
ATOM     48  C   UNL A   1      42.856  29.045  34.788  1.00  0.00     0.037 A 
ATOM     49  C   UNL A   1      37.646  32.462  31.553  1.00  0.00     0.037 A 
ATOM     50  C   UNL A   1      42.305  30.152  35.522  1.00  0.00     0.049 A 
ATOM     51  C   UNL A   1      38.141  32.872  32.912  1.00  0.00     0.074 A 
ATOM     52  C   UNL A   1      42.667  30.625  36.771  1.00  0.00     0.029 A 
ATOM     53  N   UNL A   1      41.281  30.969  35.066  1.00  0.00    -0.354 N 
ATOM     54  N   UNL A   1      39.098  32.339  33.635  1.00  0.00    -0.248 NA
ATOM     55  C   UNL A   1      37.486  34.030  33.534  1.00  0.00     0.031 C 
ATOM     56  C   UNL A   1      41.844  31.716  37.080  1.00  0.00     0.029 A 
ATOM     57  C   UNL A   1      40.995  31.942  36.008  1.00  0.00     0.049 A 
ATOM     58  H   UNL A   1      40.823  30.870  34.200  1.00  0.00     0.167 HD
ATOM     59  C   UNL A   1      39.180  33.114  34.785  1.00  0.00     0.074 A 
ATOM     60  C   UNL A   1      38.183  34.158  34.655  1.00  0.00     0.031 C 
ATOM     61  C   UNL A   1      40.004  32.977  35.853  1.00  0.00     0.037 A 
BRANCH  48  62
ATOM     62  C   UNL A   1      43.940  28.222  35.426  1.00  0.00     0.058 A 
ATOM     63  C   UNL A   1      43.639  27.114  36.236  1.00  0.00     0.135 A 
ATOM     64  C   UNL A   1      45.293  28.533  35.221  1.00  0.00     0.135 A 
ATOM     65  F   UNL A   1      42.360  26.785  36.482  1.00  0.00    -0.206 F 
ATOM     66  C   UNL A   1      44.638  26.367  36.849  1.00  0.00     0.059 A 
ATOM     67  C   UNL A   1      46.311  27.783  35.802  1.00  0.00     0.059 A 
ATOM     68  F   UNL A   1      45.637  29.583  34.457  1.00  0.00    -0.206 F 
ATOM     69  C   UNL A   1      45.973  26.712  36.628  1.00  0.00     0.060 A 
BRANCH  69  70
ATOM     70  S   UNL A   1      47.260  25.735  37.433  1.00  0.00     0.124 S 
ATOM     71  O   UNL A   1      48.439  26.121  36.663  1.00  0.00    -0.237 OA
ATOM     72  O   UNL A   1      47.213  26.224  38.807  1.00  0.00    -0.237 OA
ATOM     73  O   UNL A   1      46.809  24.360  37.244  1.00  0.00    -0.744 OA
ENDBRANCH  69  70
ENDBRANCH  48  62
BRANCH  49  74
ATOM     74  C   UNL A   1      36.535  33.193  30.890  1.00  0.00     0.058 A 
ATOM     75  C   UNL A   1      36.785  34.051  29.809  1.00  0.00     0.135 A 
ATOM     76  C   UNL A   1      35.205  33.034  31.306  1.00  0.00     0.135 A 
ATOM     77  F   UNL A   1      38.042  34.235  29.376  1.00  0.00    -0.206 F 
ATOM     78  C   UNL A   1      35.758  34.743  29.175  1.00  0.00     0.059 A 
ATOM     79  C   UNL A   1      34.159  33.698  30.674  1.00  0.00     0.059 A 
ATOM     80  F   UNL A   1      34.912  32.207  32.322  1.00  0.00    -0.206 F 
ATOM     81  C   UNL A   1      34.447  34.559  29.615  1.00  0.00     0.060 A 
BRANCH  81  82
ATOM     82  S   UNL A   1      33.113  35.421  28.753  1.00  0.00     0.124 S 
ATOM     83  O   UNL A   1      33.855  36.420  27.991  1.00  0.00    -0.237 OA
ATOM     84  O   UNL A   1      32.503  34.347  27.976  1.00  0.00    -0.237 OA
ATOM     85  O   UNL A   1      32.292  35.938  29.844  1.00  0.00    -0.744 OA
ENDBRANCH  81  82
ENDBRANCH  49  74
BRANCH  61  86
ATOM     86  C   UNL A   1      39.886  34.002  36.943  1.00  0.00     0.058 A 
ATOM     87  C   UNL A   1      40.554  35.232  36.873  1.00  0.00     0.135 A 
ATOM     88  C   UNL A   1      39.071  33.756  38.061  1.00  0.00     0.135 A 
ATOM     89  F   UNL A   1      41.348  35.512  35.826  1.00  0.00    -0.206 F 
ATOM     90  C   UNL A   1      40.448  36.173  37.891  1.00  0.00     0.059 A 
ATOM     91  C   UNL A   1      38.932  34.692  39.079  1.00  0.00     0.059 A 
ATOM     92  F   UNL A   1      38.400  32.599  38.167  1.00  0.00    -0.206 F 
ATOM     93  C   UNL A   1      39.639  35.892  38.994  1.00  0.00     0.060 A 
BRANCH  93  94
ATOM     94  S   UNL A   1      39.501  37.121  40.308  1.00  0.00     0.124 S 
ATOM     95  O   UNL A   1      40.897  37.281  40.705  1.00  0.00    -0.237 OA
ATOM     96  O   UNL A   1      38.904  38.258  39.617  1.00  0.00    -0.237 OA
ATOM     97  O   UNL A   1      38.639  36.469  41.290  1.00  0.00    -0.744 OA
ENDBRANCH  93  94
ENDBRANCH  61  86
ENDBRANCH  35  36
ENDBRANCH  27  30
ENDBRANCH  25  26
ENDBRANCH  24  25
ENDBRANCH  23  24
ENDBRANCH   1  23
TORSDOF 19
ENDMDL
MODEL 3
REMARK VINA RESULT:     -10.6      2.885      4.790
REMARK SMILES C[C@@H](CCO)Sc1cc(C(=O)NCCCCNC(=O)c2ccc(-c3c4nc(c(-c5c(F)cc(S(=O)(=O)[O-])cc5F)c5ccc([nH]5)c(-c5c(F)cc(S(=O)(=O)[O-])cc5F)c5nc(c(-c6c(F)cc(S(=O)(=O)[O-])cc6F)c6ccc3[nH]6)C=C5)C=C4)cc2)c2ccccc2n1
REMARK SMILES IDX 13 1 12 2 10 3 11 4 9 6 7 7 8 8 92 9 91 10 86 11 90 12 87 13
REMARK SMILES IDX 89 14 88 15 6 16 2 17 1 18 3 19 4 20 5 21 14 23 15 24 16 25
REMARK SMILES IDX 17 26 18 27 19 29 20 30 21 31 85 32 22 33 84 34 23 35 24 36
REMARK SMILES IDX 25 37 78 38 26 39 83 40 77 41 79 42 27 43 82 44 76 45 75 46
REMARK SMILES IDX 28 48 62 49 41 50 61 51 42 52 45 53 60 54 80 55 43 56 44 57
REMARK SMILES IDX 59 59 81 60 46 61 29 62 30 63 39 64 31 65 32 66 38 67 40 68
REMARK SMILES IDX 33 69 34 70 35 71 36 72 37 73 63 74 64 75 73 76 65 77 66 78
REMARK SMILES IDX 72 79 74 80 67 81 68 82 69 83 70 84 71 85 47 86 48 87 57 88
REMARK SMILES IDX 49 89 50 90 56 91 58 92 51 93 52 94 53 95 54 96 55 97
REMARK H PARENT 12 5 5 22 17 28 79 47 45 58
REMARK Flexibility Score: inf
ROOT
ATOM      1  C   UNL A   1      31.751  28.125  27.289  1.00  0.00     0.116 C 
ENDROOT
BRANCH   1   2
ATOM      2  N   UNL A   1      30.892  26.961  27.227  1.00  0.00    -0.352 N 
ATOM      3  C   UNL A   1      30.836  25.853  26.427  1.00  0.00     0.252 C 
ATOM      4  O   UNL A   1      29.810  25.172  26.533  1.00  0.00    -0.269 OA
ATOM      5  H   UNL A   1      30.190  26.969  27.917  1.00  0.00     0.163 HD
BRANCH   3   6
ATOM      6  C   UNL A   1      31.919  25.327  25.539  1.00  0.00     0.051 A 
ATOM      7  C   UNL A   1      33.756  23.783  25.531  1.00  0.00     0.098 A 
ATOM      8  C   UNL A   1      32.781  24.461  26.226  1.00  0.00     0.050 A 
ATOM      9  N   UNL A   1      34.060  24.068  24.253  1.00  0.00    -0.241 NA
ATOM     10  C   UNL A   1      33.292  24.944  23.592  1.00  0.00     0.072 A 
ATOM     11  C   UNL A   1      32.122  25.506  24.144  1.00  0.00     0.013 A 
ATOM     12  C   UNL A   1      33.640  25.212  22.273  1.00  0.00     0.029 A 
ATOM     13  C   UNL A   1      31.242  26.116  23.227  1.00  0.00     0.011 A 
ATOM     14  C   UNL A   1      32.818  25.956  21.432  1.00  0.00     0.002 A 
ATOM     15  C   UNL A   1      31.590  26.376  21.901  1.00  0.00     0.001 A 
BRANCH   7  16
ATOM     16  S   UNL A   1      34.622  22.421  26.259  1.00  0.00    -0.103 SA
BRANCH  16  17
ATOM     17  C   UNL A   1      34.306  21.044  25.057  1.00  0.00     0.052 C 
ATOM     18  C   UNL A   1      35.439  20.023  24.972  1.00  0.00     0.020 C 
BRANCH  17  19
ATOM     19  C   UNL A   1      32.901  20.413  25.126  1.00  0.00     0.043 C 
BRANCH  19  20
ATOM     20  C   UNL A   1      32.815  18.889  25.167  1.00  0.00     0.157 C 
BRANCH  20  21
ATOM     21  O   UNL A   1      32.599  18.455  26.503  1.00  0.00    -0.396 OA
ATOM     22  H   UNL A   1      32.722  19.202  27.109  1.00  0.00     0.210 HD
ENDBRANCH  20  21
ENDBRANCH  19  20
ENDBRANCH  17  19
ENDBRANCH  16  17
ENDBRANCH   7  16
ENDBRANCH   3   6
ENDBRANCH   1   2
BRANCH   1  23
ATOM     23  C   UNL A   1      31.648  28.884  25.958  1.00  0.00     0.023 C 
BRANCH  23  24
ATOM     24  C   UNL A   1      32.960  29.102  25.218  1.00  0.00     0.023 C 
BRANCH  24  25
ATOM     25  C   UNL A   1      34.087  29.618  26.095  1.00  0.00     0.116 C 
BRANCH  25  26
ATOM     26  N   UNL A   1      33.775  30.870  26.776  1.00  0.00    -0.352 N 
ATOM     27  C   UNL A   1      34.505  31.515  27.746  1.00  0.00     0.251 C 
ATOM     28  H   UNL A   1      32.935  31.307  26.507  1.00  0.00     0.163 HD
ATOM     29  O   UNL A   1      34.073  32.536  28.271  1.00  0.00    -0.269 OA
BRANCH  27  30
ATOM     30  C   UNL A   1      35.782  30.920  28.184  1.00  0.00     0.039 A 
ATOM     31  C   UNL A   1      36.954  31.662  28.033  1.00  0.00     0.014 A 
ATOM     32  C   UNL A   1      35.801  29.681  28.830  1.00  0.00     0.014 A 
ATOM     33  C   UNL A   1      38.135  31.195  28.608  1.00  0.00     0.010 A 
ATOM     34  C   UNL A   1      36.955  29.266  29.480  1.00  0.00     0.010 A 
ATOM     35  C   UNL A   1      38.133  30.018  29.377  1.00  0.00    -0.014 A 
BRANCH  35  36
ATOM     36  C   UNL A   1      39.355  29.569  30.086  1.00  0.00     0.031 A 
ATOM     37  C   UNL A   1      39.753  30.212  31.384  1.00  0.00     0.074 A 
ATOM     38  C   UNL A   1      40.136  28.625  29.523  1.00  0.00     0.049 A 
ATOM     39  N   UNL A   1      40.792  29.969  32.139  1.00  0.00    -0.248 NA
ATOM     40  C   UNL A   1      38.891  31.298  31.881  1.00  0.00     0.031 C 
ATOM     41  C   UNL A   1      39.899  27.991  28.223  1.00  0.00     0.029 A 
ATOM     42  N   UNL A   1      41.289  28.035  29.973  1.00  0.00    -0.354 N 
ATOM     43  C   UNL A   1      40.717  30.878  33.188  1.00  0.00     0.074 A 
ATOM     44  C   UNL A   1      39.567  31.719  32.939  1.00  0.00     0.031 C 
ATOM     45  C   UNL A   1      40.854  27.074  27.998  1.00  0.00     0.029 A 
ATOM     46  C   UNL A   1      41.781  27.069  29.125  1.00  0.00     0.049 A 
ATOM     47  H   UNL A   1      41.724  28.278  30.821  1.00  0.00     0.167 HD
ATOM     48  C   UNL A   1      41.516  30.981  34.277  1.00  0.00     0.037 A 
ATOM     49  C   UNL A   1      42.849  26.259  29.254  1.00  0.00     0.037 A 
ATOM     50  C   UNL A   1      42.633  30.113  34.537  1.00  0.00     0.049 A 
ATOM     51  C   UNL A   1      43.678  26.343  30.506  1.00  0.00     0.074 A 
ATOM     52  C   UNL A   1      43.470  30.091  35.638  1.00  0.00     0.029 A 
ATOM     53  N   UNL A   1      43.063  29.105  33.687  1.00  0.00    -0.354 N 
ATOM     54  N   UNL A   1      43.551  27.161  31.525  1.00  0.00    -0.248 NA
ATOM     55  C   UNL A   1      44.781  25.383  30.636  1.00  0.00     0.031 C 
ATOM     56  C   UNL A   1      44.421  29.081  35.444  1.00  0.00     0.029 A 
ATOM     57  C   UNL A   1      44.153  28.454  34.237  1.00  0.00     0.049 A 
ATOM     58  H   UNL A   1      42.653  28.885  32.819  1.00  0.00     0.167 HD
ATOM     59  C   UNL A   1      44.540  26.795  32.430  1.00  0.00     0.074 A 
ATOM     60  C   UNL A   1      45.248  25.676  31.842  1.00  0.00     0.031 C 
ATOM     61  C   UNL A   1      44.837  27.336  33.638  1.00  0.00     0.037 A 
BRANCH  48  62
ATOM     62  C   UNL A   1      41.189  32.058  35.272  1.00  0.00     0.058 A 
ATOM     63  C   UNL A   1      40.200  31.876  36.252  1.00  0.00     0.135 A 
ATOM     64  C   UNL A   1      41.874  33.284  35.255  1.00  0.00     0.135 A 
ATOM     65  F   UNL A   1      39.499  30.731  36.300  1.00  0.00    -0.206 F 
ATOM     66  C   UNL A   1      39.877  32.880  37.158  1.00  0.00     0.059 A 
ATOM     67  C   UNL A   1      41.587  34.293  36.169  1.00  0.00     0.059 A 
ATOM     68  F   UNL A   1      42.828  33.512  34.338  1.00  0.00    -0.206 F 
ATOM     69  C   UNL A   1      40.574  34.088  37.105  1.00  0.00     0.060 A 
BRANCH  69  70
ATOM     70  S   UNL A   1      40.143  35.386  38.284  1.00  0.00     0.124 S 
ATOM     71  O   UNL A   1      41.316  35.388  39.153  1.00  0.00    -0.237 OA
ATOM     72  O   UNL A   1      39.990  36.555  37.423  1.00  0.00    -0.237 OA
ATOM     73  O   UNL A   1      38.911  34.893  38.892  1.00  0.00    -0.744 OA
ENDBRANCH  69  70
ENDBRANCH  48  62
BRANCH  49  74
ATOM     74  C   UNL A   1      43.155  25.259  28.199  1.00  0.00     0.058 A 
ATOM     75  C   UNL A   1      43.938  25.605  27.088  1.00  0.00     0.135 A 
ATOM     76  C   UNL A   1      42.691  23.938  28.288  1.00  0.00     0.135 A 
ATOM     77  F   UNL A   1      44.403  26.858  26.960  1.00  0.00    -0.206 F 
ATOM     78  C   UNL A   1      44.236  24.682  26.091  1.00  0.00     0.059 A 
ATOM     79  C   UNL A   1      42.994  22.992  27.314  1.00  0.00     0.059 A 
ATOM     80  F   UNL A   1      41.957  23.552  29.344  1.00  0.00    -0.206 F 
ATOM     81  C   UNL A   1      43.759  23.377  26.214  1.00  0.00     0.060 A 
BRANCH  81  82
ATOM     82  S   UNL A   1      44.194  22.171  24.940  1.00  0.00     0.124 S 
ATOM     83  O   UNL A   1      43.556  20.963  25.452  1.00  0.00    -0.237 OA
ATOM     84  O   UNL A   1      43.594  22.754  23.745  1.00  0.00    -0.237 OA
ATOM     85  O   UNL A   1      45.654  22.175  24.963  1.00  0.00    -0.744 OA
ENDBRANCH  81  82
ENDBRANCH  49  74
BRANCH  61  86
ATOM     86  C   UNL A   1      45.950  26.697  34.415  1.00  0.00     0.058 A 
ATOM     87  C   UNL A   1      45.715  25.637  35.303  1.00  0.00     0.135 A 
ATOM     88  C   UNL A   1      47.274  27.137  34.249  1.00  0.00     0.135 A 
ATOM     89  F   UNL A   1      44.466  25.183  35.499  1.00  0.00    -0.206 F 
ATOM     90  C   UNL A   1      46.750  25.057  36.029  1.00  0.00     0.059 A 
ATOM     91  C   UNL A   1      48.327  26.556  34.946  1.00  0.00     0.059 A 
ATOM     92  F   UNL A   1      47.551  28.139  33.401  1.00  0.00    -0.206 F 
ATOM     93  C   UNL A   1      48.052  25.527  35.848  1.00  0.00     0.060 A 
BRANCH  93  94
ATOM     94  S   UNL A   1      49.391  24.764  36.788  1.00  0.00     0.124 S 
ATOM     95  O   UNL A   1      49.410  23.417  36.227  1.00  0.00    -0.237 OA
ATOM     96  O   UNL A   1      50.533  25.607  36.452  1.00  0.00    -0.237 OA
ATOM     97  O   UNL A   1      48.932  24.864  38.171  1.00  0.00    -0.744 OA
ENDBRANCH  93  94
ENDBRANCH  61  86
ENDBRANCH  35  36
ENDBRANCH  27  30
ENDBRANCH  25  26
ENDBRANCH  24  25
ENDBRANCH  23  24
ENDBRANCH   1  23
TORSDOF 19
ENDMDL
