MODEL 1
REMARK VINA RESULT:     -11.1      0.000      0.000
REMARK SMILES CC[C@@H]1CCCN1c1cc(C)c(N)c(C(=O)NCCCCNC(=O)c2ccc(-c3c4nc(c(-c5c(F)cc(S(=O)(=O)[O-])cc5F)c5ccc([nH]5)c(-c5c(F)cc(S(=O)(=O)[O-])cc5F)c5nc(c(-c6c(F)cc(S(=O)(=O)[O-])cc6F)c6ccc3[nH]6)C=C5)C=C4)cc2)c1
REMARK SMILES IDX 20 1 19 2 18 3 17 4 15 5 16 6 14 8 8 9 9 10 91 11 10 12
REMARK SMILES IDX 11 13 12 14 7 15 3 16 4 17 5 18 6 19 2 20 1 21 13 22 21 25
REMARK SMILES IDX 22 26 23 27 24 29 25 30 26 31 90 32 27 33 89 34 28 35 29 36
REMARK SMILES IDX 30 37 83 38 31 39 88 40 82 41 84 42 32 43 87 44 81 45 80 46
REMARK SMILES IDX 33 48 67 49 46 50 66 51 47 52 50 53 65 54 85 55 48 56 49 57
REMARK SMILES IDX 64 59 86 60 51 61 34 62 35 63 44 64 36 65 37 66 43 67 45 68
REMARK SMILES IDX 38 69 39 70 40 71 41 72 42 73 68 74 69 75 78 76 70 77 71 78
REMARK SMILES IDX 77 79 79 80 72 81 73 82 74 83 75 84 76 85 52 86 53 87 62 88
REMARK SMILES IDX 54 89 55 90 61 91 63 92 56 93 57 94 58 95 59 96 60 97
REMARK H PARENT 17 7 13 23 13 24 22 28 84 47 50 58
REMARK Flexibility Score: inf
ROOT
ATOM      1  C   UNL A   1      32.473  27.673  26.727  1.00  0.00     0.023 C 
ENDROOT
BRANCH   1   2
ATOM      2  C   UNL A   1      31.990  27.867  25.285  1.00  0.00     0.023 C 
BRANCH   2   3
ATOM      3  C   UNL A   1      31.698  26.559  24.542  1.00  0.00     0.116 C 
BRANCH   3   4
ATOM      4  N   UNL A   1      32.347  26.564  23.248  1.00  0.00    -0.352 N 
ATOM      5  C   UNL A   1      33.221  25.706  22.624  1.00  0.00     0.253 C 
ATOM      6  O   UNL A   1      33.635  26.083  21.523  1.00  0.00    -0.269 OA
ATOM      7  H   UNL A   1      32.114  27.346  22.699  1.00  0.00     0.163 HD
BRANCH   5   8
ATOM      8  C   UNL A   1      33.655  24.370  23.167  1.00  0.00     0.065 A 
ATOM      9  C   UNL A   1      35.301  22.941  24.292  1.00  0.00     0.038 A 
ATOM     10  C   UNL A   1      34.386  21.893  24.254  1.00  0.00     0.031 A 
ATOM     11  C   UNL A   1      34.936  24.149  23.696  1.00  0.00     0.042 A 
ATOM     12  C   UNL A   1      33.127  22.031  23.651  1.00  0.00    -0.025 A 
ATOM     13  C   UNL A   1      32.205  20.842  23.627  1.00  0.00     0.046 C 
ATOM     14  C   UNL A   1      32.746  23.276  23.106  1.00  0.00     0.047 A 
BRANCH   9  15
ATOM     15  N   UNL A   1      36.486  22.798  24.965  1.00  0.00    -0.369 N 
ATOM     16  C   UNL A   1      37.509  21.778  24.739  1.00  0.00     0.082 C 
ATOM     17  C   UNL A   1      38.345  21.935  26.019  1.00  0.00     0.027 C 
ATOM     18  C   UNL A   1      38.387  23.446  26.216  1.00  0.00     0.024 C 
ATOM     19  C   UNL A   1      37.024  23.931  25.720  1.00  0.00     0.117 C 
BRANCH  16  20
ATOM     20  C   UNL A   1      37.001  20.345  24.582  1.00  0.00     0.021 C 
ATOM     21  C   UNL A   1      38.036  19.310  25.006  1.00  0.00     0.006 C 
ENDBRANCH  16  20
ENDBRANCH   9  15
BRANCH  14  22
ATOM     22  N   UNL A   1      31.427  23.446  22.665  1.00  0.00    -0.398 N 
ATOM     23  H   UNL A   1      31.241  23.575  21.707  1.00  0.00     0.156 HD
ATOM     24  H   UNL A   1      30.686  23.436  23.313  1.00  0.00     0.156 HD
ENDBRANCH  14  22
ENDBRANCH   5   8
ENDBRANCH   3   4
ENDBRANCH   2   3
ENDBRANCH   1   2
BRANCH   1  25
ATOM     25  C   UNL A   1      33.792  28.364  27.056  1.00  0.00     0.116 C 
BRANCH  25  26
ATOM     26  N   UNL A   1      33.621  29.739  27.504  1.00  0.00    -0.352 N 
ATOM     27  C   UNL A   1      34.532  30.550  28.139  1.00  0.00     0.251 C 
ATOM     28  H   UNL A   1      32.739  30.139  27.330  1.00  0.00     0.163 HD
ATOM     29  O   UNL A   1      34.202  31.651  28.544  1.00  0.00    -0.269 OA
BRANCH  27  30
ATOM     30  C   UNL A   1      35.904  30.042  28.364  1.00  0.00     0.039 A 
ATOM     31  C   UNL A   1      36.817  30.096  27.309  1.00  0.00     0.014 A 
ATOM     32  C   UNL A   1      36.290  29.555  29.615  1.00  0.00     0.014 A 
ATOM     33  C   UNL A   1      38.144  29.721  27.530  1.00  0.00     0.010 A 
ATOM     34  C   UNL A   1      37.625  29.240  29.848  1.00  0.00     0.010 A 
ATOM     35  C   UNL A   1      38.565  29.324  28.809  1.00  0.00    -0.014 A 
BRANCH  35  36
ATOM     36  C   UNL A   1      39.986  29.002  29.083  1.00  0.00     0.031 A 
ATOM     37  C   UNL A   1      40.896  30.045  29.668  1.00  0.00     0.074 A 
ATOM     38  C   UNL A   1      40.472  27.794  28.734  1.00  0.00     0.049 A 
ATOM     39  N   UNL A   1      42.180  29.979  29.909  1.00  0.00    -0.248 NA
ATOM     40  C   UNL A   1      40.287  31.342  30.003  1.00  0.00     0.031 C 
ATOM     41  C   UNL A   1      39.699  26.720  28.106  1.00  0.00     0.029 A 
ATOM     42  N   UNL A   1      41.735  27.271  28.845  1.00  0.00    -0.354 N 
ATOM     43  C   UNL A   1      42.536  31.228  30.403  1.00  0.00     0.074 A 
ATOM     44  C   UNL A   1      41.342  32.046  30.387  1.00  0.00     0.031 C 
ATOM     45  C   UNL A   1      40.500  25.662  27.902  1.00  0.00     0.029 A 
ATOM     46  C   UNL A   1      41.848  25.991  28.356  1.00  0.00     0.049 A 
ATOM     47  H   UNL A   1      42.491  27.766  29.238  1.00  0.00     0.167 HD
ATOM     48  C   UNL A   1      43.744  31.647  30.850  1.00  0.00     0.037 A 
ATOM     49  C   UNL A   1      42.918  25.177  28.279  1.00  0.00     0.037 A 
ATOM     50  C   UNL A   1      44.920  30.818  30.893  1.00  0.00     0.049 A 
ATOM     51  C   UNL A   1      44.243  25.655  28.807  1.00  0.00     0.074 A 
ATOM     52  C   UNL A   1      46.175  31.129  31.386  1.00  0.00     0.029 A 
ATOM     53  N   UNL A   1      44.985  29.514  30.426  1.00  0.00    -0.354 N 
ATOM     54  N   UNL A   1      44.547  26.819  29.331  1.00  0.00    -0.248 NA
ATOM     55  C   UNL A   1      45.366  24.711  28.740  1.00  0.00     0.031 C 
ATOM     56  C   UNL A   1      47.007  30.021  31.191  1.00  0.00     0.029 A 
ATOM     57  C   UNL A   1      46.261  29.009  30.610  1.00  0.00     0.049 A 
ATOM     58  H   UNL A   1      44.234  29.019  30.025  1.00  0.00     0.167 HD
ATOM     59  C   UNL A   1      45.891  26.738  29.678  1.00  0.00     0.074 A 
ATOM     60  C   UNL A   1      46.337  25.408  29.313  1.00  0.00     0.031 C 
ATOM     61  C   UNL A   1      46.684  27.679  30.247  1.00  0.00     0.037 A 
BRANCH  48  62
ATOM     62  C   UNL A   1      43.848  33.066  31.335  1.00  0.00     0.058 A 
ATOM     63  C   UNL A   1      43.551  33.411  32.664  1.00  0.00     0.135 A 
ATOM     64  C   UNL A   1      44.269  34.089  30.471  1.00  0.00     0.135 A 
ATOM     65  F   UNL A   1      43.129  32.473  33.527  1.00  0.00    -0.206 F 
ATOM     66  C   UNL A   1      43.637  34.725  33.110  1.00  0.00     0.059 A 
ATOM     67  C   UNL A   1      44.386  35.408  30.902  1.00  0.00     0.059 A 
ATOM     68  F   UNL A   1      44.565  33.814  29.190  1.00  0.00    -0.206 F 
ATOM     69  C   UNL A   1      44.050  35.718  32.220  1.00  0.00     0.060 A 
BRANCH  69  70
ATOM     70  S   UNL A   1      44.152  37.420  32.812  1.00  0.00     0.124 S 
ATOM     71  O   UNL A   1      43.104  37.436  33.829  1.00  0.00    -0.237 OA
ATOM     72  O   UNL A   1      45.520  37.499  33.313  1.00  0.00    -0.237 OA
ATOM     73  O   UNL A   1      43.878  38.211  31.617  1.00  0.00    -0.744 OA
ENDBRANCH  69  70
ENDBRANCH  48  62
BRANCH  49  74
ATOM     74  C   UNL A   1      42.771  23.812  27.707  1.00  0.00     0.058 A 
ATOM     75  C   UNL A   1      42.852  23.601  26.324  1.00  0.00     0.135 A 
ATOM     76  C   UNL A   1      42.569  22.695  28.531  1.00  0.00     0.135 A 
ATOM     77  F   UNL A   1      43.040  24.641  25.497  1.00  0.00    -0.206 F 
ATOM     78  C   UNL A   1      42.724  22.331  25.772  1.00  0.00     0.059 A 
ATOM     79  C   UNL A   1      42.460  21.411  28.004  1.00  0.00     0.059 A 
ATOM     80  F   UNL A   1      42.504  22.843  29.864  1.00  0.00    -0.206 F 
ATOM     81  C   UNL A   1      42.529  21.241  26.623  1.00  0.00     0.060 A 
BRANCH  81  82
ATOM     82  S   UNL A   1      42.418  19.588  25.902  1.00  0.00     0.124 S 
ATOM     83  O   UNL A   1      42.684  18.744  27.061  1.00  0.00    -0.237 OA
ATOM     84  O   UNL A   1      41.049  19.565  25.394  1.00  0.00    -0.237 OA
ATOM     85  O   UNL A   1      43.456  19.602  24.876  1.00  0.00    -0.744 OA
ENDBRANCH  81  82
ENDBRANCH  49  74
BRANCH  61  86
ATOM     86  C   UNL A   1      48.107  27.296  30.539  1.00  0.00     0.058 A 
ATOM     87  C   UNL A   1      49.142  27.571  29.632  1.00  0.00     0.135 A 
ATOM     88  C   UNL A   1      48.444  26.696  31.761  1.00  0.00     0.135 A 
ATOM     89  F   UNL A   1      48.868  28.137  28.446  1.00  0.00    -0.206 F 
ATOM     90  C   UNL A   1      50.463  27.247  29.920  1.00  0.00     0.059 A 
ATOM     91  C   UNL A   1      49.762  26.384  32.081  1.00  0.00     0.059 A 
ATOM     92  F   UNL A   1      47.492  26.421  32.666  1.00  0.00    -0.206 F 
ATOM     93  C   UNL A   1      50.763  26.653  31.149  1.00  0.00     0.060 A 
BRANCH  93  94
ATOM     94  S   UNL A   1      52.486  26.271  31.530  1.00  0.00     0.124 S 
ATOM     95  O   UNL A   1      53.053  26.115  30.195  1.00  0.00    -0.237 OA
ATOM     96  O   UNL A   1      52.916  27.455  32.267  1.00  0.00    -0.237 OA
ATOM     97  O   UNL A   1      52.394  25.048  32.321  1.00  0.00    -0.744 OA
ENDBRANCH  93  94
ENDBRANCH  61  86
ENDBRANCH  35  36
ENDBRANCH  27  30
ENDBRANCH  25  26
ENDBRANCH   1  25
TORSDOF 17
ENDMDL
MODEL 2
REMARK VINA RESULT:     -11.1      3.443      8.030
REMARK SMILES CC[C@@H]1CCCN1c1cc(C)c(N)c(C(=O)NCCCCNC(=O)c2ccc(-c3c4nc(c(-c5c(F)cc(S(=O)(=O)[O-])cc5F)c5ccc([nH]5)c(-c5c(F)cc(S(=O)(=O)[O-])cc5F)c5nc(c(-c6c(F)cc(S(=O)(=O)[O-])cc6F)c6ccc3[nH]6)C=C5)C=C4)cc2)c1
REMARK SMILES IDX 20 1 19 2 18 3 17 4 15 5 16 6 14 8 8 9 9 10 91 11 10 12
REMARK SMILES IDX 11 13 12 14 7 15 3 16 4 17 5 18 6 19 2 20 1 21 13 22 21 25
REMARK SMILES IDX 22 26 23 27 24 29 25 30 26 31 90 32 27 33 89 34 28 35 29 36
REMARK SMILES IDX 30 37 83 38 31 39 88 40 82 41 84 42 32 43 87 44 81 45 80 46
REMARK SMILES IDX 33 48 67 49 46 50 66 51 47 52 50 53 65 54 85 55 48 56 49 57
REMARK SMILES IDX 64 59 86 60 51 61 34 62 35 63 44 64 36 65 37 66 43 67 45 68
REMARK SMILES IDX 38 69 39 70 40 71 41 72 42 73 68 74 69 75 78 76 70 77 71 78
REMARK SMILES IDX 77 79 79 80 72 81 73 82 74 83 75 84 76 85 52 86 53 87 62 88
REMARK SMILES IDX 54 89 55 90 61 91 63 92 56 93 57 94 58 95 59 96 60 97
REMARK H PARENT 17 7 13 23 13 24 22 28 84 47 50 58
REMARK Flexibility Score: inf
ROOT
ATOM      1  C   UNL A   1      37.963  20.584  25.200  1.00  0.00     0.023 C 
ENDROOT
BRANCH   1   2
ATOM      2  C   UNL A   1      37.423  21.891  24.607  1.00  0.00     0.023 C 
BRANCH   2   3
ATOM      3  C   UNL A   1      37.003  22.926  25.656  1.00  0.00     0.116 C 
BRANCH   3   4
ATOM      4  N   UNL A   1      36.012  22.360  26.546  1.00  0.00    -0.352 N 
ATOM      5  C   UNL A   1      34.647  22.216  26.475  1.00  0.00     0.253 C 
ATOM      6  O   UNL A   1      34.113  21.742  27.483  1.00  0.00    -0.269 OA
ATOM      7  H   UNL A   1      36.396  22.001  27.378  1.00  0.00     0.163 HD
BRANCH   5   8
ATOM      8  C   UNL A   1      33.805  22.554  25.273  1.00  0.00     0.065 A 
ATOM      9  C   UNL A   1      32.738  24.191  23.791  1.00  0.00     0.038 A 
ATOM     10  C   UNL A   1      32.318  23.145  22.973  1.00  0.00     0.031 A 
ATOM     11  C   UNL A   1      33.429  23.869  24.959  1.00  0.00     0.042 A 
ATOM     12  C   UNL A   1      32.584  21.805  23.290  1.00  0.00    -0.025 A 
ATOM     13  C   UNL A   1      32.072  20.731  22.368  1.00  0.00     0.046 C 
ATOM     14  C   UNL A   1      33.337  21.496  24.443  1.00  0.00     0.047 A 
BRANCH   9  15
ATOM     15  N   UNL A   1      32.537  25.490  23.406  1.00  0.00    -0.369 N 
ATOM     16  C   UNL A   1      31.645  26.466  24.031  1.00  0.00     0.082 C 
ATOM     17  C   UNL A   1      31.598  27.542  22.934  1.00  0.00     0.027 C 
ATOM     18  C   UNL A   1      33.041  27.593  22.445  1.00  0.00     0.024 C 
ATOM     19  C   UNL A   1      33.531  26.148  22.555  1.00  0.00     0.117 C 
BRANCH  16  20
ATOM     20  C   UNL A   1      30.242  25.965  24.374  1.00  0.00     0.021 C 
ATOM     21  C   UNL A   1      30.039  25.783  25.874  1.00  0.00     0.006 C 
ENDBRANCH  16  20
ENDBRANCH   9  15
BRANCH  14  22
ATOM     22  N   UNL A   1      33.740  20.170  24.652  1.00  0.00    -0.398 N 
ATOM     23  H   UNL A   1      33.243  19.433  24.231  1.00  0.00     0.156 HD
ATOM     24  H   UNL A   1      34.520  19.977  25.221  1.00  0.00     0.156 HD
ENDBRANCH  14  22
ENDBRANCH   5   8
ENDBRANCH   3   4
ENDBRANCH   2   3
ENDBRANCH   1   2
BRANCH   1  25
ATOM     25  C   UNL A   1      39.216  20.741  26.055  1.00  0.00     0.116 C 
BRANCH  25  26
ATOM     26  N   UNL A   1      40.097  19.584  25.997  1.00  0.00    -0.352 N 
ATOM     27  C   UNL A   1      41.468  19.548  26.101  1.00  0.00     0.251 C 
ATOM     28  H   UNL A   1      39.654  18.715  25.866  1.00  0.00     0.163 HD
ATOM     29  O   UNL A   1      42.073  18.505  25.928  1.00  0.00    -0.269 OA
BRANCH  27  30
ATOM     30  C   UNL A   1      42.195  20.807  26.376  1.00  0.00     0.039 A 
ATOM     31  C   UNL A   1      42.593  21.598  25.296  1.00  0.00     0.014 A 
ATOM     32  C   UNL A   1      42.447  21.216  27.688  1.00  0.00     0.014 A 
ATOM     33  C   UNL A   1      43.186  22.839  25.535  1.00  0.00     0.010 A 
ATOM     34  C   UNL A   1      42.983  22.478  27.924  1.00  0.00     0.010 A 
ATOM     35  C   UNL A   1      43.354  23.303  26.850  1.00  0.00    -0.014 A 
BRANCH  35  36
ATOM     36  C   UNL A   1      43.905  24.652  27.123  1.00  0.00     0.031 A 
ATOM     37  C   UNL A   1      42.996  25.762  27.565  1.00  0.00     0.074 A 
ATOM     38  C   UNL A   1      45.213  24.892  26.898  1.00  0.00     0.049 A 
ATOM     39  N   UNL A   1      43.275  27.022  27.779  1.00  0.00    -0.248 NA
ATOM     40  C   UNL A   1      41.580  25.417  27.769  1.00  0.00     0.031 C 
ATOM     41  C   UNL A   1      46.183  23.907  26.412  1.00  0.00     0.029 A 
ATOM     42  N   UNL A   1      45.948  26.041  27.034  1.00  0.00    -0.354 N 
ATOM     43  C   UNL A   1      42.070  27.624  28.123  1.00  0.00     0.074 A 
ATOM     44  C   UNL A   1      41.050  26.600  28.046  1.00  0.00     0.031 C 
ATOM     45  C   UNL A   1      47.387  24.491  26.307  1.00  0.00     0.029 A 
ATOM     46  C   UNL A   1      47.270  25.896  26.688  1.00  0.00     0.049 A 
ATOM     47  H   UNL A   1      45.565  26.892  27.351  1.00  0.00     0.167 HD
ATOM     48  C   UNL A   1      41.840  28.907  28.490  1.00  0.00     0.037 A 
ATOM     49  C   UNL A   1      48.274  26.794  26.675  1.00  0.00     0.037 A 
ATOM     50  C   UNL A   1      42.865  29.912  28.596  1.00  0.00     0.049 A 
ATOM     51  C   UNL A   1      47.999  28.206  27.113  1.00  0.00     0.074 A 
ATOM     52  C   UNL A   1      42.745  31.223  29.020  1.00  0.00     0.029 A 
ATOM     53  N   UNL A   1      44.200  29.715  28.275  1.00  0.00    -0.354 N 
ATOM     54  N   UNL A   1      46.865  28.742  27.497  1.00  0.00    -0.248 NA
ATOM     55  C   UNL A   1      49.138  29.133  27.124  1.00  0.00     0.031 C 
ATOM     56  C   UNL A   1      44.003  31.829  28.929  1.00  0.00     0.029 A 
ATOM     57  C   UNL A   1      44.913  30.884  28.482  1.00  0.00     0.049 A 
ATOM     58  H   UNL A   1      44.584  28.869  27.950  1.00  0.00     0.167 HD
ATOM     59  C   UNL A   1      47.159  30.063  27.817  1.00  0.00     0.074 A 
ATOM     60  C   UNL A   1      48.580  30.241  27.591  1.00  0.00     0.031 C 
ATOM     61  C   UNL A   1      46.329  31.039  28.259  1.00  0.00     0.037 A 
BRANCH  48  62
ATOM     62  C   UNL A   1      40.423  29.290  28.812  1.00  0.00     0.058 A 
ATOM     63  C   UNL A   1      39.992  29.461  30.138  1.00  0.00     0.135 A 
ATOM     64  C   UNL A   1      39.490  29.512  27.786  1.00  0.00     0.135 A 
ATOM     65  F   UNL A   1      40.838  29.246  31.157  1.00  0.00    -0.206 F 
ATOM     66  C   UNL A   1      38.677  29.805  30.436  1.00  0.00     0.059 A 
ATOM     67  C   UNL A   1      38.177  29.882  28.061  1.00  0.00     0.059 A 
ATOM     68  F   UNL A   1      39.850  29.363  26.501  1.00  0.00    -0.206 F 
ATOM     69  C   UNL A   1      37.776  30.009  29.391  1.00  0.00     0.060 A 
BRANCH  69  70
ATOM     70  S   UNL A   1      36.073  30.450  29.793  1.00  0.00     0.124 S 
ATOM     71  O   UNL A   1      35.936  29.885  31.132  1.00  0.00    -0.237 OA
ATOM     72  O   UNL A   1      36.099  31.908  29.721  1.00  0.00    -0.237 OA
ATOM     73  O   UNL A   1      35.295  29.789  28.750  1.00  0.00    -0.744 OA
ENDBRANCH  69  70
ENDBRANCH  48  62
BRANCH  49  74
ATOM     74  C   UNL A   1      49.639  26.374  26.262  1.00  0.00     0.058 A 
ATOM     75  C   UNL A   1      50.133  26.690  24.989  1.00  0.00     0.135 A 
ATOM     76  C   UNL A   1      50.480  25.670  27.137  1.00  0.00     0.135 A 
ATOM     77  F   UNL A   1      49.362  27.359  24.118  1.00  0.00    -0.206 F 
ATOM     78  C   UNL A   1      51.409  26.311  24.588  1.00  0.00     0.059 A 
ATOM     79  C   UNL A   1      51.770  25.299  26.767  1.00  0.00     0.059 A 
ATOM     80  F   UNL A   1      50.061  25.361  28.373  1.00  0.00    -0.206 F 
ATOM     81  C   UNL A   1      52.222  25.616  25.487  1.00  0.00     0.060 A 
BRANCH  81  82
ATOM     82  S   UNL A   1      53.898  25.175  24.977  1.00  0.00     0.124 S 
ATOM     83  O   UNL A   1      53.991  25.828  23.676  1.00  0.00    -0.237 OA
ATOM     84  O   UNL A   1      54.708  25.757  26.044  1.00  0.00    -0.237 OA
ATOM     85  O   UNL A   1      53.865  23.716  24.953  1.00  0.00    -0.744 OA
ENDBRANCH  81  82
ENDBRANCH  49  74
BRANCH  61  86
ATOM     86  C   UNL A   1      46.938  32.380  28.556  1.00  0.00     0.058 A 
ATOM     87  C   UNL A   1      47.472  32.681  29.818  1.00  0.00     0.135 A 
ATOM     88  C   UNL A   1      47.034  33.354  27.550  1.00  0.00     0.135 A 
ATOM     89  F   UNL A   1      47.397  31.785  30.814  1.00  0.00    -0.206 F 
ATOM     90  C   UNL A   1      48.066  33.911  30.079  1.00  0.00     0.059 A 
ATOM     91  C   UNL A   1      47.644  34.582  27.782  1.00  0.00     0.059 A 
ATOM     92  F   UNL A   1      46.546  33.111  26.324  1.00  0.00    -0.206 F 
ATOM     93  C   UNL A   1      48.148  34.856  29.054  1.00  0.00     0.060 A 
BRANCH  93  94
ATOM     94  S   UNL A   1      48.954  36.436  29.391  1.00  0.00     0.124 S 
ATOM     95  O   UNL A   1      48.324  36.823  30.648  1.00  0.00    -0.237 OA
ATOM     96  O   UNL A   1      50.362  36.058  29.478  1.00  0.00    -0.237 OA
ATOM     97  O   UNL A   1      48.602  37.249  28.232  1.00  0.00    -0.744 OA
ENDBRANCH  93  94
ENDBRANCH  61  86
ENDBRANCH  35  36
ENDBRANCH  27  30
ENDBRANCH  25  26
ENDBRANCH   1  25
TORSDOF 17
ENDMDL
MODEL 3
REMARK VINA RESULT:     -11.1      2.777      3.695
REMARK SMILES CC[C@@H]1CCCN1c1cc(C)c(N)c(C(=O)NCCCCNC(=O)c2ccc(-c3c4nc(c(-c5c(F)cc(S(=O)(=O)[O-])cc5F)c5ccc([nH]5)c(-c5c(F)cc(S(=O)(=O)[O-])cc5F)c5nc(c(-c6c(F)cc(S(=O)(=O)[O-])cc6F)c6ccc3[nH]6)C=C5)C=C4)cc2)c1
REMARK SMILES IDX 20 1 19 2 18 3 17 4 15 5 16 6 14 8 8 9 9 10 91 11 10 12
REMARK SMILES IDX 11 13 12 14 7 15 3 16 4 17 5 18 6 19 2 20 1 21 13 22 21 25
REMARK SMILES IDX 22 26 23 27 24 29 25 30 26 31 90 32 27 33 89 34 28 35 29 36
REMARK SMILES IDX 30 37 83 38 31 39 88 40 82 41 84 42 32 43 87 44 81 45 80 46
REMARK SMILES IDX 33 48 67 49 46 50 66 51 47 52 50 53 65 54 85 55 48 56 49 57
REMARK SMILES IDX 64 59 86 60 51 61 34 62 35 63 44 64 36 65 37 66 43 67 45 68
REMARK SMILES IDX 38 69 39 70 40 71 41 72 42 73 68 74 69 75 78 76 70 77 71 78
REMARK SMILES IDX 77 79 79 80 72 81 73 82 74 83 75 84 76 85 52 86 53 87 62 88
REMARK SMILES IDX 54 89 55 90 61 91 63 92 56 93 57 94 58 95 59 96 60 97
REMARK H PARENT 17 7 13 23 13 24 22 28 84 47 50 58
REMARK Flexibility Score: inf
ROOT
ATOM      1  C   UNL A   1      33.968  29.686  27.255  1.00  0.00     0.023 C 
ENDROOT
BRANCH   1   2
ATOM      2  C   UNL A   1      33.179  28.371  27.275  1.00  0.00     0.023 C 
BRANCH   2   3
ATOM      3  C   UNL A   1      31.880  28.409  26.464  1.00  0.00     0.116 C 
BRANCH   3   4
ATOM      4  N   UNL A   1      31.105  27.210  26.706  1.00  0.00    -0.352 N 
ATOM      5  C   UNL A   1      31.097  25.958  26.139  1.00  0.00     0.253 C 
ATOM      6  O   UNL A   1      30.224  25.194  26.561  1.00  0.00    -0.269 OA
ATOM      7  H   UNL A   1      30.445  27.313  27.428  1.00  0.00     0.163 HD
BRANCH   5   8
ATOM      8  C   UNL A   1      32.077  25.473  25.104  1.00  0.00     0.065 A 
ATOM      9  C   UNL A   1      34.051  24.166  24.462  1.00  0.00     0.038 A 
ATOM     10  C   UNL A   1      33.822  24.511  23.133  1.00  0.00     0.031 A 
ATOM     11  C   UNL A   1      33.202  24.701  25.432  1.00  0.00     0.042 A 
ATOM     12  C   UNL A   1      32.768  25.359  22.760  1.00  0.00    -0.025 A 
ATOM     13  C   UNL A   1      32.604  25.707  21.306  1.00  0.00     0.046 C 
ATOM     14  C   UNL A   1      31.880  25.844  23.744  1.00  0.00     0.047 A 
BRANCH   9  15
ATOM     15  N   UNL A   1      35.035  23.267  24.781  1.00  0.00    -0.369 N 
ATOM     16  C   UNL A   1      35.010  21.821  24.563  1.00  0.00     0.082 C 
ATOM     17  C   UNL A   1      36.184  21.386  25.456  1.00  0.00     0.027 C 
ATOM     18  C   UNL A   1      37.222  22.473  25.207  1.00  0.00     0.024 C 
ATOM     19  C   UNL A   1      36.399  23.747  25.007  1.00  0.00     0.117 C 
BRANCH  16  20
ATOM     20  C   UNL A   1      33.718  21.107  24.961  1.00  0.00     0.021 C 
ATOM     21  C   UNL A   1      32.764  20.932  23.785  1.00  0.00     0.006 C 
ENDBRANCH  16  20
ENDBRANCH   9  15
BRANCH  14  22
ATOM     22  N   UNL A   1      30.737  26.545  23.337  1.00  0.00    -0.398 N 
ATOM     23  H   UNL A   1      30.771  27.121  22.540  1.00  0.00     0.156 HD
ATOM     24  H   UNL A   1      29.899  26.460  23.848  1.00  0.00     0.156 HD
ENDBRANCH  14  22
ENDBRANCH   5   8
ENDBRANCH   3   4
ENDBRANCH   2   3
ENDBRANCH   1   2
BRANCH   1  25
ATOM     25  C   UNL A   1      35.329  29.624  27.941  1.00  0.00     0.116 C 
BRANCH  25  26
ATOM     26  N   UNL A   1      35.399  30.433  29.148  1.00  0.00    -0.352 N 
ATOM     27  C   UNL A   1      36.477  30.641  29.976  1.00  0.00     0.251 C 
ATOM     28  H   UNL A   1      34.567  30.892  29.405  1.00  0.00     0.163 HD
ATOM     29  O   UNL A   1      36.347  31.268  31.013  1.00  0.00    -0.269 OA
BRANCH  27  30
ATOM     30  C   UNL A   1      37.782  30.046  29.611  1.00  0.00     0.039 A 
ATOM     31  C   UNL A   1      38.153  30.024  28.265  1.00  0.00     0.014 A 
ATOM     32  C   UNL A   1      38.643  29.551  30.594  1.00  0.00     0.014 A 
ATOM     33  C   UNL A   1      39.423  29.565  27.910  1.00  0.00     0.010 A 
ATOM     34  C   UNL A   1      39.929  29.151  30.244  1.00  0.00     0.010 A 
ATOM     35  C   UNL A   1      40.331  29.157  28.900  1.00  0.00    -0.014 A 
BRANCH  35  36
ATOM     36  C   UNL A   1      41.712  28.745  28.550  1.00  0.00     0.031 A 
ATOM     37  C   UNL A   1      42.813  29.766  28.498  1.00  0.00     0.074 A 
ATOM     38  C   UNL A   1      41.955  27.465  28.206  1.00  0.00     0.049 A 
ATOM     39  N   UNL A   1      44.063  29.615  28.142  1.00  0.00    -0.248 NA
ATOM     40  C   UNL A   1      42.456  31.144  28.871  1.00  0.00     0.031 C 
ATOM     41  C   UNL A   1      40.955  26.395  28.163  1.00  0.00     0.029 A 
ATOM     42  N   UNL A   1      43.116  26.848  27.814  1.00  0.00    -0.354 N 
ATOM     43  C   UNL A   1      44.636  30.878  28.228  1.00  0.00     0.074 A 
ATOM     44  C   UNL A   1      43.586  31.792  28.629  1.00  0.00     0.031 C 
ATOM     45  C   UNL A   1      41.548  25.253  27.783  1.00  0.00     0.029 A 
ATOM     46  C   UNL A   1      42.962  25.513  27.526  1.00  0.00     0.049 A 
ATOM     47  H   UNL A   1      43.979  27.318  27.745  1.00  0.00     0.167 HD
ATOM     48  C   UNL A   1      45.923  31.239  28.014  1.00  0.00     0.037 A 
ATOM     49  C   UNL A   1      43.857  24.602  27.099  1.00  0.00     0.037 A 
ATOM     50  C   UNL A   1      46.968  30.320  27.648  1.00  0.00     0.049 A 
ATOM     51  C   UNL A   1      45.288  25.021  26.895  1.00  0.00     0.074 A 
ATOM     52  C   UNL A   1      48.316  30.574  27.471  1.00  0.00     0.029 A 
ATOM     53  N   UNL A   1      46.780  28.967  27.405  1.00  0.00    -0.354 N 
ATOM     54  N   UNL A   1      45.826  26.208  27.044  1.00  0.00    -0.248 NA
ATOM     55  C   UNL A   1      46.233  23.979  26.473  1.00  0.00     0.031 C 
ATOM     56  C   UNL A   1      48.940  29.381  27.092  1.00  0.00     0.029 A 
ATOM     57  C   UNL A   1      47.987  28.375  27.068  1.00  0.00     0.049 A 
ATOM     58  H   UNL A   1      45.918  28.496  27.464  1.00  0.00     0.167 HD
ATOM     59  C   UNL A   1      47.177  26.050  26.757  1.00  0.00     0.074 A 
ATOM     60  C   UNL A   1      47.375  24.650  26.435  1.00  0.00     0.031 C 
ATOM     61  C   UNL A   1      48.165  26.978  26.759  1.00  0.00     0.037 A 
BRANCH  48  62
ATOM     62  C   UNL A   1      46.271  32.692  28.181  1.00  0.00     0.058 A 
ATOM     63  C   UNL A   1      46.120  33.608  27.128  1.00  0.00     0.135 A 
ATOM     64  C   UNL A   1      46.740  33.179  29.412  1.00  0.00     0.135 A 
ATOM     65  F   UNL A   1      45.691  33.192  25.926  1.00  0.00    -0.206 F 
ATOM     66  C   UNL A   1      46.453  34.950  27.279  1.00  0.00     0.059 A 
ATOM     67  C   UNL A   1      47.055  34.523  29.592  1.00  0.00     0.059 A 
ATOM     68  F   UNL A   1      46.903  32.346  30.451  1.00  0.00    -0.206 F 
ATOM     69  C   UNL A   1      46.923  35.397  28.514  1.00  0.00     0.060 A 
BRANCH  69  70
ATOM     70  S   UNL A   1      47.355  37.141  28.694  1.00  0.00     0.124 S 
ATOM     71  O   UNL A   1      48.814  37.079  28.696  1.00  0.00    -0.237 OA
ATOM     72  O   UNL A   1      46.750  37.740  27.508  1.00  0.00    -0.237 OA
ATOM     73  O   UNL A   1      46.740  37.514  29.963  1.00  0.00    -0.744 OA
ENDBRANCH  69  70
ENDBRANCH  48  62
BRANCH  49  74
ATOM     74  C   UNL A   1      43.433  23.196  26.868  1.00  0.00     0.058 A 
ATOM     75  C   UNL A   1      43.338  22.680  25.568  1.00  0.00     0.135 A 
ATOM     76  C   UNL A   1      43.134  22.340  27.938  1.00  0.00     0.135 A 
ATOM     77  F   UNL A   1      43.611  23.464  24.514  1.00  0.00    -0.206 F 
ATOM     78  C   UNL A   1      42.949  21.366  25.333  1.00  0.00     0.059 A 
ATOM     79  C   UNL A   1      42.764  21.014  27.729  1.00  0.00     0.059 A 
ATOM     80  F   UNL A   1      43.228  22.782  29.202  1.00  0.00    -0.206 F 
ATOM     81  C   UNL A   1      42.665  20.539  26.422  1.00  0.00     0.060 A 
BRANCH  81  82
ATOM     82  S   UNL A   1      42.213  18.818  26.110  1.00  0.00     0.124 S 
ATOM     83  O   UNL A   1      40.814  18.949  25.719  1.00  0.00    -0.237 OA
ATOM     84  O   UNL A   1      43.142  18.442  25.049  1.00  0.00    -0.237 OA
ATOM     85  O   UNL A   1      42.452  18.173  27.398  1.00  0.00    -0.744 OA
ENDBRANCH  81  82
ENDBRANCH  49  74
BRANCH  61  86
ATOM     86  C   UNL A   1      49.554  26.509  26.433  1.00  0.00     0.058 A 
ATOM     87  C   UNL A   1      50.099  26.664  25.150  1.00  0.00     0.135 A 
ATOM     88  C   UNL A   1      50.364  25.945  27.430  1.00  0.00     0.135 A 
ATOM     89  F   UNL A   1      49.360  27.190  24.161  1.00  0.00    -0.206 F 
ATOM     90  C   UNL A   1      51.398  26.258  24.861  1.00  0.00     0.059 A 
ATOM     91  C   UNL A   1      51.674  25.554  27.170  1.00  0.00     0.059 A 
ATOM     92  F   UNL A   1      49.892  25.784  28.676  1.00  0.00    -0.206 F 
ATOM     93  C   UNL A   1      52.178  25.705  25.878  1.00  0.00     0.060 A 
BRANCH  93  94
ATOM     94  S   UNL A   1      53.876  25.217  25.503  1.00  0.00     0.124 S 
ATOM     95  O   UNL A   1      54.600  25.786  26.634  1.00  0.00    -0.237 OA
ATOM     96  O   UNL A   1      53.786  23.760  25.475  1.00  0.00    -0.237 OA
ATOM     97  O   UNL A   1      54.130  25.847  24.211  1.00  0.00    -0.744 OA
ENDBRANCH  93  94
ENDBRANCH  61  86
ENDBRANCH  35  36
ENDBRANCH  27  30
ENDBRANCH  25  26
ENDBRANCH   1  25
TORSDOF 17
ENDMDL
