MODEL 1
REMARK VINA RESULT:     -11.9      0.000      0.000
REMARK SMILES COc1cc(C(=O)NCCCCNC(=O)c2ccc(-c3c4nc(c(-c5c(F)cc(S(=O)(=O)[O-])cc5F)c5ccc([nH]5)c(-c5c(F)cc(S(=O)(=O)[O-])cc5F)c5nc(c(-c6c(F)cc(S(=O)(=O)[O-])cc6F)c6ccc3[nH]6)C=C5)C=C4)cc2)ccc1OCC(=O)N[C@H]1CCCC[C@H]1C
REMARK SMILES IDX 10 1 9 2 8 3 6 4 7 5 5 7 3 8 4 9 84 10 83 11 82 12 2 13 1 14
REMARK SMILES IDX 85 15 86 16 87 17 88 18 89 19 90 21 91 22 95 23 92 24 94 25
REMARK SMILES IDX 96 26 93 27 11 28 12 29 13 30 14 31 15 33 16 34 17 35 81 36
REMARK SMILES IDX 18 37 80 38 19 39 20 40 21 41 74 42 22 43 79 44 73 45 75 46
REMARK SMILES IDX 23 47 78 48 72 49 71 50 24 52 58 53 37 54 57 55 38 56 41 57
REMARK SMILES IDX 56 58 76 59 39 60 40 61 55 63 77 64 42 65 25 66 26 67 35 68
REMARK SMILES IDX 27 69 28 70 34 71 36 72 29 73 30 74 31 75 32 76 33 77 59 78
REMARK SMILES IDX 60 79 69 80 61 81 62 82 68 83 70 84 63 85 64 86 65 87 66 88
REMARK SMILES IDX 67 89 43 90 44 91 53 92 45 93 46 94 52 95 54 96 47 97 48 98
REMARK SMILES IDX 49 99 50 100 51 101
REMARK H PARENT 8 6 89 20 13 32 75 51 41 62
REMARK Flexibility Score: inf
ROOT
ATOM      1  C   UNL A   1      32.917  29.362  24.866  1.00  0.00     0.023 C 
ENDROOT
BRANCH   1   2
ATOM      2  C   UNL A   1      31.409  29.534  25.020  1.00  0.00     0.116 C 
BRANCH   2   3
ATOM      3  N   UNL A   1      30.717  29.842  23.779  1.00  0.00    -0.352 N 
ATOM      4  C   UNL A   1      30.247  29.015  22.787  1.00  0.00     0.251 C 
ATOM      5  O   UNL A   1      29.718  29.500  21.789  1.00  0.00    -0.269 OA
ATOM      6  H   UNL A   1      30.558  30.801  23.624  1.00  0.00     0.163 HD
BRANCH   4   7
ATOM      7  C   UNL A   1      30.414  27.546  22.869  1.00  0.00     0.043 A 
ATOM      8  C   UNL A   1      31.687  25.587  22.223  1.00  0.00     0.161 A 
ATOM      9  C   UNL A   1      31.422  26.956  22.102  1.00  0.00     0.064 A 
ATOM     10  C   UNL A   1      30.981  24.816  23.154  1.00  0.00     0.161 A 
ATOM     11  C   UNL A   1      29.928  25.405  23.862  1.00  0.00     0.051 A 
ATOM     12  C   UNL A   1      29.608  26.750  23.682  1.00  0.00     0.018 A 
BRANCH   8  13
ATOM     13  O   UNL A   1      32.720  25.061  21.496  1.00  0.00    -0.493 OA
ATOM     14  C   UNL A   1      32.582  25.366  20.104  1.00  0.00     0.278 C 
ENDBRANCH   8  13
BRANCH  10  15
ATOM     15  O   UNL A   1      31.232  23.529  23.538  1.00  0.00    -0.480 OA
BRANCH  15  16
ATOM     16  C   UNL A   1      31.602  23.291  24.882  1.00  0.00     0.329 C 
BRANCH  16  17
ATOM     17  C   UNL A   1      32.166  21.900  25.159  1.00  0.00     0.258 C 
ATOM     18  O   UNL A   1      31.428  20.942  25.402  1.00  0.00    -0.271 OA
ATOM     19  N   UNL A   1      33.506  21.658  25.070  1.00  0.00    -0.350 N 
ATOM     20  H   UNL A   1      33.746  20.711  25.193  1.00  0.00     0.163 HD
BRANCH  19  21
ATOM     21  C   UNL A   1      34.657  22.538  24.827  1.00  0.00     0.085 C 
ATOM     22  C   UNL A   1      34.977  23.269  26.148  1.00  0.00     0.025 C 
ATOM     23  C   UNL A   1      35.909  21.826  24.256  1.00  0.00     0.008 C 
ATOM     24  C   UNL A   1      36.203  24.171  26.070  1.00  0.00     0.002 C 
ATOM     25  C   UNL A   1      37.118  22.776  24.199  1.00  0.00     0.005 C 
ATOM     26  C   UNL A   1      36.262  20.532  25.001  1.00  0.00     0.010 C 
ATOM     27  C   UNL A   1      37.422  23.430  25.541  1.00  0.00     0.000 C 
ENDBRANCH  19  21
ENDBRANCH  16  17
ENDBRANCH  15  16
ENDBRANCH  10  15
ENDBRANCH   4   7
ENDBRANCH   2   3
ENDBRANCH   1   2
BRANCH   1  28
ATOM     28  C   UNL A   1      33.569  28.305  25.751  1.00  0.00     0.023 C 
BRANCH  28  29
ATOM     29  C   UNL A   1      33.433  28.516  27.255  1.00  0.00     0.116 C 
BRANCH  29  30
ATOM     30  N   UNL A   1      33.430  29.917  27.651  1.00  0.00    -0.352 N 
ATOM     31  C   UNL A   1      34.447  30.674  28.186  1.00  0.00     0.251 C 
ATOM     32  H   UNL A   1      32.577  30.392  27.518  1.00  0.00     0.163 HD
ATOM     33  O   UNL A   1      34.231  31.831  28.540  1.00  0.00    -0.269 OA
BRANCH  31  34
ATOM     34  C   UNL A   1      35.787  30.077  28.376  1.00  0.00     0.039 A 
ATOM     35  C   UNL A   1      36.684  30.075  27.305  1.00  0.00     0.014 A 
ATOM     36  C   UNL A   1      36.174  29.569  29.619  1.00  0.00     0.014 A 
ATOM     37  C   UNL A   1      38.002  29.654  27.507  1.00  0.00     0.010 A 
ATOM     38  C   UNL A   1      37.505  29.224  29.836  1.00  0.00     0.010 A 
ATOM     39  C   UNL A   1      38.436  29.273  28.787  1.00  0.00    -0.014 A 
BRANCH  39  40
ATOM     40  C   UNL A   1      39.856  28.932  29.063  1.00  0.00     0.031 A 
ATOM     41  C   UNL A   1      40.794  29.990  29.577  1.00  0.00     0.074 A 
ATOM     42  C   UNL A   1      40.323  27.702  28.765  1.00  0.00     0.049 A 
ATOM     43  N   UNL A   1      42.091  29.941  29.732  1.00  0.00    -0.248 NA
ATOM     44  C   UNL A   1      40.194  31.286  29.934  1.00  0.00     0.031 C 
ATOM     45  C   UNL A   1      39.526  26.600  28.219  1.00  0.00     0.029 A 
ATOM     46  N   UNL A   1      41.589  27.178  28.856  1.00  0.00    -0.354 N 
ATOM     47  C   UNL A   1      42.464  31.199  30.190  1.00  0.00     0.074 A 
ATOM     48  C   UNL A   1      41.264  32.006  30.236  1.00  0.00     0.031 C 
ATOM     49  C   UNL A   1      40.319  25.533  28.030  1.00  0.00     0.029 A 
ATOM     50  C   UNL A   1      41.686  25.882  28.400  1.00  0.00     0.049 A 
ATOM     51  H   UNL A   1      42.355  27.681  29.214  1.00  0.00     0.167 HD
ATOM     52  C   UNL A   1      43.692  31.635  30.562  1.00  0.00     0.037 A 
ATOM     53  C   UNL A   1      42.760  25.076  28.275  1.00  0.00     0.037 A 
ATOM     54  C   UNL A   1      44.879  30.822  30.540  1.00  0.00     0.049 A 
ATOM     55  C   UNL A   1      44.113  25.584  28.694  1.00  0.00     0.074 A 
ATOM     56  C   UNL A   1      46.163  31.163  30.923  1.00  0.00     0.029 A 
ATOM     57  N   UNL A   1      44.925  29.501  30.119  1.00  0.00    -0.354 N 
ATOM     58  N   UNL A   1      44.441  26.766  29.159  1.00  0.00    -0.248 NA
ATOM     59  C   UNL A   1      45.242  24.649  28.579  1.00  0.00     0.031 C 
ATOM     60  C   UNL A   1      46.992  30.057  30.710  1.00  0.00     0.029 A 
ATOM     61  C   UNL A   1      46.215  29.014  30.231  1.00  0.00     0.049 A 
ATOM     62  H   UNL A   1      44.154  28.986  29.789  1.00  0.00     0.167 HD
ATOM     63  C   UNL A   1      45.806  26.706  29.418  1.00  0.00     0.074 A 
ATOM     64  C   UNL A   1      46.242  25.371  29.067  1.00  0.00     0.031 C 
ATOM     65  C   UNL A   1      46.625  27.672  29.901  1.00  0.00     0.037 A 
BRANCH  52  66
ATOM     66  C   UNL A   1      43.806  33.054  31.046  1.00  0.00     0.058 A 
ATOM     67  C   UNL A   1      44.133  34.100  30.168  1.00  0.00     0.135 A 
ATOM     68  C   UNL A   1      43.557  33.379  32.388  1.00  0.00     0.135 A 
ATOM     69  F   UNL A   1      44.398  33.842  28.877  1.00  0.00    -0.206 F 
ATOM     70  C   UNL A   1      44.238  35.414  30.610  1.00  0.00     0.059 A 
ATOM     71  C   UNL A   1      43.629  34.692  32.847  1.00  0.00     0.059 A 
ATOM     72  F   UNL A   1      43.241  32.418  33.270  1.00  0.00    -0.206 F 
ATOM     73  C   UNL A   1      43.986  35.700  31.953  1.00  0.00     0.060 A 
BRANCH  73  74
ATOM     74  S   UNL A   1      44.123  37.412  32.507  1.00  0.00     0.124 S 
ATOM     75  O   UNL A   1      43.064  37.478  33.509  1.00  0.00    -0.237 OA
ATOM     76  O   UNL A   1      45.486  37.467  33.024  1.00  0.00    -0.237 OA
ATOM     77  O   UNL A   1      43.885  38.183  31.292  1.00  0.00    -0.744 OA
ENDBRANCH  73  74
ENDBRANCH  52  66
BRANCH  53  78
ATOM     78  C   UNL A   1      42.601  23.700  27.732  1.00  0.00     0.058 A 
ATOM     79  C   UNL A   1      42.522  23.474  26.350  1.00  0.00     0.135 A 
ATOM     80  C   UNL A   1      42.515  22.586  28.581  1.00  0.00     0.135 A 
ATOM     81  F   UNL A   1      42.593  24.506  25.497  1.00  0.00    -0.206 F 
ATOM     82  C   UNL A   1      42.335  22.197  25.828  1.00  0.00     0.059 A 
ATOM     83  C   UNL A   1      42.354  21.297  28.083  1.00  0.00     0.059 A 
ATOM     84  F   UNL A   1      42.605  22.746  29.911  1.00  0.00    -0.206 F 
ATOM     85  C   UNL A   1      42.249  21.115  26.705  1.00  0.00     0.060 A 
BRANCH  85  86
ATOM     86  S   UNL A   1      42.032  19.457  26.020  1.00  0.00     0.124 S 
ATOM     87  O   UNL A   1      42.885  19.517  24.838  1.00  0.00    -0.237 OA
ATOM     88  O   UNL A   1      42.507  18.609  27.108  1.00  0.00    -0.237 OA
ATOM     89  O   UNL A   1      40.597  19.387  25.762  1.00  0.00    -0.744 OA
ENDBRANCH  85  86
ENDBRANCH  53  78
BRANCH  65  90
ATOM     90  C   UNL A   1      48.066  27.312  30.130  1.00  0.00     0.058 A 
ATOM     91  C   UNL A   1      49.048  27.543  29.154  1.00  0.00     0.135 A 
ATOM     92  C   UNL A   1      48.479  26.799  31.369  1.00  0.00     0.135 A 
ATOM     93  F   UNL A   1      48.703  28.026  27.950  1.00  0.00    -0.206 F 
ATOM     94  C   UNL A   1      50.389  27.264  29.395  1.00  0.00     0.059 A 
ATOM     95  C   UNL A   1      49.818  26.535  31.641  1.00  0.00     0.059 A 
ATOM     96  F   UNL A   1      47.580  26.568  32.339  1.00  0.00    -0.206 F 
ATOM     97  C   UNL A   1      50.765  26.765  30.644  1.00  0.00     0.060 A 
BRANCH  97  98
ATOM     98  S   UNL A   1      52.515  26.461  30.964  1.00  0.00     0.124 S 
ATOM     99  O   UNL A   1      52.465  25.211  31.715  1.00  0.00    -0.237 OA
ATOM    100  O   UNL A   1      53.069  26.369  29.616  1.00  0.00    -0.237 OA
ATOM    101  O   UNL A   1      52.930  27.636  31.725  1.00  0.00    -0.744 OA
ENDBRANCH  97  98
ENDBRANCH  65  90
ENDBRANCH  39  40
ENDBRANCH  31  34
ENDBRANCH  29  30
ENDBRANCH  28  29
ENDBRANCH   1  28
TORSDOF 19
ENDMDL
MODEL 2
REMARK VINA RESULT:     -11.6      0.768      2.046
REMARK SMILES COc1cc(C(=O)NCCCCNC(=O)c2ccc(-c3c4nc(c(-c5c(F)cc(S(=O)(=O)[O-])cc5F)c5ccc([nH]5)c(-c5c(F)cc(S(=O)(=O)[O-])cc5F)c5nc(c(-c6c(F)cc(S(=O)(=O)[O-])cc6F)c6ccc3[nH]6)C=C5)C=C4)cc2)ccc1OCC(=O)N[C@H]1CCCC[C@H]1C
REMARK SMILES IDX 10 1 9 2 8 3 6 4 7 5 5 7 3 8 4 9 84 10 83 11 82 12 2 13 1 14
REMARK SMILES IDX 85 15 86 16 87 17 88 18 89 19 90 21 91 22 95 23 92 24 94 25
REMARK SMILES IDX 96 26 93 27 11 28 12 29 13 30 14 31 15 33 16 34 17 35 81 36
REMARK SMILES IDX 18 37 80 38 19 39 20 40 21 41 74 42 22 43 79 44 73 45 75 46
REMARK SMILES IDX 23 47 78 48 72 49 71 50 24 52 58 53 37 54 57 55 38 56 41 57
REMARK SMILES IDX 56 58 76 59 39 60 40 61 55 63 77 64 42 65 25 66 26 67 35 68
REMARK SMILES IDX 27 69 28 70 34 71 36 72 29 73 30 74 31 75 32 76 33 77 59 78
REMARK SMILES IDX 60 79 69 80 61 81 62 82 68 83 70 84 63 85 64 86 65 87 66 88
REMARK SMILES IDX 67 89 43 90 44 91 53 92 45 93 46 94 52 95 54 96 47 97 48 98
REMARK SMILES IDX 49 99 50 100 51 101
REMARK H PARENT 8 6 89 20 13 32 75 51 41 62
REMARK Flexibility Score: inf
ROOT
ATOM      1  C   UNL A   1      33.262  29.350  24.794  1.00  0.00     0.023 C 
ENDROOT
BRANCH   1   2
ATOM      2  C   UNL A   1      33.260  29.028  23.303  1.00  0.00     0.116 C 
BRANCH   2   3
ATOM      3  N   UNL A   1      31.950  29.114  22.679  1.00  0.00    -0.352 N 
ATOM      4  C   UNL A   1      30.977  28.158  22.506  1.00  0.00     0.251 C 
ATOM      5  O   UNL A   1      29.943  28.444  21.906  1.00  0.00    -0.269 OA
ATOM      6  H   UNL A   1      31.720  30.003  22.324  1.00  0.00     0.163 HD
BRANCH   4   7
ATOM      7  C   UNL A   1      31.172  26.770  22.980  1.00  0.00     0.043 A 
ATOM      8  C   UNL A   1      30.757  25.112  24.700  1.00  0.00     0.161 A 
ATOM      9  C   UNL A   1      30.688  26.435  24.248  1.00  0.00     0.064 A 
ATOM     10  C   UNL A   1      31.258  24.110  23.860  1.00  0.00     0.161 A 
ATOM     11  C   UNL A   1      31.804  24.471  22.624  1.00  0.00     0.051 A 
ATOM     12  C   UNL A   1      31.812  25.802  22.207  1.00  0.00     0.018 A 
BRANCH   8  13
ATOM     13  O   UNL A   1      30.220  24.817  25.923  1.00  0.00    -0.493 OA
ATOM     14  C   UNL A   1      31.210  24.280  26.807  1.00  0.00     0.278 C 
ENDBRANCH   8  13
BRANCH  10  15
ATOM     15  O   UNL A   1      31.225  22.758  24.058  1.00  0.00    -0.480 OA
BRANCH  15  16
ATOM     16  C   UNL A   1      31.904  21.930  23.133  1.00  0.00     0.329 C 
BRANCH  16  17
ATOM     17  C   UNL A   1      32.721  20.803  23.757  1.00  0.00     0.258 C 
ATOM     18  O   UNL A   1      32.294  19.646  23.803  1.00  0.00    -0.271 OA
ATOM     19  N   UNL A   1      33.985  21.026  24.218  1.00  0.00    -0.350 N 
ATOM     20  H   UNL A   1      34.445  20.212  24.527  1.00  0.00     0.163 HD
BRANCH  19  21
ATOM     21  C   UNL A   1      34.793  22.247  24.340  1.00  0.00     0.085 C 
ATOM     22  C   UNL A   1      34.473  22.887  25.707  1.00  0.00     0.025 C 
ATOM     23  C   UNL A   1      36.318  22.039  24.155  1.00  0.00     0.008 C 
ATOM     24  C   UNL A   1      35.295  24.135  26.010  1.00  0.00     0.002 C 
ATOM     25  C   UNL A   1      37.102  23.324  24.473  1.00  0.00     0.005 C 
ATOM     26  C   UNL A   1      36.867  20.849  24.951  1.00  0.00     0.010 C 
ATOM     27  C   UNL A   1      36.788  23.884  25.855  1.00  0.00     0.000 C 
ENDBRANCH  19  21
ENDBRANCH  16  17
ENDBRANCH  15  16
ENDBRANCH  10  15
ENDBRANCH   4   7
ENDBRANCH   2   3
ENDBRANCH   1   2
BRANCH   1  28
ATOM     28  C   UNL A   1      33.627  28.204  25.731  1.00  0.00     0.023 C 
BRANCH  28  29
ATOM     29  C   UNL A   1      33.380  28.449  27.215  1.00  0.00     0.116 C 
BRANCH  29  30
ATOM     30  N   UNL A   1      33.361  29.858  27.580  1.00  0.00    -0.352 N 
ATOM     31  C   UNL A   1      34.364  30.636  28.110  1.00  0.00     0.251 C 
ATOM     32  H   UNL A   1      32.506  30.322  27.426  1.00  0.00     0.163 HD
ATOM     33  O   UNL A   1      34.134  31.798  28.436  1.00  0.00    -0.269 OA
BRANCH  31  34
ATOM     34  C   UNL A   1      35.707  30.055  28.329  1.00  0.00     0.039 A 
ATOM     35  C   UNL A   1      36.628  30.065  27.278  1.00  0.00     0.014 A 
ATOM     36  C   UNL A   1      36.073  29.551  29.580  1.00  0.00     0.014 A 
ATOM     37  C   UNL A   1      37.946  29.660  27.508  1.00  0.00     0.010 A 
ATOM     38  C   UNL A   1      37.403  29.222  29.826  1.00  0.00     0.010 A 
ATOM     39  C   UNL A   1      38.357  29.284  28.797  1.00  0.00    -0.014 A 
BRANCH  39  40
ATOM     40  C   UNL A   1      39.774  28.959  29.104  1.00  0.00     0.031 A 
ATOM     41  C   UNL A   1      40.676  30.017  29.681  1.00  0.00     0.074 A 
ATOM     42  C   UNL A   1      40.274  27.749  28.780  1.00  0.00     0.049 A 
ATOM     43  N   UNL A   1      41.968  29.987  29.873  1.00  0.00    -0.248 NA
ATOM     44  C   UNL A   1      40.040  31.289  30.062  1.00  0.00     0.031 C 
ATOM     45  C   UNL A   1      39.515  26.651  28.175  1.00  0.00     0.029 A 
ATOM     46  N   UNL A   1      41.546  27.245  28.891  1.00  0.00    -0.354 N 
ATOM     47  C   UNL A   1      42.304  31.236  30.383  1.00  0.00     0.074 A 
ATOM     48  C   UNL A   1      41.088  32.018  30.420  1.00  0.00     0.031 C 
ATOM     49  C   UNL A   1      40.333  25.606  27.974  1.00  0.00     0.029 A 
ATOM     50  C   UNL A   1      41.682  25.968  28.396  1.00  0.00     0.049 A 
ATOM     51  H   UNL A   1      42.292  27.750  29.289  1.00  0.00     0.167 HD
ATOM     52  C   UNL A   1      43.511  31.681  30.805  1.00  0.00     0.037 A 
ATOM     53  C   UNL A   1      42.774  25.187  28.277  1.00  0.00     0.037 A 
ATOM     54  C   UNL A   1      44.714  30.891  30.792  1.00  0.00     0.049 A 
ATOM     55  C   UNL A   1      44.104  25.705  28.753  1.00  0.00     0.074 A 
ATOM     56  C   UNL A   1      45.980  31.244  31.224  1.00  0.00     0.029 A 
ATOM     57  N   UNL A   1      44.798  29.587  30.329  1.00  0.00    -0.354 N 
ATOM     58  N   UNL A   1      44.396  26.877  29.266  1.00  0.00    -0.248 NA
ATOM     59  C   UNL A   1      45.254  24.796  28.641  1.00  0.00     0.031 C 
ATOM     60  C   UNL A   1      46.836  30.161  31.000  1.00  0.00     0.029 A 
ATOM     61  C   UNL A   1      46.094  29.120  30.464  1.00  0.00     0.049 A 
ATOM     62  H   UNL A   1      44.047  29.068  29.960  1.00  0.00     0.167 HD
ATOM     63  C   UNL A   1      45.754  26.834  29.564  1.00  0.00     0.074 A 
ATOM     64  C   UNL A   1      46.225  25.519  29.182  1.00  0.00     0.031 C 
ATOM     65  C   UNL A   1      46.539  27.798  30.102  1.00  0.00     0.037 A 
BRANCH  52  66
ATOM     66  C   UNL A   1      43.583  33.085  31.339  1.00  0.00     0.058 A 
ATOM     67  C   UNL A   1      43.419  33.354  32.707  1.00  0.00     0.135 A 
ATOM     68  C   UNL A   1      43.849  34.167  30.486  1.00  0.00     0.135 A 
ATOM     69  F   UNL A   1      43.146  32.358  33.566  1.00  0.00    -0.206 F 
ATOM     70  C   UNL A   1      43.487  34.650  33.207  1.00  0.00     0.059 A 
ATOM     71  C   UNL A   1      43.949  35.469  30.968  1.00  0.00     0.059 A 
ATOM     72  F   UNL A   1      44.014  33.966  29.169  1.00  0.00    -0.206 F 
ATOM     73  C   UNL A   1      43.751  35.703  32.328  1.00  0.00     0.060 A 
BRANCH  73  74
ATOM     74  S   UNL A   1      43.840  37.378  32.994  1.00  0.00     0.124 S 
ATOM     75  O   UNL A   1      43.724  38.179  31.781  1.00  0.00    -0.237 OA
ATOM     76  O   UNL A   1      42.691  37.419  33.892  1.00  0.00    -0.237 OA
ATOM     77  O   UNL A   1      45.144  37.414  33.648  1.00  0.00    -0.744 OA
ENDBRANCH  73  74
ENDBRANCH  52  66
BRANCH  53  78
ATOM     78  C   UNL A   1      42.659  23.826  27.684  1.00  0.00     0.058 A 
ATOM     79  C   UNL A   1      42.479  22.698  28.497  1.00  0.00     0.135 A 
ATOM     80  C   UNL A   1      42.737  23.627  26.297  1.00  0.00     0.135 A 
ATOM     81  F   UNL A   1      42.404  22.836  29.829  1.00  0.00    -0.206 F 
ATOM     82  C   UNL A   1      42.408  21.415  27.961  1.00  0.00     0.059 A 
ATOM     83  C   UNL A   1      42.643  22.357  25.735  1.00  0.00     0.059 A 
ATOM     84  F   UNL A   1      42.889  24.675  25.474  1.00  0.00    -0.206 F 
ATOM     85  C   UNL A   1      42.495  21.256  26.577  1.00  0.00     0.060 A 
BRANCH  85  86
ATOM     86  S   UNL A   1      42.376  19.591  25.886  1.00  0.00     0.124 S 
ATOM     87  O   UNL A   1      42.724  18.770  27.041  1.00  0.00    -0.237 OA
ATOM     88  O   UNL A   1      40.983  19.534  25.457  1.00  0.00    -0.237 OA
ATOM     89  O   UNL A   1      43.356  19.607  24.803  1.00  0.00    -0.744 OA
ENDBRANCH  85  86
ENDBRANCH  53  78
BRANCH  65  90
ATOM     90  C   UNL A   1      47.980  27.457  30.362  1.00  0.00     0.058 A 
ATOM     91  C   UNL A   1      48.386  26.829  31.549  1.00  0.00     0.135 A 
ATOM     92  C   UNL A   1      48.951  27.696  29.378  1.00  0.00     0.135 A 
ATOM     93  F   UNL A   1      47.496  26.585  32.524  1.00  0.00    -0.206 F 
ATOM     94  C   UNL A   1      49.711  26.460  31.757  1.00  0.00     0.059 A 
ATOM     95  C   UNL A   1      50.278  27.314  29.555  1.00  0.00     0.059 A 
ATOM     96  F   UNL A   1      48.612  28.287  28.221  1.00  0.00    -0.206 F 
ATOM     97  C   UNL A   1      50.649  26.703  30.751  1.00  0.00     0.060 A 
BRANCH  97  98
ATOM     98  S   UNL A   1      52.354  26.169  31.009  1.00  0.00     0.124 S 
ATOM     99  O   UNL A   1      52.871  27.234  31.862  1.00  0.00    -0.237 OA
ATOM    100  O   UNL A   1      52.182  24.869  31.653  1.00  0.00    -0.237 OA
ATOM    101  O   UNL A   1      52.904  26.123  29.657  1.00  0.00    -0.744 OA
ENDBRANCH  97  98
ENDBRANCH  65  90
ENDBRANCH  39  40
ENDBRANCH  31  34
ENDBRANCH  29  30
ENDBRANCH  28  29
ENDBRANCH   1  28
TORSDOF 19
ENDMDL
MODEL 3
REMARK VINA RESULT:     -10.8      2.415      3.212
REMARK SMILES COc1cc(C(=O)NCCCCNC(=O)c2ccc(-c3c4nc(c(-c5c(F)cc(S(=O)(=O)[O-])cc5F)c5ccc([nH]5)c(-c5c(F)cc(S(=O)(=O)[O-])cc5F)c5nc(c(-c6c(F)cc(S(=O)(=O)[O-])cc6F)c6ccc3[nH]6)C=C5)C=C4)cc2)ccc1OCC(=O)N[C@H]1CCCC[C@H]1C
REMARK SMILES IDX 10 1 9 2 8 3 6 4 7 5 5 7 3 8 4 9 84 10 83 11 82 12 2 13 1 14
REMARK SMILES IDX 85 15 86 16 87 17 88 18 89 19 90 21 91 22 95 23 92 24 94 25
REMARK SMILES IDX 96 26 93 27 11 28 12 29 13 30 14 31 15 33 16 34 17 35 81 36
REMARK SMILES IDX 18 37 80 38 19 39 20 40 21 41 74 42 22 43 79 44 73 45 75 46
REMARK SMILES IDX 23 47 78 48 72 49 71 50 24 52 58 53 37 54 57 55 38 56 41 57
REMARK SMILES IDX 56 58 76 59 39 60 40 61 55 63 77 64 42 65 25 66 26 67 35 68
REMARK SMILES IDX 27 69 28 70 34 71 36 72 29 73 30 74 31 75 32 76 33 77 59 78
REMARK SMILES IDX 60 79 69 80 61 81 62 82 68 83 70 84 63 85 64 86 65 87 66 88
REMARK SMILES IDX 67 89 43 90 44 91 53 92 45 93 46 94 52 95 54 96 47 97 48 98
REMARK SMILES IDX 49 99 50 100 51 101
REMARK H PARENT 8 6 89 20 13 32 75 51 41 62
REMARK Flexibility Score: inf
ROOT
ATOM      1  C   UNL A   1      33.372  29.872  26.145  1.00  0.00     0.023 C 
ENDROOT
BRANCH   1   2
ATOM      2  C   UNL A   1      31.883  29.540  26.142  1.00  0.00     0.116 C 
BRANCH   2   3
ATOM      3  N   UNL A   1      31.149  30.118  25.027  1.00  0.00    -0.352 N 
ATOM      4  C   UNL A   1      30.563  29.521  23.936  1.00  0.00     0.251 C 
ATOM      5  O   UNL A   1      30.018  30.216  23.081  1.00  0.00    -0.269 OA
ATOM      6  H   UNL A   1      31.056  31.097  25.060  1.00  0.00     0.163 HD
BRANCH   4   7
ATOM      7  C   UNL A   1      30.622  28.055  23.739  1.00  0.00     0.043 A 
ATOM      8  C   UNL A   1      31.886  26.138  22.961  1.00  0.00     0.161 A 
ATOM      9  C   UNL A   1      31.735  27.525  23.081  1.00  0.00     0.064 A 
ATOM     10  C   UNL A   1      30.953  25.278  23.551  1.00  0.00     0.161 A 
ATOM     11  C   UNL A   1      29.808  25.823  24.143  1.00  0.00     0.051 A 
ATOM     12  C   UNL A   1      29.615  27.203  24.191  1.00  0.00     0.018 A 
BRANCH   8  13
ATOM     13  O   UNL A   1      33.018  25.660  22.360  1.00  0.00    -0.493 OA
ATOM     14  C   UNL A   1      32.789  25.380  20.974  1.00  0.00     0.278 C 
ENDBRANCH   8  13
BRANCH  10  15
ATOM     15  O   UNL A   1      31.039  23.922  23.698  1.00  0.00    -0.480 OA
BRANCH  15  16
ATOM     16  C   UNL A   1      30.742  23.365  24.963  1.00  0.00     0.329 C 
BRANCH  16  17
ATOM     17  C   UNL A   1      31.649  23.829  26.100  1.00  0.00     0.258 C 
ATOM     18  O   UNL A   1      31.200  24.429  27.080  1.00  0.00    -0.271 OA
ATOM     19  N   UNL A   1      32.979  23.525  26.102  1.00  0.00    -0.350 N 
ATOM     20  H   UNL A   1      33.449  23.807  26.920  1.00  0.00     0.163 HD
BRANCH  19  21
ATOM     21  C   UNL A   1      33.844  22.858  25.119  1.00  0.00     0.085 C 
ATOM     22  C   UNL A   1      34.830  23.911  24.571  1.00  0.00     0.025 C 
ATOM     23  C   UNL A   1      34.589  21.608  25.652  1.00  0.00     0.008 C 
ATOM     24  C   UNL A   1      35.846  23.347  23.585  1.00  0.00     0.002 C 
ATOM     25  C   UNL A   1      35.603  21.078  24.623  1.00  0.00     0.005 C 
ATOM     26  C   UNL A   1      35.256  21.836  27.014  1.00  0.00     0.010 C 
ATOM     27  C   UNL A   1      36.585  22.144  24.155  1.00  0.00     0.000 C 
ENDBRANCH  19  21
ENDBRANCH  16  17
ENDBRANCH  15  16
ENDBRANCH  10  15
ENDBRANCH   4   7
ENDBRANCH   2   3
ENDBRANCH   1   2
BRANCH   1  28
ATOM     28  C   UNL A   1      34.252  29.011  27.045  1.00  0.00     0.023 C 
BRANCH  28  29
ATOM     29  C   UNL A   1      35.480  29.697  27.632  1.00  0.00     0.116 C 
BRANCH  29  30
ATOM     30  N   UNL A   1      35.277  30.207  28.981  1.00  0.00    -0.352 N 
ATOM     31  C   UNL A   1      36.205  30.471  29.962  1.00  0.00     0.251 C 
ATOM     32  H   UNL A   1      34.341  30.388  29.227  1.00  0.00     0.163 HD
ATOM     33  O   UNL A   1      35.834  30.821  31.080  1.00  0.00    -0.269 OA
BRANCH  31  34
ATOM     34  C   UNL A   1      37.646  30.288  29.681  1.00  0.00     0.039 A 
ATOM     35  C   UNL A   1      38.513  30.017  30.742  1.00  0.00     0.014 A 
ATOM     36  C   UNL A   1      38.129  30.334  28.371  1.00  0.00     0.014 A 
ATOM     37  C   UNL A   1      39.848  29.695  30.480  1.00  0.00     0.010 A 
ATOM     38  C   UNL A   1      39.438  29.937  28.107  1.00  0.00     0.010 A 
ATOM     39  C   UNL A   1      40.308  29.602  29.156  1.00  0.00    -0.014 A 
BRANCH  39  40
ATOM     40  C   UNL A   1      41.687  29.148  28.836  1.00  0.00     0.031 A 
ATOM     41  C   UNL A   1      42.811  30.147  28.789  1.00  0.00     0.074 A 
ATOM     42  C   UNL A   1      41.911  27.862  28.498  1.00  0.00     0.049 A 
ATOM     43  N   UNL A   1      44.042  29.988  28.381  1.00  0.00    -0.248 NA
ATOM     44  C   UNL A   1      42.495  31.516  29.230  1.00  0.00     0.031 C 
ATOM     45  C   UNL A   1      40.898  26.804  28.461  1.00  0.00     0.029 A 
ATOM     46  N   UNL A   1      43.061  27.229  28.096  1.00  0.00    -0.354 N 
ATOM     47  C   UNL A   1      44.645  31.235  28.502  1.00  0.00     0.074 A 
ATOM     48  C   UNL A   1      43.629  32.152  28.970  1.00  0.00     0.031 C 
ATOM     49  C   UNL A   1      41.472  25.656  28.065  1.00  0.00     0.029 A 
ATOM     50  C   UNL A   1      42.881  25.901  27.779  1.00  0.00     0.049 A 
ATOM     51  H   UNL A   1      43.933  27.682  28.039  1.00  0.00     0.167 HD
ATOM     52  C   UNL A   1      45.934  31.578  28.269  1.00  0.00     0.037 A 
ATOM     53  C   UNL A   1      43.749  24.991  27.295  1.00  0.00     0.037 A 
ATOM     54  C   UNL A   1      46.949  30.657  27.829  1.00  0.00     0.049 A 
ATOM     55  C   UNL A   1      45.176  25.397  27.043  1.00  0.00     0.074 A 
ATOM     56  C   UNL A   1      48.289  30.903  27.591  1.00  0.00     0.029 A 
ATOM     57  N   UNL A   1      46.736  29.312  27.569  1.00  0.00    -0.354 N 
ATOM     58  N   UNL A   1      45.737  26.573  27.197  1.00  0.00    -0.248 NA
ATOM     59  C   UNL A   1      46.092  24.355  26.557  1.00  0.00     0.031 C 
ATOM     60  C   UNL A   1      48.883  29.711  27.162  1.00  0.00     0.029 A 
ATOM     61  C   UNL A   1      47.920  28.715  27.172  1.00  0.00     0.049 A 
ATOM     62  H   UNL A   1      45.872  28.849  27.654  1.00  0.00     0.167 HD
ATOM     63  C   UNL A   1      47.075  26.404  26.855  1.00  0.00     0.074 A 
ATOM     64  C   UNL A   1      47.242  25.012  26.494  1.00  0.00     0.031 C 
ATOM     65  C   UNL A   1      48.073  27.320  26.840  1.00  0.00     0.037 A 
BRANCH  52  66
ATOM     66  C   UNL A   1      46.323  33.011  28.507  1.00  0.00     0.058 A 
ATOM     67  C   UNL A   1      46.244  33.968  27.483  1.00  0.00     0.135 A 
ATOM     68  C   UNL A   1      46.750  33.441  29.774  1.00  0.00     0.135 A 
ATOM     69  F   UNL A   1      45.859  33.608  26.248  1.00  0.00    -0.206 F 
ATOM     70  C   UNL A   1      46.601  35.295  27.698  1.00  0.00     0.059 A 
ATOM     71  C   UNL A   1      47.085  34.769  30.019  1.00  0.00     0.059 A 
ATOM     72  F   UNL A   1      46.844  32.566  30.789  1.00  0.00    -0.206 F 
ATOM     73  C   UNL A   1      47.022  35.686  28.971  1.00  0.00     0.060 A 
BRANCH  73  74
ATOM     74  S   UNL A   1      47.477  37.413  29.233  1.00  0.00     0.124 S 
ATOM     75  O   UNL A   1      47.818  37.411  30.652  1.00  0.00    -0.237 OA
ATOM     76  O   UNL A   1      48.598  37.584  28.314  1.00  0.00    -0.237 OA
ATOM     77  O   UNL A   1      46.264  38.141  28.879  1.00  0.00    -0.744 OA
ENDBRANCH  73  74
ENDBRANCH  52  66
BRANCH  53  78
ATOM     78  C   UNL A   1      43.297  23.600  27.018  1.00  0.00     0.058 A 
ATOM     79  C   UNL A   1      43.275  22.633  28.033  1.00  0.00     0.135 A 
ATOM     80  C   UNL A   1      42.890  23.209  25.733  1.00  0.00     0.135 A 
ATOM     81  F   UNL A   1      43.661  22.956  29.276  1.00  0.00    -0.206 F 
ATOM     82  C   UNL A   1      42.892  21.319  27.781  1.00  0.00     0.059 A 
ATOM     83  C   UNL A   1      42.478  21.908  25.461  1.00  0.00     0.059 A 
ATOM     84  F   UNL A   1      42.874  24.101  24.731  1.00  0.00    -0.206 F 
ATOM     85  C   UNL A   1      42.498  20.965  26.489  1.00  0.00     0.060 A 
BRANCH  85  86
ATOM     86  S   UNL A   1      41.977  19.264  26.175  1.00  0.00     0.124 S 
ATOM     87  O   UNL A   1      42.791  18.920  25.014  1.00  0.00    -0.237 OA
ATOM     88  O   UNL A   1      42.331  18.598  27.424  1.00  0.00    -0.237 OA
ATOM     89  O   UNL A   1      40.544  19.394  25.927  1.00  0.00    -0.744 OA
ENDBRANCH  85  86
ENDBRANCH  53  78
BRANCH  65  90
ATOM     90  C   UNL A   1      49.449  26.843  26.470  1.00  0.00     0.058 A 
ATOM     91  C   UNL A   1      50.306  26.259  27.415  1.00  0.00     0.135 A 
ATOM     92  C   UNL A   1      49.885  26.906  25.137  1.00  0.00     0.135 A 
ATOM     93  F   UNL A   1      49.938  26.182  28.704  1.00  0.00    -0.206 F 
ATOM     94  C   UNL A   1      51.555  25.763  27.054  1.00  0.00     0.059 A 
ATOM     95  C   UNL A   1      51.120  26.395  24.748  1.00  0.00     0.059 A 
ATOM     96  F   UNL A   1      49.099  27.448  24.193  1.00  0.00    -0.206 F 
ATOM     97  C   UNL A   1      51.950  25.832  25.716  1.00  0.00     0.060 A 
BRANCH  97  98
ATOM     98  S   UNL A   1      53.548  25.135  25.249  1.00  0.00     0.124 S 
ATOM     99  O   UNL A   1      54.407  25.618  26.325  1.00  0.00    -0.237 OA
ATOM    100  O   UNL A   1      53.277  23.700  25.250  1.00  0.00    -0.237 OA
ATOM    101  O   UNL A   1      53.801  25.716  23.933  1.00  0.00    -0.744 OA
ENDBRANCH  97  98
ENDBRANCH  65  90
ENDBRANCH  39  40
ENDBRANCH  31  34
ENDBRANCH  29  30
ENDBRANCH  28  29
ENDBRANCH   1  28
TORSDOF 19
ENDMDL
