MODEL 1
REMARK VINA RESULT:     -10.7      0.000      0.000
REMARK SMILES CN(C(=O)CC(=O)NCCCCNC(=O)c1ccc(-c2c3nc(c(-c4c(F)cc(S(=O)(=O)[O-])cc4F)c4ccc([nH]4)c(-c4c(F)cc(S(=O)(=O)[O-])cc4F)c4nc(c(-c5c(F)cc(S(=O)(=O)[O-])cc5F)c5ccc2[nH]5)C=C4)C=C3)cc1)C1CCC(C)(C)CC1
REMARK SMILES IDX 10 1 9 2 8 3 6 4 7 5 5 7 3 8 4 9 2 10 1 11 82 12 83 13 89 14
REMARK SMILES IDX 84 15 88 16 85 17 86 18 87 19 11 20 12 21 13 22 14 23 15 25
REMARK SMILES IDX 16 26 17 27 81 28 18 29 80 30 19 31 20 32 21 33 74 34 22 35
REMARK SMILES IDX 79 36 73 37 75 38 23 39 78 40 72 41 71 42 24 44 58 45 37 46
REMARK SMILES IDX 57 47 38 48 41 49 56 50 76 51 39 52 40 53 55 55 77 56 42 57
REMARK SMILES IDX 25 58 26 59 35 60 27 61 28 62 34 63 36 64 29 65 30 66 31 67
REMARK SMILES IDX 32 68 33 69 59 70 60 71 69 72 61 73 62 74 68 75 70 76 63 77
REMARK SMILES IDX 64 78 65 79 66 80 67 81 43 82 44 83 53 84 45 85 46 86 52 87
REMARK SMILES IDX 54 88 47 89 48 90 49 91 50 92 51 93
REMARK H PARENT 8 6 13 24 75 43 41 54
REMARK Flexibility Score: inf
ROOT
ATOM      1  C   UNL A   1      33.286  28.953  24.556  1.00  0.00     0.023 C 
ENDROOT
BRANCH   1   2
ATOM      2  C   UNL A   1      32.552  28.493  23.301  1.00  0.00     0.116 C 
BRANCH   2   3
ATOM      3  N   UNL A   1      33.356  27.530  22.573  1.00  0.00    -0.356 N 
ATOM      4  C   UNL A   1      33.048  26.255  22.207  1.00  0.00     0.229 C 
ATOM      5  O   UNL A   1      33.948  25.554  21.739  1.00  0.00    -0.275 OA
ATOM      6  H   UNL A   1      34.251  27.842  22.306  1.00  0.00     0.163 HD
BRANCH   4   7
ATOM      7  C   UNL A   1      31.633  25.741  22.280  1.00  0.00     0.200 C 
BRANCH   7   8
ATOM      8  C   UNL A   1      31.286  24.817  23.425  1.00  0.00     0.231 C 
ATOM      9  O   UNL A   1      31.221  23.613  23.170  1.00  0.00    -0.274 OA
BRANCH   8  10
ATOM     10  N   UNL A   1      31.110  25.321  24.709  1.00  0.00    -0.342 N 
ATOM     11  C   UNL A   1      29.858  25.958  25.119  1.00  0.00     0.147 C 
BRANCH  10  12
ATOM     12  C   UNL A   1      32.076  25.057  25.819  1.00  0.00     0.084 C 
ATOM     13  C   UNL A   1      31.570  24.009  26.812  1.00  0.00     0.025 C 
ATOM     14  C   UNL A   1      33.552  24.811  25.447  1.00  0.00     0.025 C 
ATOM     15  C   UNL A   1      31.850  22.595  26.338  1.00  0.00     0.008 C 
ATOM     16  C   UNL A   1      34.010  23.359  25.226  1.00  0.00     0.008 C 
ATOM     17  C   UNL A   1      33.329  22.274  26.092  1.00  0.00    -0.035 C 
ATOM     18  C   UNL A   1      33.393  20.923  25.344  1.00  0.00     0.011 C 
ATOM     19  C   UNL A   1      34.058  22.112  27.435  1.00  0.00     0.011 C 
ENDBRANCH  10  12
ENDBRANCH   8  10
ENDBRANCH   7   8
ENDBRANCH   4   7
ENDBRANCH   2   3
ENDBRANCH   1   2
BRANCH   1  20
ATOM     20  C   UNL A   1      32.743  28.437  25.880  1.00  0.00     0.023 C 
BRANCH  20  21
ATOM     21  C   UNL A   1      33.664  28.640  27.070  1.00  0.00     0.116 C 
BRANCH  21  22
ATOM     22  N   UNL A   1      33.610  29.983  27.632  1.00  0.00    -0.352 N 
ATOM     23  C   UNL A   1      34.601  30.689  28.281  1.00  0.00     0.251 C 
ATOM     24  H   UNL A   1      32.749  30.450  27.536  1.00  0.00     0.163 HD
ATOM     25  O   UNL A   1      34.359  31.784  28.772  1.00  0.00    -0.269 OA
BRANCH  23  26
ATOM     26  C   UNL A   1      35.945  30.085  28.420  1.00  0.00     0.039 A 
ATOM     27  C   UNL A   1      36.841  30.169  27.352  1.00  0.00     0.014 A 
ATOM     28  C   UNL A   1      36.338  29.499  29.624  1.00  0.00     0.014 A 
ATOM     29  C   UNL A   1      38.163  29.751  27.528  1.00  0.00     0.010 A 
ATOM     30  C   UNL A   1      37.674  29.181  29.829  1.00  0.00     0.010 A 
ATOM     31  C   UNL A   1      38.602  29.301  28.783  1.00  0.00    -0.014 A 
BRANCH  31  32
ATOM     32  C   UNL A   1      40.021  28.937  29.033  1.00  0.00     0.031 A 
ATOM     33  C   UNL A   1      40.967  29.966  29.592  1.00  0.00     0.074 A 
ATOM     34  C   UNL A   1      40.478  27.721  28.672  1.00  0.00     0.049 A 
ATOM     35  N   UNL A   1      42.261  29.890  29.768  1.00  0.00    -0.248 NA
ATOM     36  C   UNL A   1      40.387  31.268  29.962  1.00  0.00     0.031 C 
ATOM     37  C   UNL A   1      39.678  26.660  28.055  1.00  0.00     0.029 A 
ATOM     38  N   UNL A   1      41.735  27.177  28.760  1.00  0.00    -0.354 N 
ATOM     39  C   UNL A   1      42.651  31.141  30.233  1.00  0.00     0.074 A 
ATOM     40  C   UNL A   1      41.468  31.972  30.260  1.00  0.00     0.031 C 
ATOM     41  C   UNL A   1      40.456  25.585  27.846  1.00  0.00     0.029 A 
ATOM     42  C   UNL A   1      41.816  25.891  28.280  1.00  0.00     0.049 A 
ATOM     43  H   UNL A   1      42.507  27.662  29.131  1.00  0.00     0.167 HD
ATOM     44  C   UNL A   1      43.878  31.553  30.629  1.00  0.00     0.037 A 
ATOM     45  C   UNL A   1      42.868  25.052  28.200  1.00  0.00     0.037 A 
ATOM     46  C   UNL A   1      45.040  30.705  30.656  1.00  0.00     0.049 A 
ATOM     47  C   UNL A   1      44.209  25.511  28.701  1.00  0.00     0.074 A 
ATOM     48  C   UNL A   1      46.313  31.001  31.110  1.00  0.00     0.029 A 
ATOM     49  N   UNL A   1      45.066  29.388  30.221  1.00  0.00    -0.354 N 
ATOM     50  N   UNL A   1      44.549  26.680  29.192  1.00  0.00    -0.248 NA
ATOM     51  C   UNL A   1      45.308  24.538  28.646  1.00  0.00     0.031 C 
ATOM     52  C   UNL A   1      47.115  29.869  30.929  1.00  0.00     0.029 A 
ATOM     53  C   UNL A   1      46.334  28.859  30.393  1.00  0.00     0.049 A 
ATOM     54  H   UNL A   1      44.297  28.902  29.847  1.00  0.00     0.167 HD
ATOM     55  C   UNL A   1      45.894  26.574  29.527  1.00  0.00     0.074 A 
ATOM     56  C   UNL A   1      46.303  25.225  29.192  1.00  0.00     0.031 C 
ATOM     57  C   UNL A   1      46.716  27.508  30.064  1.00  0.00     0.037 A 
BRANCH  44  58
ATOM     58  C   UNL A   1      44.016  32.980  31.080  1.00  0.00     0.058 A 
ATOM     59  C   UNL A   1      43.803  33.352  32.418  1.00  0.00     0.135 A 
ATOM     60  C   UNL A   1      44.366  33.988  30.168  1.00  0.00     0.135 A 
ATOM     61  F   UNL A   1      43.448  32.431  33.327  1.00  0.00    -0.206 F 
ATOM     62  C   UNL A   1      43.893  34.678  32.828  1.00  0.00     0.059 A 
ATOM     63  C   UNL A   1      44.490  35.318  30.561  1.00  0.00     0.059 A 
ATOM     64  F   UNL A   1      44.580  33.689  28.878  1.00  0.00    -0.206 F 
ATOM     65  C   UNL A   1      44.231  35.655  31.890  1.00  0.00     0.060 A 
BRANCH  65  66
ATOM     66  S   UNL A   1      44.331  37.374  32.431  1.00  0.00     0.124 S 
ATOM     67  O   UNL A   1      45.682  37.427  32.982  1.00  0.00    -0.237 OA
ATOM     68  O   UNL A   1      44.125  38.108  31.186  1.00  0.00    -0.237 OA
ATOM     69  O   UNL A   1      43.250  37.485  33.406  1.00  0.00    -0.744 OA
ENDBRANCH  65  66
ENDBRANCH  44  58
BRANCH  45  70
ATOM     70  C   UNL A   1      42.682  23.679  27.661  1.00  0.00     0.058 A 
ATOM     71  C   UNL A   1      42.793  23.430  26.285  1.00  0.00     0.135 A 
ATOM     72  C   UNL A   1      42.416  22.591  28.505  1.00  0.00     0.135 A 
ATOM     73  F   UNL A   1      43.042  24.441  25.439  1.00  0.00    -0.206 F 
ATOM     74  C   UNL A   1      42.632  22.151  25.761  1.00  0.00     0.059 A 
ATOM     75  C   UNL A   1      42.272  21.299  28.007  1.00  0.00     0.059 A 
ATOM     76  F   UNL A   1      42.319  22.775  29.830  1.00  0.00    -0.206 F 
ATOM     77  C   UNL A   1      42.374  21.091  26.630  1.00  0.00     0.060 A 
BRANCH  77  78
ATOM     78  S   UNL A   1      42.225  19.425  25.948  1.00  0.00     0.124 S 
ATOM     79  O   UNL A   1      43.052  19.524  24.751  1.00  0.00    -0.237 OA
ATOM     80  O   UNL A   1      42.759  18.601  27.027  1.00  0.00    -0.237 OA
ATOM     81  O   UNL A   1      40.790  19.287  25.715  1.00  0.00    -0.744 OA
ENDBRANCH  77  78
ENDBRANCH  45  70
BRANCH  57  82
ATOM     82  C   UNL A   1      48.130  27.096  30.356  1.00  0.00     0.058 A 
ATOM     83  C   UNL A   1      49.170  27.346  29.449  1.00  0.00     0.135 A 
ATOM     84  C   UNL A   1      48.454  26.495  31.582  1.00  0.00     0.135 A 
ATOM     85  F   UNL A   1      48.909  27.914  28.261  1.00  0.00    -0.206 F 
ATOM     86  C   UNL A   1      50.484  26.995  29.739  1.00  0.00     0.059 A 
ATOM     87  C   UNL A   1      49.765  26.155  31.903  1.00  0.00     0.059 A 
ATOM     88  F   UNL A   1      47.495  26.245  32.487  1.00  0.00    -0.206 F 
ATOM     89  C   UNL A   1      50.771  26.399  30.969  1.00  0.00     0.060 A 
BRANCH  89  90
ATOM     90  S   UNL A   1      52.485  25.979  31.352  1.00  0.00     0.124 S 
ATOM     91  O   UNL A   1      52.342  24.639  31.908  1.00  0.00    -0.237 OA
ATOM     92  O   UNL A   1      53.128  26.058  30.044  1.00  0.00    -0.237 OA
ATOM     93  O   UNL A   1      52.883  27.015  32.301  1.00  0.00    -0.744 OA
ENDBRANCH  89  90
ENDBRANCH  57  82
ENDBRANCH  31  32
ENDBRANCH  23  26
ENDBRANCH  21  22
ENDBRANCH  20  21
ENDBRANCH   1  20
TORSDOF 17
ENDMDL
MODEL 2
REMARK VINA RESULT:     -10.5      0.913      2.029
REMARK SMILES CN(C(=O)CC(=O)NCCCCNC(=O)c1ccc(-c2c3nc(c(-c4c(F)cc(S(=O)(=O)[O-])cc4F)c4ccc([nH]4)c(-c4c(F)cc(S(=O)(=O)[O-])cc4F)c4nc(c(-c5c(F)cc(S(=O)(=O)[O-])cc5F)c5ccc2[nH]5)C=C4)C=C3)cc1)C1CCC(C)(C)CC1
REMARK SMILES IDX 10 1 9 2 8 3 6 4 7 5 5 7 3 8 4 9 2 10 1 11 82 12 83 13 89 14
REMARK SMILES IDX 84 15 88 16 85 17 86 18 87 19 11 20 12 21 13 22 14 23 15 25
REMARK SMILES IDX 16 26 17 27 81 28 18 29 80 30 19 31 20 32 21 33 74 34 22 35
REMARK SMILES IDX 79 36 73 37 75 38 23 39 78 40 72 41 71 42 24 44 58 45 37 46
REMARK SMILES IDX 57 47 38 48 41 49 56 50 76 51 39 52 40 53 55 55 77 56 42 57
REMARK SMILES IDX 25 58 26 59 35 60 27 61 28 62 34 63 36 64 29 65 30 66 31 67
REMARK SMILES IDX 32 68 33 69 59 70 60 71 69 72 61 73 62 74 68 75 70 76 63 77
REMARK SMILES IDX 64 78 65 79 66 80 67 81 43 82 44 83 53 84 45 85 46 86 52 87
REMARK SMILES IDX 54 88 47 89 48 90 49 91 50 92 51 93
REMARK H PARENT 8 6 13 24 75 43 41 54
REMARK Flexibility Score: inf
ROOT
ATOM      1  C   UNL A   1      32.807  27.625  24.714  1.00  0.00     0.023 C 
ENDROOT
BRANCH   1   2
ATOM      2  C   UNL A   1      31.713  26.795  24.052  1.00  0.00     0.116 C 
BRANCH   2   3
ATOM      3  N   UNL A   1      32.065  26.506  22.675  1.00  0.00    -0.356 N 
ATOM      4  C   UNL A   1      33.152  25.847  22.186  1.00  0.00     0.229 C 
ATOM      5  O   UNL A   1      33.338  25.862  20.967  1.00  0.00    -0.275 OA
ATOM      6  H   UNL A   1      31.430  26.834  21.998  1.00  0.00     0.163 HD
BRANCH   4   7
ATOM      7  C   UNL A   1      34.048  25.041  23.090  1.00  0.00     0.200 C 
BRANCH   7   8
ATOM      8  C   UNL A   1      34.170  23.560  22.809  1.00  0.00     0.231 C 
ATOM      9  O   UNL A   1      33.407  23.087  21.965  1.00  0.00    -0.274 OA
BRANCH   8  10
ATOM     10  N   UNL A   1      35.146  22.800  23.445  1.00  0.00    -0.342 N 
ATOM     11  C   UNL A   1      36.557  22.891  23.066  1.00  0.00     0.147 C 
BRANCH  10  12
ATOM     12  C   UNL A   1      34.876  22.015  24.689  1.00  0.00     0.084 C 
ATOM     13  C   UNL A   1      35.270  22.766  25.962  1.00  0.00     0.025 C 
ATOM     14  C   UNL A   1      33.494  21.348  24.834  1.00  0.00     0.025 C 
ATOM     15  C   UNL A   1      34.180  23.717  26.421  1.00  0.00     0.008 C 
ATOM     16  C   UNL A   1      32.385  22.132  25.554  1.00  0.00     0.008 C 
ATOM     17  C   UNL A   1      32.825  23.060  26.710  1.00  0.00    -0.035 C 
ATOM     18  C   UNL A   1      31.784  24.192  26.867  1.00  0.00     0.011 C 
ATOM     19  C   UNL A   1      32.893  22.286  28.035  1.00  0.00     0.011 C 
ENDBRANCH  10  12
ENDBRANCH   8  10
ENDBRANCH   7   8
ENDBRANCH   4   7
ENDBRANCH   2   3
ENDBRANCH   1   2
BRANCH   1  20
ATOM     20  C   UNL A   1      32.477  28.206  26.081  1.00  0.00     0.023 C 
BRANCH  20  21
ATOM     21  C   UNL A   1      33.684  28.579  26.923  1.00  0.00     0.116 C 
BRANCH  21  22
ATOM     22  N   UNL A   1      33.590  29.899  27.534  1.00  0.00    -0.352 N 
ATOM     23  C   UNL A   1      34.551  30.597  28.233  1.00  0.00     0.251 C 
ATOM     24  H   UNL A   1      32.723  30.353  27.432  1.00  0.00     0.163 HD
ATOM     25  O   UNL A   1      34.276  31.668  28.758  1.00  0.00    -0.269 OA
BRANCH  23  26
ATOM     26  C   UNL A   1      35.902  30.013  28.384  1.00  0.00     0.039 A 
ATOM     27  C   UNL A   1      36.805  30.107  27.323  1.00  0.00     0.014 A 
ATOM     28  C   UNL A   1      36.295  29.437  29.593  1.00  0.00     0.014 A 
ATOM     29  C   UNL A   1      38.131  29.708  27.510  1.00  0.00     0.010 A 
ATOM     30  C   UNL A   1      37.634  29.139  29.810  1.00  0.00     0.010 A 
ATOM     31  C   UNL A   1      38.568  29.269  28.770  1.00  0.00    -0.014 A 
BRANCH  31  32
ATOM     32  C   UNL A   1      39.990  28.926  29.031  1.00  0.00     0.031 A 
ATOM     33  C   UNL A   1      40.915  29.968  29.600  1.00  0.00     0.074 A 
ATOM     34  C   UNL A   1      40.469  27.718  28.673  1.00  0.00     0.049 A 
ATOM     35  N   UNL A   1      42.209  29.912  29.787  1.00  0.00    -0.248 NA
ATOM     36  C   UNL A   1      40.313  31.260  29.967  1.00  0.00     0.031 C 
ATOM     37  C   UNL A   1      39.690  26.646  28.047  1.00  0.00     0.029 A 
ATOM     38  N   UNL A   1      41.733  27.193  28.770  1.00  0.00    -0.354 N 
ATOM     39  C   UNL A   1      42.576  31.168  30.257  1.00  0.00     0.074 A 
ATOM     40  C   UNL A   1      41.380  31.981  30.275  1.00  0.00     0.031 C 
ATOM     41  C   UNL A   1      40.487  25.583  27.843  1.00  0.00     0.029 A 
ATOM     42  C   UNL A   1      41.837  25.909  28.290  1.00  0.00     0.049 A 
ATOM     43  H   UNL A   1      42.494  27.689  29.148  1.00  0.00     0.167 HD
ATOM     44  C   UNL A   1      43.793  31.598  30.664  1.00  0.00     0.037 A 
ATOM     45  C   UNL A   1      42.903  25.087  28.217  1.00  0.00     0.037 A 
ATOM     46  C   UNL A   1      44.968  30.768  30.700  1.00  0.00     0.049 A 
ATOM     47  C   UNL A   1      44.233  25.565  28.730  1.00  0.00     0.074 A 
ATOM     48  C   UNL A   1      46.232  31.083  31.166  1.00  0.00     0.029 A 
ATOM     49  N   UNL A   1      45.017  29.452  30.264  1.00  0.00    -0.354 N 
ATOM     50  N   UNL A   1      44.550  26.738  29.226  1.00  0.00    -0.248 NA
ATOM     51  C   UNL A   1      45.347  24.609  28.684  1.00  0.00     0.031 C 
ATOM     52  C   UNL A   1      47.053  29.963  30.990  1.00  0.00     0.029 A 
ATOM     53  C   UNL A   1      46.292  28.942  30.446  1.00  0.00     0.049 A 
ATOM     54  H   UNL A   1      44.259  28.955  29.882  1.00  0.00     0.167 HD
ATOM     55  C   UNL A   1      45.894  26.652  29.572  1.00  0.00     0.074 A 
ATOM     56  C   UNL A   1      46.326  25.310  29.239  1.00  0.00     0.031 C 
ATOM     57  C   UNL A   1      46.697  27.598  30.118  1.00  0.00     0.037 A 
BRANCH  44  58
ATOM     58  C   UNL A   1      43.905  33.027  31.118  1.00  0.00     0.058 A 
ATOM     59  C   UNL A   1      44.248  34.056  30.226  1.00  0.00     0.135 A 
ATOM     60  C   UNL A   1      43.664  33.374  32.457  1.00  0.00     0.135 A 
ATOM     61  F   UNL A   1      44.507  33.777  28.939  1.00  0.00    -0.206 F 
ATOM     62  C   UNL A   1      44.389  35.372  30.653  1.00  0.00     0.059 A 
ATOM     63  C   UNL A   1      43.771  34.688  32.901  1.00  0.00     0.059 A 
ATOM     64  F   UNL A   1      43.334  32.429  33.351  1.00  0.00    -0.206 F 
ATOM     65  C   UNL A   1      44.154  35.677  31.994  1.00  0.00     0.060 A 
BRANCH  65  66
ATOM     66  S   UNL A   1      44.353  37.387  32.539  1.00  0.00     0.124 S 
ATOM     67  O   UNL A   1      45.721  37.371  33.048  1.00  0.00    -0.237 OA
ATOM     68  O   UNL A   1      44.145  38.137  31.304  1.00  0.00    -0.237 OA
ATOM     69  O   UNL A   1      43.310  37.544  33.548  1.00  0.00    -0.744 OA
ENDBRANCH  65  66
ENDBRANCH  44  58
BRANCH  45  70
ATOM     70  C   UNL A   1      42.743  23.712  27.675  1.00  0.00     0.058 A 
ATOM     71  C   UNL A   1      42.499  22.628  28.532  1.00  0.00     0.135 A 
ATOM     72  C   UNL A   1      42.806  23.455  26.297  1.00  0.00     0.135 A 
ATOM     73  F   UNL A   1      42.435  22.824  29.858  1.00  0.00    -0.206 F 
ATOM     74  C   UNL A   1      42.337  21.336  28.045  1.00  0.00     0.059 A 
ATOM     75  C   UNL A   1      42.626  22.174  25.784  1.00  0.00     0.059 A 
ATOM     76  F   UNL A   1      43.018  24.461  25.435  1.00  0.00    -0.206 F 
ATOM     77  C   UNL A   1      42.400  21.118  26.668  1.00  0.00     0.060 A 
BRANCH  77  78
ATOM     78  S   UNL A   1      42.130  19.447  26.040  1.00  0.00     0.124 S 
ATOM     79  O   UNL A   1      40.691  19.449  25.808  1.00  0.00    -0.237 OA
ATOM     80  O   UNL A   1      42.970  19.426  24.846  1.00  0.00    -0.237 OA
ATOM     81  O   UNL A   1      42.593  18.599  27.135  1.00  0.00    -0.744 OA
ENDBRANCH  77  78
ENDBRANCH  45  70
BRANCH  57  82
ATOM     82  C   UNL A   1      48.114  27.207  30.421  1.00  0.00     0.058 A 
ATOM     83  C   UNL A   1      49.161  27.489  29.531  1.00  0.00     0.135 A 
ATOM     84  C   UNL A   1      48.435  26.594  31.642  1.00  0.00     0.135 A 
ATOM     85  F   UNL A   1      48.904  28.070  28.349  1.00  0.00    -0.206 F 
ATOM     86  C   UNL A   1      50.478  27.157  29.832  1.00  0.00     0.059 A 
ATOM     87  C   UNL A   1      49.747  26.272  31.974  1.00  0.00     0.059 A 
ATOM     88  F   UNL A   1      47.469  26.313  32.532  1.00  0.00    -0.206 F 
ATOM     89  C   UNL A   1      50.761  26.548  31.057  1.00  0.00     0.060 A 
BRANCH  89  90
ATOM     90  S   UNL A   1      52.477  26.154  31.455  1.00  0.00     0.124 S 
ATOM     91  O   UNL A   1      53.083  26.111  30.129  1.00  0.00    -0.237 OA
ATOM     92  O   UNL A   1      52.871  27.279  32.297  1.00  0.00    -0.237 OA
ATOM     93  O   UNL A   1      52.378  24.870  32.143  1.00  0.00    -0.744 OA
ENDBRANCH  89  90
ENDBRANCH  57  82
ENDBRANCH  31  32
ENDBRANCH  23  26
ENDBRANCH  21  22
ENDBRANCH  20  21
ENDBRANCH   1  20
TORSDOF 17
ENDMDL
MODEL 3
REMARK VINA RESULT:     -10.4      4.986     10.622
REMARK SMILES CN(C(=O)CC(=O)NCCCCNC(=O)c1ccc(-c2c3nc(c(-c4c(F)cc(S(=O)(=O)[O-])cc4F)c4ccc([nH]4)c(-c4c(F)cc(S(=O)(=O)[O-])cc4F)c4nc(c(-c5c(F)cc(S(=O)(=O)[O-])cc5F)c5ccc2[nH]5)C=C4)C=C3)cc1)C1CCC(C)(C)CC1
REMARK SMILES IDX 10 1 9 2 8 3 6 4 7 5 5 7 3 8 4 9 2 10 1 11 82 12 83 13 89 14
REMARK SMILES IDX 84 15 88 16 85 17 86 18 87 19 11 20 12 21 13 22 14 23 15 25
REMARK SMILES IDX 16 26 17 27 81 28 18 29 80 30 19 31 20 32 21 33 74 34 22 35
REMARK SMILES IDX 79 36 73 37 75 38 23 39 78 40 72 41 71 42 24 44 58 45 37 46
REMARK SMILES IDX 57 47 38 48 41 49 56 50 76 51 39 52 40 53 55 55 77 56 42 57
REMARK SMILES IDX 25 58 26 59 35 60 27 61 28 62 34 63 36 64 29 65 30 66 31 67
REMARK SMILES IDX 32 68 33 69 59 70 60 71 69 72 61 73 62 74 68 75 70 76 63 77
REMARK SMILES IDX 64 78 65 79 66 80 67 81 43 82 44 83 53 84 45 85 46 86 52 87
REMARK SMILES IDX 54 88 47 89 48 90 49 91 50 92 51 93
REMARK H PARENT 8 6 13 24 75 43 41 54
REMARK Flexibility Score: inf
ROOT
ATOM      1  C   UNL A   1      39.189  22.696  26.808  1.00  0.00     0.023 C 
ENDROOT
BRANCH   1   2
ATOM      2  C   UNL A   1      38.524  22.062  25.591  1.00  0.00     0.116 C 
BRANCH   2   3
ATOM      3  N   UNL A   1      37.166  21.661  25.911  1.00  0.00    -0.356 N 
ATOM      4  C   UNL A   1      36.020  22.396  25.863  1.00  0.00     0.229 C 
ATOM      5  O   UNL A   1      34.997  21.902  26.343  1.00  0.00    -0.275 OA
ATOM      6  H   UNL A   1      37.059  20.728  26.207  1.00  0.00     0.163 HD
BRANCH   4   7
ATOM      7  C   UNL A   1      35.974  23.728  25.162  1.00  0.00     0.200 C 
BRANCH   7   8
ATOM      8  C   UNL A   1      34.835  23.968  24.197  1.00  0.00     0.231 C 
ATOM      9  O   UNL A   1      35.093  23.880  22.995  1.00  0.00    -0.274 OA
BRANCH   8  10
ATOM     10  N   UNL A   1      33.551  24.217  24.670  1.00  0.00    -0.342 N 
ATOM     11  C   UNL A   1      32.388  23.498  24.148  1.00  0.00     0.147 C 
BRANCH  10  12
ATOM     12  C   UNL A   1      33.284  25.054  25.880  1.00  0.00     0.084 C 
ATOM     13  C   UNL A   1      33.924  26.441  25.796  1.00  0.00     0.025 C 
ATOM     14  C   UNL A   1      31.832  25.135  26.394  1.00  0.00     0.025 C 
ATOM     15  C   UNL A   1      33.059  27.420  25.025  1.00  0.00     0.008 C 
ATOM     16  C   UNL A   1      30.947  26.283  25.882  1.00  0.00     0.008 C 
ATOM     17  C   UNL A   1      31.651  27.630  25.593  1.00  0.00    -0.035 C 
ATOM     18  C   UNL A   1      30.833  28.406  24.535  1.00  0.00     0.011 C 
ATOM     19  C   UNL A   1      31.724  28.490  26.864  1.00  0.00     0.011 C 
ENDBRANCH  10  12
ENDBRANCH   8  10
ENDBRANCH   7   8
ENDBRANCH   4   7
ENDBRANCH   2   3
ENDBRANCH   1   2
BRANCH   1  20
ATOM     20  C   UNL A   1      40.519  22.095  27.237  1.00  0.00     0.023 C 
BRANCH  20  21
ATOM     21  C   UNL A   1      41.688  23.063  27.228  1.00  0.00     0.116 C 
BRANCH  21  22
ATOM     22  N   UNL A   1      41.723  23.933  26.060  1.00  0.00    -0.352 N 
ATOM     23  C   UNL A   1      41.651  25.309  26.004  1.00  0.00     0.251 C 
ATOM     24  H   UNL A   1      41.810  23.476  25.192  1.00  0.00     0.163 HD
ATOM     25  O   UNL A   1      41.608  25.882  24.924  1.00  0.00    -0.269 OA
BRANCH  23  26
ATOM     26  C   UNL A   1      41.576  26.079  27.266  1.00  0.00     0.039 A 
ATOM     27  C   UNL A   1      42.592  26.988  27.568  1.00  0.00     0.014 A 
ATOM     28  C   UNL A   1      40.472  25.951  28.110  1.00  0.00     0.014 A 
ATOM     29  C   UNL A   1      42.451  27.838  28.669  1.00  0.00     0.010 A 
ATOM     30  C   UNL A   1      40.286  26.865  29.140  1.00  0.00     0.010 A 
ATOM     31  C   UNL A   1      41.275  27.817  29.433  1.00  0.00    -0.014 A 
BRANCH  31  32
ATOM     32  C   UNL A   1      41.050  28.768  30.552  1.00  0.00     0.031 A 
ATOM     33  C   UNL A   1      41.889  28.667  31.797  1.00  0.00     0.074 A 
ATOM     34  C   UNL A   1      40.037  29.656  30.488  1.00  0.00     0.049 A 
ATOM     35  N   UNL A   1      41.773  29.314  32.928  1.00  0.00    -0.248 NA
ATOM     36  C   UNL A   1      42.976  27.673  31.785  1.00  0.00     0.031 C 
ATOM     37  C   UNL A   1      39.107  29.806  29.366  1.00  0.00     0.029 A 
ATOM     38  N   UNL A   1      39.610  30.591  31.398  1.00  0.00    -0.354 N 
ATOM     39  C   UNL A   1      42.745  28.783  33.768  1.00  0.00     0.074 A 
ATOM     40  C   UNL A   1      43.405  27.723  33.037  1.00  0.00     0.031 C 
ATOM     41  C   UNL A   1      38.239  30.794  29.642  1.00  0.00     0.029 A 
ATOM     42  C   UNL A   1      38.526  31.323  30.971  1.00  0.00     0.049 A 
ATOM     43  H   UNL A   1      40.039  30.727  32.272  1.00  0.00     0.167 HD
ATOM     44  C   UNL A   1      43.079  29.161  35.024  1.00  0.00     0.037 A 
ATOM     45  C   UNL A   1      37.842  32.309  31.584  1.00  0.00     0.037 A 
ATOM     46  C   UNL A   1      42.460  30.254  35.725  1.00  0.00     0.049 A 
ATOM     47  C   UNL A   1      38.267  32.752  32.955  1.00  0.00     0.074 A 
ATOM     48  C   UNL A   1      42.775  30.768  36.970  1.00  0.00     0.029 A 
ATOM     49  N   UNL A   1      41.407  31.012  35.233  1.00  0.00    -0.354 N 
ATOM     50  N   UNL A   1      39.227  32.277  33.714  1.00  0.00    -0.248 NA
ATOM     51  C   UNL A   1      37.526  33.871  33.553  1.00  0.00     0.031 C 
ATOM     52  C   UNL A   1      41.896  31.822  37.242  1.00  0.00     0.029 A 
ATOM     53  C   UNL A   1      41.057  31.986  36.152  1.00  0.00     0.049 A 
ATOM     54  H   UNL A   1      40.974  30.876  34.360  1.00  0.00     0.167 HD
ATOM     55  C   UNL A   1      39.220  33.053  34.866  1.00  0.00     0.074 A 
ATOM     56  C   UNL A   1      38.167  34.036  34.702  1.00  0.00     0.031 C 
ATOM     57  C   UNL A   1      40.013  32.962  35.962  1.00  0.00     0.037 A 
BRANCH  44  58
ATOM     58  C   UNL A   1      44.175  28.392  35.709  1.00  0.00     0.058 A 
ATOM     59  C   UNL A   1      45.527  28.736  35.544  1.00  0.00     0.135 A 
ATOM     60  C   UNL A   1      43.873  27.303  36.541  1.00  0.00     0.135 A 
ATOM     61  F   UNL A   1      45.872  29.758  34.745  1.00  0.00    -0.206 F 
ATOM     62  C   UNL A   1      46.543  28.002  36.147  1.00  0.00     0.059 A 
ATOM     63  C   UNL A   1      44.872  26.571  37.177  1.00  0.00     0.059 A 
ATOM     64  F   UNL A   1      42.598  26.931  36.733  1.00  0.00    -0.206 F 
ATOM     65  C   UNL A   1      46.205  26.917  36.957  1.00  0.00     0.060 A 
BRANCH  65  66
ATOM     66  S   UNL A   1      47.533  25.964  37.722  1.00  0.00     0.124 S 
ATOM     67  O   UNL A   1      48.673  26.334  36.889  1.00  0.00    -0.237 OA
ATOM     68  O   UNL A   1      47.550  26.486  39.086  1.00  0.00    -0.237 OA
ATOM     69  O   UNL A   1      47.079  24.584  37.589  1.00  0.00    -0.744 OA
ENDBRANCH  65  66
ENDBRANCH  44  58
BRANCH  45  70
ATOM     70  C   UNL A   1      36.708  32.970  30.884  1.00  0.00     0.058 A 
ATOM     71  C   UNL A   1      35.382  32.678  31.236  1.00  0.00     0.135 A 
ATOM     72  C   UNL A   1      36.925  33.918  29.873  1.00  0.00     0.135 A 
ATOM     73  F   UNL A   1      35.126  31.775  32.194  1.00  0.00    -0.206 F 
ATOM     74  C   UNL A   1      34.308  33.293  30.601  1.00  0.00     0.059 A 
ATOM     75  C   UNL A   1      35.867  34.561  29.237  1.00  0.00     0.059 A 
ATOM     76  F   UNL A   1      38.175  34.244  29.514  1.00  0.00    -0.206 F 
ATOM     77  C   UNL A   1      34.560  34.235  29.603  1.00  0.00     0.060 A 
BRANCH  77  78
ATOM     78  S   UNL A   1      33.161  35.071  28.825  1.00  0.00     0.124 S 
ATOM     79  O   UNL A   1      32.353  35.433  29.983  1.00  0.00    -0.237 OA
ATOM     80  O   UNL A   1      33.811  36.177  28.128  1.00  0.00    -0.237 OA
ATOM     81  O   UNL A   1      32.597  34.041  27.957  1.00  0.00    -0.744 OA
ENDBRANCH  77  78
ENDBRANCH  45  70
BRANCH  57  82
ATOM     82  C   UNL A   1      39.799  33.971  37.053  1.00  0.00     0.058 A 
ATOM     83  C   UNL A   1      39.049  33.666  38.198  1.00  0.00     0.135 A 
ATOM     84  C   UNL A   1      40.399  35.237  36.976  1.00  0.00     0.135 A 
ATOM     85  F   UNL A   1      38.452  32.470  38.317  1.00  0.00    -0.206 F 
ATOM     86  C   UNL A   1      38.883  34.591  39.224  1.00  0.00     0.059 A 
ATOM     87  C   UNL A   1      40.265  36.171  37.999  1.00  0.00     0.059 A 
ATOM     88  F   UNL A   1      41.136  35.573  35.905  1.00  0.00    -0.206 F 
ATOM     89  C   UNL A   1      39.495  35.842  39.114  1.00  0.00     0.060 A 
BRANCH  89  90
ATOM     90  S   UNL A   1      39.304  37.023  40.466  1.00  0.00     0.124 S 
ATOM     91  O   UNL A   1      40.693  37.286  40.824  1.00  0.00    -0.237 OA
ATOM     92  O   UNL A   1      38.595  38.125  39.823  1.00  0.00    -0.237 OA
ATOM     93  O   UNL A   1      38.528  36.282  41.456  1.00  0.00    -0.744 OA
ENDBRANCH  89  90
ENDBRANCH  57  82
ENDBRANCH  31  32
ENDBRANCH  23  26
ENDBRANCH  21  22
ENDBRANCH  20  21
ENDBRANCH   1  20
TORSDOF 17
ENDMDL
