MODEL 1
REMARK VINA RESULT:     -11.9      0.000      0.000
REMARK SMILES COc1ccc(N[C@]2(Br)C(=O)NC(=O)N[C@@H]2C(=O)NCCCCNC(=O)c2ccc(-c3c4nc(c(-c5c(F)cc(S(=O)(=O)[O-])cc5F)c5ccc([nH]5)c(-c5c(F)cc(S(=O)(=O)[O-])cc5F)c5nc(c(-c6c(F)cc(S(=O)(=O)[O-])cc6F)c6ccc3[nH]6)C=C5)C=C4)cc2)cc1
REMARK SMILES IDX 21 1 20 2 19 3 17 4 18 5 16 7 8 8 10 9 9 10 11 11 12 12
REMARK SMILES IDX 15 13 13 14 14 17 7 18 6 20 3 21 4 22 94 23 5 24 93 25 2 26
REMARK SMILES IDX 1 27 22 28 23 29 24 30 25 31 26 33 27 34 28 35 92 36 29 37
REMARK SMILES IDX 91 38 30 39 31 40 32 41 85 42 33 43 90 44 84 45 86 46 34 47
REMARK SMILES IDX 89 48 83 49 82 50 35 52 69 53 48 54 68 55 49 56 52 57 67 58
REMARK SMILES IDX 87 59 50 60 51 61 66 63 88 64 53 65 36 66 37 67 46 68 38 69
REMARK SMILES IDX 39 70 45 71 47 72 40 73 41 74 42 75 43 76 44 77 70 78 71 79
REMARK SMILES IDX 80 80 72 81 73 82 79 83 81 84 74 85 75 86 76 87 77 88 78 89
REMARK SMILES IDX 54 90 55 91 64 92 56 93 57 94 63 95 65 96 58 97 59 98 60 99
REMARK SMILES IDX 61 100 62 101
REMARK H PARENT 19 6 12 15 15 16 7 19 24 32 86 51 52 62
REMARK Flexibility Score: inf
ROOT
ATOM      1  C   UNL A   1      31.751  27.975  26.368  1.00  0.00     0.023 C 
ENDROOT
BRANCH   1   2
ATOM      2  C   UNL A   1      30.876  26.870  25.782  1.00  0.00     0.116 C 
BRANCH   2   3
ATOM      3  N   UNL A   1      31.554  26.105  24.751  1.00  0.00    -0.354 N 
ATOM      4  C   UNL A   1      32.315  24.975  24.769  1.00  0.00     0.246 C 
ATOM      5  O   UNL A   1      32.831  24.673  23.687  1.00  0.00    -0.273 OA
ATOM      6  H   UNL A   1      31.440  26.482  23.849  1.00  0.00     0.163 HD
BRANCH   4   7
ATOM      7  C   UNL A   1      32.493  24.030  25.981  1.00  0.00     0.219 C 
ATOM      8  C   UNL A   1      32.992  22.618  25.614  1.00  0.00     0.202 C 
ATOM      9  C   UNL A   1      31.823  21.646  25.382  1.00  0.00     0.267 C 
ATOM     10  Br  UNL A   1      33.753  21.850  27.385  1.00  0.00    -0.048 Br
ATOM     11  O   UNL A   1      31.886  20.607  24.723  1.00  0.00    -0.271 OA
ATOM     12  N   UNL A   1      30.657  21.934  26.055  1.00  0.00    -0.275 N 
ATOM     13  N   UNL A   1      31.353  23.973  26.898  1.00  0.00    -0.322 N 
ATOM     14  C   UNL A   1      30.434  22.971  26.912  1.00  0.00     0.322 C 
ATOM     15  H   UNL A   1      29.901  21.324  25.902  1.00  0.00     0.174 HD
ATOM     16  H   UNL A   1      31.246  24.706  27.546  1.00  0.00     0.166 HD
ATOM     17  O   UNL A   1      29.447  23.025  27.628  1.00  0.00    -0.248 OA
BRANCH   8  18
ATOM     18  N   UNL A   1      34.154  22.460  24.752  1.00  0.00    -0.360 N 
ATOM     19  H   UNL A   1      33.951  22.261  23.810  1.00  0.00     0.162 HD
BRANCH  18  20
ATOM     20  C   UNL A   1      35.493  22.548  25.055  1.00  0.00     0.036 A 
ATOM     21  C   UNL A   1      38.240  22.522  25.761  1.00  0.00     0.119 A 
ATOM     22  C   UNL A   1      37.476  23.677  25.906  1.00  0.00     0.048 A 
ATOM     23  C   UNL A   1      37.642  21.376  25.256  1.00  0.00     0.048 A 
ATOM     24  C   UNL A   1      36.127  23.695  25.530  1.00  0.00     0.029 A 
ATOM     25  C   UNL A   1      36.282  21.393  24.918  1.00  0.00     0.029 A 
BRANCH  21  26
ATOM     26  O   UNL A   1      39.528  22.601  26.209  1.00  0.00    -0.497 OA
ATOM     27  C   UNL A   1      40.192  21.352  26.359  1.00  0.00     0.278 C 
ENDBRANCH  21  26
ENDBRANCH  18  20
ENDBRANCH   8  18
ENDBRANCH   4   7
ENDBRANCH   2   3
ENDBRANCH   1   2
BRANCH   1  28
ATOM     28  C   UNL A   1      33.251  27.696  26.368  1.00  0.00     0.023 C 
BRANCH  28  29
ATOM     29  C   UNL A   1      34.123  28.777  25.736  1.00  0.00     0.116 C 
BRANCH  29  30
ATOM     30  N   UNL A   1      33.885  30.109  26.277  1.00  0.00    -0.352 N 
ATOM     31  C   UNL A   1      34.566  30.794  27.257  1.00  0.00     0.251 C 
ATOM     32  H   UNL A   1      33.123  30.592  25.882  1.00  0.00     0.163 HD
ATOM     33  O   UNL A   1      34.139  31.876  27.649  1.00  0.00    -0.269 OA
BRANCH  31  34
ATOM     34  C   UNL A   1      35.783  30.211  27.861  1.00  0.00     0.039 A 
ATOM     35  C   UNL A   1      37.016  30.452  27.251  1.00  0.00     0.014 A 
ATOM     36  C   UNL A   1      35.718  29.460  29.037  1.00  0.00     0.014 A 
ATOM     37  C   UNL A   1      38.188  30.008  27.867  1.00  0.00     0.010 A 
ATOM     38  C   UNL A   1      36.892  29.101  29.695  1.00  0.00     0.010 A 
ATOM     39  C   UNL A   1      38.140  29.373  29.119  1.00  0.00    -0.014 A 
BRANCH  39  40
ATOM     40  C   UNL A   1      39.393  29.021  29.840  1.00  0.00     0.031 A 
ATOM     41  C   UNL A   1      39.792  29.755  31.093  1.00  0.00     0.074 A 
ATOM     42  C   UNL A   1      40.199  28.066  29.331  1.00  0.00     0.049 A 
ATOM     43  N   UNL A   1      40.840  29.572  31.855  1.00  0.00    -0.248 NA
ATOM     44  C   UNL A   1      38.920  30.856  31.534  1.00  0.00     0.031 C 
ATOM     45  C   UNL A   1      39.967  27.344  28.076  1.00  0.00     0.029 A 
ATOM     46  N   UNL A   1      41.376  27.538  29.799  1.00  0.00    -0.354 N 
ATOM     47  C   UNL A   1      40.762  30.539  32.851  1.00  0.00     0.074 A 
ATOM     48  C   UNL A   1      39.591  31.341  32.569  1.00  0.00     0.031 C 
ATOM     49  C   UNL A   1      40.950  26.449  27.893  1.00  0.00     0.029 A 
ATOM     50  C   UNL A   1      41.900  26.551  28.994  1.00  0.00     0.049 A 
ATOM     51  H   UNL A   1      41.806  27.837  30.633  1.00  0.00     0.167 HD
ATOM     52  C   UNL A   1      41.576  30.726  33.915  1.00  0.00     0.037 A 
ATOM     53  C   UNL A   1      43.020  25.814  29.128  1.00  0.00     0.037 A 
ATOM     54  C   UNL A   1      42.719  29.899  34.208  1.00  0.00     0.049 A 
ATOM     55  C   UNL A   1      43.883  26.013  30.343  1.00  0.00     0.074 A 
ATOM     56  C   UNL A   1      43.549  29.943  35.315  1.00  0.00     0.029 A 
ATOM     57  N   UNL A   1      43.199  28.887  33.390  1.00  0.00    -0.354 N 
ATOM     58  N   UNL A   1      43.728  26.858  31.336  1.00  0.00    -0.248 NA
ATOM     59  C   UNL A   1      45.065  25.150  30.469  1.00  0.00     0.031 C 
ATOM     60  C   UNL A   1      44.564  28.997  35.140  1.00  0.00     0.029 A 
ATOM     61  C   UNL A   1      44.332  28.322  33.951  1.00  0.00     0.049 A 
ATOM     62  H   UNL A   1      42.794  28.611  32.537  1.00  0.00     0.167 HD
ATOM     63  C   UNL A   1      44.782  26.616  32.210  1.00  0.00     0.074 A 
ATOM     64  C   UNL A   1      45.550  25.526  31.644  1.00  0.00     0.031 C 
ATOM     65  C   UNL A   1      45.091  27.241  33.372  1.00  0.00     0.037 A 
BRANCH  52  66
ATOM     66  C   UNL A   1      41.268  31.861  34.854  1.00  0.00     0.058 A 
ATOM     67  C   UNL A   1      41.856  33.126  34.704  1.00  0.00     0.135 A 
ATOM     68  C   UNL A   1      40.314  31.700  35.872  1.00  0.00     0.135 A 
ATOM     69  F   UNL A   1      42.786  33.333  33.758  1.00  0.00    -0.206 F 
ATOM     70  C   UNL A   1      41.520  34.188  35.538  1.00  0.00     0.059 A 
ATOM     71  C   UNL A   1      39.942  32.755  36.701  1.00  0.00     0.059 A 
ATOM     72  F   UNL A   1      39.723  30.509  36.063  1.00  0.00    -0.206 F 
ATOM     73  C   UNL A   1      40.556  33.994  36.529  1.00  0.00     0.060 A 
BRANCH  73  74
ATOM     74  S   UNL A   1      40.103  35.394  37.575  1.00  0.00     0.124 S 
ATOM     75  O   UNL A   1      39.838  36.429  36.579  1.00  0.00    -0.237 OA
ATOM     76  O   UNL A   1      38.934  34.886  38.285  1.00  0.00    -0.237 OA
ATOM     77  O   UNL A   1      41.290  35.605  38.397  1.00  0.00    -0.744 OA
ENDBRANCH  73  74
ENDBRANCH  52  66
BRANCH  53  78
ATOM     78  C   UNL A   1      43.384  24.812  28.088  1.00  0.00     0.058 A 
ATOM     79  C   UNL A   1      43.038  23.460  28.226  1.00  0.00     0.135 A 
ATOM     80  C   UNL A   1      44.094  25.189  26.937  1.00  0.00     0.135 A 
ATOM     81  F   UNL A   1      42.364  23.047  29.310  1.00  0.00    -0.206 F 
ATOM     82  C   UNL A   1      43.408  22.511  27.277  1.00  0.00     0.059 A 
ATOM     83  C   UNL A   1      44.448  24.265  25.960  1.00  0.00     0.059 A 
ATOM     84  F   UNL A   1      44.431  26.474  26.745  1.00  0.00    -0.206 F 
ATOM     85  C   UNL A   1      44.115  22.924  26.147  1.00  0.00     0.060 A 
BRANCH  85  86
ATOM     86  S   UNL A   1      44.566  21.692  24.906  1.00  0.00     0.124 S 
ATOM     87  O   UNL A   1      44.569  22.492  23.687  1.00  0.00    -0.237 OA
ATOM     88  O   UNL A   1      45.871  21.242  25.379  1.00  0.00    -0.237 OA
ATOM     89  O   UNL A   1      43.496  20.704  25.011  1.00  0.00    -0.744 OA
ENDBRANCH  85  86
ENDBRANCH  53  78
BRANCH  65  90
ATOM     90  C   UNL A   1      46.301  26.748  34.118  1.00  0.00     0.058 A 
ATOM     91  C   UNL A   1      47.575  27.299  33.905  1.00  0.00     0.135 A 
ATOM     92  C   UNL A   1      46.181  25.726  35.074  1.00  0.00     0.135 A 
ATOM     93  F   UNL A   1      47.745  28.277  32.999  1.00  0.00    -0.206 F 
ATOM     94  C   UNL A   1      48.694  26.826  34.580  1.00  0.00     0.059 A 
ATOM     95  C   UNL A   1      47.282  25.260  35.786  1.00  0.00     0.059 A 
ATOM     96  F   UNL A   1      44.985  25.174  35.329  1.00  0.00    -0.206 F 
ATOM     97  C   UNL A   1      48.538  25.802  35.517  1.00  0.00     0.060 A 
BRANCH  97  98
ATOM     98  S   UNL A   1      49.998  25.197  36.388  1.00  0.00     0.124 S 
ATOM     99  O   UNL A   1      50.760  24.594  35.299  1.00  0.00    -0.237 OA
ATOM    100  O   UNL A   1      50.557  26.421  36.952  1.00  0.00    -0.237 OA
ATOM    101  O   UNL A   1      49.448  24.258  37.363  1.00  0.00    -0.744 OA
ENDBRANCH  97  98
ENDBRANCH  65  90
ENDBRANCH  39  40
ENDBRANCH  31  34
ENDBRANCH  29  30
ENDBRANCH  28  29
ENDBRANCH   1  28
TORSDOF 17
ENDMDL
MODEL 2
REMARK VINA RESULT:     -11.7      5.226      7.334
REMARK SMILES COc1ccc(N[C@]2(Br)C(=O)NC(=O)N[C@@H]2C(=O)NCCCCNC(=O)c2ccc(-c3c4nc(c(-c5c(F)cc(S(=O)(=O)[O-])cc5F)c5ccc([nH]5)c(-c5c(F)cc(S(=O)(=O)[O-])cc5F)c5nc(c(-c6c(F)cc(S(=O)(=O)[O-])cc6F)c6ccc3[nH]6)C=C5)C=C4)cc2)cc1
REMARK SMILES IDX 21 1 20 2 19 3 17 4 18 5 16 7 8 8 10 9 9 10 11 11 12 12
REMARK SMILES IDX 15 13 13 14 14 17 7 18 6 20 3 21 4 22 94 23 5 24 93 25 2 26
REMARK SMILES IDX 1 27 22 28 23 29 24 30 25 31 26 33 27 34 28 35 92 36 29 37
REMARK SMILES IDX 91 38 30 39 31 40 32 41 85 42 33 43 90 44 84 45 86 46 34 47
REMARK SMILES IDX 89 48 83 49 82 50 35 52 69 53 48 54 68 55 49 56 52 57 67 58
REMARK SMILES IDX 87 59 50 60 51 61 66 63 88 64 53 65 36 66 37 67 46 68 38 69
REMARK SMILES IDX 39 70 45 71 47 72 40 73 41 74 42 75 43 76 44 77 70 78 71 79
REMARK SMILES IDX 80 80 72 81 73 82 79 83 81 84 74 85 75 86 76 87 77 88 78 89
REMARK SMILES IDX 54 90 55 91 64 92 56 93 57 94 63 95 65 96 58 97 59 98 60 99
REMARK SMILES IDX 61 100 62 101
REMARK H PARENT 19 6 12 15 15 16 7 19 24 32 86 51 52 62
REMARK Flexibility Score: inf
ROOT
ATOM      1  C   UNL A   1      34.951  29.795  27.777  1.00  0.00     0.023 C 
ENDROOT
BRANCH   1   2
ATOM      2  C   UNL A   1      33.943  29.209  26.792  1.00  0.00     0.116 C 
BRANCH   2   3
ATOM      3  N   UNL A   1      32.697  28.823  27.429  1.00  0.00    -0.354 N 
ATOM      4  C   UNL A   1      31.790  27.834  27.194  1.00  0.00     0.246 C 
ATOM      5  O   UNL A   1      30.767  27.886  27.888  1.00  0.00    -0.273 OA
ATOM      6  H   UNL A   1      32.456  29.399  28.191  1.00  0.00     0.163 HD
BRANCH   4   7
ATOM      7  C   UNL A   1      31.987  26.645  26.226  1.00  0.00     0.219 C 
ATOM      8  C   UNL A   1      31.368  26.857  24.829  1.00  0.00     0.202 C 
ATOM      9  C   UNL A   1      29.931  26.316  24.758  1.00  0.00     0.267 C 
ATOM     10  Br  UNL A   1      32.332  25.483  23.610  1.00  0.00    -0.048 Br
ATOM     11  O   UNL A   1      29.079  26.674  23.944  1.00  0.00    -0.271 OA
ATOM     12  N   UNL A   1      29.633  25.283  25.618  1.00  0.00    -0.275 N 
ATOM     13  N   UNL A   1      31.637  25.333  26.771  1.00  0.00    -0.322 N 
ATOM     14  C   UNL A   1      30.473  24.682  26.507  1.00  0.00     0.322 C 
ATOM     15  H   UNL A   1      28.711  24.939  25.587  1.00  0.00     0.174 HD
ATOM     16  H   UNL A   1      32.286  24.894  27.367  1.00  0.00     0.166 HD
ATOM     17  O   UNL A   1      30.189  23.637  27.071  1.00  0.00    -0.248 OA
BRANCH   8  18
ATOM     18  N   UNL A   1      31.643  28.082  24.093  1.00  0.00    -0.360 N 
ATOM     19  H   UNL A   1      32.592  28.245  23.891  1.00  0.00     0.162 HD
BRANCH  18  20
ATOM     20  C   UNL A   1      30.775  29.047  23.635  1.00  0.00     0.036 A 
ATOM     21  C   UNL A   1      29.109  31.045  22.506  1.00  0.00     0.119 A 
ATOM     22  C   UNL A   1      29.409  31.050  23.865  1.00  0.00     0.048 A 
ATOM     23  C   UNL A   1      29.631  30.041  21.702  1.00  0.00     0.048 A 
ATOM     24  C   UNL A   1      30.208  30.045  24.426  1.00  0.00     0.029 A 
ATOM     25  C   UNL A   1      30.462  29.062  22.265  1.00  0.00     0.029 A 
BRANCH  21  26
ATOM     26  O   UNL A   1      28.366  32.100  22.057  1.00  0.00    -0.497 OA
ATOM     27  C   UNL A   1      28.048  32.068  20.671  1.00  0.00     0.278 C 
ENDBRANCH  21  26
ENDBRANCH  18  20
ENDBRANCH   8  18
ENDBRANCH   4   7
ENDBRANCH   2   3
ENDBRANCH   1   2
BRANCH   1  28
ATOM     28  C   UNL A   1      34.904  31.310  27.943  1.00  0.00     0.023 C 
BRANCH  28  29
ATOM     29  C   UNL A   1      35.810  31.883  29.030  1.00  0.00     0.116 C 
BRANCH  29  30
ATOM     30  N   UNL A   1      35.681  31.206  30.314  1.00  0.00    -0.352 N 
ATOM     31  C   UNL A   1      36.596  30.441  30.999  1.00  0.00     0.251 C 
ATOM     32  H   UNL A   1      34.808  31.313  30.758  1.00  0.00     0.163 HD
ATOM     33  O   UNL A   1      36.254  29.863  32.027  1.00  0.00    -0.269 OA
BRANCH  31  34
ATOM     34  C   UNL A   1      37.971  30.283  30.479  1.00  0.00     0.039 A 
ATOM     35  C   UNL A   1      38.999  29.989  31.378  1.00  0.00     0.014 A 
ATOM     36  C   UNL A   1      38.244  30.393  29.113  1.00  0.00     0.014 A 
ATOM     37  C   UNL A   1      40.281  29.724  30.895  1.00  0.00     0.010 A 
ATOM     38  C   UNL A   1      39.500  30.037  28.628  1.00  0.00     0.010 A 
ATOM     39  C   UNL A   1      40.532  29.696  29.512  1.00  0.00    -0.014 A 
BRANCH  39  40
ATOM     40  C   UNL A   1      41.863  29.281  28.991  1.00  0.00     0.031 A 
ATOM     41  C   UNL A   1      42.983  30.278  28.863  1.00  0.00     0.074 A 
ATOM     42  C   UNL A   1      42.042  28.006  28.586  1.00  0.00     0.049 A 
ATOM     43  N   UNL A   1      44.208  30.089  28.442  1.00  0.00    -0.248 NA
ATOM     44  C   UNL A   1      42.687  31.674  29.225  1.00  0.00     0.031 C 
ATOM     45  C   UNL A   1      41.008  26.968  28.577  1.00  0.00     0.029 A 
ATOM     46  N   UNL A   1      43.154  27.365  28.100  1.00  0.00    -0.354 N 
ATOM     47  C   UNL A   1      44.820  31.338  28.474  1.00  0.00     0.074 A 
ATOM     48  C   UNL A   1      43.818  32.287  28.906  1.00  0.00     0.031 C 
ATOM     49  C   UNL A   1      41.541  25.816  28.142  1.00  0.00     0.029 A 
ATOM     50  C   UNL A   1      42.943  26.036  27.808  1.00  0.00     0.049 A 
ATOM     51  H   UNL A   1      44.021  27.813  27.973  1.00  0.00     0.167 HD
ATOM     52  C   UNL A   1      46.104  31.658  28.192  1.00  0.00     0.037 A 
ATOM     53  C   UNL A   1      43.784  25.102  27.324  1.00  0.00     0.037 A 
ATOM     54  C   UNL A   1      47.105  30.699  27.798  1.00  0.00     0.049 A 
ATOM     55  C   UNL A   1      45.218  25.475  27.061  1.00  0.00     0.074 A 
ATOM     56  C   UNL A   1      48.457  30.907  27.587  1.00  0.00     0.029 A 
ATOM     57  N   UNL A   1      46.864  29.358  27.546  1.00  0.00    -0.354 N 
ATOM     58  N   UNL A   1      45.806  26.640  27.208  1.00  0.00    -0.248 NA
ATOM     59  C   UNL A   1      46.107  24.409  26.583  1.00  0.00     0.031 C 
ATOM     60  C   UNL A   1      49.022  29.705  27.153  1.00  0.00     0.029 A 
ATOM     61  C   UNL A   1      48.035  28.732  27.150  1.00  0.00     0.049 A 
ATOM     62  H   UNL A   1      45.990  28.914  27.635  1.00  0.00     0.167 HD
ATOM     63  C   UNL A   1      47.136  26.441  26.856  1.00  0.00     0.074 A 
ATOM     64  C   UNL A   1      47.272  25.038  26.519  1.00  0.00     0.031 C 
ATOM     65  C   UNL A   1      48.153  27.336  26.810  1.00  0.00     0.037 A 
BRANCH  52  66
ATOM     66  C   UNL A   1      46.516  33.102  28.304  1.00  0.00     0.058 A 
ATOM     67  C   UNL A   1      46.393  33.991  27.225  1.00  0.00     0.135 A 
ATOM     68  C   UNL A   1      46.969  33.617  29.528  1.00  0.00     0.135 A 
ATOM     69  F   UNL A   1      45.980  33.550  26.027  1.00  0.00    -0.206 F 
ATOM     70  C   UNL A   1      46.718  35.339  27.353  1.00  0.00     0.059 A 
ATOM     71  C   UNL A   1      47.274  34.966  29.687  1.00  0.00     0.059 A 
ATOM     72  F   UNL A   1      47.109  32.809  30.592  1.00  0.00    -0.206 F 
ATOM     73  C   UNL A   1      47.151  35.817  28.591  1.00  0.00     0.060 A 
BRANCH  73  74
ATOM     74  S   UNL A   1      47.528  37.577  28.749  1.00  0.00     0.124 S 
ATOM     75  O   UNL A   1      47.532  37.744  30.199  1.00  0.00    -0.237 OA
ATOM     76  O   UNL A   1      48.830  37.675  28.098  1.00  0.00    -0.237 OA
ATOM     77  O   UNL A   1      46.427  38.226  28.046  1.00  0.00    -0.744 OA
ENDBRANCH  73  74
ENDBRANCH  52  66
BRANCH  53  78
ATOM     78  C   UNL A   1      43.297  23.718  27.066  1.00  0.00     0.058 A 
ATOM     79  C   UNL A   1      43.069  22.817  28.116  1.00  0.00     0.135 A 
ATOM     80  C   UNL A   1      43.055  23.268  25.758  1.00  0.00     0.135 A 
ATOM     81  F   UNL A   1      43.289  23.196  29.384  1.00  0.00    -0.206 F 
ATOM     82  C   UNL A   1      42.650  21.511  27.881  1.00  0.00     0.059 A 
ATOM     83  C   UNL A   1      42.607  21.977  25.499  1.00  0.00     0.059 A 
ATOM     84  F   UNL A   1      43.237  24.096  24.718  1.00  0.00    -0.206 F 
ATOM     85  C   UNL A   1      42.422  21.100  26.566  1.00  0.00     0.060 A 
BRANCH  85  86
ATOM     86  S   UNL A   1      41.850  19.413  26.271  1.00  0.00     0.124 S 
ATOM     87  O   UNL A   1      42.567  19.071  25.048  1.00  0.00    -0.237 OA
ATOM     88  O   UNL A   1      42.285  18.725  27.481  1.00  0.00    -0.237 OA
ATOM     89  O   UNL A   1      40.405  19.569  26.133  1.00  0.00    -0.744 OA
ENDBRANCH  85  86
ENDBRANCH  53  78
BRANCH  65  90
ATOM     90  C   UNL A   1      49.506  26.820  26.399  1.00  0.00     0.058 A 
ATOM     91  C   UNL A   1      49.995  26.994  25.094  1.00  0.00     0.135 A 
ATOM     92  C   UNL A   1      50.331  26.165  27.326  1.00  0.00     0.135 A 
ATOM     93  F   UNL A   1      49.245  27.611  24.167  1.00  0.00    -0.206 F 
ATOM     94  C   UNL A   1      51.236  26.497  24.711  1.00  0.00     0.059 A 
ATOM     95  C   UNL A   1      51.590  25.689  26.974  1.00  0.00     0.059 A 
ATOM     96  F   UNL A   1      49.920  25.985  28.592  1.00  0.00    -0.206 F 
ATOM     97  C   UNL A   1      52.026  25.843  25.660  1.00  0.00     0.060 A 
BRANCH  97  98
ATOM     98  S   UNL A   1      53.635  25.203  25.151  1.00  0.00     0.124 S 
ATOM     99  O   UNL A   1      53.643  25.528  23.729  1.00  0.00    -0.237 OA
ATOM    100  O   UNL A   1      54.555  25.971  25.984  1.00  0.00    -0.237 OA
ATOM    101  O   UNL A   1      53.551  23.779  25.469  1.00  0.00    -0.744 OA
ENDBRANCH  97  98
ENDBRANCH  65  90
ENDBRANCH  39  40
ENDBRANCH  31  34
ENDBRANCH  29  30
ENDBRANCH  28  29
ENDBRANCH   1  28
TORSDOF 17
ENDMDL
MODEL 3
REMARK VINA RESULT:     -11.6      4.980      6.312
REMARK SMILES COc1ccc(N[C@]2(Br)C(=O)NC(=O)N[C@@H]2C(=O)NCCCCNC(=O)c2ccc(-c3c4nc(c(-c5c(F)cc(S(=O)(=O)[O-])cc5F)c5ccc([nH]5)c(-c5c(F)cc(S(=O)(=O)[O-])cc5F)c5nc(c(-c6c(F)cc(S(=O)(=O)[O-])cc6F)c6ccc3[nH]6)C=C5)C=C4)cc2)cc1
REMARK SMILES IDX 21 1 20 2 19 3 17 4 18 5 16 7 8 8 10 9 9 10 11 11 12 12
REMARK SMILES IDX 15 13 13 14 14 17 7 18 6 20 3 21 4 22 94 23 5 24 93 25 2 26
REMARK SMILES IDX 1 27 22 28 23 29 24 30 25 31 26 33 27 34 28 35 92 36 29 37
REMARK SMILES IDX 91 38 30 39 31 40 32 41 85 42 33 43 90 44 84 45 86 46 34 47
REMARK SMILES IDX 89 48 83 49 82 50 35 52 69 53 48 54 68 55 49 56 52 57 67 58
REMARK SMILES IDX 87 59 50 60 51 61 66 63 88 64 53 65 36 66 37 67 46 68 38 69
REMARK SMILES IDX 39 70 45 71 47 72 40 73 41 74 42 75 43 76 44 77 70 78 71 79
REMARK SMILES IDX 80 80 72 81 73 82 79 83 81 84 74 85 75 86 76 87 77 88 78 89
REMARK SMILES IDX 54 90 55 91 64 92 56 93 57 94 63 95 65 96 58 97 59 98 60 99
REMARK SMILES IDX 61 100 62 101
REMARK H PARENT 19 6 12 15 15 16 7 19 24 32 86 51 52 62
REMARK Flexibility Score: inf
ROOT
ATOM      1  C   UNL A   1      33.642  27.805  26.657  1.00  0.00     0.023 C 
ENDROOT
BRANCH   1   2
ATOM      2  C   UNL A   1      32.197  27.606  26.208  1.00  0.00     0.116 C 
BRANCH   2   3
ATOM      3  N   UNL A   1      32.081  26.711  25.072  1.00  0.00    -0.354 N 
ATOM      4  C   UNL A   1      32.219  25.364  24.920  1.00  0.00     0.246 C 
ATOM      5  O   UNL A   1      32.157  24.959  23.753  1.00  0.00    -0.273 OA
ATOM      6  H   UNL A   1      31.855  27.176  24.233  1.00  0.00     0.163 HD
BRANCH   4   7
ATOM      7  C   UNL A   1      32.349  24.339  26.070  1.00  0.00     0.219 C 
ATOM      8  C   UNL A   1      32.772  22.928  25.615  1.00  0.00     0.202 C 
ATOM      9  C   UNL A   1      31.554  22.035  25.330  1.00  0.00     0.267 C 
ATOM     10  Br  UNL A   1      33.495  22.014  27.332  1.00  0.00    -0.048 Br
ATOM     11  O   UNL A   1      31.562  21.036  24.608  1.00  0.00    -0.271 OA
ATOM     12  N   UNL A   1      30.406  22.342  26.025  1.00  0.00    -0.275 N 
ATOM     13  N   UNL A   1      31.209  24.285  26.987  1.00  0.00    -0.322 N 
ATOM     14  C   UNL A   1      30.239  23.333  26.944  1.00  0.00     0.322 C 
ATOM     15  H   UNL A   1      29.618  21.782  25.838  1.00  0.00     0.174 HD
ATOM     16  H   UNL A   1      31.142  24.981  27.679  1.00  0.00     0.166 HD
ATOM     17  O   UNL A   1      29.257  23.395  27.667  1.00  0.00    -0.248 OA
BRANCH   8  18
ATOM     18  N   UNL A   1      33.924  22.763  24.740  1.00  0.00    -0.360 N 
ATOM     19  H   UNL A   1      33.743  22.898  23.781  1.00  0.00     0.162 HD
BRANCH  18  20
ATOM     20  C   UNL A   1      35.227  22.447  25.049  1.00  0.00     0.036 A 
ATOM     21  C   UNL A   1      37.966  22.006  25.634  1.00  0.00     0.119 A 
ATOM     22  C   UNL A   1      37.200  21.021  25.018  1.00  0.00     0.048 A 
ATOM     23  C   UNL A   1      37.370  23.214  25.969  1.00  0.00     0.048 A 
ATOM     24  C   UNL A   1      35.840  21.231  24.756  1.00  0.00     0.029 A 
ATOM     25  C   UNL A   1      36.019  23.429  25.668  1.00  0.00     0.029 A 
BRANCH  21  26
ATOM     26  O   UNL A   1      39.292  21.717  25.793  1.00  0.00    -0.497 OA
ATOM     27  C   UNL A   1      39.952  22.450  26.817  1.00  0.00     0.278 C 
ENDBRANCH  21  26
ENDBRANCH  18  20
ENDBRANCH   8  18
ENDBRANCH   4   7
ENDBRANCH   2   3
ENDBRANCH   1   2
BRANCH   1  28
ATOM     28  C   UNL A   1      34.135  29.248  26.671  1.00  0.00     0.023 C 
BRANCH  28  29
ATOM     29  C   UNL A   1      35.476  29.481  27.362  1.00  0.00     0.116 C 
BRANCH  29  30
ATOM     30  N   UNL A   1      35.370  29.631  28.807  1.00  0.00    -0.352 N 
ATOM     31  C   UNL A   1      36.356  29.616  29.766  1.00  0.00     0.251 C 
ATOM     32  H   UNL A   1      34.456  29.764  29.148  1.00  0.00     0.163 HD
ATOM     33  O   UNL A   1      36.047  29.653  30.954  1.00  0.00    -0.269 OA
BRANCH  31  34
ATOM     34  C   UNL A   1      37.777  29.516  29.370  1.00  0.00     0.039 A 
ATOM     35  C   UNL A   1      38.733  29.267  30.357  1.00  0.00     0.014 A 
ATOM     36  C   UNL A   1      38.164  29.635  28.033  1.00  0.00     0.014 A 
ATOM     37  C   UNL A   1      40.063  29.057  29.990  1.00  0.00     0.010 A 
ATOM     38  C   UNL A   1      39.472  29.332  27.661  1.00  0.00     0.010 A 
ATOM     39  C   UNL A   1      40.436  29.037  28.635  1.00  0.00    -0.014 A 
BRANCH  39  40
ATOM     40  C   UNL A   1      41.823  28.679  28.235  1.00  0.00     0.031 A 
ATOM     41  C   UNL A   1      42.893  29.734  28.137  1.00  0.00     0.074 A 
ATOM     42  C   UNL A   1      42.105  27.399  27.911  1.00  0.00     0.049 A 
ATOM     43  N   UNL A   1      44.155  29.599  27.818  1.00  0.00    -0.248 NA
ATOM     44  C   UNL A   1      42.491  31.125  28.404  1.00  0.00     0.031 C 
ATOM     45  C   UNL A   1      41.134  26.301  27.880  1.00  0.00     0.029 A 
ATOM     46  N   UNL A   1      43.285  26.803  27.542  1.00  0.00    -0.354 N 
ATOM     47  C   UNL A   1      44.691  30.882  27.830  1.00  0.00     0.074 A 
ATOM     48  C   UNL A   1      43.608  31.789  28.138  1.00  0.00     0.031 C 
ATOM     49  C   UNL A   1      41.763  25.164  27.545  1.00  0.00     0.029 A 
ATOM     50  C   UNL A   1      43.172  25.452  27.304  1.00  0.00     0.049 A 
ATOM     51  H   UNL A   1      44.133  27.296  27.456  1.00  0.00     0.167 HD
ATOM     52  C   UNL A   1      45.973  31.264  27.626  1.00  0.00     0.037 A 
ATOM     53  C   UNL A   1      44.099  24.547  26.933  1.00  0.00     0.037 A 
ATOM     54  C   UNL A   1      47.053  30.350  27.357  1.00  0.00     0.049 A 
ATOM     55  C   UNL A   1      45.524  24.993  26.757  1.00  0.00     0.074 A 
ATOM     56  C   UNL A   1      48.404  30.628  27.236  1.00  0.00     0.029 A 
ATOM     57  N   UNL A   1      46.908  28.986  27.158  1.00  0.00    -0.354 N 
ATOM     58  N   UNL A   1      46.033  26.197  26.885  1.00  0.00    -0.248 NA
ATOM     59  C   UNL A   1      46.506  23.961  26.401  1.00  0.00     0.031 C 
ATOM     60  C   UNL A   1      49.067  29.443  26.907  1.00  0.00     0.029 A 
ATOM     61  C   UNL A   1      48.139  28.414  26.882  1.00  0.00     0.049 A 
ATOM     62  H   UNL A   1      46.056  28.495  27.206  1.00  0.00     0.167 HD
ATOM     63  C   UNL A   1      47.396  26.061  26.643  1.00  0.00     0.074 A 
ATOM     64  C   UNL A   1      47.635  24.655  26.390  1.00  0.00     0.031 C 
ATOM     65  C   UNL A   1      48.361  27.012  26.625  1.00  0.00     0.037 A 
BRANCH  52  66
ATOM     66  C   UNL A   1      46.293  32.734  27.693  1.00  0.00     0.058 A 
ATOM     67  C   UNL A   1      46.005  33.603  26.629  1.00  0.00     0.135 A 
ATOM     68  C   UNL A   1      46.827  33.291  28.866  1.00  0.00     0.135 A 
ATOM     69  F   UNL A   1      45.510  33.122  25.477  1.00  0.00    -0.206 F 
ATOM     70  C   UNL A   1      46.248  34.970  26.720  1.00  0.00     0.059 A 
ATOM     71  C   UNL A   1      47.051  34.659  28.990  1.00  0.00     0.059 A 
ATOM     72  F   UNL A   1      47.124  32.506  29.913  1.00  0.00    -0.206 F 
ATOM     73  C   UNL A   1      46.764  35.490  27.908  1.00  0.00     0.060 A 
BRANCH  73  74
ATOM     74  S   UNL A   1      47.033  37.272  28.023  1.00  0.00     0.124 S 
ATOM     75  O   UNL A   1      46.102  37.639  29.087  1.00  0.00    -0.237 OA
ATOM     76  O   UNL A   1      48.449  37.351  28.367  1.00  0.00    -0.237 OA
ATOM     77  O   UNL A   1      46.685  37.756  26.691  1.00  0.00    -0.744 OA
ENDBRANCH  73  74
ENDBRANCH  52  66
BRANCH  53  78
ATOM     78  C   UNL A   1      43.711  23.126  26.711  1.00  0.00     0.058 A 
ATOM     79  C   UNL A   1      43.589  22.596  25.418  1.00  0.00     0.135 A 
ATOM     80  C   UNL A   1      43.445  22.271  27.793  1.00  0.00     0.135 A 
ATOM     81  F   UNL A   1      43.827  23.373  24.350  1.00  0.00    -0.206 F 
ATOM     82  C   UNL A   1      43.190  21.281  25.202  1.00  0.00     0.059 A 
ATOM     83  C   UNL A   1      43.074  20.944  27.604  1.00  0.00     0.059 A 
ATOM     84  F   UNL A   1      43.567  22.721  29.051  1.00  0.00    -0.206 F 
ATOM     85  C   UNL A   1      42.933  20.462  26.303  1.00  0.00     0.060 A 
BRANCH  85  86
ATOM     86  S   UNL A   1      42.444  18.747  26.015  1.00  0.00     0.124 S 
ATOM     87  O   UNL A   1      43.343  18.365  24.934  1.00  0.00    -0.237 OA
ATOM     88  O   UNL A   1      42.705  18.132  27.312  1.00  0.00    -0.237 OA
ATOM     89  O   UNL A   1      41.033  18.858  25.656  1.00  0.00    -0.744 OA
ENDBRANCH  85  86
ENDBRANCH  53  78
BRANCH  65  90
ATOM     90  C   UNL A   1      49.768  26.560  26.341  1.00  0.00     0.058 A 
ATOM     91  C   UNL A   1      50.303  26.585  25.043  1.00  0.00     0.135 A 
ATOM     92  C   UNL A   1      50.598  26.117  27.383  1.00  0.00     0.135 A 
ATOM     93  F   UNL A   1      49.550  26.997  24.009  1.00  0.00    -0.206 F 
ATOM     94  C   UNL A   1      51.596  26.146  24.781  1.00  0.00     0.059 A 
ATOM     95  C   UNL A   1      51.907  25.705  27.149  1.00  0.00     0.059 A 
ATOM     96  F   UNL A   1      50.144  26.087  28.646  1.00  0.00    -0.206 F 
ATOM     97  C   UNL A   1      52.389  25.704  25.842  1.00  0.00     0.060 A 
BRANCH  97  98
ATOM     98  S   UNL A   1      54.066  25.137  25.489  1.00  0.00     0.124 S 
ATOM     99  O   UNL A   1      54.693  25.241  26.803  1.00  0.00    -0.237 OA
ATOM    100  O   UNL A   1      53.842  23.781  24.998  1.00  0.00    -0.237 OA
ATOM    101  O   UNL A   1      54.543  26.089  24.489  1.00  0.00    -0.744 OA
ENDBRANCH  97  98
ENDBRANCH  65  90
ENDBRANCH  39  40
ENDBRANCH  31  34
ENDBRANCH  29  30
ENDBRANCH  28  29
ENDBRANCH   1  28
TORSDOF 17
ENDMDL
