MODEL 1
REMARK VINA RESULT:     -12.2      0.000      0.000
REMARK SMILES O=C(NCCCCNC(=O)[C@@H]1[C@@H](C(=O)Nc2cccc(C(F)(F)F)c2)[C@@H]2C=C[C@H]1O2)c1ccc(-c2c3nc(c(-c4c(F)cc(S(=O)(=O)[O-])cc4F)c4ccc([nH]4)c(-c4c(F)cc(S(=O)(=O)[O-])cc4F)c4nc(c(-c5c(F)cc(S(=O)(=O)[O-])cc5F)c5ccc2[nH]5)C=C4)C=C3)cc1
REMARK SMILES IDX 5 1 4 2 3 3 1 4 2 5 31 7 32 8 96 9 33 10 95 11 34 12 35 13
REMARK SMILES IDX 36 14 89 15 37 16 94 17 88 18 90 19 38 20 93 21 87 22 86 23
REMARK SMILES IDX 39 25 73 26 52 27 72 28 53 29 56 30 71 31 91 32 54 33 55 34
REMARK SMILES IDX 70 36 92 37 57 38 40 39 41 40 50 41 42 42 43 43 49 44 51 45
REMARK SMILES IDX 44 46 45 47 46 48 47 49 48 50 74 51 75 52 84 53 76 54 77 55
REMARK SMILES IDX 83 56 85 57 78 58 79 59 80 60 81 61 82 62 58 63 59 64 68 65
REMARK SMILES IDX 60 66 61 67 67 68 69 69 62 70 63 71 64 72 65 73 66 74 6 75
REMARK SMILES IDX 7 76 8 77 9 78 10 80 11 81 12 82 29 83 26 84 28 85 30 86
REMARK SMILES IDX 27 87 13 88 14 89 15 90 16 92 17 93 25 94 18 95 20 96 19 97
REMARK SMILES IDX 21 98 22 99 23 100 24 101
REMARK H PARENT 3 6 90 24 56 35 8 79 15 91
REMARK Flexibility Score: inf
ROOT
ATOM      1  C   UNL A   1      38.969  22.262  26.197  1.00  0.00     0.023 C 
ENDROOT
BRANCH   1   2
ATOM      2  C   UNL A   1      39.537  23.594  26.674  1.00  0.00     0.116 C 
BRANCH   2   3
ATOM      3  N   UNL A   1      40.810  23.936  26.056  1.00  0.00    -0.352 N 
ATOM      4  O   UNL A   1      42.608  25.225  25.602  1.00  0.00    -0.269 OA
ATOM      5  C   UNL A   1      41.606  25.034  26.286  1.00  0.00     0.251 C 
ATOM      6  H   UNL A   1      41.145  23.298  25.385  1.00  0.00     0.163 HD
BRANCH   5   7
ATOM      7  C   UNL A   1      41.220  26.002  27.335  1.00  0.00     0.039 A 
ATOM      8  C   UNL A   1      41.765  27.287  27.350  1.00  0.00     0.014 A 
ATOM      9  C   UNL A   1      40.339  25.597  28.342  1.00  0.00     0.014 A 
ATOM     10  C   UNL A   1      41.555  28.109  28.450  1.00  0.00     0.010 A 
ATOM     11  C   UNL A   1      40.068  26.457  29.411  1.00  0.00     0.010 A 
ATOM     12  C   UNL A   1      40.711  27.700  29.498  1.00  0.00    -0.014 A 
BRANCH  12  13
ATOM     13  C   UNL A   1      40.522  28.598  30.666  1.00  0.00     0.031 A 
ATOM     14  C   UNL A   1      41.425  28.508  31.868  1.00  0.00     0.074 A 
ATOM     15  C   UNL A   1      39.558  29.537  30.615  1.00  0.00     0.049 A 
ATOM     16  N   UNL A   1      41.438  29.251  32.945  1.00  0.00    -0.248 NA
ATOM     17  C   UNL A   1      42.439  27.441  31.868  1.00  0.00     0.031 C 
ATOM     18  C   UNL A   1      38.611  29.713  29.511  1.00  0.00     0.029 A 
ATOM     19  N   UNL A   1      39.231  30.538  31.494  1.00  0.00    -0.354 N 
ATOM     20  C   UNL A   1      42.436  28.730  33.760  1.00  0.00     0.074 A 
ATOM     21  C   UNL A   1      42.996  27.593  33.061  1.00  0.00     0.031 C 
ATOM     22  C   UNL A   1      37.849  30.790  29.751  1.00  0.00     0.029 A 
ATOM     23  C   UNL A   1      38.219  31.353  31.046  1.00  0.00     0.049 A 
ATOM     24  H   UNL A   1      39.679  30.661  32.362  1.00  0.00     0.167 HD
ATOM     25  C   UNL A   1      42.852  29.162  34.975  1.00  0.00     0.037 A 
ATOM     26  C   UNL A   1      37.652  32.435  31.610  1.00  0.00     0.037 A 
ATOM     27  C   UNL A   1      42.314  30.316  35.652  1.00  0.00     0.049 A 
ATOM     28  C   UNL A   1      38.151  32.911  32.943  1.00  0.00     0.074 A 
ATOM     29  C   UNL A   1      42.696  30.856  36.869  1.00  0.00     0.029 A 
ATOM     30  N   UNL A   1      41.285  31.110  35.169  1.00  0.00    -0.354 N 
ATOM     31  N   UNL A   1      39.113  32.418  33.687  1.00  0.00    -0.248 NA
ATOM     32  C   UNL A   1      37.489  34.091  33.515  1.00  0.00     0.031 C 
ATOM     33  C   UNL A   1      41.877  31.960  37.134  1.00  0.00     0.029 A 
ATOM     34  C   UNL A   1      41.010  32.129  36.067  1.00  0.00     0.049 A 
ATOM     35  H   UNL A   1      40.818  30.969  34.314  1.00  0.00     0.167 HD
ATOM     36  C   UNL A   1      39.185  33.238  34.806  1.00  0.00     0.074 A 
ATOM     37  C   UNL A   1      38.177  34.267  34.635  1.00  0.00     0.031 C 
ATOM     38  C   UNL A   1      40.008  33.147  35.879  1.00  0.00     0.037 A 
BRANCH  25  39
ATOM     39  C   UNL A   1      43.932  28.375  35.664  1.00  0.00     0.058 A 
ATOM     40  C   UNL A   1      45.294  28.624  35.429  1.00  0.00     0.135 A 
ATOM     41  C   UNL A   1      43.601  27.382  36.601  1.00  0.00     0.135 A 
ATOM     42  F   UNL A   1      45.666  29.553  34.534  1.00  0.00    -0.206 F 
ATOM     43  C   UNL A   1      46.288  27.897  36.077  1.00  0.00     0.059 A 
ATOM     44  C   UNL A   1      44.578  26.658  37.276  1.00  0.00     0.059 A 
ATOM     45  F   UNL A   1      42.314  27.105  36.863  1.00  0.00    -0.206 F 
ATOM     46  C   UNL A   1      45.921  26.912  36.996  1.00  0.00     0.060 A 
BRANCH  46  47
ATOM     47  S   UNL A   1      47.218  25.973  37.828  1.00  0.00     0.124 S 
ATOM     48  O   UNL A   1      46.553  24.692  38.049  1.00  0.00    -0.237 OA
ATOM     49  O   UNL A   1      48.289  25.967  36.837  1.00  0.00    -0.237 OA
ATOM     50  O   UNL A   1      47.486  26.756  39.030  1.00  0.00    -0.744 OA
ENDBRANCH  46  47
ENDBRANCH  25  39
BRANCH  26  51
ATOM     51  C   UNL A   1      36.565  33.151  30.896  1.00  0.00     0.058 A 
ATOM     52  C   UNL A   1      36.844  33.964  29.789  1.00  0.00     0.135 A 
ATOM     53  C   UNL A   1      35.225  33.007  31.285  1.00  0.00     0.135 A 
ATOM     54  F   UNL A   1      38.112  34.133  29.384  1.00  0.00    -0.206 F 
ATOM     55  C   UNL A   1      35.833  34.619  29.095  1.00  0.00     0.059 A 
ATOM     56  C   UNL A   1      34.194  33.632  30.593  1.00  0.00     0.059 A 
ATOM     57  F   UNL A   1      34.908  32.223  32.328  1.00  0.00    -0.206 F 
ATOM     58  C   UNL A   1      34.509  34.444  29.504  1.00  0.00     0.060 A 
BRANCH  58  59
ATOM     59  S   UNL A   1      33.193  35.243  28.560  1.00  0.00     0.124 S 
ATOM     60  O   UNL A   1      32.470  35.951  29.610  1.00  0.00    -0.237 OA
ATOM     61  O   UNL A   1      33.944  36.079  27.628  1.00  0.00    -0.237 OA
ATOM     62  O   UNL A   1      32.489  34.119  27.952  1.00  0.00    -0.744 OA
ENDBRANCH  58  59
ENDBRANCH  26  51
BRANCH  38  63
ATOM     63  C   UNL A   1      39.872  34.207  36.933  1.00  0.00     0.058 A 
ATOM     64  C   UNL A   1      40.531  35.442  36.823  1.00  0.00     0.135 A 
ATOM     65  C   UNL A   1      39.061  33.991  38.057  1.00  0.00     0.135 A 
ATOM     66  F   UNL A   1      41.324  35.693  35.770  1.00  0.00    -0.206 F 
ATOM     67  C   UNL A   1      40.411  36.417  37.808  1.00  0.00     0.059 A 
ATOM     68  C   UNL A   1      38.909  34.960  39.044  1.00  0.00     0.059 A 
ATOM     69  F   UNL A   1      38.404  32.829  38.203  1.00  0.00    -0.206 F 
ATOM     70  C   UNL A   1      39.602  36.163  38.918  1.00  0.00     0.060 A 
BRANCH  70  71
ATOM     71  S   UNL A   1      39.442  37.437  40.188  1.00  0.00     0.124 S 
ATOM     72  O   UNL A   1      38.921  36.664  41.312  1.00  0.00    -0.237 OA
ATOM     73  O   UNL A   1      40.812  37.918  40.330  1.00  0.00    -0.237 OA
ATOM     74  O   UNL A   1      38.509  38.390  39.594  1.00  0.00    -0.744 OA
ENDBRANCH  70  71
ENDBRANCH  38  63
ENDBRANCH  12  13
ENDBRANCH   5   7
ENDBRANCH   2   3
ENDBRANCH   1   2
BRANCH   1  75
ATOM     75  C   UNL A   1      37.536  22.315  25.662  1.00  0.00     0.023 C 
BRANCH  75  76
ATOM     76  C   UNL A   1      37.033  23.721  25.345  1.00  0.00     0.116 C 
BRANCH  76  77
ATOM     77  N   UNL A   1      35.767  23.994  26.003  1.00  0.00    -0.356 N 
ATOM     78  C   UNL A   1      34.604  24.451  25.450  1.00  0.00     0.227 C 
ATOM     79  H   UNL A   1      35.744  23.829  26.974  1.00  0.00     0.163 HD
ATOM     80  O   UNL A   1      33.681  24.777  26.194  1.00  0.00    -0.275 OA
BRANCH  78  81
ATOM     81  C   UNL A   1      34.499  24.492  23.945  1.00  0.00     0.127 C 
ATOM     82  C   UNL A   1      33.161  25.088  23.398  1.00  0.00     0.127 C 
ATOM     83  C   UNL A   1      34.465  23.071  23.363  1.00  0.00     0.155 C 
ATOM     84  C   UNL A   1      32.689  23.942  22.481  1.00  0.00     0.155 C 
ATOM     85  C   UNL A   1      33.304  22.263  23.873  1.00  0.00     0.004 C 
ATOM     86  O   UNL A   1      33.958  23.383  22.039  1.00  0.00    -0.365 OA
ATOM     87  C   UNL A   1      32.207  22.801  23.327  1.00  0.00     0.004 C 
BRANCH  82  88
ATOM     88  C   UNL A   1      33.378  26.378  22.621  1.00  0.00     0.231 C 
ATOM     89  O   UNL A   1      33.661  26.378  21.420  1.00  0.00    -0.274 OA
ATOM     90  N   UNL A   1      33.238  27.599  23.227  1.00  0.00    -0.326 N 
ATOM     91  H   UNL A   1      33.248  28.365  22.609  1.00  0.00     0.169 HD
BRANCH  90  92
ATOM     92  C   UNL A   1      33.084  27.942  24.576  1.00  0.00     0.041 A 
ATOM     93  C   UNL A   1      31.902  27.545  25.206  1.00  0.00     0.026 A 
ATOM     94  C   UNL A   1      34.048  28.642  25.304  1.00  0.00     0.039 A 
ATOM     95  C   UNL A   1      31.731  27.753  26.574  1.00  0.00     0.003 A 
ATOM     96  C   UNL A   1      33.880  28.874  26.679  1.00  0.00     0.058 A 
ATOM     97  C   UNL A   1      32.721  28.402  27.311  1.00  0.00     0.013 A 
BRANCH  96  98
ATOM     98  C   UNL A   1      34.934  29.602  27.476  1.00  0.00     0.416 C 
ATOM     99  F   UNL A   1      34.560  30.871  27.798  1.00  0.00    -0.166 F 
ATOM    100  F   UNL A   1      35.201  28.981  28.659  1.00  0.00    -0.166 F 
ATOM    101  F   UNL A   1      36.127  29.714  26.833  1.00  0.00    -0.166 F 
ENDBRANCH  96  98
ENDBRANCH  90  92
ENDBRANCH  82  88
ENDBRANCH  78  81
ENDBRANCH  76  77
ENDBRANCH  75  76
ENDBRANCH   1  75
TORSDOF 17
ENDMDL
MODEL 2
REMARK VINA RESULT:     -12.0      1.951      3.321
REMARK SMILES O=C(NCCCCNC(=O)[C@@H]1[C@@H](C(=O)Nc2cccc(C(F)(F)F)c2)[C@@H]2C=C[C@H]1O2)c1ccc(-c2c3nc(c(-c4c(F)cc(S(=O)(=O)[O-])cc4F)c4ccc([nH]4)c(-c4c(F)cc(S(=O)(=O)[O-])cc4F)c4nc(c(-c5c(F)cc(S(=O)(=O)[O-])cc5F)c5ccc2[nH]5)C=C4)C=C3)cc1
REMARK SMILES IDX 5 1 4 2 3 3 1 4 2 5 31 7 32 8 96 9 33 10 95 11 34 12 35 13
REMARK SMILES IDX 36 14 89 15 37 16 94 17 88 18 90 19 38 20 93 21 87 22 86 23
REMARK SMILES IDX 39 25 73 26 52 27 72 28 53 29 56 30 71 31 91 32 54 33 55 34
REMARK SMILES IDX 70 36 92 37 57 38 40 39 41 40 50 41 42 42 43 43 49 44 51 45
REMARK SMILES IDX 44 46 45 47 46 48 47 49 48 50 74 51 75 52 84 53 76 54 77 55
REMARK SMILES IDX 83 56 85 57 78 58 79 59 80 60 81 61 82 62 58 63 59 64 68 65
REMARK SMILES IDX 60 66 61 67 67 68 69 69 62 70 63 71 64 72 65 73 66 74 6 75
REMARK SMILES IDX 7 76 8 77 9 78 10 80 11 81 12 82 29 83 26 84 28 85 30 86
REMARK SMILES IDX 27 87 13 88 14 89 15 90 16 92 17 93 25 94 18 95 20 96 19 97
REMARK SMILES IDX 21 98 22 99 23 100 24 101
REMARK H PARENT 3 6 90 24 56 35 8 79 15 91
REMARK Flexibility Score: inf
ROOT
ATOM      1  C   UNL A   1      37.547  23.115  25.877  1.00  0.00     0.023 C 
ENDROOT
BRANCH   1   2
ATOM      2  C   UNL A   1      38.399  24.312  26.285  1.00  0.00     0.116 C 
BRANCH   2   3
ATOM      3  N   UNL A   1      39.829  24.089  26.121  1.00  0.00    -0.352 N 
ATOM      4  O   UNL A   1      42.031  24.513  26.384  1.00  0.00    -0.269 OA
ATOM      5  C   UNL A   1      40.874  24.761  26.710  1.00  0.00     0.251 C 
ATOM      6  H   UNL A   1      40.080  23.363  25.506  1.00  0.00     0.163 HD
BRANCH   5   7
ATOM      7  C   UNL A   1      40.587  25.814  27.708  1.00  0.00     0.039 A 
ATOM      8  C   UNL A   1      41.372  26.967  27.769  1.00  0.00     0.014 A 
ATOM      9  C   UNL A   1      39.550  25.617  28.625  1.00  0.00     0.014 A 
ATOM     10  C   UNL A   1      41.222  27.843  28.837  1.00  0.00     0.010 A 
ATOM     11  C   UNL A   1      39.352  26.542  29.654  1.00  0.00     0.010 A 
ATOM     12  C   UNL A   1      40.217  27.637  29.797  1.00  0.00    -0.014 A 
BRANCH  12  13
ATOM     13  C   UNL A   1      40.097  28.585  30.934  1.00  0.00     0.031 A 
ATOM     14  C   UNL A   1      41.030  28.504  32.113  1.00  0.00     0.074 A 
ATOM     15  C   UNL A   1      39.169  29.560  30.872  1.00  0.00     0.049 A 
ATOM     16  N   UNL A   1      41.103  29.287  33.160  1.00  0.00    -0.248 NA
ATOM     17  C   UNL A   1      42.000  27.398  32.128  1.00  0.00     0.031 C 
ATOM     18  C   UNL A   1      38.199  29.731  29.788  1.00  0.00     0.029 A 
ATOM     19  N   UNL A   1      38.907  30.605  31.720  1.00  0.00    -0.354 N 
ATOM     20  C   UNL A   1      42.103  28.757  33.967  1.00  0.00     0.074 A 
ATOM     21  C   UNL A   1      42.597  27.573  33.298  1.00  0.00     0.031 C 
ATOM     22  C   UNL A   1      37.486  30.846  30.007  1.00  0.00     0.029 A 
ATOM     23  C   UNL A   1      37.915  31.442  31.268  1.00  0.00     0.049 A 
ATOM     24  H   UNL A   1      39.384  30.743  32.570  1.00  0.00     0.167 HD
ATOM     25  C   UNL A   1      42.570  29.219  35.153  1.00  0.00     0.037 A 
ATOM     26  C   UNL A   1      37.407  32.567  31.805  1.00  0.00     0.037 A 
ATOM     27  C   UNL A   1      42.098  30.418  35.798  1.00  0.00     0.049 A 
ATOM     28  C   UNL A   1      37.963  33.073  33.104  1.00  0.00     0.074 A 
ATOM     29  C   UNL A   1      42.535  30.988  36.982  1.00  0.00     0.029 A 
ATOM     30  N   UNL A   1      41.087  31.234  35.313  1.00  0.00    -0.354 N 
ATOM     31  N   UNL A   1      38.926  32.571  33.840  1.00  0.00    -0.248 NA
ATOM     32  C   UNL A   1      37.364  34.300  33.647  1.00  0.00     0.031 C 
ATOM     33  C   UNL A   1      41.768  32.134  37.226  1.00  0.00     0.029 A 
ATOM     34  C   UNL A   1      40.878  32.297  36.177  1.00  0.00     0.049 A 
ATOM     35  H   UNL A   1      40.590  31.080  34.477  1.00  0.00     0.167 HD
ATOM     36  C   UNL A   1      39.062  33.430  34.924  1.00  0.00     0.074 A 
ATOM     37  C   UNL A   1      38.091  34.490  34.740  1.00  0.00     0.031 C 
ATOM     38  C   UNL A   1      39.912  33.346  35.976  1.00  0.00     0.037 A 
BRANCH  25  39
ATOM     39  C   UNL A   1      43.638  28.416  35.842  1.00  0.00     0.058 A 
ATOM     40  C   UNL A   1      43.324  27.366  36.720  1.00  0.00     0.135 A 
ATOM     41  C   UNL A   1      44.996  28.676  35.593  1.00  0.00     0.135 A 
ATOM     42  F   UNL A   1      42.043  27.084  37.004  1.00  0.00    -0.206 F 
ATOM     43  C   UNL A   1      44.318  26.621  37.348  1.00  0.00     0.059 A 
ATOM     44  C   UNL A   1      46.005  27.930  36.193  1.00  0.00     0.059 A 
ATOM     45  F   UNL A   1      45.351  29.668  34.761  1.00  0.00    -0.206 F 
ATOM     46  C   UNL A   1      45.657  26.913  37.081  1.00  0.00     0.060 A 
BRANCH  46  47
ATOM     47  S   UNL A   1      46.938  25.943  37.904  1.00  0.00     0.124 S 
ATOM     48  O   UNL A   1      46.204  24.731  38.255  1.00  0.00    -0.237 OA
ATOM     49  O   UNL A   1      47.942  25.793  36.855  1.00  0.00    -0.237 OA
ATOM     50  O   UNL A   1      47.332  26.786  39.028  1.00  0.00    -0.744 OA
ENDBRANCH  46  47
ENDBRANCH  25  39
BRANCH  26  51
ATOM     51  C   UNL A   1      36.329  33.299  31.094  1.00  0.00     0.058 A 
ATOM     52  C   UNL A   1      35.022  33.322  31.596  1.00  0.00     0.135 A 
ATOM     53  C   UNL A   1      36.595  34.019  29.919  1.00  0.00     0.135 A 
ATOM     54  F   UNL A   1      34.721  32.645  32.716  1.00  0.00    -0.206 F 
ATOM     55  C   UNL A   1      34.008  34.026  30.955  1.00  0.00     0.059 A 
ATOM     56  C   UNL A   1      35.605  34.750  29.273  1.00  0.00     0.059 A 
ATOM     57  F   UNL A   1      37.837  34.042  29.410  1.00  0.00    -0.206 F 
ATOM     58  C   UNL A   1      34.311  34.740  29.793  1.00  0.00     0.060 A 
BRANCH  58  59
ATOM     59  S   UNL A   1      33.008  35.705  29.000  1.00  0.00     0.124 S 
ATOM     60  O   UNL A   1      33.783  36.729  28.309  1.00  0.00    -0.237 OA
ATOM     61  O   UNL A   1      32.361  34.711  28.148  1.00  0.00    -0.237 OA
ATOM     62  O   UNL A   1      32.205  36.169  30.126  1.00  0.00    -0.744 OA
ENDBRANCH  58  59
ENDBRANCH  26  51
BRANCH  38  63
ATOM     63  C   UNL A   1      39.848  34.450  36.992  1.00  0.00     0.058 A 
ATOM     64  C   UNL A   1      40.632  35.608  36.869  1.00  0.00     0.135 A 
ATOM     65  C   UNL A   1      38.980  34.355  38.090  1.00  0.00     0.135 A 
ATOM     66  F   UNL A   1      41.483  35.742  35.840  1.00  0.00    -0.206 F 
ATOM     67  C   UNL A   1      40.578  36.624  37.818  1.00  0.00     0.059 A 
ATOM     68  C   UNL A   1      38.894  35.368  39.040  1.00  0.00     0.059 A 
ATOM     69  F   UNL A   1      38.204  33.272  38.246  1.00  0.00    -0.206 F 
ATOM     70  C   UNL A   1      39.709  36.491  38.904  1.00  0.00     0.060 A 
BRANCH  70  71
ATOM     71  S   UNL A   1      39.635  37.817  40.127  1.00  0.00     0.124 S 
ATOM     72  O   UNL A   1      38.530  38.623  39.617  1.00  0.00    -0.237 OA
ATOM     73  O   UNL A   1      39.372  37.092  41.365  1.00  0.00    -0.237 OA
ATOM     74  O   UNL A   1      40.956  38.432  40.038  1.00  0.00    -0.744 OA
ENDBRANCH  70  71
ENDBRANCH  38  63
ENDBRANCH  12  13
ENDBRANCH   5   7
ENDBRANCH   2   3
ENDBRANCH   1   2
BRANCH   1  75
ATOM     75  C   UNL A   1      36.568  23.370  24.728  1.00  0.00     0.023 C 
BRANCH  75  76
ATOM     76  C   UNL A   1      35.462  24.372  25.052  1.00  0.00     0.116 C 
BRANCH  76  77
ATOM     77  N   UNL A   1      34.718  24.746  23.863  1.00  0.00    -0.356 N 
ATOM     78  C   UNL A   1      33.701  25.651  23.747  1.00  0.00     0.227 C 
ATOM     79  H   UNL A   1      34.981  24.288  23.030  1.00  0.00     0.163 HD
ATOM     80  O   UNL A   1      33.082  25.716  22.687  1.00  0.00    -0.275 OA
BRANCH  78  81
ATOM     81  C   UNL A   1      33.416  26.555  24.921  1.00  0.00     0.127 C 
ATOM     82  C   UNL A   1      31.908  26.923  25.113  1.00  0.00     0.127 C 
ATOM     83  C   UNL A   1      34.046  27.940  24.706  1.00  0.00     0.155 C 
ATOM     84  C   UNL A   1      31.986  28.463  25.123  1.00  0.00     0.155 C 
ATOM     85  C   UNL A   1      33.530  28.627  23.473  1.00  0.00     0.004 C 
ATOM     86  O   UNL A   1      33.301  28.683  25.706  1.00  0.00    -0.365 OA
ATOM     87  C   UNL A   1      32.257  28.951  23.731  1.00  0.00     0.004 C 
BRANCH  82  88
ATOM     88  C   UNL A   1      31.343  26.379  26.417  1.00  0.00     0.231 C 
ATOM     89  O   UNL A   1      31.061  27.117  27.365  1.00  0.00    -0.274 OA
ATOM     90  N   UNL A   1      31.099  25.040  26.576  1.00  0.00    -0.326 N 
ATOM     91  H   UNL A   1      30.596  24.811  27.390  1.00  0.00     0.169 HD
BRANCH  90  92
ATOM     92  C   UNL A   1      31.445  23.943  25.779  1.00  0.00     0.041 A 
ATOM     93  C   UNL A   1      30.819  23.833  24.534  1.00  0.00     0.026 A 
ATOM     94  C   UNL A   1      32.378  22.978  26.164  1.00  0.00     0.039 A 
ATOM     95  C   UNL A   1      31.199  22.831  23.642  1.00  0.00     0.003 A 
ATOM     96  C   UNL A   1      32.756  21.953  25.282  1.00  0.00     0.058 A 
ATOM     97  C   UNL A   1      32.172  21.903  24.008  1.00  0.00     0.013 A 
BRANCH  96  98
ATOM     98  C   UNL A   1      33.788  20.927  25.682  1.00  0.00     0.416 C 
ATOM     99  F   UNL A   1      34.592  21.363  26.691  1.00  0.00    -0.166 F 
ATOM    100  F   UNL A   1      33.216  19.775  26.131  1.00  0.00    -0.166 F 
ATOM    101  F   UNL A   1      34.620  20.563  24.670  1.00  0.00    -0.166 F 
ENDBRANCH  96  98
ENDBRANCH  90  92
ENDBRANCH  82  88
ENDBRANCH  78  81
ENDBRANCH  76  77
ENDBRANCH  75  76
ENDBRANCH   1  75
TORSDOF 17
ENDMDL
MODEL 3
REMARK VINA RESULT:     -12.0      2.809      4.362
REMARK SMILES O=C(NCCCCNC(=O)[C@@H]1[C@@H](C(=O)Nc2cccc(C(F)(F)F)c2)[C@@H]2C=C[C@H]1O2)c1ccc(-c2c3nc(c(-c4c(F)cc(S(=O)(=O)[O-])cc4F)c4ccc([nH]4)c(-c4c(F)cc(S(=O)(=O)[O-])cc4F)c4nc(c(-c5c(F)cc(S(=O)(=O)[O-])cc5F)c5ccc2[nH]5)C=C4)C=C3)cc1
REMARK SMILES IDX 5 1 4 2 3 3 1 4 2 5 31 7 32 8 96 9 33 10 95 11 34 12 35 13
REMARK SMILES IDX 36 14 89 15 37 16 94 17 88 18 90 19 38 20 93 21 87 22 86 23
REMARK SMILES IDX 39 25 73 26 52 27 72 28 53 29 56 30 71 31 91 32 54 33 55 34
REMARK SMILES IDX 70 36 92 37 57 38 40 39 41 40 50 41 42 42 43 43 49 44 51 45
REMARK SMILES IDX 44 46 45 47 46 48 47 49 48 50 74 51 75 52 84 53 76 54 77 55
REMARK SMILES IDX 83 56 85 57 78 58 79 59 80 60 81 61 82 62 58 63 59 64 68 65
REMARK SMILES IDX 60 66 61 67 67 68 69 69 62 70 63 71 64 72 65 73 66 74 6 75
REMARK SMILES IDX 7 76 8 77 9 78 10 80 11 81 12 82 29 83 26 84 28 85 30 86
REMARK SMILES IDX 27 87 13 88 14 89 15 90 16 92 17 93 25 94 18 95 20 96 19 97
REMARK SMILES IDX 21 98 22 99 23 100 24 101
REMARK H PARENT 3 6 90 24 56 35 8 79 15 91
REMARK Flexibility Score: inf
ROOT
ATOM      1  C   UNL A   1      39.645  22.214  26.747  1.00  0.00     0.023 C 
ENDROOT
BRANCH   1   2
ATOM      2  C   UNL A   1      40.791  23.136  27.148  1.00  0.00     0.116 C 
BRANCH   2   3
ATOM      3  N   UNL A   1      41.240  24.006  26.071  1.00  0.00    -0.352 N 
ATOM      4  O   UNL A   1      41.760  25.965  25.076  1.00  0.00    -0.269 OA
ATOM      5  C   UNL A   1      41.481  25.359  26.107  1.00  0.00     0.251 C 
ATOM      6  H   UNL A   1      41.389  23.568  25.202  1.00  0.00     0.163 HD
BRANCH   5   7
ATOM      7  C   UNL A   1      41.360  26.083  27.390  1.00  0.00     0.039 A 
ATOM      8  C   UNL A   1      40.195  25.982  28.154  1.00  0.00     0.014 A 
ATOM      9  C   UNL A   1      42.407  26.910  27.807  1.00  0.00     0.014 A 
ATOM     10  C   UNL A   1      40.015  26.824  29.244  1.00  0.00     0.010 A 
ATOM     11  C   UNL A   1      42.252  27.700  28.950  1.00  0.00     0.010 A 
ATOM     12  C   UNL A   1      41.037  27.699  29.650  1.00  0.00    -0.014 A 
BRANCH  12  13
ATOM     13  C   UNL A   1      40.803  28.596  30.811  1.00  0.00     0.031 A 
ATOM     14  C   UNL A   1      41.694  28.543  32.024  1.00  0.00     0.074 A 
ATOM     15  C   UNL A   1      39.808  29.502  30.743  1.00  0.00     0.049 A 
ATOM     16  N   UNL A   1      41.668  29.292  33.097  1.00  0.00    -0.248 NA
ATOM     17  C   UNL A   1      42.743  27.511  32.042  1.00  0.00     0.031 C 
ATOM     18  C   UNL A   1      38.869  29.639  29.627  1.00  0.00     0.029 A 
ATOM     19  N   UNL A   1      39.437  30.495  31.613  1.00  0.00    -0.354 N 
ATOM     20  C   UNL A   1      42.673  28.809  33.926  1.00  0.00     0.074 A 
ATOM     21  C   UNL A   1      43.280  27.688  33.241  1.00  0.00     0.031 C 
ATOM     22  C   UNL A   1      38.068  30.690  29.852  1.00  0.00     0.029 A 
ATOM     23  C   UNL A   1      38.403  31.272  31.148  1.00  0.00     0.049 A 
ATOM     24  H   UNL A   1      39.869  30.638  32.485  1.00  0.00     0.167 HD
ATOM     25  C   UNL A   1      43.060  29.262  35.144  1.00  0.00     0.037 A 
ATOM     26  C   UNL A   1      37.792  32.337  31.699  1.00  0.00     0.037 A 
ATOM     27  C   UNL A   1      42.475  30.400  35.809  1.00  0.00     0.049 A 
ATOM     28  C   UNL A   1      38.259  32.837  33.036  1.00  0.00     0.074 A 
ATOM     29  C   UNL A   1      42.823  30.959  37.027  1.00  0.00     0.029 A 
ATOM     30  N   UNL A   1      41.425  31.156  35.309  1.00  0.00    -0.354 N 
ATOM     31  N   UNL A   1      39.228  32.381  33.793  1.00  0.00    -0.248 NA
ATOM     32  C   UNL A   1      37.550  33.997  33.593  1.00  0.00     0.031 C 
ATOM     33  C   UNL A   1      41.964  32.036  37.276  1.00  0.00     0.029 A 
ATOM     34  C   UNL A   1      41.105  32.170  36.197  1.00  0.00     0.049 A 
ATOM     35  H   UNL A   1      40.973  30.995  34.449  1.00  0.00     0.167 HD
ATOM     36  C   UNL A   1      39.258  33.209  34.909  1.00  0.00     0.074 A 
ATOM     37  C   UNL A   1      38.218  34.202  34.720  1.00  0.00     0.031 C 
ATOM     38  C   UNL A   1      40.071  33.152  35.991  1.00  0.00     0.037 A 
BRANCH  25  39
ATOM     39  C   UNL A   1      44.157  28.516  35.850  1.00  0.00     0.058 A 
ATOM     40  C   UNL A   1      43.885  27.465  36.741  1.00  0.00     0.135 A 
ATOM     41  C   UNL A   1      45.504  28.832  35.605  1.00  0.00     0.135 A 
ATOM     42  F   UNL A   1      42.615  27.130  37.022  1.00  0.00    -0.206 F 
ATOM     43  C   UNL A   1      44.907  26.773  37.384  1.00  0.00     0.059 A 
ATOM     44  C   UNL A   1      46.542  28.139  36.220  1.00  0.00     0.059 A 
ATOM     45  F   UNL A   1      45.820  29.827  34.762  1.00  0.00    -0.206 F 
ATOM     46  C   UNL A   1      46.233  27.120  37.121  1.00  0.00     0.060 A 
BRANCH  46  47
ATOM     47  S   UNL A   1      47.551  26.218  37.963  1.00  0.00     0.124 S 
ATOM     48  O   UNL A   1      47.275  26.540  39.361  1.00  0.00    -0.237 OA
ATOM     49  O   UNL A   1      47.290  24.837  37.569  1.00  0.00    -0.237 OA
ATOM     50  O   UNL A   1      48.768  26.804  37.412  1.00  0.00    -0.744 OA
ENDBRANCH  46  47
ENDBRANCH  25  39
BRANCH  26  51
ATOM     51  C   UNL A   1      36.691  33.012  30.969  1.00  0.00     0.058 A 
ATOM     52  C   UNL A   1      35.357  32.850  31.367  1.00  0.00     0.135 A 
ATOM     53  C   UNL A   1      36.954  33.861  29.883  1.00  0.00     0.135 A 
ATOM     54  F   UNL A   1      35.058  32.045  32.399  1.00  0.00    -0.206 F 
ATOM     55  C   UNL A   1      34.317  33.498  30.708  1.00  0.00     0.059 A 
ATOM     56  C   UNL A   1      35.934  34.538  29.224  1.00  0.00     0.059 A 
ATOM     57  F   UNL A   1      38.218  34.062  29.478  1.00  0.00    -0.206 F 
ATOM     58  C   UNL A   1      34.618  34.343  29.638  1.00  0.00     0.060 A 
BRANCH  58  59
ATOM     59  S   UNL A   1      33.272  35.233  28.827  1.00  0.00     0.124 S 
ATOM     60  O   UNL A   1      32.646  34.170  28.050  1.00  0.00    -0.237 OA
ATOM     61  O   UNL A   1      32.502  35.732  29.963  1.00  0.00    -0.237 OA
ATOM     62  O   UNL A   1      33.968  36.258  28.055  1.00  0.00    -0.744 OA
ENDBRANCH  58  59
ENDBRANCH  26  51
BRANCH  38  63
ATOM     63  C   UNL A   1      39.886  34.212  37.039  1.00  0.00     0.058 A 
ATOM     64  C   UNL A   1      40.451  35.490  36.899  1.00  0.00     0.135 A 
ATOM     65  C   UNL A   1      39.122  33.951  38.186  1.00  0.00     0.135 A 
ATOM     66  F   UNL A   1      41.196  35.784  35.822  1.00  0.00    -0.206 F 
ATOM     67  C   UNL A   1      40.286  36.465  37.876  1.00  0.00     0.059 A 
ATOM     68  C   UNL A   1      38.926  34.919  39.166  1.00  0.00     0.059 A 
ATOM     69  F   UNL A   1      38.555  32.748  38.360  1.00  0.00    -0.206 F 
ATOM     70  C   UNL A   1      39.527  36.168  39.009  1.00  0.00     0.060 A 
BRANCH  70  71
ATOM     71  S   UNL A   1      39.308  37.441  40.270  1.00  0.00     0.124 S 
ATOM     72  O   UNL A   1      38.433  38.386  39.582  1.00  0.00    -0.237 OA
ATOM     73  O   UNL A   1      38.700  36.699  41.369  1.00  0.00    -0.237 OA
ATOM     74  O   UNL A   1      40.669  37.910  40.517  1.00  0.00    -0.744 OA
ENDBRANCH  70  71
ENDBRANCH  38  63
ENDBRANCH  12  13
ENDBRANCH   5   7
ENDBRANCH   2   3
ENDBRANCH   1   2
BRANCH   1  75
ATOM     75  C   UNL A   1      38.576  22.850  25.853  1.00  0.00     0.023 C 
BRANCH  75  76
ATOM     76  C   UNL A   1      37.506  21.879  25.361  1.00  0.00     0.116 C 
BRANCH  76  77
ATOM     77  N   UNL A   1      36.879  22.353  24.140  1.00  0.00    -0.356 N 
ATOM     78  C   UNL A   1      35.674  22.980  23.993  1.00  0.00     0.227 C 
ATOM     79  H   UNL A   1      37.388  22.203  23.310  1.00  0.00     0.163 HD
ATOM     80  O   UNL A   1      35.234  23.163  22.860  1.00  0.00    -0.275 OA
BRANCH  78  81
ATOM     81  C   UNL A   1      34.961  23.453  25.236  1.00  0.00     0.127 C 
ATOM     82  C   UNL A   1      33.501  22.918  25.397  1.00  0.00     0.127 C 
ATOM     83  C   UNL A   1      34.729  24.971  25.185  1.00  0.00     0.155 C 
ATOM     84  C   UNL A   1      32.725  24.240  25.562  1.00  0.00     0.155 C 
ATOM     85  C   UNL A   1      33.901  25.392  24.004  1.00  0.00     0.004 C 
ATOM     86  O   UNL A   1      33.716  25.077  26.220  1.00  0.00    -0.365 OA
ATOM     87  C   UNL A   1      32.662  24.941  24.238  1.00  0.00     0.004 C 
BRANCH  82  88
ATOM     88  C   UNL A   1      33.347  22.020  26.617  1.00  0.00     0.231 C 
ATOM     89  O   UNL A   1      33.515  22.441  27.765  1.00  0.00    -0.274 OA
ATOM     90  N   UNL A   1      32.985  20.705  26.483  1.00  0.00    -0.326 N 
ATOM     91  H   UNL A   1      32.765  20.254  27.330  1.00  0.00     0.169 HD
BRANCH  90  92
ATOM     92  C   UNL A   1      32.877  19.893  25.348  1.00  0.00     0.041 A 
ATOM     93  C   UNL A   1      32.249  20.442  24.226  1.00  0.00     0.026 A 
ATOM     94  C   UNL A   1      33.369  18.588  25.288  1.00  0.00     0.039 A 
ATOM     95  C   UNL A   1      32.208  19.732  23.027  1.00  0.00     0.003 A 
ATOM     96  C   UNL A   1      33.318  17.856  24.091  1.00  0.00     0.058 A 
ATOM     97  C   UNL A   1      32.751  18.451  22.954  1.00  0.00     0.013 A 
BRANCH  96  98
ATOM     98  C   UNL A   1      33.877  16.456  24.013  1.00  0.00     0.416 C 
ATOM     99  F   UNL A   1      34.938  16.272  24.847  1.00  0.00    -0.166 F 
ATOM    100  F   UNL A   1      32.956  15.517  24.367  1.00  0.00    -0.166 F 
ATOM    101  F   UNL A   1      34.310  16.108  22.772  1.00  0.00    -0.166 F 
ENDBRANCH  96  98
ENDBRANCH  90  92
ENDBRANCH  82  88
ENDBRANCH  78  81
ENDBRANCH  76  77
ENDBRANCH  75  76
ENDBRANCH   1  75
TORSDOF 17
ENDMDL
