MODEL 1
REMARK VINA RESULT:     -11.5      0.000      0.000
REMARK SMILES CC(C)Cc1ccc([C@H](C)C(=O)NCCCCNC(=O)c2ccc(-c3c4nc(c(-c5c(F)cc(S(=O)(=O)[O-])cc5F)c5ccc([nH]5)c(-c5c(F)cc(S(=O)(=O)[O-])cc5F)c5nc(c(-c6c(F)cc(S(=O)(=O)[O-])cc6F)c6ccc3[nH]6)C=C5)C=C4)cc2)cc1
REMARK SMILES IDX 15 1 14 2 13 3 11 4 12 5 9 7 10 8 8 9 5 10 6 11 88 12 7 13
REMARK SMILES IDX 87 14 4 15 2 16 1 17 3 18 16 19 17 20 18 21 19 22 20 24
REMARK SMILES IDX 21 25 22 26 86 27 23 28 85 29 24 30 25 31 26 32 79 33 27 34
REMARK SMILES IDX 84 35 78 36 80 37 28 38 83 39 77 40 76 41 29 43 63 44 42 45
REMARK SMILES IDX 62 46 43 47 46 48 61 49 81 50 44 51 45 52 60 54 82 55 47 56
REMARK SMILES IDX 30 57 31 58 40 59 32 60 33 61 39 62 41 63 34 64 35 65 36 66
REMARK SMILES IDX 37 67 38 68 64 69 65 70 74 71 66 72 67 73 73 74 75 75 68 76
REMARK SMILES IDX 69 77 70 78 71 79 72 80 48 81 49 82 58 83 50 84 51 85 57 86
REMARK SMILES IDX 59 87 52 88 53 89 54 90 55 91 56 92
REMARK H PARENT 13 6 18 23 80 42 46 53
REMARK Flexibility Score: inf
ROOT
ATOM      1  C   UNL A   1      37.804  21.902  25.287  1.00  0.00     0.023 C 
ENDROOT
BRANCH   1   2
ATOM      2  C   UNL A   1      36.546  21.045  25.188  1.00  0.00     0.116 C 
BRANCH   2   3
ATOM      3  N   UNL A   1      35.656  21.221  26.318  1.00  0.00    -0.356 N 
ATOM      4  C   UNL A   1      34.392  21.730  26.375  1.00  0.00     0.227 C 
ATOM      5  O   UNL A   1      33.800  21.663  27.458  1.00  0.00    -0.274 OA
ATOM      6  H   UNL A   1      36.023  20.926  27.183  1.00  0.00     0.163 HD
BRANCH   4   7
ATOM      7  C   UNL A   1      33.714  22.393  25.164  1.00  0.00     0.105 C 
ATOM      8  C   UNL A   1      32.801  21.394  24.453  1.00  0.00     0.023 C 
BRANCH   7   9
ATOM      9  C   UNL A   1      33.130  23.762  25.490  1.00  0.00    -0.036 A 
ATOM     10  C   UNL A   1      32.209  26.289  26.361  1.00  0.00    -0.048 A 
ATOM     11  C   UNL A   1      31.327  25.209  26.253  1.00  0.00     0.004 A 
ATOM     12  C   UNL A   1      33.537  26.118  25.956  1.00  0.00     0.004 A 
ATOM     13  C   UNL A   1      31.777  23.966  25.799  1.00  0.00     0.005 A 
ATOM     14  C   UNL A   1      33.994  24.868  25.536  1.00  0.00     0.005 A 
BRANCH  10  15
ATOM     15  C   UNL A   1      31.754  27.593  26.971  1.00  0.00     0.038 C 
BRANCH  15  16
ATOM     16  C   UNL A   1      32.245  28.828  26.186  1.00  0.00    -0.013 C 
ATOM     17  C   UNL A   1      31.399  29.104  24.940  1.00  0.00     0.008 C 
ATOM     18  C   UNL A   1      32.233  30.060  27.092  1.00  0.00     0.008 C 
ENDBRANCH  15  16
ENDBRANCH  10  15
ENDBRANCH   7   9
ENDBRANCH   4   7
ENDBRANCH   2   3
ENDBRANCH   1   2
BRANCH   1  19
ATOM     19  C   UNL A   1      37.556  23.405  25.401  1.00  0.00     0.023 C 
BRANCH  19  20
ATOM     20  C   UNL A   1      38.430  24.145  26.410  1.00  0.00     0.116 C 
BRANCH  20  21
ATOM     21  N   UNL A   1      39.847  23.833  26.295  1.00  0.00    -0.352 N 
ATOM     22  C   UNL A   1      40.927  24.490  26.837  1.00  0.00     0.251 C 
ATOM     23  H   UNL A   1      40.063  23.041  25.751  1.00  0.00     0.163 HD
ATOM     24  O   UNL A   1      42.067  24.134  26.553  1.00  0.00    -0.269 OA
BRANCH  22  25
ATOM     25  C   UNL A   1      40.709  25.647  27.731  1.00  0.00     0.039 A 
ATOM     26  C   UNL A   1      39.619  25.630  28.604  1.00  0.00     0.014 A 
ATOM     27  C   UNL A   1      41.596  26.728  27.734  1.00  0.00     0.014 A 
ATOM     28  C   UNL A   1      39.466  26.656  29.540  1.00  0.00     0.010 A 
ATOM     29  C   UNL A   1      41.482  27.712  28.713  1.00  0.00     0.010 A 
ATOM     30  C   UNL A   1      40.422  27.680  29.631  1.00  0.00    -0.014 A 
BRANCH  30  31
ATOM     31  C   UNL A   1      40.351  28.709  30.702  1.00  0.00     0.031 A 
ATOM     32  C   UNL A   1      41.190  28.576  31.941  1.00  0.00     0.074 A 
ATOM     33  C   UNL A   1      39.457  29.713  30.596  1.00  0.00     0.049 A 
ATOM     34  N   UNL A   1      41.203  29.326  33.012  1.00  0.00    -0.248 NA
ATOM     35  C   UNL A   1      42.108  27.429  31.998  1.00  0.00     0.031 C 
ATOM     36  C   UNL A   1      38.532  29.908  29.478  1.00  0.00     0.029 A 
ATOM     37  N   UNL A   1      39.162  30.744  31.453  1.00  0.00    -0.354 N 
ATOM     38  C   UNL A   1      42.109  28.730  33.881  1.00  0.00     0.074 A 
ATOM     39  C   UNL A   1      42.593  27.532  33.228  1.00  0.00     0.031 C 
ATOM     40  C   UNL A   1      37.778  30.993  29.713  1.00  0.00     0.029 A 
ATOM     41  C   UNL A   1      38.144  31.555  31.011  1.00  0.00     0.049 A 
ATOM     42  H   UNL A   1      39.636  30.890  32.303  1.00  0.00     0.167 HD
ATOM     43  C   UNL A   1      42.514  29.151  35.103  1.00  0.00     0.037 A 
ATOM     44  C   UNL A   1      37.561  32.624  31.587  1.00  0.00     0.037 A 
ATOM     45  C   UNL A   1      42.055  30.363  35.733  1.00  0.00     0.049 A 
ATOM     46  C   UNL A   1      38.058  33.103  32.922  1.00  0.00     0.074 A 
ATOM     47  C   UNL A   1      42.480  30.928  36.922  1.00  0.00     0.029 A 
ATOM     48  N   UNL A   1      41.062  31.190  35.228  1.00  0.00    -0.354 N 
ATOM     49  N   UNL A   1      38.987  32.582  33.687  1.00  0.00    -0.248 NA
ATOM     50  C   UNL A   1      37.438  34.318  33.466  1.00  0.00     0.031 C 
ATOM     51  C   UNL A   1      41.714  32.077  37.157  1.00  0.00     0.029 A 
ATOM     52  C   UNL A   1      40.842  32.249  36.093  1.00  0.00     0.049 A 
ATOM     53  H   UNL A   1      40.584  31.045  34.380  1.00  0.00     0.167 HD
ATOM     54  C   UNL A   1      39.073  33.412  34.798  1.00  0.00     0.074 A 
ATOM     55  C   UNL A   1      38.113  34.479  34.598  1.00  0.00     0.031 C 
ATOM     56  C   UNL A   1      39.876  33.300  35.885  1.00  0.00     0.037 A 
BRANCH  43  57
ATOM     57  C   UNL A   1      43.502  28.289  35.839  1.00  0.00     0.058 A 
ATOM     58  C   UNL A   1      44.888  28.440  35.665  1.00  0.00     0.135 A 
ATOM     59  C   UNL A   1      43.059  27.303  36.735  1.00  0.00     0.135 A 
ATOM     60  F   UNL A   1      45.366  29.359  34.811  1.00  0.00    -0.206 F 
ATOM     61  C   UNL A   1      45.797  27.614  36.317  1.00  0.00     0.059 A 
ATOM     62  C   UNL A   1      43.953  26.484  37.419  1.00  0.00     0.059 A 
ATOM     63  F   UNL A   1      41.747  27.117  36.942  1.00  0.00    -0.206 F 
ATOM     64  C   UNL A   1      45.319  26.633  37.186  1.00  0.00     0.060 A 
BRANCH  64  65
ATOM     65  S   UNL A   1      46.508  25.551  38.007  1.00  0.00     0.124 S 
ATOM     66  O   UNL A   1      47.046  24.801  36.876  1.00  0.00    -0.237 OA
ATOM     67  O   UNL A   1      47.424  26.503  38.628  1.00  0.00    -0.237 OA
ATOM     68  O   UNL A   1      45.685  24.783  38.935  1.00  0.00    -0.744 OA
ENDBRANCH  64  65
ENDBRANCH  43  57
BRANCH  44  69
ATOM     69  C   UNL A   1      36.454  33.319  30.880  1.00  0.00     0.058 A 
ATOM     70  C   UNL A   1      35.131  33.214  31.332  1.00  0.00     0.135 A 
ATOM     71  C   UNL A   1      36.706  34.149  29.777  1.00  0.00     0.135 A 
ATOM     72  F   UNL A   1      34.841  32.427  32.379  1.00  0.00    -0.206 F 
ATOM     73  C   UNL A   1      34.095  33.909  30.717  1.00  0.00     0.059 A 
ATOM     74  C   UNL A   1      35.689  34.870  29.157  1.00  0.00     0.059 A 
ATOM     75  F   UNL A   1      37.959  34.295  29.319  1.00  0.00    -0.206 F 
ATOM     76  C   UNL A   1      34.385  34.740  29.634  1.00  0.00     0.060 A 
BRANCH  76  77
ATOM     77  S   UNL A   1      33.048  35.709  28.901  1.00  0.00     0.124 S 
ATOM     78  O   UNL A   1      32.327  36.160  30.086  1.00  0.00    -0.237 OA
ATOM     79  O   UNL A   1      33.780  36.738  28.169  1.00  0.00    -0.237 OA
ATOM     80  O   UNL A   1      32.349  34.735  28.067  1.00  0.00    -0.744 OA
ENDBRANCH  76  77
ENDBRANCH  44  69
BRANCH  56  81
ATOM     81  C   UNL A   1      39.760  34.363  36.942  1.00  0.00     0.058 A 
ATOM     82  C   UNL A   1      38.953  34.184  38.076  1.00  0.00     0.135 A 
ATOM     83  C   UNL A   1      40.504  35.549  36.845  1.00  0.00     0.135 A 
ATOM     84  F   UNL A   1      38.216  33.071  38.212  1.00  0.00    -0.206 F 
ATOM     85  C   UNL A   1      38.875  35.154  39.070  1.00  0.00     0.059 A 
ATOM     86  C   UNL A   1      40.459  36.522  37.839  1.00  0.00     0.059 A 
ATOM     87  F   UNL A   1      41.298  35.765  35.784  1.00  0.00    -0.206 F 
ATOM     88  C   UNL A   1      39.632  36.320  38.943  1.00  0.00     0.060 A 
BRANCH  88  89
ATOM     89  S   UNL A   1      39.551  37.555  40.257  1.00  0.00     0.124 S 
ATOM     90  O   UNL A   1      40.957  37.907  40.418  1.00  0.00    -0.237 OA
ATOM     91  O   UNL A   1      38.703  38.586  39.668  1.00  0.00    -0.237 OA
ATOM     92  O   UNL A   1      38.955  36.826  41.372  1.00  0.00    -0.744 OA
ENDBRANCH  88  89
ENDBRANCH  56  81
ENDBRANCH  30  31
ENDBRANCH  22  25
ENDBRANCH  20  21
ENDBRANCH  19  20
ENDBRANCH   1  19
TORSDOF 17
ENDMDL
MODEL 2
REMARK VINA RESULT:     -11.4      1.266      1.837
REMARK SMILES CC(C)Cc1ccc([C@H](C)C(=O)NCCCCNC(=O)c2ccc(-c3c4nc(c(-c5c(F)cc(S(=O)(=O)[O-])cc5F)c5ccc([nH]5)c(-c5c(F)cc(S(=O)(=O)[O-])cc5F)c5nc(c(-c6c(F)cc(S(=O)(=O)[O-])cc6F)c6ccc3[nH]6)C=C5)C=C4)cc2)cc1
REMARK SMILES IDX 15 1 14 2 13 3 11 4 12 5 9 7 10 8 8 9 5 10 6 11 88 12 7 13
REMARK SMILES IDX 87 14 4 15 2 16 1 17 3 18 16 19 17 20 18 21 19 22 20 24
REMARK SMILES IDX 21 25 22 26 86 27 23 28 85 29 24 30 25 31 26 32 79 33 27 34
REMARK SMILES IDX 84 35 78 36 80 37 28 38 83 39 77 40 76 41 29 43 63 44 42 45
REMARK SMILES IDX 62 46 43 47 46 48 61 49 81 50 44 51 45 52 60 54 82 55 47 56
REMARK SMILES IDX 30 57 31 58 40 59 32 60 33 61 39 62 41 63 34 64 35 65 36 66
REMARK SMILES IDX 37 67 38 68 64 69 65 70 74 71 66 72 67 73 73 74 75 75 68 76
REMARK SMILES IDX 69 77 70 78 71 79 72 80 48 81 49 82 58 83 50 84 51 85 57 86
REMARK SMILES IDX 59 87 52 88 53 89 54 90 55 91 56 92
REMARK H PARENT 13 6 18 23 80 42 46 53
REMARK Flexibility Score: inf
ROOT
ATOM      1  C   UNL A   1      39.723  22.077  26.453  1.00  0.00     0.023 C 
ENDROOT
BRANCH   1   2
ATOM      2  C   UNL A   1      38.550  23.046  26.352  1.00  0.00     0.116 C 
BRANCH   2   3
ATOM      3  N   UNL A   1      37.265  22.376  26.362  1.00  0.00    -0.356 N 
ATOM      4  C   UNL A   1      36.220  22.459  25.489  1.00  0.00     0.227 C 
ATOM      5  O   UNL A   1      35.270  21.688  25.664  1.00  0.00    -0.274 OA
ATOM      6  H   UNL A   1      37.123  21.764  27.120  1.00  0.00     0.163 HD
BRANCH   4   7
ATOM      7  C   UNL A   1      36.184  23.481  24.340  1.00  0.00     0.105 C 
ATOM      8  C   UNL A   1      36.578  22.812  23.023  1.00  0.00     0.023 C 
BRANCH   7   9
ATOM      9  C   UNL A   1      34.916  24.326  24.341  1.00  0.00    -0.036 A 
ATOM     10  C   UNL A   1      32.694  26.058  24.106  1.00  0.00    -0.048 A 
ATOM     11  C   UNL A   1      33.499  26.085  25.249  1.00  0.00     0.004 A 
ATOM     12  C   UNL A   1      32.960  25.107  23.116  1.00  0.00     0.004 A 
ATOM     13  C   UNL A   1      34.583  25.212  25.376  1.00  0.00     0.005 A 
ATOM     14  C   UNL A   1      34.063  24.259  23.227  1.00  0.00     0.005 A 
BRANCH  10  15
ATOM     15  C   UNL A   1      31.604  27.085  23.912  1.00  0.00     0.038 C 
BRANCH  15  16
ATOM     16  C   UNL A   1      30.190  26.466  23.907  1.00  0.00    -0.013 C 
ATOM     17  C   UNL A   1      29.772  25.950  25.288  1.00  0.00     0.008 C 
ATOM     18  C   UNL A   1      29.171  27.498  23.420  1.00  0.00     0.008 C 
ENDBRANCH  15  16
ENDBRANCH  10  15
ENDBRANCH   7   9
ENDBRANCH   4   7
ENDBRANCH   2   3
ENDBRANCH   1   2
BRANCH   1  19
ATOM     19  C   UNL A   1      40.646  22.300  27.650  1.00  0.00     0.023 C 
BRANCH  19  20
ATOM     20  C   UNL A   1      41.931  23.069  27.360  1.00  0.00     0.116 C 
BRANCH  20  21
ATOM     21  N   UNL A   1      41.843  23.935  26.194  1.00  0.00    -0.352 N 
ATOM     22  C   UNL A   1      41.637  25.294  26.137  1.00  0.00     0.251 C 
ATOM     23  H   UNL A   1      41.944  23.485  25.324  1.00  0.00     0.163 HD
ATOM     24  O   UNL A   1      41.496  25.848  25.050  1.00  0.00    -0.269 OA
BRANCH  22  25
ATOM     25  C   UNL A   1      41.547  26.077  27.388  1.00  0.00     0.039 A 
ATOM     26  C   UNL A   1      42.607  26.918  27.735  1.00  0.00     0.014 A 
ATOM     27  C   UNL A   1      40.407  26.010  28.195  1.00  0.00     0.014 A 
ATOM     28  C   UNL A   1      42.488  27.756  28.847  1.00  0.00     0.010 A 
ATOM     29  C   UNL A   1      40.263  26.896  29.260  1.00  0.00     0.010 A 
ATOM     30  C   UNL A   1      41.298  27.783  29.591  1.00  0.00    -0.014 A 
BRANCH  30  31
ATOM     31  C   UNL A   1      41.100  28.757  30.696  1.00  0.00     0.031 A 
ATOM     32  C   UNL A   1      41.915  28.655  31.955  1.00  0.00     0.074 A 
ATOM     33  C   UNL A   1      40.118  29.675  30.601  1.00  0.00     0.049 A 
ATOM     34  N   UNL A   1      41.828  29.360  33.053  1.00  0.00    -0.248 NA
ATOM     35  C   UNL A   1      42.937  27.599  31.997  1.00  0.00     0.031 C 
ATOM     36  C   UNL A   1      39.207  29.826  29.464  1.00  0.00     0.029 A 
ATOM     37  N   UNL A   1      39.702  30.638  31.486  1.00  0.00    -0.354 N 
ATOM     38  C   UNL A   1      42.763  28.818  33.926  1.00  0.00     0.074 A 
ATOM     39  C   UNL A   1      43.377  27.699  33.243  1.00  0.00     0.031 C 
ATOM     40  C   UNL A   1      38.347  30.824  29.716  1.00  0.00     0.029 A 
ATOM     41  C   UNL A   1      38.623  31.366  31.044  1.00  0.00     0.049 A 
ATOM     42  H   UNL A   1      40.137  30.794  32.355  1.00  0.00     0.167 HD
ATOM     43  C   UNL A   1      43.093  29.227  35.174  1.00  0.00     0.037 A 
ATOM     44  C   UNL A   1      37.924  32.351  31.641  1.00  0.00     0.037 A 
ATOM     45  C   UNL A   1      42.504  30.363  35.834  1.00  0.00     0.049 A 
ATOM     46  C   UNL A   1      38.338  32.822  33.007  1.00  0.00     0.074 A 
ATOM     47  C   UNL A   1      42.840  30.919  37.056  1.00  0.00     0.029 A 
ATOM     48  N   UNL A   1      41.449  31.112  35.331  1.00  0.00    -0.354 N 
ATOM     49  N   UNL A   1      39.292  32.361  33.781  1.00  0.00    -0.248 NA
ATOM     50  C   UNL A   1      37.590  33.949  33.578  1.00  0.00     0.031 C 
ATOM     51  C   UNL A   1      41.962  31.979  37.310  1.00  0.00     0.029 A 
ATOM     52  C   UNL A   1      41.106  32.110  36.228  1.00  0.00     0.049 A 
ATOM     53  H   UNL A   1      41.010  30.957  34.464  1.00  0.00     0.167 HD
ATOM     54  C   UNL A   1      39.268  33.151  34.924  1.00  0.00     0.074 A 
ATOM     55  C   UNL A   1      38.216  34.128  34.734  1.00  0.00     0.031 C 
ATOM     56  C   UNL A   1      40.049  33.072  36.030  1.00  0.00     0.037 A 
BRANCH  43  57
ATOM     57  C   UNL A   1      44.140  28.434  35.907  1.00  0.00     0.058 A 
ATOM     58  C   UNL A   1      45.510  28.709  35.764  1.00  0.00     0.135 A 
ATOM     59  C   UNL A   1      43.769  27.389  36.769  1.00  0.00     0.135 A 
ATOM     60  F   UNL A   1      45.921  29.688  34.943  1.00  0.00    -0.206 F 
ATOM     61  C   UNL A   1      46.477  27.947  36.412  1.00  0.00     0.059 A 
ATOM     62  C   UNL A   1      44.719  26.632  37.450  1.00  0.00     0.059 A 
ATOM     63  F   UNL A   1      42.474  27.086  36.946  1.00  0.00    -0.206 F 
ATOM     64  C   UNL A   1      46.071  26.905  37.247  1.00  0.00     0.060 A 
BRANCH  64  65
ATOM     65  S   UNL A   1      47.335  25.908  38.063  1.00  0.00     0.124 S 
ATOM     66  O   UNL A   1      46.963  26.062  39.467  1.00  0.00    -0.237 OA
ATOM     67  O   UNL A   1      47.111  24.585  37.490  1.00  0.00    -0.237 OA
ATOM     68  O   UNL A   1      48.583  26.554  37.670  1.00  0.00    -0.744 OA
ENDBRANCH  64  65
ENDBRANCH  43  57
BRANCH  44  69
ATOM     69  C   UNL A   1      36.775  32.966  30.928  1.00  0.00     0.058 A 
ATOM     70  C   UNL A   1      35.455  32.681  31.307  1.00  0.00     0.135 A 
ATOM     71  C   UNL A   1      36.976  33.893  29.894  1.00  0.00     0.135 A 
ATOM     72  F   UNL A   1      35.215  31.796  32.286  1.00  0.00    -0.206 F 
ATOM     73  C   UNL A   1      34.372  33.297  30.688  1.00  0.00     0.059 A 
ATOM     74  C   UNL A   1      35.909  34.537  29.273  1.00  0.00     0.059 A 
ATOM     75  F   UNL A   1      38.221  34.210  29.508  1.00  0.00    -0.206 F 
ATOM     76  C   UNL A   1      34.610  34.230  29.677  1.00  0.00     0.060 A 
BRANCH  76  77
ATOM     77  S   UNL A   1      33.201  35.091  28.943  1.00  0.00     0.124 S 
ATOM     78  O   UNL A   1      32.339  35.285  30.103  1.00  0.00    -0.237 OA
ATOM     79  O   UNL A   1      33.825  36.295  28.403  1.00  0.00    -0.237 OA
ATOM     80  O   UNL A   1      32.715  34.144  27.944  1.00  0.00    -0.744 OA
ENDBRANCH  76  77
ENDBRANCH  44  69
BRANCH  56  81
ATOM     81  C   UNL A   1      39.803  34.076  37.122  1.00  0.00     0.058 A 
ATOM     82  C   UNL A   1      38.892  33.824  38.158  1.00  0.00     0.135 A 
ATOM     83  C   UNL A   1      40.526  35.279  37.160  1.00  0.00     0.135 A 
ATOM     84  F   UNL A   1      38.171  32.691  38.163  1.00  0.00    -0.206 F 
ATOM     85  C   UNL A   1      38.692  34.739  39.186  1.00  0.00     0.059 A 
ATOM     86  C   UNL A   1      40.359  36.198  38.191  1.00  0.00     0.059 A 
ATOM     87  F   UNL A   1      41.416  35.564  36.197  1.00  0.00    -0.206 F 
ATOM     88  C   UNL A   1      39.431  35.923  39.195  1.00  0.00     0.060 A 
BRANCH  88  89
ATOM     89  S   UNL A   1      39.190  37.087  40.554  1.00  0.00     0.124 S 
ATOM     90  O   UNL A   1      38.640  36.219  41.590  1.00  0.00    -0.237 OA
ATOM     91  O   UNL A   1      40.543  37.579  40.792  1.00  0.00    -0.237 OA
ATOM     92  O   UNL A   1      38.262  38.068  40.000  1.00  0.00    -0.744 OA
ENDBRANCH  88  89
ENDBRANCH  56  81
ENDBRANCH  30  31
ENDBRANCH  22  25
ENDBRANCH  20  21
ENDBRANCH  19  20
ENDBRANCH   1  19
TORSDOF 17
ENDMDL
MODEL 3
REMARK VINA RESULT:     -11.3      1.936      3.483
REMARK SMILES CC(C)Cc1ccc([C@H](C)C(=O)NCCCCNC(=O)c2ccc(-c3c4nc(c(-c5c(F)cc(S(=O)(=O)[O-])cc5F)c5ccc([nH]5)c(-c5c(F)cc(S(=O)(=O)[O-])cc5F)c5nc(c(-c6c(F)cc(S(=O)(=O)[O-])cc6F)c6ccc3[nH]6)C=C5)C=C4)cc2)cc1
REMARK SMILES IDX 15 1 14 2 13 3 11 4 12 5 9 7 10 8 8 9 5 10 6 11 88 12 7 13
REMARK SMILES IDX 87 14 4 15 2 16 1 17 3 18 16 19 17 20 18 21 19 22 20 24
REMARK SMILES IDX 21 25 22 26 86 27 23 28 85 29 24 30 25 31 26 32 79 33 27 34
REMARK SMILES IDX 84 35 78 36 80 37 28 38 83 39 77 40 76 41 29 43 63 44 42 45
REMARK SMILES IDX 62 46 43 47 46 48 61 49 81 50 44 51 45 52 60 54 82 55 47 56
REMARK SMILES IDX 30 57 31 58 40 59 32 60 33 61 39 62 41 63 34 64 35 65 36 66
REMARK SMILES IDX 37 67 38 68 64 69 65 70 74 71 66 72 67 73 73 74 75 75 68 76
REMARK SMILES IDX 69 77 70 78 71 79 72 80 48 81 49 82 58 83 50 84 51 85 57 86
REMARK SMILES IDX 59 87 52 88 53 89 54 90 55 91 56 92
REMARK H PARENT 13 6 18 23 80 42 46 53
REMARK Flexibility Score: inf
ROOT
ATOM      1  C   UNL A   1      38.184  24.068  26.570  1.00  0.00     0.023 C 
ENDROOT
BRANCH   1   2
ATOM      2  C   UNL A   1      36.875  23.897  25.806  1.00  0.00     0.116 C 
BRANCH   2   3
ATOM      3  N   UNL A   1      37.070  23.391  24.462  1.00  0.00    -0.356 N 
ATOM      4  C   UNL A   1      36.169  23.178  23.460  1.00  0.00     0.227 C 
ATOM      5  O   UNL A   1      36.614  22.844  22.357  1.00  0.00    -0.274 OA
ATOM      6  H   UNL A   1      38.001  23.164  24.237  1.00  0.00     0.163 HD
BRANCH   4   7
ATOM      7  C   UNL A   1      34.652  23.313  23.673  1.00  0.00     0.105 C 
ATOM      8  C   UNL A   1      34.028  24.132  22.541  1.00  0.00     0.023 C 
BRANCH   7   9
ATOM      9  C   UNL A   1      33.984  21.991  24.026  1.00  0.00    -0.036 A 
ATOM     10  C   UNL A   1      32.966  19.398  24.508  1.00  0.00    -0.048 A 
ATOM     11  C   UNL A   1      32.232  20.321  23.756  1.00  0.00     0.004 A 
ATOM     12  C   UNL A   1      34.175  19.804  25.083  1.00  0.00     0.004 A 
ATOM     13  C   UNL A   1      32.725  21.611  23.538  1.00  0.00     0.005 A 
ATOM     14  C   UNL A   1      34.682  21.080  24.837  1.00  0.00     0.005 A 
BRANCH  10  15
ATOM     15  C   UNL A   1      32.497  17.968  24.636  1.00  0.00     0.038 C 
BRANCH  15  16
ATOM     16  C   UNL A   1      33.649  16.946  24.525  1.00  0.00    -0.013 C 
ATOM     17  C   UNL A   1      33.266  15.571  25.081  1.00  0.00     0.008 C 
ATOM     18  C   UNL A   1      34.079  16.802  23.064  1.00  0.00     0.008 C 
ENDBRANCH  15  16
ENDBRANCH  10  15
ENDBRANCH   7   9
ENDBRANCH   4   7
ENDBRANCH   2   3
ENDBRANCH   1   2
BRANCH   1  19
ATOM     19  C   UNL A   1      39.166  22.905  26.437  1.00  0.00     0.023 C 
BRANCH  19  20
ATOM     20  C   UNL A   1      40.519  23.101  27.116  1.00  0.00     0.116 C 
BRANCH  20  21
ATOM     21  N   UNL A   1      41.561  23.574  26.216  1.00  0.00    -0.352 N 
ATOM     22  C   UNL A   1      42.150  24.814  26.146  1.00  0.00     0.251 C 
ATOM     23  H   UNL A   1      41.889  22.912  25.564  1.00  0.00     0.163 HD
ATOM     24  O   UNL A   1      42.954  25.063  25.252  1.00  0.00    -0.269 OA
BRANCH  22  25
ATOM     25  C   UNL A   1      41.783  25.858  27.128  1.00  0.00     0.039 A 
ATOM     26  C   UNL A   1      40.907  25.529  28.166  1.00  0.00     0.014 A 
ATOM     27  C   UNL A   1      42.329  27.142  27.048  1.00  0.00     0.014 A 
ATOM     28  C   UNL A   1      40.645  26.463  29.171  1.00  0.00     0.010 A 
ATOM     29  C   UNL A   1      42.122  28.046  28.087  1.00  0.00     0.010 A 
ATOM     30  C   UNL A   1      41.286  27.712  29.162  1.00  0.00    -0.014 A 
BRANCH  30  31
ATOM     31  C   UNL A   1      41.124  28.671  30.287  1.00  0.00     0.031 A 
ATOM     32  C   UNL A   1      41.975  28.548  31.520  1.00  0.00     0.074 A 
ATOM     33  C   UNL A   1      40.142  29.593  30.234  1.00  0.00     0.049 A 
ATOM     34  N   UNL A   1      41.922  29.237  32.630  1.00  0.00    -0.248 NA
ATOM     35  C   UNL A   1      42.994  27.488  31.517  1.00  0.00     0.031 C 
ATOM     36  C   UNL A   1      39.200  29.763  29.126  1.00  0.00     0.029 A 
ATOM     37  N   UNL A   1      39.755  30.545  31.144  1.00  0.00    -0.354 N 
ATOM     38  C   UNL A   1      42.880  28.681  33.468  1.00  0.00     0.074 A 
ATOM     39  C   UNL A   1      43.470  27.569  32.752  1.00  0.00     0.031 C 
ATOM     40  C   UNL A   1      38.350  30.760  29.417  1.00  0.00     0.029 A 
ATOM     41  C   UNL A   1      38.667  31.281  30.745  1.00  0.00     0.049 A 
ATOM     42  H   UNL A   1      40.216  30.687  32.002  1.00  0.00     0.167 HD
ATOM     43  C   UNL A   1      43.248  29.070  34.711  1.00  0.00     0.037 A 
ATOM     44  C   UNL A   1      37.989  32.260  31.376  1.00  0.00     0.037 A 
ATOM     45  C   UNL A   1      42.682  30.199  35.405  1.00  0.00     0.049 A 
ATOM     46  C   UNL A   1      38.444  32.710  32.736  1.00  0.00     0.074 A 
ATOM     47  C   UNL A   1      43.055  30.736  36.624  1.00  0.00     0.029 A 
ATOM     48  N   UNL A   1      41.616  30.957  34.943  1.00  0.00    -0.354 N 
ATOM     49  N   UNL A   1      39.418  32.235  33.474  1.00  0.00    -0.248 NA
ATOM     50  C   UNL A   1      37.717  33.831  33.344  1.00  0.00     0.031 C 
ATOM     51  C   UNL A   1      42.189  31.795  36.919  1.00  0.00     0.029 A 
ATOM     52  C   UNL A   1      41.302  31.944  35.864  1.00  0.00     0.049 A 
ATOM     53  H   UNL A   1      41.151  30.816  34.087  1.00  0.00     0.167 HD
ATOM     54  C   UNL A   1      39.431  33.009  34.629  1.00  0.00     0.074 A 
ATOM     55  C   UNL A   1      38.376  33.992  34.484  1.00  0.00     0.031 C 
ATOM     56  C   UNL A   1      40.243  32.911  35.711  1.00  0.00     0.037 A 
BRANCH  43  57
ATOM     57  C   UNL A   1      44.313  28.264  35.402  1.00  0.00     0.058 A 
ATOM     58  C   UNL A   1      45.679  28.531  35.215  1.00  0.00     0.135 A 
ATOM     59  C   UNL A   1      43.963  27.214  36.266  1.00  0.00     0.135 A 
ATOM     60  F   UNL A   1      46.070  29.515  34.390  1.00  0.00    -0.206 F 
ATOM     61  C   UNL A   1      46.662  27.756  35.825  1.00  0.00     0.059 A 
ATOM     62  C   UNL A   1      44.930  26.444  36.909  1.00  0.00     0.059 A 
ATOM     63  F   UNL A   1      42.673  26.917  36.484  1.00  0.00    -0.206 F 
ATOM     64  C   UNL A   1      46.276  26.710  36.664  1.00  0.00     0.060 A 
BRANCH  64  65
ATOM     65  S   UNL A   1      47.560  25.697  37.428  1.00  0.00     0.124 S 
ATOM     66  O   UNL A   1      47.414  26.059  38.835  1.00  0.00    -0.237 OA
ATOM     67  O   UNL A   1      47.144  24.343  37.077  1.00  0.00    -0.237 OA
ATOM     68  O   UNL A   1      48.785  26.159  36.785  1.00  0.00    -0.744 OA
ENDBRANCH  64  65
ENDBRANCH  43  57
BRANCH  44  69
ATOM     69  C   UNL A   1      36.822  32.888  30.705  1.00  0.00     0.058 A 
ATOM     70  C   UNL A   1      35.512  32.521  31.043  1.00  0.00     0.135 A 
ATOM     71  C   UNL A   1      36.993  33.909  29.757  1.00  0.00     0.135 A 
ATOM     72  F   UNL A   1      35.299  31.545  31.939  1.00  0.00    -0.206 F 
ATOM     73  C   UNL A   1      34.409  33.144  30.468  1.00  0.00     0.059 A 
ATOM     74  C   UNL A   1      35.906  34.562  29.183  1.00  0.00     0.059 A 
ATOM     75  F   UNL A   1      38.227  34.307  29.414  1.00  0.00    -0.206 F 
ATOM     76  C   UNL A   1      34.617  34.170  29.543  1.00  0.00     0.060 A 
BRANCH  76  77
ATOM     77  S   UNL A   1      33.181  35.035  28.870  1.00  0.00     0.124 S 
ATOM     78  O   UNL A   1      33.813  36.120  28.129  1.00  0.00    -0.237 OA
ATOM     79  O   UNL A   1      32.545  33.997  28.066  1.00  0.00    -0.237 OA
ATOM     80  O   UNL A   1      32.440  35.432  30.065  1.00  0.00    -0.744 OA
ENDBRANCH  76  77
ENDBRANCH  44  69
BRANCH  56  81
ATOM     81  C   UNL A   1      40.032  33.900  36.823  1.00  0.00     0.058 A 
ATOM     82  C   UNL A   1      40.716  35.125  36.856  1.00  0.00     0.135 A 
ATOM     83  C   UNL A   1      39.097  33.642  37.838  1.00  0.00     0.135 A 
ATOM     84  F   UNL A   1      41.626  35.416  35.912  1.00  0.00    -0.206 F 
ATOM     85  C   UNL A   1      40.493  36.054  37.866  1.00  0.00     0.059 A 
ATOM     86  C   UNL A   1      38.841  34.567  38.846  1.00  0.00     0.059 A 
ATOM     87  F   UNL A   1      38.410  32.489  37.848  1.00  0.00    -0.206 F 
ATOM     88  C   UNL A   1      39.552  35.767  38.857  1.00  0.00     0.060 A 
BRANCH  88  89
ATOM     89  S   UNL A   1      39.244  36.995  40.144  1.00  0.00     0.124 S 
ATOM     90  O   UNL A   1      38.432  36.234  41.088  1.00  0.00    -0.237 OA
ATOM     91  O   UNL A   1      40.592  37.327  40.592  1.00  0.00    -0.237 OA
ATOM     92  O   UNL A   1      38.546  38.062  39.434  1.00  0.00    -0.744 OA
ENDBRANCH  88  89
ENDBRANCH  56  81
ENDBRANCH  30  31
ENDBRANCH  22  25
ENDBRANCH  20  21
ENDBRANCH  19  20
ENDBRANCH   1  19
TORSDOF 17
ENDMDL
