MODEL 1
REMARK VINA RESULT:     -12.1      0.000      0.000
REMARK SMILES NS(=O)(=O)c1ccc(N2N=C(C(=O)NCCCCNC(=O)c3ccc(-c4c5nc(c(-c6c(F)cc(S(=O)(=O)[O-])cc6F)c6ccc([nH]6)c(-c6c(F)cc(S(=O)(=O)[O-])cc6F)c6nc(c(-c7c(F)cc(S(=O)(=O)[O-])cc7F)c7ccc4[nH]7)C=C6)C=C5)cc3)C[C@H]2c2ccco2)cc1
REMARK SMILES IDX 16 1 15 2 14 3 12 4 13 5 11 7 9 8 10 9 89 10 88 11 8 12 5 13
REMARK SMILES IDX 6 14 96 15 7 16 95 17 2 18 3 19 4 20 1 21 90 24 91 25 94 26
REMARK SMILES IDX 92 27 93 28 17 29 18 30 19 31 20 32 21 34 22 35 23 36 87 37
REMARK SMILES IDX 24 38 86 39 25 40 26 41 27 42 80 43 28 44 85 45 79 46 81 47
REMARK SMILES IDX 29 48 84 49 78 50 77 51 30 53 64 54 43 55 63 56 44 57 47 58
REMARK SMILES IDX 62 59 82 60 45 61 46 62 61 64 83 65 48 66 31 67 32 68 41 69
REMARK SMILES IDX 33 70 34 71 40 72 42 73 35 74 36 75 37 76 38 77 39 78 65 79
REMARK SMILES IDX 66 80 75 81 67 82 68 83 74 84 76 85 69 86 70 87 71 88 72 89
REMARK SMILES IDX 73 90 49 91 50 92 59 93 51 94 52 95 58 96 60 97 53 98 54 99
REMARK SMILES IDX 55 100 56 101 57 102
REMARK H PARENT 14 6 1 22 1 23 19 33 81 52 47 63
REMARK Flexibility Score: inf
ROOT
ATOM      1  C   UNL A   1      32.315  26.514  26.169  1.00  0.00     0.023 C 
ENDROOT
BRANCH   1   2
ATOM      2  C   UNL A   1      30.958  25.971  25.732  1.00  0.00     0.116 C 
BRANCH   2   3
ATOM      3  N   UNL A   1      30.820  25.987  24.288  1.00  0.00    -0.351 N 
ATOM      4  C   UNL A   1      31.491  25.392  23.250  1.00  0.00     0.267 C 
ATOM      5  O   UNL A   1      31.152  25.692  22.107  1.00  0.00    -0.268 OA
ATOM      6  H   UNL A   1      30.076  26.556  23.983  1.00  0.00     0.163 HD
BRANCH   4   7
ATOM      7  C   UNL A   1      32.598  24.360  23.423  1.00  0.00     0.128 C 
ATOM      8  N   UNL A   1      33.523  22.527  24.022  1.00  0.00    -0.254 N 
ATOM      9  N   UNL A   1      32.329  23.146  23.804  1.00  0.00    -0.171 NA
ATOM     10  C   UNL A   1      34.678  23.314  23.579  1.00  0.00     0.180 C 
ATOM     11  C   UNL A   1      34.039  24.650  23.194  1.00  0.00     0.099 C 
BRANCH   8  12
ATOM     12  C   UNL A   1      33.589  21.140  24.120  1.00  0.00     0.060 A 
ATOM     13  C   UNL A   1      33.654  18.341  24.359  1.00  0.00     0.082 A 
ATOM     14  C   UNL A   1      34.716  19.103  24.849  1.00  0.00     0.024 A 
ATOM     15  C   UNL A   1      32.576  18.956  23.724  1.00  0.00     0.024 A 
ATOM     16  C   UNL A   1      34.683  20.496  24.714  1.00  0.00     0.029 A 
ATOM     17  C   UNL A   1      32.551  20.346  23.612  1.00  0.00     0.029 A 
BRANCH  13  18
ATOM     18  S   UNL A   1      33.668  16.580  24.494  1.00  0.00     0.238 S 
ATOM     19  O   UNL A   1      34.046  16.014  23.217  1.00  0.00    -0.207 OA
ATOM     20  O   UNL A   1      32.485  16.166  25.204  1.00  0.00    -0.207 OA
BRANCH  18  21
ATOM     21  N   UNL A   1      34.965  16.259  25.510  1.00  0.00    -0.225 NA
ATOM     22  H   UNL A   1      34.946  15.277  25.786  1.00  0.00     0.137 HD
ATOM     23  H   UNL A   1      34.900  16.848  26.341  1.00  0.00     0.137 HD
ENDBRANCH  18  21
ENDBRANCH  13  18
ENDBRANCH   8  12
BRANCH  10  24
ATOM     24  C   UNL A   1      35.816  23.486  24.540  1.00  0.00     0.128 A 
ATOM     25  C   UNL A   1      35.920  24.111  25.770  1.00  0.00     0.048 A 
ATOM     26  O   UNL A   1      37.022  22.933  24.211  1.00  0.00    -0.467 OA
ATOM     27  C   UNL A   1      37.255  23.931  26.204  1.00  0.00     0.042 A 
ATOM     28  C   UNL A   1      37.881  23.195  25.227  1.00  0.00     0.195 A 
ENDBRANCH  10  24
ENDBRANCH   4   7
ENDBRANCH   2   3
ENDBRANCH   1   2
BRANCH   1  29
ATOM     29  C   UNL A   1      32.311  27.996  26.547  1.00  0.00     0.023 C 
BRANCH  29  30
ATOM     30  C   UNL A   1      33.544  28.482  27.304  1.00  0.00     0.116 C 
BRANCH  30  31
ATOM     31  N   UNL A   1      33.472  29.883  27.692  1.00  0.00    -0.352 N 
ATOM     32  C   UNL A   1      34.453  30.676  28.240  1.00  0.00     0.251 C 
ATOM     33  H   UNL A   1      32.604  30.322  27.542  1.00  0.00     0.163 HD
ATOM     34  O   UNL A   1      34.189  31.817  28.603  1.00  0.00    -0.269 OA
BRANCH  32  35
ATOM     35  C   UNL A   1      35.811  30.125  28.423  1.00  0.00     0.039 A 
ATOM     36  C   UNL A   1      36.705  30.165  27.351  1.00  0.00     0.014 A 
ATOM     37  C   UNL A   1      36.212  29.613  29.661  1.00  0.00     0.014 A 
ATOM     38  C   UNL A   1      38.028  29.762  27.544  1.00  0.00     0.010 A 
ATOM     39  C   UNL A   1      37.545  29.278  29.868  1.00  0.00     0.010 A 
ATOM     40  C   UNL A   1      38.468  29.355  28.814  1.00  0.00    -0.014 A 
BRANCH  40  41
ATOM     41  C   UNL A   1      39.892  29.019  29.063  1.00  0.00     0.031 A 
ATOM     42  C   UNL A   1      40.824  30.055  29.627  1.00  0.00     0.074 A 
ATOM     43  C   UNL A   1      40.360  27.804  28.714  1.00  0.00     0.049 A 
ATOM     44  N   UNL A   1      42.111  29.976  29.845  1.00  0.00    -0.248 NA
ATOM     45  C   UNL A   1      40.237  31.362  29.963  1.00  0.00     0.031 C 
ATOM     46  C   UNL A   1      39.565  26.732  28.108  1.00  0.00     0.029 A 
ATOM     47  N   UNL A   1      41.619  27.267  28.810  1.00  0.00    -0.354 N 
ATOM     48  C   UNL A   1      42.490  31.222  30.329  1.00  0.00     0.074 A 
ATOM     49  C   UNL A   1      41.307  32.055  30.324  1.00  0.00     0.031 C 
ATOM     50  C   UNL A   1      40.350  25.661  27.908  1.00  0.00     0.029 A 
ATOM     51  C   UNL A   1      41.708  25.979  28.339  1.00  0.00     0.049 A 
ATOM     52  H   UNL A   1      42.387  27.759  29.181  1.00  0.00     0.167 HD
ATOM     53  C   UNL A   1      43.708  31.628  30.763  1.00  0.00     0.037 A 
ATOM     54  C   UNL A   1      42.765  25.147  28.261  1.00  0.00     0.037 A 
ATOM     55  C   UNL A   1      44.875  30.786  30.792  1.00  0.00     0.049 A 
ATOM     56  C   UNL A   1      44.104  25.615  28.761  1.00  0.00     0.074 A 
ATOM     57  C   UNL A   1      46.141  31.085  31.263  1.00  0.00     0.029 A 
ATOM     58  N   UNL A   1      44.918  29.477  30.335  1.00  0.00    -0.354 N 
ATOM     59  N   UNL A   1      44.432  26.779  29.270  1.00  0.00    -0.248 NA
ATOM     60  C   UNL A   1      45.215  24.657  28.685  1.00  0.00     0.031 C 
ATOM     61  C   UNL A   1      46.959  29.968  31.061  1.00  0.00     0.029 A 
ATOM     62  C   UNL A   1      46.191  28.958  30.502  1.00  0.00     0.049 A 
ATOM     63  H   UNL A   1      44.156  28.988  29.949  1.00  0.00     0.167 HD
ATOM     64  C   UNL A   1      45.779  26.684  29.598  1.00  0.00     0.074 A 
ATOM     65  C   UNL A   1      46.203  25.346  29.240  1.00  0.00     0.031 C 
ATOM     66  C   UNL A   1      46.593  27.621  30.146  1.00  0.00     0.037 A 
BRANCH  53  67
ATOM     67  C   UNL A   1      43.832  33.045  31.250  1.00  0.00     0.058 A 
ATOM     68  C   UNL A   1      43.679  33.369  32.609  1.00  0.00     0.135 A 
ATOM     69  C   UNL A   1      44.129  34.087  30.358  1.00  0.00     0.135 A 
ATOM     70  F   UNL A   1      43.379  32.413  33.502  1.00  0.00    -0.206 F 
ATOM     71  C   UNL A   1      43.784  34.680  33.060  1.00  0.00     0.059 A 
ATOM     72  C   UNL A   1      44.264  35.403  30.792  1.00  0.00     0.059 A 
ATOM     73  F   UNL A   1      44.283  33.833  29.049  1.00  0.00    -0.206 F 
ATOM     74  C   UNL A   1      44.073  35.691  32.143  1.00  0.00     0.060 A 
BRANCH  74  75
ATOM     75  S   UNL A   1      44.202  37.389  32.743  1.00  0.00     0.124 S 
ATOM     76  O   UNL A   1      44.090  38.144  31.499  1.00  0.00    -0.237 OA
ATOM     77  O   UNL A   1      43.062  37.488  33.649  1.00  0.00    -0.237 OA
ATOM     78  O   UNL A   1      45.513  37.424  33.384  1.00  0.00    -0.744 OA
ENDBRANCH  74  75
ENDBRANCH  53  67
BRANCH  54  79
ATOM     79  C   UNL A   1      42.592  23.774  27.717  1.00  0.00     0.058 A 
ATOM     80  C   UNL A   1      42.477  22.671  28.576  1.00  0.00     0.135 A 
ATOM     81  C   UNL A   1      42.522  23.539  26.336  1.00  0.00     0.135 A 
ATOM     82  F   UNL A   1      42.543  22.847  29.904  1.00  0.00    -0.206 F 
ATOM     83  C   UNL A   1      42.311  21.380  28.085  1.00  0.00     0.059 A 
ATOM     84  C   UNL A   1      42.335  22.260  25.821  1.00  0.00     0.059 A 
ATOM     85  F   UNL A   1      42.609  24.564  25.473  1.00  0.00    -0.206 F 
ATOM     86  C   UNL A   1      42.240  21.185  26.705  1.00  0.00     0.060 A 
BRANCH  86  87
ATOM     87  S   UNL A   1      41.972  19.512  26.079  1.00  0.00     0.124 S 
ATOM     88  O   UNL A   1      40.532  19.514  25.845  1.00  0.00    -0.237 OA
ATOM     89  O   UNL A   1      42.813  19.491  24.886  1.00  0.00    -0.237 OA
ATOM     90  O   UNL A   1      42.434  18.667  27.176  1.00  0.00    -0.744 OA
ENDBRANCH  86  87
ENDBRANCH  54  79
BRANCH  66  91
ATOM     91  C   UNL A   1      48.015  27.222  30.423  1.00  0.00     0.058 A 
ATOM     92  C   UNL A   1      49.054  27.538  29.535  1.00  0.00     0.135 A 
ATOM     93  C   UNL A   1      48.347  26.555  31.613  1.00  0.00     0.135 A 
ATOM     94  F   UNL A   1      48.788  28.167  28.380  1.00  0.00    -0.206 F 
ATOM     95  C   UNL A   1      50.373  27.187  29.808  1.00  0.00     0.059 A 
ATOM     96  C   UNL A   1      49.661  26.217  31.918  1.00  0.00     0.059 A 
ATOM     97  F   UNL A   1      47.390  26.239  32.500  1.00  0.00    -0.206 F 
ATOM     98  C   UNL A   1      50.666  26.527  31.002  1.00  0.00     0.060 A 
BRANCH  98  99
ATOM     99  S   UNL A   1      52.384  26.106  31.361  1.00  0.00     0.124 S 
ATOM    100  O   UNL A   1      52.778  27.204  32.238  1.00  0.00    -0.237 OA
ATOM    101  O   UNL A   1      52.261  24.798  31.998  1.00  0.00    -0.237 OA
ATOM    102  O   UNL A   1      53.014  26.097  30.044  1.00  0.00    -0.744 OA
ENDBRANCH  98  99
ENDBRANCH  66  91
ENDBRANCH  40  41
ENDBRANCH  32  35
ENDBRANCH  30  31
ENDBRANCH  29  30
ENDBRANCH   1  29
TORSDOF 18
ENDMDL
MODEL 2
REMARK VINA RESULT:     -11.7      3.011      4.269
REMARK SMILES NS(=O)(=O)c1ccc(N2N=C(C(=O)NCCCCNC(=O)c3ccc(-c4c5nc(c(-c6c(F)cc(S(=O)(=O)[O-])cc6F)c6ccc([nH]6)c(-c6c(F)cc(S(=O)(=O)[O-])cc6F)c6nc(c(-c7c(F)cc(S(=O)(=O)[O-])cc7F)c7ccc4[nH]7)C=C6)C=C5)cc3)C[C@H]2c2ccco2)cc1
REMARK SMILES IDX 16 1 15 2 14 3 12 4 13 5 11 7 9 8 10 9 89 10 88 11 8 12 5 13
REMARK SMILES IDX 6 14 96 15 7 16 95 17 2 18 3 19 4 20 1 21 90 24 91 25 94 26
REMARK SMILES IDX 92 27 93 28 17 29 18 30 19 31 20 32 21 34 22 35 23 36 87 37
REMARK SMILES IDX 24 38 86 39 25 40 26 41 27 42 80 43 28 44 85 45 79 46 81 47
REMARK SMILES IDX 29 48 84 49 78 50 77 51 30 53 64 54 43 55 63 56 44 57 47 58
REMARK SMILES IDX 62 59 82 60 45 61 46 62 61 64 83 65 48 66 31 67 32 68 41 69
REMARK SMILES IDX 33 70 34 71 40 72 42 73 35 74 36 75 37 76 38 77 39 78 65 79
REMARK SMILES IDX 66 80 75 81 67 82 68 83 74 84 76 85 69 86 70 87 71 88 72 89
REMARK SMILES IDX 73 90 49 91 50 92 59 93 51 94 52 95 58 96 60 97 53 98 54 99
REMARK SMILES IDX 55 100 56 101 57 102
REMARK H PARENT 14 6 1 22 1 23 19 33 81 52 47 63
REMARK Flexibility Score: inf
ROOT
ATOM      1  C   UNL A   1      32.769  27.876  24.043  1.00  0.00     0.023 C 
ENDROOT
BRANCH   1   2
ATOM      2  C   UNL A   1      31.696  27.025  23.369  1.00  0.00     0.116 C 
BRANCH   2   3
ATOM      3  N   UNL A   1      32.191  26.415  22.150  1.00  0.00    -0.351 N 
ATOM      4  C   UNL A   1      32.964  25.317  21.867  1.00  0.00     0.267 C 
ATOM      5  O   UNL A   1      33.269  25.125  20.692  1.00  0.00    -0.268 OA
ATOM      6  H   UNL A   1      31.907  26.899  21.340  1.00  0.00     0.163 HD
BRANCH   4   7
ATOM      7  C   UNL A   1      33.435  24.309  22.907  1.00  0.00     0.128 C 
ATOM      8  N   UNL A   1      34.790  23.030  23.957  1.00  0.00    -0.254 N 
ATOM      9  N   UNL A   1      34.701  24.083  23.097  1.00  0.00    -0.171 NA
ATOM     10  C   UNL A   1      33.501  22.639  24.535  1.00  0.00     0.180 C 
ATOM     11  C   UNL A   1      32.512  23.509  23.757  1.00  0.00     0.099 C 
BRANCH   8  12
ATOM     12  C   UNL A   1      35.988  22.755  24.611  1.00  0.00     0.060 A 
ATOM     13  C   UNL A   1      38.442  22.256  25.886  1.00  0.00     0.082 A 
ATOM     14  C   UNL A   1      37.799  21.227  25.196  1.00  0.00     0.024 A 
ATOM     15  C   UNL A   1      37.861  23.520  25.975  1.00  0.00     0.024 A 
ATOM     16  C   UNL A   1      36.570  21.480  24.574  1.00  0.00     0.029 A 
ATOM     17  C   UNL A   1      36.644  23.760  25.336  1.00  0.00     0.029 A 
BRANCH  13  18
ATOM     18  S   UNL A   1      39.984  21.972  26.698  1.00  0.00     0.238 S 
ATOM     19  O   UNL A   1      40.117  20.556  26.972  1.00  0.00    -0.207 OA
ATOM     20  O   UNL A   1      40.156  22.976  27.717  1.00  0.00    -0.207 OA
BRANCH  18  21
ATOM     21  N   UNL A   1      41.133  22.294  25.517  1.00  0.00    -0.225 NA
ATOM     22  H   UNL A   1      42.048  22.400  25.954  1.00  0.00     0.137 HD
ATOM     23  H   UNL A   1      40.886  23.154  25.029  1.00  0.00     0.137 HD
ENDBRANCH  18  21
ENDBRANCH  13  18
ENDBRANCH   8  12
BRANCH  10  24
ATOM     24  C   UNL A   1      33.130  21.186  24.495  1.00  0.00     0.128 A 
ATOM     25  C   UNL A   1      32.555  20.390  23.521  1.00  0.00     0.048 A 
ATOM     26  O   UNL A   1      33.394  20.427  25.602  1.00  0.00    -0.467 OA
ATOM     27  C   UNL A   1      32.461  19.087  24.066  1.00  0.00     0.042 A 
ATOM     28  C   UNL A   1      32.999  19.159  25.328  1.00  0.00     0.195 A 
ENDBRANCH  10  24
ENDBRANCH   4   7
ENDBRANCH   2   3
ENDBRANCH   1   2
BRANCH   1  29
ATOM     29  C   UNL A   1      32.893  27.658  25.551  1.00  0.00     0.023 C 
BRANCH  29  30
ATOM     30  C   UNL A   1      34.102  28.319  26.210  1.00  0.00     0.116 C 
BRANCH  30  31
ATOM     31  N   UNL A   1      33.910  29.735  26.486  1.00  0.00    -0.352 N 
ATOM     32  C   UNL A   1      34.670  30.569  27.272  1.00  0.00     0.251 C 
ATOM     33  H   UNL A   1      33.133  30.153  26.050  1.00  0.00     0.163 HD
ATOM     34  O   UNL A   1      34.305  31.722  27.477  1.00  0.00    -0.269 OA
BRANCH  32  35
ATOM     35  C   UNL A   1      35.904  30.050  27.897  1.00  0.00     0.039 A 
ATOM     36  C   UNL A   1      37.109  30.154  27.198  1.00  0.00     0.014 A 
ATOM     37  C   UNL A   1      35.876  29.506  29.184  1.00  0.00     0.014 A 
ATOM     38  C   UNL A   1      38.300  29.782  27.823  1.00  0.00     0.010 A 
ATOM     39  C   UNL A   1      37.070  29.201  29.829  1.00  0.00     0.010 A 
ATOM     40  C   UNL A   1      38.294  29.341  29.157  1.00  0.00    -0.014 A 
BRANCH  40  41
ATOM     41  C   UNL A   1      39.559  29.036  29.872  1.00  0.00     0.031 A 
ATOM     42  C   UNL A   1      39.929  29.804  31.110  1.00  0.00     0.074 A 
ATOM     43  C   UNL A   1      40.405  28.118  29.365  1.00  0.00     0.049 A 
ATOM     44  N   UNL A   1      41.019  29.735  31.829  1.00  0.00    -0.248 NA
ATOM     45  C   UNL A   1      38.958  30.802  31.587  1.00  0.00     0.031 C 
ATOM     46  C   UNL A   1      40.182  27.346  28.139  1.00  0.00     0.029 A 
ATOM     47  N   UNL A   1      41.628  27.684  29.810  1.00  0.00    -0.354 N 
ATOM     48  C   UNL A   1      40.873  30.685  32.832  1.00  0.00     0.074 A 
ATOM     49  C   UNL A   1      39.612  31.355  32.598  1.00  0.00     0.031 C 
ATOM     50  C   UNL A   1      41.222  26.519  27.945  1.00  0.00     0.029 A 
ATOM     51  C   UNL A   1      42.199  26.723  29.009  1.00  0.00     0.049 A 
ATOM     52  H   UNL A   1      42.057  28.029  30.626  1.00  0.00     0.167 HD
ATOM     53  C   UNL A   1      41.702  30.959  33.868  1.00  0.00     0.037 A 
ATOM     54  C   UNL A   1      43.378  26.081  29.119  1.00  0.00     0.037 A 
ATOM     55  C   UNL A   1      42.943  30.270  34.111  1.00  0.00     0.049 A 
ATOM     56  C   UNL A   1      44.276  26.392  30.285  1.00  0.00     0.074 A 
ATOM     57  C   UNL A   1      43.827  30.435  35.162  1.00  0.00     0.029 A 
ATOM     58  N   UNL A   1      43.472  29.282  33.294  1.00  0.00    -0.354 N 
ATOM     59  N   UNL A   1      44.095  27.254  31.257  1.00  0.00    -0.248 NA
ATOM     60  C   UNL A   1      45.533  25.637  30.376  1.00  0.00     0.031 C 
ATOM     61  C   UNL A   1      44.908  29.569  34.964  1.00  0.00     0.029 A 
ATOM     62  C   UNL A   1      44.677  28.835  33.811  1.00  0.00     0.049 A 
ATOM     63  H   UNL A   1      43.054  28.946  32.469  1.00  0.00     0.167 HD
ATOM     64  C   UNL A   1      45.202  27.129  32.087  1.00  0.00     0.074 A 
ATOM     65  C   UNL A   1      46.042  26.100  31.510  1.00  0.00     0.031 C 
ATOM     66  C   UNL A   1      45.497  27.804  33.226  1.00  0.00     0.037 A 
BRANCH  53  67
ATOM     67  C   UNL A   1      41.285  32.045  34.821  1.00  0.00     0.058 A 
ATOM     68  C   UNL A   1      41.672  33.381  34.624  1.00  0.00     0.135 A 
ATOM     69  C   UNL A   1      40.474  31.754  35.929  1.00  0.00     0.135 A 
ATOM     70  F   UNL A   1      42.461  33.711  33.590  1.00  0.00    -0.206 F 
ATOM     71  C   UNL A   1      41.296  34.384  35.510  1.00  0.00     0.059 A 
ATOM     72  C   UNL A   1      40.064  32.747  36.813  1.00  0.00     0.059 A 
ATOM     73  F   UNL A   1      40.077  30.493  36.163  1.00  0.00    -0.206 F 
ATOM     74  C   UNL A   1      40.494  34.057  36.604  1.00  0.00     0.060 A 
BRANCH  74  75
ATOM     75  S   UNL A   1      40.018  35.370  37.748  1.00  0.00     0.124 S 
ATOM     76  O   UNL A   1      38.701  34.912  38.181  1.00  0.00    -0.237 OA
ATOM     77  O   UNL A   1      41.072  35.307  38.754  1.00  0.00    -0.237 OA
ATOM     78  O   UNL A   1      40.023  36.567  36.912  1.00  0.00    -0.744 OA
ENDBRANCH  74  75
ENDBRANCH  53  67
BRANCH  54  79
ATOM     79  C   UNL A   1      43.762  25.056  28.113  1.00  0.00     0.058 A 
ATOM     80  C   UNL A   1      43.506  23.695  28.341  1.00  0.00     0.135 A 
ATOM     81  C   UNL A   1      44.374  25.413  26.903  1.00  0.00     0.135 A 
ATOM     82  F   UNL A   1      42.927  23.306  29.487  1.00  0.00    -0.206 F 
ATOM     83  C   UNL A   1      43.855  22.722  27.410  1.00  0.00     0.059 A 
ATOM     84  C   UNL A   1      44.713  24.461  25.947  1.00  0.00     0.059 A 
ATOM     85  F   UNL A   1      44.625  26.703  26.630  1.00  0.00    -0.206 F 
ATOM     86  C   UNL A   1      44.458  23.116  26.214  1.00  0.00     0.060 A 
BRANCH  86  87
ATOM     87  S   UNL A   1      44.859  21.851  24.989  1.00  0.00     0.124 S 
ATOM     88  O   UNL A   1      43.658  21.024  25.016  1.00  0.00    -0.237 OA
ATOM     89  O   UNL A   1      45.061  22.645  23.781  1.00  0.00    -0.237 OA
ATOM     90  O   UNL A   1      46.066  21.233  25.530  1.00  0.00    -0.744 OA
ENDBRANCH  86  87
ENDBRANCH  54  79
BRANCH  66  91
ATOM     91  C   UNL A   1      46.765  27.430  33.940  1.00  0.00     0.058 A 
ATOM     92  C   UNL A   1      46.788  26.431  34.925  1.00  0.00     0.135 A 
ATOM     93  C   UNL A   1      47.980  28.049  33.602  1.00  0.00     0.135 A 
ATOM     94  F   UNL A   1      45.653  25.815  35.289  1.00  0.00    -0.206 F 
ATOM     95  C   UNL A   1      47.969  26.072  35.566  1.00  0.00     0.059 A 
ATOM     96  C   UNL A   1      49.176  27.689  34.213  1.00  0.00     0.059 A 
ATOM     97  F   UNL A   1      48.012  29.004  32.660  1.00  0.00    -0.206 F 
ATOM     98  C   UNL A   1      49.158  26.707  35.203  1.00  0.00     0.060 A 
BRANCH  98  99
ATOM     99  S   UNL A   1      50.690  26.210  36.018  1.00  0.00     0.124 S 
ATOM    100  O   UNL A   1      50.927  27.341  36.911  1.00  0.00    -0.237 OA
ATOM    101  O   UNL A   1      50.311  24.959  36.666  1.00  0.00    -0.237 OA
ATOM    102  O   UNL A   1      51.634  26.075  34.913  1.00  0.00    -0.744 OA
ENDBRANCH  98  99
ENDBRANCH  66  91
ENDBRANCH  40  41
ENDBRANCH  32  35
ENDBRANCH  30  31
ENDBRANCH  29  30
ENDBRANCH   1  29
TORSDOF 18
ENDMDL
MODEL 3
REMARK VINA RESULT:     -11.7      5.143     10.736
REMARK SMILES NS(=O)(=O)c1ccc(N2N=C(C(=O)NCCCCNC(=O)c3ccc(-c4c5nc(c(-c6c(F)cc(S(=O)(=O)[O-])cc6F)c6ccc([nH]6)c(-c6c(F)cc(S(=O)(=O)[O-])cc6F)c6nc(c(-c7c(F)cc(S(=O)(=O)[O-])cc7F)c7ccc4[nH]7)C=C6)C=C5)cc3)C[C@H]2c2ccco2)cc1
REMARK SMILES IDX 16 1 15 2 14 3 12 4 13 5 11 7 9 8 10 9 89 10 88 11 8 12 5 13
REMARK SMILES IDX 6 14 96 15 7 16 95 17 2 18 3 19 4 20 1 21 90 24 91 25 94 26
REMARK SMILES IDX 92 27 93 28 17 29 18 30 19 31 20 32 21 34 22 35 23 36 87 37
REMARK SMILES IDX 24 38 86 39 25 40 26 41 27 42 80 43 28 44 85 45 79 46 81 47
REMARK SMILES IDX 29 48 84 49 78 50 77 51 30 53 64 54 43 55 63 56 44 57 47 58
REMARK SMILES IDX 62 59 82 60 45 61 46 62 61 64 83 65 48 66 31 67 32 68 41 69
REMARK SMILES IDX 33 70 34 71 40 72 42 73 35 74 36 75 37 76 38 77 39 78 65 79
REMARK SMILES IDX 66 80 75 81 67 82 68 83 74 84 76 85 69 86 70 87 71 88 72 89
REMARK SMILES IDX 73 90 49 91 50 92 59 93 51 94 52 95 58 96 60 97 53 98 54 99
REMARK SMILES IDX 55 100 56 101 57 102
REMARK H PARENT 14 6 1 22 1 23 19 33 81 52 47 63
REMARK Flexibility Score: inf
ROOT
ATOM      1  C   UNL A   1      37.882  23.877  25.828  1.00  0.00     0.023 C 
ENDROOT
BRANCH   1   2
ATOM      2  C   UNL A   1      36.385  23.582  25.835  1.00  0.00     0.116 C 
BRANCH   2   3
ATOM      3  N   UNL A   1      35.854  23.497  24.488  1.00  0.00    -0.351 N 
ATOM      4  C   UNL A   1      34.811  24.092  23.825  1.00  0.00     0.267 C 
ATOM      5  O   UNL A   1      34.584  23.723  22.674  1.00  0.00    -0.268 OA
ATOM      6  H   UNL A   1      36.357  22.869  23.920  1.00  0.00     0.163 HD
BRANCH   4   7
ATOM      7  C   UNL A   1      33.944  25.200  24.408  1.00  0.00     0.128 C 
ATOM      8  N   UNL A   1      32.629  26.887  24.426  1.00  0.00    -0.254 N 
ATOM      9  N   UNL A   1      33.127  25.878  23.657  1.00  0.00    -0.171 NA
ATOM     10  C   UNL A   1      32.987  26.772  25.843  1.00  0.00     0.180 C 
ATOM     11  C   UNL A   1      33.970  25.599  25.842  1.00  0.00     0.099 C 
BRANCH   8  12
ATOM     12  C   UNL A   1      31.494  27.584  24.022  1.00  0.00     0.060 A 
ATOM     13  C   UNL A   1      29.184  28.931  23.157  1.00  0.00     0.082 A 
ATOM     14  C   UNL A   1      30.436  29.528  22.994  1.00  0.00     0.024 A 
ATOM     15  C   UNL A   1      29.069  27.687  23.775  1.00  0.00     0.024 A 
ATOM     16  C   UNL A   1      31.581  28.857  23.440  1.00  0.00     0.029 A 
ATOM     17  C   UNL A   1      30.220  27.023  24.198  1.00  0.00     0.029 A 
BRANCH  13  18
ATOM     18  S   UNL A   1      27.715  29.754  22.625  1.00  0.00     0.238 S 
ATOM     19  O   UNL A   1      27.783  29.958  21.193  1.00  0.00    -0.207 OA
ATOM     20  O   UNL A   1      27.432  30.825  23.546  1.00  0.00    -0.207 OA
BRANCH  18  21
ATOM     21  N   UNL A   1      26.505  28.611  22.843  1.00  0.00    -0.225 NA
ATOM     22  H   UNL A   1      26.712  28.050  23.669  1.00  0.00     0.137 HD
ATOM     23  H   UNL A   1      26.458  28.006  22.023  1.00  0.00     0.137 HD
ENDBRANCH  18  21
ENDBRANCH  13  18
ENDBRANCH   8  12
BRANCH  10  24
ATOM     24  C   UNL A   1      33.553  27.985  26.521  1.00  0.00     0.128 A 
ATOM     25  C   UNL A   1      32.968  29.043  27.192  1.00  0.00     0.048 A 
ATOM     26  O   UNL A   1      34.911  28.139  26.528  1.00  0.00    -0.467 OA
ATOM     27  C   UNL A   1      34.024  29.882  27.623  1.00  0.00     0.042 A 
ATOM     28  C   UNL A   1      35.187  29.280  27.207  1.00  0.00     0.195 A 
ENDBRANCH  10  24
ENDBRANCH   4   7
ENDBRANCH   2   3
ENDBRANCH   1   2
BRANCH   1  29
ATOM     29  C   UNL A   1      38.743  22.795  26.479  1.00  0.00     0.023 C 
BRANCH  29  30
ATOM     30  C   UNL A   1      40.009  23.294  27.171  1.00  0.00     0.116 C 
BRANCH  30  31
ATOM     31  N   UNL A   1      41.038  23.742  26.244  1.00  0.00    -0.352 N 
ATOM     32  C   UNL A   1      41.651  24.971  26.167  1.00  0.00     0.251 C 
ATOM     33  H   UNL A   1      41.336  23.076  25.583  1.00  0.00     0.163 HD
ATOM     34  O   UNL A   1      42.431  25.212  25.252  1.00  0.00    -0.269 OA
BRANCH  32  35
ATOM     35  C   UNL A   1      41.328  26.005  27.170  1.00  0.00     0.039 A 
ATOM     36  C   UNL A   1      40.323  25.747  28.105  1.00  0.00     0.014 A 
ATOM     37  C   UNL A   1      42.046  27.203  27.215  1.00  0.00     0.014 A 
ATOM     38  C   UNL A   1      40.090  26.661  29.134  1.00  0.00     0.010 A 
ATOM     39  C   UNL A   1      41.860  28.079  28.280  1.00  0.00     0.010 A 
ATOM     40  C   UNL A   1      40.885  27.813  29.253  1.00  0.00    -0.014 A 
BRANCH  40  41
ATOM     41  C   UNL A   1      40.720  28.746  30.396  1.00  0.00     0.031 A 
ATOM     42  C   UNL A   1      41.572  28.591  31.625  1.00  0.00     0.074 A 
ATOM     43  C   UNL A   1      39.756  29.687  30.354  1.00  0.00     0.049 A 
ATOM     44  N   UNL A   1      41.528  29.256  32.749  1.00  0.00    -0.248 NA
ATOM     45  C   UNL A   1      42.589  27.527  31.596  1.00  0.00     0.031 C 
ATOM     46  C   UNL A   1      38.829  29.900  29.239  1.00  0.00     0.029 A 
ATOM     47  N   UNL A   1      39.386  30.633  31.277  1.00  0.00    -0.354 N 
ATOM     48  C   UNL A   1      42.498  28.686  33.566  1.00  0.00     0.074 A 
ATOM     49  C   UNL A   1      43.078  27.586  32.826  1.00  0.00     0.031 C 
ATOM     50  C   UNL A   1      38.015  30.927  29.534  1.00  0.00     0.029 A 
ATOM     51  C   UNL A   1      38.337  31.422  30.869  1.00  0.00     0.049 A 
ATOM     52  H   UNL A   1      39.830  30.736  32.149  1.00  0.00     0.167 HD
ATOM     53  C   UNL A   1      42.886  29.060  34.808  1.00  0.00     0.037 A 
ATOM     54  C   UNL A   1      37.704  32.430  31.500  1.00  0.00     0.037 A 
ATOM     55  C   UNL A   1      42.324  30.174  35.528  1.00  0.00     0.049 A 
ATOM     56  C   UNL A   1      38.163  32.837  32.874  1.00  0.00     0.074 A 
ATOM     57  C   UNL A   1      42.685  30.668  36.768  1.00  0.00     0.029 A 
ATOM     58  N   UNL A   1      41.284  30.968  35.068  1.00  0.00    -0.354 N 
ATOM     59  N   UNL A   1      39.121  32.323  33.608  1.00  0.00    -0.248 NA
ATOM     60  C   UNL A   1      37.461  33.965  33.502  1.00  0.00     0.031 C 
ATOM     61  C   UNL A   1      41.842  31.741  37.075  1.00  0.00     0.029 A 
ATOM     62  C   UNL A   1      40.982  31.942  36.006  1.00  0.00     0.049 A 
ATOM     63  H   UNL A   1      40.827  30.857  34.204  1.00  0.00     0.167 HD
ATOM     64  C   UNL A   1      39.153  33.080  34.773  1.00  0.00     0.074 A 
ATOM     65  C   UNL A   1      38.127  34.094  34.642  1.00  0.00     0.031 C 
ATOM     66  C   UNL A   1      39.961  32.948  35.855  1.00  0.00     0.037 A 
BRANCH  53  67
ATOM     67  C   UNL A   1      43.980  28.262  35.462  1.00  0.00     0.058 A 
ATOM     68  C   UNL A   1      43.696  27.115  36.221  1.00  0.00     0.135 A 
ATOM     69  C   UNL A   1      45.326  28.632  35.312  1.00  0.00     0.135 A 
ATOM     70  F   UNL A   1      42.426  26.726  36.409  1.00  0.00    -0.206 F 
ATOM     71  C   UNL A   1      44.706  26.381  36.834  1.00  0.00     0.059 A 
ATOM     72  C   UNL A   1      46.354  27.897  35.895  1.00  0.00     0.059 A 
ATOM     73  F   UNL A   1      45.652  29.721  34.597  1.00  0.00    -0.206 F 
ATOM     74  C   UNL A   1      46.032  26.782  36.669  1.00  0.00     0.060 A 
BRANCH  74  75
ATOM     75  S   UNL A   1      47.331  25.822  37.474  1.00  0.00     0.124 S 
ATOM     76  O   UNL A   1      47.462  24.691  36.562  1.00  0.00    -0.237 OA
ATOM     77  O   UNL A   1      48.450  26.759  37.488  1.00  0.00    -0.237 OA
ATOM     78  O   UNL A   1      46.762  25.511  38.782  1.00  0.00    -0.744 OA
ENDBRANCH  74  75
ENDBRANCH  53  67
BRANCH  54  79
ATOM     79  C   UNL A   1      36.591  33.147  30.824  1.00  0.00     0.058 A 
ATOM     80  C   UNL A   1      36.850  34.093  29.821  1.00  0.00     0.135 A 
ATOM     81  C   UNL A   1      35.252  32.892  31.154  1.00  0.00     0.135 A 
ATOM     82  F   UNL A   1      38.115  34.373  29.476  1.00  0.00    -0.206 F 
ATOM     83  C   UNL A   1      35.821  34.771  29.176  1.00  0.00     0.059 A 
ATOM     84  C   UNL A   1      34.204  33.542  30.508  1.00  0.00     0.059 A 
ATOM     85  F   UNL A   1      34.951  31.984  32.095  1.00  0.00    -0.206 F 
ATOM     86  C   UNL A   1      34.500  34.487  29.526  1.00  0.00     0.060 A 
BRANCH  86  87
ATOM     87  S   UNL A   1      33.169  35.333  28.646  1.00  0.00     0.124 S 
ATOM     88  O   UNL A   1      32.500  34.220  27.983  1.00  0.00    -0.237 OA
ATOM     89  O   UNL A   1      32.431  35.964  29.737  1.00  0.00    -0.237 OA
ATOM     90  O   UNL A   1      33.883  36.256  27.768  1.00  0.00    -0.744 OA
ENDBRANCH  86  87
ENDBRANCH  54  79
BRANCH  66  91
ATOM     91  C   UNL A   1      39.790  33.943  36.968  1.00  0.00     0.058 A 
ATOM     92  C   UNL A   1      38.913  33.706  38.038  1.00  0.00     0.135 A 
ATOM     93  C   UNL A   1      40.547  35.125  36.987  1.00  0.00     0.135 A 
ATOM     94  F   UNL A   1      38.163  32.594  38.063  1.00  0.00    -0.206 F 
ATOM     95  C   UNL A   1      38.778  34.619  39.079  1.00  0.00     0.059 A 
ATOM     96  C   UNL A   1      40.445  36.040  38.029  1.00  0.00     0.059 A 
ATOM     97  F   UNL A   1      41.407  35.392  35.992  1.00  0.00    -0.206 F 
ATOM     98  C   UNL A   1      39.548  35.784  39.065  1.00  0.00     0.060 A 
BRANCH  98  99
ATOM     99  S   UNL A   1      39.387  36.946  40.437  1.00  0.00     0.124 S 
ATOM    100  O   UNL A   1      40.785  37.228  40.748  1.00  0.00    -0.237 OA
ATOM    101  O   UNL A   1      38.638  38.043  39.833  1.00  0.00    -0.237 OA
ATOM    102  O   UNL A   1      38.660  36.181  41.447  1.00  0.00    -0.744 OA
ENDBRANCH  98  99
ENDBRANCH  66  91
ENDBRANCH  40  41
ENDBRANCH  32  35
ENDBRANCH  30  31
ENDBRANCH  29  30
ENDBRANCH   1  29
TORSDOF 18
ENDMDL
