MODEL 1
REMARK VINA RESULT:     -13.7      0.000      0.000
REMARK SMILES CC(C)CCOCC[N@@H+]1[C@@H](C(=O)NCCCCNC(=O)c2ccc(-c3c4nc(c(-c5c(F)cc(S(=O)(=O)[O-])cc5F)c5ccc([nH]5)c(-c5c(F)cc(S(=O)(=O)[O-])cc5F)c5nc(c(-c6c(F)cc(S(=O)(=O)[O-])cc6F)c6ccc3[nH]6)C=C5)C=C4)cc2)CC[C@H]2CCCC[C@H]21
REMARK SMILES IDX 14 1 13 2 11 3 12 4 10 6 9 7 94 8 87 10 89 11 93 12 88 13
REMARK SMILES IDX 90 14 92 15 91 16 8 17 7 18 6 19 5 20 4 21 2 22 1 23 3 24
REMARK SMILES IDX 15 25 16 26 17 27 18 28 19 29 20 31 21 32 22 33 86 34 23 35
REMARK SMILES IDX 85 36 24 37 25 38 26 39 79 40 27 41 84 42 78 43 80 44 28 45
REMARK SMILES IDX 83 46 77 47 76 48 29 50 63 51 42 52 62 53 43 54 46 55 61 56
REMARK SMILES IDX 81 57 44 58 45 59 60 61 82 62 47 63 30 64 31 65 40 66 32 67
REMARK SMILES IDX 33 68 39 69 41 70 34 71 35 72 36 73 37 74 38 75 64 76 65 77
REMARK SMILES IDX 74 78 66 79 67 80 73 81 75 82 68 83 69 84 70 85 71 86 72 87
REMARK SMILES IDX 48 88 49 89 58 90 50 91 51 92 57 93 59 94 52 95 53 96 54 97
REMARK SMILES IDX 55 98 56 99
REMARK H PARENT 13 5 9 9 18 30 80 49 46 60
REMARK Flexibility Score: inf
ROOT
ATOM      1  C   UNL A   1      34.226  23.237  26.478  1.00  0.00     0.116 C 
ENDROOT
BRANCH   1   2
ATOM      2  N   UNL A   1      32.699  23.476  27.149  1.00  0.00    -0.351 N 
ATOM      3  C   UNL A   1      31.228  23.906  26.551  1.00  0.00     0.278 C 
ATOM      4  O   UNL A   1      30.356  23.314  27.222  1.00  0.00    -0.268 OA
ATOM      5  H   UNL A   1      32.684  23.323  28.122  1.00  0.00     0.163 HD
BRANCH   3   6
ATOM      6  C   UNL A   1      30.719  25.088  25.024  1.00  0.00     0.274 C 
ATOM      7  N   UNL A   1      31.776  24.984  24.008  1.00  0.00    -0.320 N 
ATOM      8  C   UNL A   1      31.749  26.068  22.931  1.00  0.00     0.187 C 
ATOM      9  H   UNL A   1      32.724  25.123  24.357  1.00  0.00     0.349 HD
ATOM     10  C   UNL A   1      29.723  26.440  24.869  1.00  0.00     0.076 C 
ATOM     11  C   UNL A   1      30.960  27.419  23.075  1.00  0.00     0.048 C 
ATOM     12  C   UNL A   1      33.144  26.532  22.474  1.00  0.00     0.065 C 
ATOM     13  C   UNL A   1      29.575  27.096  23.533  1.00  0.00     0.016 C 
ATOM     14  C   UNL A   1      31.568  28.569  23.911  1.00  0.00     0.010 C 
ATOM     15  C   UNL A   1      33.848  27.489  23.439  1.00  0.00     0.006 C 
ATOM     16  C   UNL A   1      33.068  28.750  23.797  1.00  0.00     0.001 C 
BRANCH   7  17
ATOM     17  C   UNL A   1      31.457  23.586  23.498  1.00  0.00     0.291 C 
BRANCH  17  18
ATOM     18  C   UNL A   1      32.706  22.435  23.298  1.00  0.00     0.221 C 
BRANCH  18  19
ATOM     19  O   UNL A   1      32.559  20.960  23.635  1.00  0.00    -0.376 OA
BRANCH  19  20
ATOM     20  C   UNL A   1      32.263  20.172  24.916  1.00  0.00     0.160 C 
BRANCH  20  21
ATOM     21  C   UNL A   1      32.827  18.510  25.642  1.00  0.00     0.031 C 
BRANCH  21  22
ATOM     22  C   UNL A   1      33.604  16.910  24.757  1.00  0.00    -0.015 C 
ATOM     23  C   UNL A   1      33.108  15.512  25.161  1.00  0.00     0.007 C 
ATOM     24  C   UNL A   1      34.130  16.684  23.099  1.00  0.00     0.007 C 
ENDBRANCH  21  22
ENDBRANCH  20  21
ENDBRANCH  19  20
ENDBRANCH  18  19
ENDBRANCH  17  18
ENDBRANCH   7  17
ENDBRANCH   3   6
ENDBRANCH   1   2
BRANCH   1  25
ATOM     25  C   UNL A   1      35.125  22.032  26.200  1.00  0.00     0.023 C 
BRANCH  25  26
ATOM     26  C   UNL A   1      36.101  22.147  25.009  1.00  0.00     0.023 C 
BRANCH  26  27
ATOM     27  C   UNL A   1      37.358  23.030  25.104  1.00  0.00     0.116 C 
BRANCH  27  28
ATOM     28  N   UNL A   1      38.645  22.391  25.394  1.00  0.00    -0.352 N 
ATOM     29  C   UNL A   1      39.621  22.852  26.262  1.00  0.00     0.251 C 
ATOM     30  H   UNL A   1      38.836  21.546  24.925  1.00  0.00     0.163 HD
ATOM     31  O   UNL A   1      40.605  22.170  26.558  1.00  0.00    -0.269 OA
BRANCH  29  32
ATOM     32  C   UNL A   1      39.493  24.233  26.760  1.00  0.00     0.039 A 
ATOM     33  C   UNL A   1      38.875  24.425  27.997  1.00  0.00     0.014 A 
ATOM     34  C   UNL A   1      40.223  25.256  26.150  1.00  0.00     0.014 A 
ATOM     35  C   UNL A   1      39.103  25.609  28.694  1.00  0.00     0.010 A 
ATOM     36  C   UNL A   1      40.538  26.383  26.899  1.00  0.00     0.010 A 
ATOM     37  C   UNL A   1      39.999  26.564  28.186  1.00  0.00    -0.014 A 
BRANCH  37  38
ATOM     38  C   UNL A   1      40.399  27.758  28.977  1.00  0.00     0.031 A 
ATOM     39  C   UNL A   1      41.690  27.726  29.746  1.00  0.00     0.074 A 
ATOM     40  C   UNL A   1      39.575  28.822  29.079  1.00  0.00     0.049 A 
ATOM     41  N   UNL A   1      42.160  28.585  30.609  1.00  0.00    -0.248 NA
ATOM     42  C   UNL A   1      42.551  26.549  29.538  1.00  0.00     0.031 C 
ATOM     43  C   UNL A   1      38.279  28.966  28.409  1.00  0.00     0.029 A 
ATOM     44  N   UNL A   1      39.696  29.983  29.805  1.00  0.00    -0.354 N 
ATOM     45  C   UNL A   1      43.353  28.042  31.067  1.00  0.00     0.074 A 
ATOM     46  C   UNL A   1      43.508  26.755  30.428  1.00  0.00     0.031 C 
ATOM     47  C   UNL A   1      37.737  30.148  28.744  1.00  0.00     0.029 A 
ATOM     48  C   UNL A   1      38.615  30.827  29.691  1.00  0.00     0.049 A 
ATOM     49  H   UNL A   1      40.485  30.192  30.356  1.00  0.00     0.167 HD
ATOM     50  C   UNL A   1      44.250  28.576  31.928  1.00  0.00     0.037 A 
ATOM     51  C   UNL A   1      38.351  32.004  30.297  1.00  0.00     0.037 A 
ATOM     52  C   UNL A   1      44.102  29.869  32.538  1.00  0.00     0.049 A 
ATOM     53  C   UNL A   1      39.355  32.572  31.266  1.00  0.00     0.074 A 
ATOM     54  C   UNL A   1      44.981  30.524  33.383  1.00  0.00     0.029 A 
ATOM     55  N   UNL A   1      43.006  30.703  32.374  1.00  0.00    -0.354 N 
ATOM     56  N   UNL A   1      40.503  32.069  31.650  1.00  0.00    -0.248 NA
ATOM     57  C   UNL A   1      39.033  33.868  31.883  1.00  0.00     0.031 C 
ATOM     58  C   UNL A   1      44.393  31.730  33.771  1.00  0.00     0.029 A 
ATOM     59  C   UNL A   1      43.177  31.858  33.118  1.00  0.00     0.049 A 
ATOM     60  H   UNL A   1      42.223  30.504  31.811  1.00  0.00     0.167 HD
ATOM     61  C   UNL A   1      41.059  33.002  32.519  1.00  0.00     0.074 A 
ATOM     62  C   UNL A   1      40.118  34.099  32.610  1.00  0.00     0.031 C 
ATOM     63  C   UNL A   1      42.244  32.956  33.175  1.00  0.00     0.037 A 
BRANCH  50  64
ATOM     64  C   UNL A   1      45.467  27.758  32.261  1.00  0.00     0.058 A 
ATOM     65  C   UNL A   1      46.663  27.878  31.535  1.00  0.00     0.135 A 
ATOM     66  C   UNL A   1      45.444  26.857  33.339  1.00  0.00     0.135 A 
ATOM     67  F   UNL A   1      46.736  28.712  30.484  1.00  0.00    -0.206 F 
ATOM     68  C   UNL A   1      47.781  27.111  31.842  1.00  0.00     0.059 A 
ATOM     69  C   UNL A   1      46.560  26.104  33.684  1.00  0.00     0.059 A 
ATOM     70  F   UNL A   1      44.326  26.700  34.065  1.00  0.00    -0.206 F 
ATOM     71  C   UNL A   1      47.719  26.225  32.921  1.00  0.00     0.060 A 
BRANCH  71  72
ATOM     72  S   UNL A   1      49.191  25.254  33.304  1.00  0.00     0.124 S 
ATOM     73  O   UNL A   1      49.708  24.978  31.954  1.00  0.00    -0.237 OA
ATOM     74  O   UNL A   1      49.967  26.147  34.111  1.00  0.00    -0.237 OA
ATOM     75  O   UNL A   1      48.640  24.075  33.997  1.00  0.00    -0.744 OA
ENDBRANCH  71  72
ENDBRANCH  50  64
BRANCH  51  76
ATOM     76  C   UNL A   1      37.082  32.728  30.000  1.00  0.00     0.058 A 
ATOM     77  C   UNL A   1      35.903  32.440  30.704  1.00  0.00     0.135 A 
ATOM     78  C   UNL A   1      37.025  33.729  29.018  1.00  0.00     0.135 A 
ATOM     79  F   UNL A   1      35.901  31.484  31.646  1.00  0.00    -0.206 F 
ATOM     80  C   UNL A   1      34.712  33.110  30.440  1.00  0.00     0.059 A 
ATOM     81  C   UNL A   1      35.853  34.431  28.754  1.00  0.00     0.059 A 
ATOM     82  F   UNL A   1      38.127  34.054  28.323  1.00  0.00    -0.206 F 
ATOM     83  C   UNL A   1      34.699  34.109  29.464  1.00  0.00     0.060 A 
BRANCH  83  84
ATOM     84  S   UNL A   1      33.161  35.011  29.173  1.00  0.00     0.124 S 
ATOM     85  O   UNL A   1      32.517  34.176  28.164  1.00  0.00    -0.237 OA
ATOM     86  O   UNL A   1      32.548  35.005  30.494  1.00  0.00    -0.237 OA
ATOM     87  O   UNL A   1      33.623  36.317  28.709  1.00  0.00    -0.744 OA
ENDBRANCH  83  84
ENDBRANCH  51  76
BRANCH  63  88
ATOM     88  C   UNL A   1      42.644  34.147  34.002  1.00  0.00     0.058 A 
ATOM     89  C   UNL A   1      42.368  34.226  35.374  1.00  0.00     0.135 A 
ATOM     90  C   UNL A   1      43.422  35.168  33.427  1.00  0.00     0.135 A 
ATOM     91  F   UNL A   1      41.622  33.282  35.969  1.00  0.00    -0.206 F 
ATOM     92  C   UNL A   1      42.850  35.276  36.150  1.00  0.00     0.059 A 
ATOM     93  C   UNL A   1      43.937  36.210  34.190  1.00  0.00     0.059 A 
ATOM     94  F   UNL A   1      43.721  35.134  32.119  1.00  0.00    -0.206 F 
ATOM     95  C   UNL A   1      43.645  36.256  35.551  1.00  0.00     0.060 A 
BRANCH  95  96
ATOM     96  S   UNL A   1      44.338  37.564  36.585  1.00  0.00     0.124 S 
ATOM     97  O   UNL A   1      43.518  37.453  37.789  1.00  0.00    -0.237 OA
ATOM     98  O   UNL A   1      45.730  37.139  36.729  1.00  0.00    -0.237 OA
ATOM     99  O   UNL A   1      44.136  38.769  35.797  1.00  0.00    -0.744 OA
ENDBRANCH  95  96
ENDBRANCH  63  88
ENDBRANCH  37  38
ENDBRANCH  29  32
ENDBRANCH  27  28
ENDBRANCH  26  27
ENDBRANCH  25  26
ENDBRANCH   1  25
TORSDOF 20
ENDMDL
MODEL 2
REMARK VINA RESULT:     -13.3      4.723      9.649
REMARK SMILES CC(C)CCOCC[N@@H+]1[C@@H](C(=O)NCCCCNC(=O)c2ccc(-c3c4nc(c(-c5c(F)cc(S(=O)(=O)[O-])cc5F)c5ccc([nH]5)c(-c5c(F)cc(S(=O)(=O)[O-])cc5F)c5nc(c(-c6c(F)cc(S(=O)(=O)[O-])cc6F)c6ccc3[nH]6)C=C5)C=C4)cc2)CC[C@H]2CCCC[C@H]21
REMARK SMILES IDX 14 1 13 2 11 3 12 4 10 6 9 7 94 8 87 10 89 11 93 12 88 13
REMARK SMILES IDX 90 14 92 15 91 16 8 17 7 18 6 19 5 20 4 21 2 22 1 23 3 24
REMARK SMILES IDX 15 25 16 26 17 27 18 28 19 29 20 31 21 32 22 33 86 34 23 35
REMARK SMILES IDX 85 36 24 37 25 38 26 39 79 40 27 41 84 42 78 43 80 44 28 45
REMARK SMILES IDX 83 46 77 47 76 48 29 50 63 51 42 52 62 53 43 54 46 55 61 56
REMARK SMILES IDX 81 57 44 58 45 59 60 61 82 62 47 63 30 64 31 65 40 66 32 67
REMARK SMILES IDX 33 68 39 69 41 70 34 71 35 72 36 73 37 74 38 75 64 76 65 77
REMARK SMILES IDX 74 78 66 79 67 80 73 81 75 82 68 83 69 84 70 85 71 86 72 87
REMARK SMILES IDX 48 88 49 89 58 90 50 91 51 92 57 93 59 94 52 95 53 96 54 97
REMARK SMILES IDX 55 98 56 99
REMARK H PARENT 13 5 9 9 18 30 80 49 46 60
REMARK Flexibility Score: inf
ROOT
ATOM      1  C   UNL A   1      37.289  23.936  26.499  1.00  0.00     0.116 C 
ENDROOT
BRANCH   1   2
ATOM      2  N   UNL A   1      36.086  23.670  25.351  1.00  0.00    -0.351 N 
ATOM      3  C   UNL A   1      34.774  24.518  24.832  1.00  0.00     0.278 C 
ATOM      4  O   UNL A   1      34.627  24.284  23.614  1.00  0.00    -0.268 OA
ATOM      5  H   UNL A   1      36.191  22.810  24.882  1.00  0.00     0.163 HD
BRANCH   3   6
ATOM      6  C   UNL A   1      33.554  25.775  25.790  1.00  0.00     0.274 C 
ATOM      7  N   UNL A   1      32.179  25.287  25.609  1.00  0.00    -0.320 N 
ATOM      8  C   UNL A   1      31.083  26.292  25.964  1.00  0.00     0.187 C 
ATOM      9  H   UNL A   1      31.916  25.091  24.643  1.00  0.00     0.349 HD
ATOM     10  C   UNL A   1      33.673  27.387  26.270  1.00  0.00     0.076 C 
ATOM     11  C   UNL A   1      31.331  27.836  26.110  1.00  0.00     0.048 C 
ATOM     12  C   UNL A   1      29.853  26.227  25.040  1.00  0.00     0.065 C 
ATOM     13  C   UNL A   1      32.526  28.029  26.985  1.00  0.00     0.016 C 
ATOM     14  C   UNL A   1      31.425  28.714  24.840  1.00  0.00     0.010 C 
ATOM     15  C   UNL A   1      30.041  26.893  23.676  1.00  0.00     0.006 C 
ATOM     16  C   UNL A   1      30.477  28.355  23.714  1.00  0.00     0.001 C 
BRANCH   7  17
ATOM     17  C   UNL A   1      32.247  24.081  26.535  1.00  0.00     0.291 C 
BRANCH  17  18
ATOM     18  C   UNL A   1      31.418  22.640  26.136  1.00  0.00     0.221 C 
BRANCH  18  19
ATOM     19  O   UNL A   1      31.744  21.785  24.922  1.00  0.00    -0.376 OA
BRANCH  19  20
ATOM     20  C   UNL A   1      33.032  21.201  24.331  1.00  0.00     0.160 C 
BRANCH  20  21
ATOM     21  C   UNL A   1      34.209  19.783  24.790  1.00  0.00     0.031 C 
BRANCH  21  22
ATOM     22  C   UNL A   1      34.022  17.819  24.557  1.00  0.00    -0.015 C 
ATOM     23  C   UNL A   1      33.019  17.050  25.431  1.00  0.00     0.007 C 
ATOM     24  C   UNL A   1      34.113  16.845  23.101  1.00  0.00     0.007 C 
ENDBRANCH  21  22
ENDBRANCH  20  21
ENDBRANCH  19  20
ENDBRANCH  18  19
ENDBRANCH  17  18
ENDBRANCH   7  17
ENDBRANCH   3   6
ENDBRANCH   1   2
BRANCH   1  25
ATOM     25  C   UNL A   1      38.815  24.038  26.485  1.00  0.00     0.023 C 
BRANCH  25  26
ATOM     26  C   UNL A   1      39.593  22.811  25.962  1.00  0.00     0.023 C 
BRANCH  26  27
ATOM     27  C   UNL A   1      39.761  21.555  26.835  1.00  0.00     0.116 C 
BRANCH  27  28
ATOM     28  N   UNL A   1      40.257  20.326  26.209  1.00  0.00    -0.352 N 
ATOM     29  C   UNL A   1      41.579  19.926  26.102  1.00  0.00     0.251 C 
ATOM     30  H   UNL A   1      39.581  19.720  25.827  1.00  0.00     0.163 HD
ATOM     31  O   UNL A   1      41.889  18.804  25.696  1.00  0.00    -0.269 OA
BRANCH  29  32
ATOM     32  C   UNL A   1      42.619  20.924  26.407  1.00  0.00     0.039 A 
ATOM     33  C   UNL A   1      43.164  21.643  25.342  1.00  0.00     0.014 A 
ATOM     34  C   UNL A   1      42.823  21.324  27.729  1.00  0.00     0.014 A 
ATOM     35  C   UNL A   1      43.806  22.854  25.596  1.00  0.00     0.010 A 
ATOM     36  C   UNL A   1      43.361  22.584  27.965  1.00  0.00     0.010 A 
ATOM     37  C   UNL A   1      43.841  23.371  26.901  1.00  0.00    -0.014 A 
BRANCH  37  38
ATOM     38  C   UNL A   1      44.364  24.733  27.188  1.00  0.00     0.031 A 
ATOM     39  C   UNL A   1      43.406  25.808  27.617  1.00  0.00     0.074 A 
ATOM     40  C   UNL A   1      45.664  25.027  26.978  1.00  0.00     0.049 A 
ATOM     41  N   UNL A   1      43.615  27.087  27.775  1.00  0.00    -0.248 NA
ATOM     42  C   UNL A   1      42.017  25.389  27.871  1.00  0.00     0.031 C 
ATOM     43  C   UNL A   1      46.692  24.083  26.530  1.00  0.00     0.029 A 
ATOM     44  N   UNL A   1      46.344  26.216  27.095  1.00  0.00    -0.354 N 
ATOM     45  C   UNL A   1      42.383  27.628  28.117  1.00  0.00     0.074 A 
ATOM     46  C   UNL A   1      41.421  26.549  28.091  1.00  0.00     0.031 C 
ATOM     47  C   UNL A   1      47.868  24.726  26.426  1.00  0.00     0.029 A 
ATOM     48  C   UNL A   1      47.673  26.136  26.746  1.00  0.00     0.049 A 
ATOM     49  H   UNL A   1      45.919  27.051  27.401  1.00  0.00     0.167 HD
ATOM     50  C   UNL A   1      42.082  28.906  28.445  1.00  0.00     0.037 A 
ATOM     51  C   UNL A   1      48.623  27.092  26.672  1.00  0.00     0.037 A 
ATOM     52  C   UNL A   1      43.049  29.968  28.496  1.00  0.00     0.049 A 
ATOM     53  C   UNL A   1      48.262  28.513  27.024  1.00  0.00     0.074 A 
ATOM     54  C   UNL A   1      42.856  31.287  28.869  1.00  0.00     0.029 A 
ATOM     55  N   UNL A   1      44.390  29.838  28.163  1.00  0.00    -0.354 N 
ATOM     56  N   UNL A   1      47.102  28.999  27.395  1.00  0.00    -0.248 NA
ATOM     57  C   UNL A   1      49.336  29.515  26.950  1.00  0.00     0.031 C 
ATOM     58  C   UNL A   1      44.067  31.965  28.710  1.00  0.00     0.029 A 
ATOM     59  C   UNL A   1      45.031  31.056  28.302  1.00  0.00     0.049 A 
ATOM     60  H   UNL A   1      44.821  29.002  27.872  1.00  0.00     0.167 HD
ATOM     61  C   UNL A   1      47.315  30.352  27.639  1.00  0.00     0.074 A 
ATOM     62  C   UNL A   1      48.714  30.610  27.367  1.00  0.00     0.031 C 
ATOM     63  C   UNL A   1      46.432  31.292  28.057  1.00  0.00     0.037 A 
BRANCH  50  64
ATOM     64  C   UNL A   1      40.648  29.223  28.768  1.00  0.00     0.058 A 
ATOM     65  C   UNL A   1      40.200  29.364  30.091  1.00  0.00     0.135 A 
ATOM     66  C   UNL A   1      39.713  29.412  27.737  1.00  0.00     0.135 A 
ATOM     67  F   UNL A   1      41.048  29.177  31.117  1.00  0.00    -0.206 F 
ATOM     68  C   UNL A   1      38.871  29.646  30.384  1.00  0.00     0.059 A 
ATOM     69  C   UNL A   1      38.385  29.728  28.005  1.00  0.00     0.059 A 
ATOM     70  F   UNL A   1      40.086  29.286  26.454  1.00  0.00    -0.206 F 
ATOM     71  C   UNL A   1      37.969  29.827  29.331  1.00  0.00     0.060 A 
BRANCH  71  72
ATOM     72  S   UNL A   1      36.254  30.207  29.741  1.00  0.00     0.124 S 
ATOM     73  O   UNL A   1      36.079  29.432  30.980  1.00  0.00    -0.237 OA
ATOM     74  O   UNL A   1      36.262  31.632  29.879  1.00  0.00    -0.237 OA
ATOM     75  O   UNL A   1      35.510  29.678  28.583  1.00  0.00    -0.744 OA
ENDBRANCH  71  72
ENDBRANCH  50  64
BRANCH  51  76
ATOM     76  C   UNL A   1      50.008  26.737  26.254  1.00  0.00     0.058 A 
ATOM     77  C   UNL A   1      50.414  26.862  24.917  1.00  0.00     0.135 A 
ATOM     78  C   UNL A   1      50.957  26.281  27.182  1.00  0.00     0.135 A 
ATOM     79  F   UNL A   1      49.543  27.283  23.988  1.00  0.00    -0.206 F 
ATOM     80  C   UNL A   1      51.706  26.537  24.512  1.00  0.00     0.059 A 
ATOM     81  C   UNL A   1      52.262  25.975  26.806  1.00  0.00     0.059 A 
ATOM     82  F   UNL A   1      50.627  26.157  28.477  1.00  0.00    -0.206 F 
ATOM     83  C   UNL A   1      52.625  26.099  25.467  1.00  0.00     0.060 A 
BRANCH  83  84
ATOM     84  S   UNL A   1      54.314  25.737  24.938  1.00  0.00     0.124 S 
ATOM     85  O   UNL A   1      55.095  26.504  25.904  1.00  0.00    -0.237 OA
ATOM     86  O   UNL A   1      54.374  24.288  25.074  1.00  0.00    -0.237 OA
ATOM     87  O   UNL A   1      54.348  26.234  23.564  1.00  0.00    -0.744 OA
ENDBRANCH  83  84
ENDBRANCH  51  76
BRANCH  63  88
ATOM     88  C   UNL A   1      46.946  32.680  28.320  1.00  0.00     0.058 A 
ATOM     89  C   UNL A   1      46.868  33.697  27.358  1.00  0.00     0.135 A 
ATOM     90  C   UNL A   1      47.414  33.021  29.602  1.00  0.00     0.135 A 
ATOM     91  F   UNL A   1      46.438  33.422  26.117  1.00  0.00    -0.206 F 
ATOM     92  C   UNL A   1      47.235  35.006  27.657  1.00  0.00     0.059 A 
ATOM     93  C   UNL A   1      47.758  34.328  29.929  1.00  0.00     0.059 A 
ATOM     94  F   UNL A   1      47.499  32.086  30.561  1.00  0.00    -0.206 F 
ATOM     95  C   UNL A   1      47.666  35.314  28.949  1.00  0.00     0.060 A 
BRANCH  95  96
ATOM     96  S   UNL A   1      48.054  37.031  29.350  1.00  0.00     0.124 S 
ATOM     97  O   UNL A   1      47.264  37.751  28.353  1.00  0.00    -0.237 OA
ATOM     98  O   UNL A   1      47.579  37.142  30.729  1.00  0.00    -0.237 OA
ATOM     99  O   UNL A   1      49.496  37.107  29.182  1.00  0.00    -0.744 OA
ENDBRANCH  95  96
ENDBRANCH  63  88
ENDBRANCH  37  38
ENDBRANCH  29  32
ENDBRANCH  27  28
ENDBRANCH  26  27
ENDBRANCH  25  26
ENDBRANCH   1  25
TORSDOF 20
ENDMDL
MODEL 3
REMARK VINA RESULT:     -12.2      6.388     12.251
REMARK SMILES CC(C)CCOCC[N@@H+]1[C@@H](C(=O)NCCCCNC(=O)c2ccc(-c3c4nc(c(-c5c(F)cc(S(=O)(=O)[O-])cc5F)c5ccc([nH]5)c(-c5c(F)cc(S(=O)(=O)[O-])cc5F)c5nc(c(-c6c(F)cc(S(=O)(=O)[O-])cc6F)c6ccc3[nH]6)C=C5)C=C4)cc2)CC[C@H]2CCCC[C@H]21
REMARK SMILES IDX 14 1 13 2 11 3 12 4 10 6 9 7 94 8 87 10 89 11 93 12 88 13
REMARK SMILES IDX 90 14 92 15 91 16 8 17 7 18 6 19 5 20 4 21 2 22 1 23 3 24
REMARK SMILES IDX 15 25 16 26 17 27 18 28 19 29 20 31 21 32 22 33 86 34 23 35
REMARK SMILES IDX 85 36 24 37 25 38 26 39 79 40 27 41 84 42 78 43 80 44 28 45
REMARK SMILES IDX 83 46 77 47 76 48 29 50 63 51 42 52 62 53 43 54 46 55 61 56
REMARK SMILES IDX 81 57 44 58 45 59 60 61 82 62 47 63 30 64 31 65 40 66 32 67
REMARK SMILES IDX 33 68 39 69 41 70 34 71 35 72 36 73 37 74 38 75 64 76 65 77
REMARK SMILES IDX 74 78 66 79 67 80 73 81 75 82 68 83 69 84 70 85 71 86 72 87
REMARK SMILES IDX 48 88 49 89 58 90 50 91 51 92 57 93 59 94 52 95 53 96 54 97
REMARK SMILES IDX 55 98 56 99
REMARK H PARENT 13 5 9 9 18 30 80 49 46 60
REMARK Flexibility Score: inf
ROOT
ATOM      1  C   UNL A   1      37.269  33.490  35.466  1.00  0.00     0.116 C 
ENDROOT
BRANCH   1   2
ATOM      2  N   UNL A   1      35.819  33.830  34.680  1.00  0.00    -0.351 N 
ATOM      3  C   UNL A   1      35.149  33.380  33.245  1.00  0.00     0.278 C 
ATOM      4  O   UNL A   1      33.913  33.306  33.409  1.00  0.00    -0.268 OA
ATOM      5  H   UNL A   1      35.240  34.435  35.197  1.00  0.00     0.163 HD
BRANCH   3   6
ATOM      6  C   UNL A   1      35.978  32.939  31.483  1.00  0.00     0.274 C 
ATOM      7  N   UNL A   1      37.199  32.164  31.747  1.00  0.00    -0.320 N 
ATOM      8  C   UNL A   1      38.154  32.035  30.559  1.00  0.00     0.187 C 
ATOM      9  H   UNL A   1      37.836  32.582  32.425  1.00  0.00     0.349 HD
ATOM     10  C   UNL A   1      35.896  33.624  29.945  1.00  0.00     0.076 C 
ATOM     11  C   UNL A   1      38.097  32.961  29.292  1.00  0.00     0.048 C 
ATOM     12  C   UNL A   1      39.643  32.075  30.946  1.00  0.00     0.065 C 
ATOM     13  C   UNL A   1      36.678  33.015  28.825  1.00  0.00     0.016 C 
ATOM     14  C   UNL A   1      38.714  34.378  29.357  1.00  0.00     0.010 C 
ATOM     15  C   UNL A   1      40.188  33.471  31.251  1.00  0.00     0.006 C 
ATOM     16  C   UNL A   1      40.002  34.504  30.144  1.00  0.00     0.001 C 
BRANCH   7  17
ATOM     17  C   UNL A   1      36.545  30.856  32.170  1.00  0.00     0.291 C 
BRANCH  17  18
ATOM     18  C   UNL A   1      37.317  29.834  33.303  1.00  0.00     0.221 C 
BRANCH  18  19
ATOM     19  O   UNL A   1      37.478  28.334  33.116  1.00  0.00    -0.376 OA
BRANCH  19  20
ATOM     20  C   UNL A   1      38.371  27.448  32.240  1.00  0.00     0.160 C 
BRANCH  20  21
ATOM     21  C   UNL A   1      38.844  27.404  30.402  1.00  0.00     0.031 C 
BRANCH  21  22
ATOM     22  C   UNL A   1      39.649  28.800  29.239  1.00  0.00    -0.015 C 
ATOM     23  C   UNL A   1      41.179  28.891  29.122  1.00  0.00     0.007 C 
ATOM     24  C   UNL A   1      39.092  29.448  27.707  1.00  0.00     0.007 C 
ENDBRANCH  21  22
ENDBRANCH  20  21
ENDBRANCH  19  20
ENDBRANCH  18  19
ENDBRANCH  17  18
ENDBRANCH   7  17
ENDBRANCH   3   6
ENDBRANCH   1   2
BRANCH   1  25
ATOM     25  C   UNL A   1      37.721  33.348  36.920  1.00  0.00     0.023 C 
BRANCH  25  26
ATOM     26  C   UNL A   1      39.220  33.065  37.163  1.00  0.00     0.023 C 
BRANCH  26  27
ATOM     27  C   UNL A   1      39.951  33.678  38.370  1.00  0.00     0.116 C 
BRANCH  27  28
ATOM     28  N   UNL A   1      39.704  35.085  38.701  1.00  0.00    -0.352 N 
ATOM     29  C   UNL A   1      39.978  36.184  37.904  1.00  0.00     0.251 C 
ATOM     30  H   UNL A   1      39.300  35.268  39.581  1.00  0.00     0.163 HD
ATOM     31  O   UNL A   1      39.595  37.317  38.203  1.00  0.00    -0.269 OA
BRANCH  29  32
ATOM     32  C   UNL A   1      40.827  35.971  36.719  1.00  0.00     0.039 A 
ATOM     33  C   UNL A   1      42.160  35.613  36.928  1.00  0.00     0.014 A 
ATOM     34  C   UNL A   1      40.234  35.849  35.460  1.00  0.00     0.014 A 
ATOM     35  C   UNL A   1      42.868  34.998  35.898  1.00  0.00     0.010 A 
ATOM     36  C   UNL A   1      40.907  35.133  34.477  1.00  0.00     0.010 A 
ATOM     37  C   UNL A   1      42.223  34.683  34.691  1.00  0.00    -0.014 A 
BRANCH  37  38
ATOM     38  C   UNL A   1      42.893  33.877  33.635  1.00  0.00     0.031 A 
ATOM     39  C   UNL A   1      43.310  34.551  32.358  1.00  0.00     0.074 A 
ATOM     40  C   UNL A   1      43.042  32.544  33.779  1.00  0.00     0.049 A 
ATOM     41  N   UNL A   1      43.769  34.022  31.256  1.00  0.00    -0.248 NA
ATOM     42  C   UNL A   1      43.156  36.014  32.305  1.00  0.00     0.031 C 
ATOM     43  C   UNL A   1      42.650  31.763  34.956  1.00  0.00     0.029 A 
ATOM     44  N   UNL A   1      43.549  31.601  32.917  1.00  0.00    -0.354 N 
ATOM     45  C   UNL A   1      43.933  35.080  30.372  1.00  0.00     0.074 A 
ATOM     46  C   UNL A   1      43.472  36.273  31.046  1.00  0.00     0.031 C 
ATOM     47  C   UNL A   1      42.944  30.469  34.746  1.00  0.00     0.029 A 
ATOM     48  C   UNL A   1      43.496  30.314  33.404  1.00  0.00     0.049 A 
ATOM     49  H   UNL A   1      43.918  31.825  32.032  1.00  0.00     0.167 HD
ATOM     50  C   UNL A   1      44.441  35.064  29.118  1.00  0.00     0.037 A 
ATOM     51  C   UNL A   1      43.833  29.141  32.828  1.00  0.00     0.037 A 
ATOM     52  C   UNL A   1      44.922  33.878  28.465  1.00  0.00     0.049 A 
ATOM     53  C   UNL A   1      44.380  29.143  31.424  1.00  0.00     0.074 A 
ATOM     54  C   UNL A   1      45.505  33.764  27.215  1.00  0.00     0.029 A 
ATOM     55  N   UNL A   1      44.876  32.600  29.004  1.00  0.00    -0.354 N 
ATOM     56  N   UNL A   1      44.575  30.161  30.620  1.00  0.00    -0.248 NA
ATOM     57  C   UNL A   1      44.754  27.844  30.848  1.00  0.00     0.031 C 
ATOM     58  C   UNL A   1      45.763  32.412  26.977  1.00  0.00     0.029 A 
ATOM     59  C   UNL A   1      45.401  31.689  28.105  1.00  0.00     0.049 A 
ATOM     60  H   UNL A   1      44.523  32.376  29.895  1.00  0.00     0.167 HD
ATOM     61  C   UNL A   1      45.133  29.630  29.461  1.00  0.00     0.074 A 
ATOM     62  C   UNL A   1      45.239  28.200  29.666  1.00  0.00     0.031 C 
ATOM     63  C   UNL A   1      45.528  30.271  28.334  1.00  0.00     0.037 A 
BRANCH  50  64
ATOM     64  C   UNL A   1      44.495  36.369  28.372  1.00  0.00     0.058 A 
ATOM     65  C   UNL A   1      45.630  37.195  28.404  1.00  0.00     0.135 A 
ATOM     66  C   UNL A   1      43.403  36.787  27.594  1.00  0.00     0.135 A 
ATOM     67  F   UNL A   1      46.696  36.852  29.147  1.00  0.00    -0.206 F 
ATOM     68  C   UNL A   1      45.669  38.404  27.721  1.00  0.00     0.059 A 
ATOM     69  C   UNL A   1      43.433  37.977  26.875  1.00  0.00     0.059 A 
ATOM     70  F   UNL A   1      42.292  36.038  27.529  1.00  0.00    -0.206 F 
ATOM     71  C   UNL A   1      44.563  38.788  26.957  1.00  0.00     0.060 A 
BRANCH  71  72
ATOM     72  S   UNL A   1      44.650  40.356  26.070  1.00  0.00     0.124 S 
ATOM     73  O   UNL A   1      44.975  41.284  27.164  1.00  0.00    -0.237 OA
ATOM     74  O   UNL A   1      45.682  40.125  25.105  1.00  0.00    -0.237 OA
ATOM     75  O   UNL A   1      43.286  40.508  25.529  1.00  0.00    -0.744 OA
ENDBRANCH  71  72
ENDBRANCH  50  64
BRANCH  51  76
ATOM     76  C   UNL A   1      43.670  27.866  33.582  1.00  0.00     0.058 A 
ATOM     77  C   UNL A   1      42.407  27.273  33.734  1.00  0.00     0.135 A 
ATOM     78  C   UNL A   1      44.771  27.208  34.152  1.00  0.00     0.135 A 
ATOM     79  F   UNL A   1      41.321  27.866  33.218  1.00  0.00    -0.206 F 
ATOM     80  C   UNL A   1      42.240  26.080  34.433  1.00  0.00     0.059 A 
ATOM     81  C   UNL A   1      44.632  26.002  34.832  1.00  0.00     0.059 A 
ATOM     82  F   UNL A   1      46.003  27.724  34.024  1.00  0.00    -0.206 F 
ATOM     83  C   UNL A   1      43.362  25.449  34.974  1.00  0.00     0.060 A 
BRANCH  83  84
ATOM     84  S   UNL A   1      43.138  23.872  35.827  1.00  0.00     0.124 S 
ATOM     85  O   UNL A   1      43.286  22.921  34.730  1.00  0.00    -0.237 OA
ATOM     86  O   UNL A   1      44.219  23.896  36.803  1.00  0.00    -0.237 OA
ATOM     87  O   UNL A   1      41.793  23.983  36.388  1.00  0.00    -0.744 OA
ENDBRANCH  83  84
ENDBRANCH  51  76
BRANCH  63  88
ATOM     88  C   UNL A   1      46.178  29.461  27.247  1.00  0.00     0.058 A 
ATOM     89  C   UNL A   1      45.434  28.842  26.233  1.00  0.00     0.135 A 
ATOM     90  C   UNL A   1      47.581  29.407  27.160  1.00  0.00     0.135 A 
ATOM     91  F   UNL A   1      44.092  28.857  26.275  1.00  0.00    -0.206 F 
ATOM     92  C   UNL A   1      46.056  28.199  25.168  1.00  0.00     0.059 A 
ATOM     93  C   UNL A   1      48.223  28.794  26.089  1.00  0.00     0.059 A 
ATOM     94  F   UNL A   1      48.340  29.990  28.101  1.00  0.00    -0.206 F 
ATOM     95  C   UNL A   1      47.450  28.191  25.097  1.00  0.00     0.060 A 
BRANCH  95  96
ATOM     96  S   UNL A   1      48.245  27.432  23.665  1.00  0.00     0.124 S 
ATOM     97  O   UNL A   1      47.535  28.074  22.560  1.00  0.00    -0.237 OA
ATOM     98  O   UNL A   1      49.641  27.835  23.835  1.00  0.00    -0.237 OA
ATOM     99  O   UNL A   1      47.983  26.012  23.839  1.00  0.00    -0.744 OA
ENDBRANCH  95  96
ENDBRANCH  63  88
ENDBRANCH  37  38
ENDBRANCH  29  32
ENDBRANCH  27  28
ENDBRANCH  26  27
ENDBRANCH  25  26
ENDBRANCH   1  25
TORSDOF 20
ENDMDL
