MODEL 1
REMARK VINA RESULT:     -11.5      0.000      0.000
REMARK SMILES O=C(NCCCCNC(=O)c1cc(-c2cc3ccccc3s2)ccn1)c1ccc(-c2c3nc(c(-c4c(F)cc(S(=O)(=O)[O-])cc4F)c4ccc([nH]4)c(-c4c(F)cc(S(=O)(=O)[O-])cc4F)c4nc(c(-c5c(F)cc(S(=O)(=O)[O-])cc5F)c5ccc2[nH]5)C=C4)C=C3)cc1
REMARK SMILES IDX 4 1 3 2 1 3 2 4 26 6 27 7 91 8 28 9 90 10 29 11 30 12 31 13
REMARK SMILES IDX 84 14 32 15 89 16 83 17 85 18 33 19 88 20 82 21 81 22 34 24
REMARK SMILES IDX 68 25 47 26 67 27 48 28 51 29 66 30 86 31 49 32 50 33 65 35
REMARK SMILES IDX 87 36 52 37 35 38 36 39 45 40 37 41 38 42 44 43 46 44 39 45
REMARK SMILES IDX 40 46 41 47 42 48 43 49 69 50 70 51 79 52 71 53 72 54 78 55
REMARK SMILES IDX 80 56 73 57 74 58 75 59 76 60 77 61 53 62 54 63 63 64 55 65
REMARK SMILES IDX 56 66 62 67 64 68 57 69 58 70 59 71 60 72 61 73 5 74 6 75
REMARK SMILES IDX 7 76 8 77 9 78 10 80 11 81 12 82 25 83 13 84 24 85 23 86
REMARK SMILES IDX 14 87 15 88 22 89 16 90 21 91 17 92 20 93 18 94 19 95
REMARK H PARENT 3 5 85 23 51 34 8 79
REMARK Flexibility Score: inf
ROOT
ATOM      1  C   UNL A   1      33.760  28.313  27.020  1.00  0.00     0.116 C 
ENDROOT
BRANCH   1   2
ATOM      2  N   UNL A   1      33.604  29.701  27.426  1.00  0.00    -0.352 N 
ATOM      3  O   UNL A   1      34.099  31.629  28.473  1.00  0.00    -0.269 OA
ATOM      4  C   UNL A   1      34.481  30.530  28.082  1.00  0.00     0.251 C 
ATOM      5  H   UNL A   1      32.738  30.109  27.194  1.00  0.00     0.163 HD
BRANCH   4   6
ATOM      6  C   UNL A   1      35.870  30.092  28.344  1.00  0.00     0.039 A 
ATOM      7  C   UNL A   1      36.252  29.608  29.598  1.00  0.00     0.014 A 
ATOM      8  C   UNL A   1      36.802  30.152  27.304  1.00  0.00     0.014 A 
ATOM      9  C   UNL A   1      37.591  29.315  29.852  1.00  0.00     0.010 A 
ATOM     10  C   UNL A   1      38.131  29.790  27.540  1.00  0.00     0.010 A 
ATOM     11  C   UNL A   1      38.542  29.400  28.825  1.00  0.00    -0.014 A 
BRANCH  11  12
ATOM     12  C   UNL A   1      39.962  29.050  29.085  1.00  0.00     0.031 A 
ATOM     13  C   UNL A   1      40.914  30.074  29.638  1.00  0.00     0.074 A 
ATOM     14  C   UNL A   1      40.397  27.809  28.794  1.00  0.00     0.049 A 
ATOM     15  N   UNL A   1      42.202  29.975  29.846  1.00  0.00    -0.248 NA
ATOM     16  C   UNL A   1      40.346  31.382  29.996  1.00  0.00     0.031 C 
ATOM     17  C   UNL A   1      39.568  26.732  28.254  1.00  0.00     0.029 A 
ATOM     18  N   UNL A   1      41.645  27.249  28.898  1.00  0.00    -0.354 N 
ATOM     19  C   UNL A   1      42.606  31.213  30.331  1.00  0.00     0.074 A 
ATOM     20  C   UNL A   1      41.427  32.053  30.371  1.00  0.00     0.031 C 
ATOM     21  C   UNL A   1      40.325  25.639  28.079  1.00  0.00     0.029 A 
ATOM     22  C   UNL A   1      41.704  25.956  28.439  1.00  0.00     0.049 A 
ATOM     23  H   UNL A   1      42.423  27.729  29.265  1.00  0.00     0.167 HD
ATOM     24  C   UNL A   1      43.845  31.610  30.713  1.00  0.00     0.037 A 
ATOM     25  C   UNL A   1      42.752  25.124  28.291  1.00  0.00     0.037 A 
ATOM     26  C   UNL A   1      45.010  30.763  30.678  1.00  0.00     0.049 A 
ATOM     27  C   UNL A   1      44.122  25.589  28.696  1.00  0.00     0.074 A 
ATOM     28  C   UNL A   1      46.302  31.060  31.072  1.00  0.00     0.029 A 
ATOM     29  N   UNL A   1      45.025  29.454  30.216  1.00  0.00    -0.354 N 
ATOM     30  N   UNL A   1      44.483  26.754  29.178  1.00  0.00    -0.248 NA
ATOM     31  C   UNL A   1      45.225  24.632  28.540  1.00  0.00     0.031 C 
ATOM     32  C   UNL A   1      47.108  29.946  30.808  1.00  0.00     0.029 A 
ATOM     33  C   UNL A   1      46.308  28.937  30.295  1.00  0.00     0.049 A 
ATOM     34  H   UNL A   1      44.240  28.965  29.879  1.00  0.00     0.167 HD
ATOM     35  C   UNL A   1      45.851  26.665  29.407  1.00  0.00     0.074 A 
ATOM     36  C   UNL A   1      46.252  25.329  29.010  1.00  0.00     0.031 C 
ATOM     37  C   UNL A   1      46.692  27.601  29.908  1.00  0.00     0.037 A 
BRANCH  24  38
ATOM     38  C   UNL A   1      44.008  33.036  31.166  1.00  0.00     0.058 A 
ATOM     39  C   UNL A   1      43.900  33.403  32.517  1.00  0.00     0.135 A 
ATOM     40  C   UNL A   1      44.279  34.051  30.233  1.00  0.00     0.135 A 
ATOM     41  F   UNL A   1      43.632  32.476  33.450  1.00  0.00    -0.206 F 
ATOM     42  C   UNL A   1      44.009  34.730  32.922  1.00  0.00     0.059 A 
ATOM     43  C   UNL A   1      44.418  35.381  30.618  1.00  0.00     0.059 A 
ATOM     44  F   UNL A   1      44.398  33.757  28.929  1.00  0.00    -0.206 F 
ATOM     45  C   UNL A   1      44.258  35.714  31.962  1.00  0.00     0.060 A 
BRANCH  45  46
ATOM     46  S   UNL A   1      44.355  37.437  32.494  1.00  0.00     0.124 S 
ATOM     47  O   UNL A   1      44.148  38.140  31.231  1.00  0.00    -0.237 OA
ATOM     48  O   UNL A   1      43.261  37.532  33.456  1.00  0.00    -0.237 OA
ATOM     49  O   UNL A   1      45.695  37.544  33.061  1.00  0.00    -0.744 OA
ENDBRANCH  45  46
ENDBRANCH  24  38
BRANCH  25  50
ATOM     50  C   UNL A   1      42.524  23.769  27.729  1.00  0.00     0.058 A 
ATOM     51  C   UNL A   1      42.541  23.548  26.346  1.00  0.00     0.135 A 
ATOM     52  C   UNL A   1      42.373  22.655  28.571  1.00  0.00     0.135 A 
ATOM     53  F   UNL A   1      42.676  24.582  25.503  1.00  0.00    -0.206 F 
ATOM     54  C   UNL A   1      42.424  22.269  25.814  1.00  0.00     0.059 A 
ATOM     55  C   UNL A   1      42.279  21.363  28.064  1.00  0.00     0.059 A 
ATOM     56  F   UNL A   1      42.371  22.815  29.903  1.00  0.00    -0.206 F 
ATOM     57  C   UNL A   1      42.306  21.181  26.682  1.00  0.00     0.060 A 
BRANCH  57  58
ATOM     58  S   UNL A   1      42.258  19.515  25.983  1.00  0.00     0.124 S 
ATOM     59  O   UNL A   1      43.163  19.647  24.847  1.00  0.00    -0.237 OA
ATOM     60  O   UNL A   1      42.741  18.703  27.095  1.00  0.00    -0.237 OA
ATOM     61  O   UNL A   1      40.848  19.333  25.651  1.00  0.00    -0.744 OA
ENDBRANCH  57  58
ENDBRANCH  25  50
BRANCH  37  62
ATOM     62  C   UNL A   1      48.131  27.213  30.100  1.00  0.00     0.058 A 
ATOM     63  C   UNL A   1      49.093  27.426  29.101  1.00  0.00     0.135 A 
ATOM     64  C   UNL A   1      48.565  26.702  31.334  1.00  0.00     0.135 A 
ATOM     65  F   UNL A   1      48.729  27.903  27.901  1.00  0.00    -0.206 F 
ATOM     66  C   UNL A   1      50.438  27.143  29.320  1.00  0.00     0.059 A 
ATOM     67  C   UNL A   1      49.906  26.433  31.581  1.00  0.00     0.059 A 
ATOM     68  F   UNL A   1      47.682  26.487  32.323  1.00  0.00    -0.206 F 
ATOM     69  C   UNL A   1      50.836  26.654  30.566  1.00  0.00     0.060 A 
BRANCH  69  70
ATOM     70  S   UNL A   1      52.593  26.356  30.862  1.00  0.00     0.124 S 
ATOM     71  O   UNL A   1      52.553  25.146  31.675  1.00  0.00    -0.237 OA
ATOM     72  O   UNL A   1      53.114  26.194  29.508  1.00  0.00    -0.237 OA
ATOM     73  O   UNL A   1      53.030  27.565  31.555  1.00  0.00    -0.744 OA
ENDBRANCH  69  70
ENDBRANCH  37  62
ENDBRANCH  11  12
ENDBRANCH   4   6
ENDBRANCH   1   2
BRANCH   1  74
ATOM     74  C   UNL A   1      33.804  28.140  25.505  1.00  0.00     0.023 C 
BRANCH  74  75
ATOM     75  C   UNL A   1      32.875  29.058  24.711  1.00  0.00     0.023 C 
BRANCH  75  76
ATOM     76  C   UNL A   1      31.483  28.504  24.430  1.00  0.00     0.116 C 
BRANCH  76  77
ATOM     77  N   UNL A   1      31.297  28.082  23.051  1.00  0.00    -0.351 N 
ATOM     78  C   UNL A   1      31.341  26.806  22.522  1.00  0.00     0.269 C 
ATOM     79  H   UNL A   1      31.115  28.803  22.407  1.00  0.00     0.163 HD
ATOM     80  O   UNL A   1      31.194  26.641  21.315  1.00  0.00    -0.268 OA
BRANCH  78  81
ATOM     81  C   UNL A   1      31.560  25.645  23.428  1.00  0.00     0.128 A 
ATOM     82  C   UNL A   1      32.847  25.327  23.839  1.00  0.00     0.043 A 
ATOM     83  N   UNL A   1      30.466  24.904  23.731  1.00  0.00    -0.251 NA
ATOM     84  C   UNL A   1      33.043  24.131  24.529  1.00  0.00    -0.004 A 
ATOM     85  C   UNL A   1      30.675  23.784  24.449  1.00  0.00     0.112 A 
ATOM     86  C   UNL A   1      31.928  23.350  24.847  1.00  0.00     0.030 A 
BRANCH  84  87
ATOM     87  C   UNL A   1      34.393  23.641  24.808  1.00  0.00     0.036 A 
ATOM     88  C   UNL A   1      35.414  24.302  25.461  1.00  0.00     0.029 A 
ATOM     89  S   UNL A   1      34.873  22.069  24.343  1.00  0.00    -0.135 S 
ATOM     90  C   UNL A   1      36.597  23.508  25.617  1.00  0.00    -0.007 A 
ATOM     91  C   UNL A   1      36.436  22.244  25.045  1.00  0.00     0.035 A 
ATOM     92  C   UNL A   1      37.829  23.809  26.243  1.00  0.00     0.009 A 
ATOM     93  C   UNL A   1      37.464  21.284  25.082  1.00  0.00     0.019 A 
ATOM     94  C   UNL A   1      38.854  22.860  26.281  1.00  0.00     0.001 A 
ATOM     95  C   UNL A   1      38.671  21.609  25.705  1.00  0.00     0.001 A 
ENDBRANCH  84  87
ENDBRANCH  78  81
ENDBRANCH  76  77
ENDBRANCH  75  76
ENDBRANCH  74  75
ENDBRANCH   1  74
TORSDOF 15
ENDMDL
MODEL 2
REMARK VINA RESULT:     -11.5      2.890      3.525
REMARK SMILES O=C(NCCCCNC(=O)c1cc(-c2cc3ccccc3s2)ccn1)c1ccc(-c2c3nc(c(-c4c(F)cc(S(=O)(=O)[O-])cc4F)c4ccc([nH]4)c(-c4c(F)cc(S(=O)(=O)[O-])cc4F)c4nc(c(-c5c(F)cc(S(=O)(=O)[O-])cc5F)c5ccc2[nH]5)C=C4)C=C3)cc1
REMARK SMILES IDX 4 1 3 2 1 3 2 4 26 6 27 7 91 8 28 9 90 10 29 11 30 12 31 13
REMARK SMILES IDX 84 14 32 15 89 16 83 17 85 18 33 19 88 20 82 21 81 22 34 24
REMARK SMILES IDX 68 25 47 26 67 27 48 28 51 29 66 30 86 31 49 32 50 33 65 35
REMARK SMILES IDX 87 36 52 37 35 38 36 39 45 40 37 41 38 42 44 43 46 44 39 45
REMARK SMILES IDX 40 46 41 47 42 48 43 49 69 50 70 51 79 52 71 53 72 54 78 55
REMARK SMILES IDX 80 56 73 57 74 58 75 59 76 60 77 61 53 62 54 63 63 64 55 65
REMARK SMILES IDX 56 66 62 67 64 68 57 69 58 70 59 71 60 72 61 73 5 74 6 75
REMARK SMILES IDX 7 76 8 77 9 78 10 80 11 81 12 82 25 83 13 84 24 85 23 86
REMARK SMILES IDX 14 87 15 88 22 89 16 90 21 91 17 92 20 93 18 94 19 95
REMARK H PARENT 3 5 85 23 51 34 8 79
REMARK Flexibility Score: inf
ROOT
ATOM      1  C   UNL A   1      34.267  28.316  26.001  1.00  0.00     0.116 C 
ENDROOT
BRANCH   1   2
ATOM      2  N   UNL A   1      33.803  29.646  26.362  1.00  0.00    -0.352 N 
ATOM      3  O   UNL A   1      33.665  31.546  27.558  1.00  0.00    -0.269 OA
ATOM      4  C   UNL A   1      34.297  30.527  27.294  1.00  0.00     0.251 C 
ATOM      5  H   UNL A   1      33.017  29.964  25.863  1.00  0.00     0.163 HD
BRANCH   4   6
ATOM      6  C   UNL A   1      35.567  30.238  27.998  1.00  0.00     0.039 A 
ATOM      7  C   UNL A   1      36.800  30.551  27.421  1.00  0.00     0.014 A 
ATOM      8  C   UNL A   1      35.515  29.657  29.269  1.00  0.00     0.014 A 
ATOM      9  C   UNL A   1      37.981  30.160  28.051  1.00  0.00     0.010 A 
ATOM     10  C   UNL A   1      36.700  29.331  29.931  1.00  0.00     0.010 A 
ATOM     11  C   UNL A   1      37.942  29.550  29.314  1.00  0.00    -0.014 A 
BRANCH  11  12
ATOM     12  C   UNL A   1      39.201  29.170  30.002  1.00  0.00     0.031 A 
ATOM     13  C   UNL A   1      39.662  29.915  31.224  1.00  0.00     0.074 A 
ATOM     14  C   UNL A   1      39.946  28.165  29.503  1.00  0.00     0.049 A 
ATOM     15  N   UNL A   1      40.772  29.781  31.903  1.00  0.00    -0.248 NA
ATOM     16  C   UNL A   1      38.759  30.951  31.748  1.00  0.00     0.031 C 
ATOM     17  C   UNL A   1      39.604  27.369  28.324  1.00  0.00     0.029 A 
ATOM     18  N   UNL A   1      41.149  27.649  29.916  1.00  0.00    -0.354 N 
ATOM     19  C   UNL A   1      40.718  30.732  32.915  1.00  0.00     0.074 A 
ATOM     20  C   UNL A   1      39.470  31.449  32.750  1.00  0.00     0.031 C 
ATOM     21  C   UNL A   1      40.569  26.463  28.110  1.00  0.00     0.029 A 
ATOM     22  C   UNL A   1      41.625  26.652  29.100  1.00  0.00     0.049 A 
ATOM     23  H   UNL A   1      41.625  27.965  30.717  1.00  0.00     0.167 HD
ATOM     24  C   UNL A   1      41.623  30.981  33.893  1.00  0.00     0.037 A 
ATOM     25  C   UNL A   1      42.793  25.982  29.122  1.00  0.00     0.037 A 
ATOM     26  C   UNL A   1      42.858  30.257  34.053  1.00  0.00     0.049 A 
ATOM     27  C   UNL A   1      43.794  26.288  30.197  1.00  0.00     0.074 A 
ATOM     28  C   UNL A   1      43.827  30.411  35.028  1.00  0.00     0.029 A 
ATOM     29  N   UNL A   1      43.298  29.245  33.211  1.00  0.00    -0.354 N 
ATOM     30  N   UNL A   1      43.716  27.172  31.163  1.00  0.00    -0.248 NA
ATOM     31  C   UNL A   1      45.039  25.510  30.191  1.00  0.00     0.031 C 
ATOM     32  C   UNL A   1      44.872  29.522  34.752  1.00  0.00     0.029 A 
ATOM     33  C   UNL A   1      44.533  28.779  33.632  1.00  0.00     0.049 A 
ATOM     34  H   UNL A   1      42.806  28.907  32.428  1.00  0.00     0.167 HD
ATOM     35  C   UNL A   1      44.890  27.041  31.896  1.00  0.00     0.074 A 
ATOM     36  C   UNL A   1      45.662  25.991  31.260  1.00  0.00     0.031 C 
ATOM     37  C   UNL A   1      45.285  27.724  32.997  1.00  0.00     0.037 A 
BRANCH  24  38
ATOM     38  C   UNL A   1      41.325  32.110  34.843  1.00  0.00     0.058 A 
ATOM     39  C   UNL A   1      40.517  31.933  35.977  1.00  0.00     0.135 A 
ATOM     40  C   UNL A   1      41.860  33.389  34.616  1.00  0.00     0.135 A 
ATOM     41  F   UNL A   1      39.971  30.734  36.237  1.00  0.00    -0.206 F 
ATOM     42  C   UNL A   1      40.211  32.992  36.827  1.00  0.00     0.059 A 
ATOM     43  C   UNL A   1      41.590  34.457  35.467  1.00  0.00     0.059 A 
ATOM     44  F   UNL A   1      42.644  33.615  33.551  1.00  0.00    -0.206 F 
ATOM     45  C   UNL A   1      40.745  34.254  36.557  1.00  0.00     0.060 A 
BRANCH  45  46
ATOM     46  S   UNL A   1      40.307  35.629  37.641  1.00  0.00     0.124 S 
ATOM     47  O   UNL A   1      39.906  36.644  36.672  1.00  0.00    -0.237 OA
ATOM     48  O   UNL A   1      39.229  35.064  38.447  1.00  0.00    -0.237 OA
ATOM     49  O   UNL A   1      41.547  35.903  38.361  1.00  0.00    -0.744 OA
ENDBRANCH  45  46
ENDBRANCH  24  38
BRANCH  25  50
ATOM     50  C   UNL A   1      43.058  24.960  28.077  1.00  0.00     0.058 A 
ATOM     51  C   UNL A   1      43.643  25.311  26.855  1.00  0.00     0.135 A 
ATOM     52  C   UNL A   1      42.811  23.599  28.322  1.00  0.00     0.135 A 
ATOM     53  F   UNL A   1      43.892  26.599  26.576  1.00  0.00    -0.206 F 
ATOM     54  C   UNL A   1      43.984  24.349  25.910  1.00  0.00     0.059 A 
ATOM     55  C   UNL A   1      43.165  22.616  27.403  1.00  0.00     0.059 A 
ATOM     56  F   UNL A   1      42.269  23.212  29.487  1.00  0.00    -0.206 F 
ATOM     57  C   UNL A   1      43.752  23.003  26.199  1.00  0.00     0.060 A 
BRANCH  57  58
ATOM     58  S   UNL A   1      44.291  21.755  25.008  1.00  0.00     0.124 S 
ATOM     59  O   UNL A   1      44.107  22.457  23.744  1.00  0.00    -0.237 OA
ATOM     60  O   UNL A   1      45.673  21.521  25.414  1.00  0.00    -0.237 OA
ATOM     61  O   UNL A   1      43.378  20.643  25.253  1.00  0.00    -0.744 OA
ENDBRANCH  57  58
ENDBRANCH  25  50
BRANCH  37  62
ATOM     62  C   UNL A   1      46.595  27.337  33.623  1.00  0.00     0.058 A 
ATOM     63  C   UNL A   1      46.683  26.320  34.586  1.00  0.00     0.135 A 
ATOM     64  C   UNL A   1      47.789  27.935  33.188  1.00  0.00     0.135 A 
ATOM     65  F   UNL A   1      45.570  25.725  35.043  1.00  0.00    -0.206 F 
ATOM     66  C   UNL A   1      47.911  25.911  35.097  1.00  0.00     0.059 A 
ATOM     67  C   UNL A   1      49.028  27.527  33.669  1.00  0.00     0.059 A 
ATOM     68  F   UNL A   1      47.758  28.909  32.264  1.00  0.00    -0.206 F 
ATOM     69  C   UNL A   1      49.079  26.515  34.627  1.00  0.00     0.060 A 
BRANCH  69  70
ATOM     70  S   UNL A   1      50.670  25.927  35.246  1.00  0.00     0.124 S 
ATOM     71  O   UNL A   1      50.254  25.016  36.306  1.00  0.00    -0.237 OA
ATOM     72  O   UNL A   1      51.254  25.302  34.064  1.00  0.00    -0.237 OA
ATOM     73  O   UNL A   1      51.333  27.149  35.692  1.00  0.00    -0.744 OA
ENDBRANCH  69  70
ENDBRANCH  37  62
ENDBRANCH  11  12
ENDBRANCH   4   6
ENDBRANCH   1   2
BRANCH   1  74
ATOM     74  C   UNL A   1      33.303  27.215  26.432  1.00  0.00     0.023 C 
BRANCH  74  75
ATOM     75  C   UNL A   1      31.820  27.579  26.370  1.00  0.00     0.023 C 
BRANCH  75  76
ATOM     76  C   UNL A   1      30.931  26.598  25.612  1.00  0.00     0.116 C 
BRANCH  76  77
ATOM     77  N   UNL A   1      30.318  25.595  26.468  1.00  0.00    -0.351 N 
ATOM     78  C   UNL A   1      30.481  24.224  26.449  1.00  0.00     0.269 C 
ATOM     79  H   UNL A   1      29.703  25.941  27.154  1.00  0.00     0.163 HD
ATOM     80  O   UNL A   1      29.848  23.523  27.233  1.00  0.00    -0.268 OA
BRANCH  78  81
ATOM     81  C   UNL A   1      31.432  23.612  25.478  1.00  0.00     0.128 A 
ATOM     82  C   UNL A   1      32.735  23.342  25.870  1.00  0.00     0.043 A 
ATOM     83  N   UNL A   1      30.969  23.434  24.216  1.00  0.00    -0.251 NA
ATOM     84  C   UNL A   1      33.649  22.948  24.892  1.00  0.00    -0.004 A 
ATOM     85  C   UNL A   1      31.858  22.996  23.304  1.00  0.00     0.112 A 
ATOM     86  C   UNL A   1      33.194  22.763  23.584  1.00  0.00     0.030 A 
BRANCH  84  87
ATOM     87  C   UNL A   1      35.076  22.848  25.200  1.00  0.00     0.036 A 
ATOM     88  C   UNL A   1      35.895  23.819  25.738  1.00  0.00     0.029 A 
ATOM     89  S   UNL A   1      35.934  21.396  24.932  1.00  0.00    -0.135 S 
ATOM     90  C   UNL A   1      37.237  23.369  25.967  1.00  0.00    -0.007 A 
ATOM     91  C   UNL A   1      37.398  22.041  25.568  1.00  0.00     0.035 A 
ATOM     92  C   UNL A   1      38.350  24.045  26.520  1.00  0.00     0.009 A 
ATOM     93  C   UNL A   1      38.632  21.377  25.704  1.00  0.00     0.019 A 
ATOM     94  C   UNL A   1      39.578  23.391  26.657  1.00  0.00     0.001 A 
ATOM     95  C   UNL A   1      39.715  22.069  26.251  1.00  0.00     0.001 A 
ENDBRANCH  84  87
ENDBRANCH  78  81
ENDBRANCH  76  77
ENDBRANCH  75  76
ENDBRANCH  74  75
ENDBRANCH   1  74
TORSDOF 15
ENDMDL
MODEL 3
REMARK VINA RESULT:     -11.4      5.773     11.837
REMARK SMILES O=C(NCCCCNC(=O)c1cc(-c2cc3ccccc3s2)ccn1)c1ccc(-c2c3nc(c(-c4c(F)cc(S(=O)(=O)[O-])cc4F)c4ccc([nH]4)c(-c4c(F)cc(S(=O)(=O)[O-])cc4F)c4nc(c(-c5c(F)cc(S(=O)(=O)[O-])cc5F)c5ccc2[nH]5)C=C4)C=C3)cc1
REMARK SMILES IDX 4 1 3 2 1 3 2 4 26 6 27 7 91 8 28 9 90 10 29 11 30 12 31 13
REMARK SMILES IDX 84 14 32 15 89 16 83 17 85 18 33 19 88 20 82 21 81 22 34 24
REMARK SMILES IDX 68 25 47 26 67 27 48 28 51 29 66 30 86 31 49 32 50 33 65 35
REMARK SMILES IDX 87 36 52 37 35 38 36 39 45 40 37 41 38 42 44 43 46 44 39 45
REMARK SMILES IDX 40 46 41 47 42 48 43 49 69 50 70 51 79 52 71 53 72 54 78 55
REMARK SMILES IDX 80 56 73 57 74 58 75 59 76 60 77 61 53 62 54 63 63 64 55 65
REMARK SMILES IDX 56 66 62 67 64 68 57 69 58 70 59 71 60 72 61 73 5 74 6 75
REMARK SMILES IDX 7 76 8 77 9 78 10 80 11 81 12 82 25 83 13 84 24 85 23 86
REMARK SMILES IDX 14 87 15 88 22 89 16 90 21 91 17 92 20 93 18 94 19 95
REMARK H PARENT 3 5 85 23 51 34 8 79
REMARK Flexibility Score: inf
ROOT
ATOM      1  C   UNL A   1      41.395  22.738  27.826  1.00  0.00     0.116 C 
ENDROOT
BRANCH   1   2
ATOM      2  N   UNL A   1      41.672  23.500  26.619  1.00  0.00    -0.352 N 
ATOM      3  O   UNL A   1      41.775  25.301  25.275  1.00  0.00    -0.269 OA
ATOM      4  C   UNL A   1      41.663  24.859  26.415  1.00  0.00     0.251 C 
ATOM      5  H   UNL A   1      41.901  22.961  25.827  1.00  0.00     0.163 HD
BRANCH   4   6
ATOM      6  C   UNL A   1      41.493  25.785  27.556  1.00  0.00     0.039 A 
ATOM      7  C   UNL A   1      40.315  25.797  28.308  1.00  0.00     0.014 A 
ATOM      8  C   UNL A   1      42.544  26.646  27.888  1.00  0.00     0.014 A 
ATOM      9  C   UNL A   1      40.133  26.759  29.300  1.00  0.00     0.010 A 
ATOM     10  C   UNL A   1      42.387  27.563  28.930  1.00  0.00     0.010 A 
ATOM     11  C   UNL A   1      41.169  27.649  29.623  1.00  0.00    -0.014 A 
BRANCH  11  12
ATOM     12  C   UNL A   1      40.990  28.648  30.707  1.00  0.00     0.031 A 
ATOM     13  C   UNL A   1      41.830  28.587  31.952  1.00  0.00     0.074 A 
ATOM     14  C   UNL A   1      40.044  29.598  30.576  1.00  0.00     0.049 A 
ATOM     15  N   UNL A   1      41.755  29.317  33.035  1.00  0.00    -0.248 NA
ATOM     16  C   UNL A   1      42.887  27.565  31.988  1.00  0.00     0.031 C 
ATOM     17  C   UNL A   1      39.168  29.758  29.415  1.00  0.00     0.029 A 
ATOM     18  N   UNL A   1      39.653  30.598  31.430  1.00  0.00    -0.354 N 
ATOM     19  C   UNL A   1      42.733  28.828  33.893  1.00  0.00     0.074 A 
ATOM     20  C   UNL A   1      43.377  27.726  33.210  1.00  0.00     0.031 C 
ATOM     21  C   UNL A   1      38.346  30.797  29.624  1.00  0.00     0.029 A 
ATOM     22  C   UNL A   1      38.597  31.338  30.957  1.00  0.00     0.049 A 
ATOM     23  H   UNL A   1      40.086  30.767  32.297  1.00  0.00     0.167 HD
ATOM     24  C   UNL A   1      43.064  29.262  35.134  1.00  0.00     0.037 A 
ATOM     25  C   UNL A   1      37.885  32.322  31.538  1.00  0.00     0.037 A 
ATOM     26  C   UNL A   1      42.422  30.366  35.801  1.00  0.00     0.049 A 
ATOM     27  C   UNL A   1      38.250  32.774  32.923  1.00  0.00     0.074 A 
ATOM     28  C   UNL A   1      42.705  30.903  37.044  1.00  0.00     0.029 A 
ATOM     29  N   UNL A   1      41.362  31.098  35.283  1.00  0.00    -0.354 N 
ATOM     30  N   UNL A   1      39.195  32.319  33.711  1.00  0.00    -0.248 NA
ATOM     31  C   UNL A   1      37.459  33.868  33.498  1.00  0.00     0.031 C 
ATOM     32  C   UNL A   1      41.789  31.931  37.296  1.00  0.00     0.029 A 
ATOM     33  C   UNL A   1      40.967  32.068  36.189  1.00  0.00     0.049 A 
ATOM     34  H   UNL A   1      40.951  30.949  34.401  1.00  0.00     0.167 HD
ATOM     35  C   UNL A   1      39.129  33.087  34.867  1.00  0.00     0.074 A 
ATOM     36  C   UNL A   1      38.051  34.037  34.674  1.00  0.00     0.031 C 
ATOM     37  C   UNL A   1      39.899  33.015  35.980  1.00  0.00     0.037 A 
BRANCH  24  38
ATOM     38  C   UNL A   1      44.148  28.515  35.864  1.00  0.00     0.058 A 
ATOM     39  C   UNL A   1      45.505  28.840  35.714  1.00  0.00     0.135 A 
ATOM     40  C   UNL A   1      43.822  27.457  36.730  1.00  0.00     0.135 A 
ATOM     41  F   UNL A   1      45.875  29.835  34.891  1.00  0.00    -0.206 F 
ATOM     42  C   UNL A   1      46.504  28.117  36.359  1.00  0.00     0.059 A 
ATOM     43  C   UNL A   1      44.802  26.737  37.406  1.00  0.00     0.059 A 
ATOM     44  F   UNL A   1      42.541  27.106  36.916  1.00  0.00    -0.206 F 
ATOM     45  C   UNL A   1      46.142  27.059  37.196  1.00  0.00     0.060 A 
BRANCH  45  46
ATOM     46  S   UNL A   1      47.447  26.100  37.993  1.00  0.00     0.124 S 
ATOM     47  O   UNL A   1      48.413  25.969  36.907  1.00  0.00    -0.237 OA
ATOM     48  O   UNL A   1      47.849  26.969  39.095  1.00  0.00    -0.237 OA
ATOM     49  O   UNL A   1      46.772  24.867  38.385  1.00  0.00    -0.744 OA
ENDBRANCH  45  46
ENDBRANCH  24  38
BRANCH  25  50
ATOM     50  C   UNL A   1      36.754  32.932  30.792  1.00  0.00     0.058 A 
ATOM     51  C   UNL A   1      35.427  32.637  31.124  1.00  0.00     0.135 A 
ATOM     52  C   UNL A   1      36.985  33.890  29.791  1.00  0.00     0.135 A 
ATOM     53  F   UNL A   1      35.159  31.725  32.070  1.00  0.00    -0.206 F 
ATOM     54  C   UNL A   1      34.362  33.276  30.497  1.00  0.00     0.059 A 
ATOM     55  C   UNL A   1      35.938  34.559  29.166  1.00  0.00     0.059 A 
ATOM     56  F   UNL A   1      38.241  34.219  29.452  1.00  0.00    -0.206 F 
ATOM     57  C   UNL A   1      34.629  34.245  29.528  1.00  0.00     0.060 A 
BRANCH  57  58
ATOM     58  S   UNL A   1      33.242  35.140  28.792  1.00  0.00     0.124 S 
ATOM     59  O   UNL A   1      32.646  34.113  27.946  1.00  0.00    -0.237 OA
ATOM     60  O   UNL A   1      32.469  35.527  29.969  1.00  0.00    -0.237 OA
ATOM     61  O   UNL A   1      33.891  36.242  28.088  1.00  0.00    -0.744 OA
ENDBRANCH  57  58
ENDBRANCH  25  50
BRANCH  37  62
ATOM     62  C   UNL A   1      39.639  34.015  37.071  1.00  0.00     0.058 A 
ATOM     63  C   UNL A   1      38.867  33.696  38.198  1.00  0.00     0.135 A 
ATOM     64  C   UNL A   1      40.246  35.282  37.026  1.00  0.00     0.135 A 
ATOM     65  F   UNL A   1      38.258  32.504  38.284  1.00  0.00    -0.206 F 
ATOM     66  C   UNL A   1      38.704  34.600  39.244  1.00  0.00     0.059 A 
ATOM     67  C   UNL A   1      40.114  36.192  38.069  1.00  0.00     0.059 A 
ATOM     68  F   UNL A   1      41.000  35.631  35.971  1.00  0.00    -0.206 F 
ATOM     69  C   UNL A   1      39.338  35.843  39.174  1.00  0.00     0.060 A 
BRANCH  69  70
ATOM     70  S   UNL A   1      39.176  36.980  40.567  1.00  0.00     0.124 S 
ATOM     71  O   UNL A   1      38.565  36.122  41.577  1.00  0.00    -0.237 OA
ATOM     72  O   UNL A   1      40.561  37.366  40.818  1.00  0.00    -0.237 OA
ATOM     73  O   UNL A   1      38.321  38.040  40.043  1.00  0.00    -0.744 OA
ENDBRANCH  69  70
ENDBRANCH  37  62
ENDBRANCH  11  12
ENDBRANCH   4   6
ENDBRANCH   1   2
BRANCH   1  74
ATOM     74  C   UNL A   1      42.247  21.478  27.940  1.00  0.00     0.023 C 
BRANCH  74  75
ATOM     75  C   UNL A   1      41.616  20.204  27.381  1.00  0.00     0.023 C 
BRANCH  75  76
ATOM     76  C   UNL A   1      41.861  19.942  25.899  1.00  0.00     0.116 C 
BRANCH  76  77
ATOM     77  N   UNL A   1      42.943  19.004  25.650  1.00  0.00    -0.351 N 
ATOM     78  C   UNL A   1      44.231  19.261  25.221  1.00  0.00     0.269 C 
ATOM     79  H   UNL A   1      42.730  18.057  25.808  1.00  0.00     0.163 HD
ATOM     80  O   UNL A   1      45.008  18.331  25.029  1.00  0.00    -0.268 OA
BRANCH  78  81
ATOM     81  C   UNL A   1      44.663  20.670  25.004  1.00  0.00     0.128 A 
ATOM     82  C   UNL A   1      45.176  21.404  26.064  1.00  0.00     0.043 A 
ATOM     83  N   UNL A   1      44.441  21.182  23.768  1.00  0.00    -0.251 NA
ATOM     84  C   UNL A   1      45.393  22.769  25.878  1.00  0.00    -0.004 A 
ATOM     85  C   UNL A   1      44.715  22.490  23.598  1.00  0.00     0.112 A 
ATOM     86  C   UNL A   1      45.166  23.318  24.612  1.00  0.00     0.030 A 
BRANCH  84  87
ATOM     87  C   UNL A   1      45.735  23.633  27.008  1.00  0.00     0.036 A 
ATOM     88  C   UNL A   1      44.991  23.871  28.146  1.00  0.00     0.029 A 
ATOM     89  S   UNL A   1      47.218  24.478  27.053  1.00  0.00    -0.135 S 
ATOM     90  C   UNL A   1      45.648  24.730  29.087  1.00  0.00    -0.007 A 
ATOM     91  C   UNL A   1      46.895  25.138  28.610  1.00  0.00     0.035 A 
ATOM     92  C   UNL A   1      45.234  25.183  30.361  1.00  0.00     0.009 A 
ATOM     93  C   UNL A   1      47.731  25.982  29.367  1.00  0.00     0.019 A 
ATOM     94  C   UNL A   1      46.060  26.021  31.116  1.00  0.00     0.001 A 
ATOM     95  C   UNL A   1      47.296  26.416  30.621  1.00  0.00     0.001 A 
ENDBRANCH  84  87
ENDBRANCH  78  81
ENDBRANCH  76  77
ENDBRANCH  75  76
ENDBRANCH  74  75
ENDBRANCH   1  74
TORSDOF 15
ENDMDL
