MODEL 1
REMARK VINA RESULT:     -12.5      0.000      0.000
REMARK SMILES Cc1ccc(-c2nc(C)c(C(=O)N3CCC(C(=O)NCCCCNC(=O)c4ccc(-c5c6nc(c(-c7c(F)cc(S(=O)(=O)[O-])cc7F)c7ccc([nH]7)c(-c7c(F)cc(S(=O)(=O)[O-])cc7F)c7nc(c(-c8c(F)cc(S(=O)(=O)[O-])cc8F)c8ccc5[nH]8)C=C7)C=C6)cc4)CC3)s2)o1
REMARK SMILES IDX 22 1 21 2 20 3 19 4 17 5 18 6 16 8 11 9 12 10 13 11 14 12
REMARK SMILES IDX 94 13 15 14 93 15 10 16 6 17 7 18 95 19 8 20 9 21 5 22 1 23
REMARK SMILES IDX 2 24 3 25 96 26 4 27 23 28 24 29 25 30 26 32 27 33 28 34
REMARK SMILES IDX 92 35 29 36 91 37 30 38 31 39 32 40 85 41 33 42 90 43 84 44
REMARK SMILES IDX 86 45 34 46 89 47 83 48 82 49 35 51 69 52 48 53 68 54 49 55
REMARK SMILES IDX 52 56 67 57 87 58 50 59 51 60 66 62 88 63 53 64 36 65 37 66
REMARK SMILES IDX 46 67 38 68 39 69 45 70 47 71 40 72 41 73 42 74 43 75 44 76
REMARK SMILES IDX 70 77 71 78 80 79 72 80 73 81 79 82 81 83 74 84 75 85 76 86
REMARK SMILES IDX 77 87 78 88 54 89 55 90 64 91 56 92 57 93 63 94 65 95 58 96
REMARK SMILES IDX 59 97 60 98 61 99 62 100
REMARK H PARENT 19 7 24 31 86 50 52 61
REMARK Flexibility Score: inf
ROOT
ATOM      1  C   UNL A   1      35.885  23.199  24.346  1.00  0.00     0.023 C 
ENDROOT
BRANCH   1   2
ATOM      2  C   UNL A   1      35.850  21.672  24.326  1.00  0.00     0.023 C 
BRANCH   2   3
ATOM      3  C   UNL A   1      35.199  21.036  25.551  1.00  0.00     0.116 C 
BRANCH   3   4
ATOM      4  N   UNL A   1      34.378  19.889  25.199  1.00  0.00    -0.356 N 
ATOM      5  C   UNL A   1      33.049  19.796  24.923  1.00  0.00     0.223 C 
ATOM      6  O   UNL A   1      32.584  18.688  24.648  1.00  0.00    -0.275 OA
ATOM      7  H   UNL A   1      34.866  19.034  25.154  1.00  0.00     0.163 HD
BRANCH   5   8
ATOM      8  C   UNL A   1      32.146  21.021  24.932  1.00  0.00     0.082 C 
ATOM      9  C   UNL A   1      32.544  25.085  24.621  1.00  0.00     0.265 C 
ATOM     10  O   UNL A   1      33.535  25.301  25.322  1.00  0.00    -0.268 OA
ATOM     11  N   UNL A   1      31.876  23.867  24.737  1.00  0.00    -0.338 N 
ATOM     12  C   UNL A   1      31.735  23.262  26.050  1.00  0.00     0.120 C 
ATOM     13  C   UNL A   1      31.430  23.070  23.603  1.00  0.00     0.120 C 
ATOM     14  C   UNL A   1      32.432  21.920  26.141  1.00  0.00     0.035 C 
ATOM     15  C   UNL A   1      32.150  21.728  23.566  1.00  0.00     0.035 C 
BRANCH   9  16
ATOM     16  C   UNL A   1      31.948  26.104  23.766  1.00  0.00     0.115 A 
ATOM     17  C   UNL A   1      30.411  27.762  22.870  1.00  0.00     0.159 A 
ATOM     18  N   UNL A   1      31.145  27.266  21.902  1.00  0.00    -0.237 NA
ATOM     19  S   UNL A   1      30.798  27.205  24.440  1.00  0.00    -0.105 S 
ATOM     20  C   UNL A   1      32.013  26.305  22.393  1.00  0.00     0.062 A 
ATOM     21  C   UNL A   1      32.812  25.579  21.372  1.00  0.00     0.068 C 
BRANCH  17  22
ATOM     22  C   UNL A   1      29.320  28.653  22.593  1.00  0.00     0.162 A 
ATOM     23  C   UNL A   1      28.171  31.427  20.631  1.00  0.00     0.087 C 
ATOM     24  C   UNL A   1      28.249  30.328  21.612  1.00  0.00     0.101 A 
ATOM     25  C   UNL A   1      27.373  29.800  22.532  1.00  0.00     0.046 A 
ATOM     26  O   UNL A   1      29.428  29.653  21.655  1.00  0.00    -0.459 OA
ATOM     27  C   UNL A   1      28.052  28.718  23.150  1.00  0.00     0.054 A 
ENDBRANCH  17  22
ENDBRANCH   9  16
ENDBRANCH   5   8
ENDBRANCH   3   4
ENDBRANCH   2   3
ENDBRANCH   1   2
BRANCH   1  28
ATOM     28  C   UNL A   1      37.085  23.809  25.060  1.00  0.00     0.116 C 
BRANCH  28  29
ATOM     29  N   UNL A   1      38.117  22.835  25.384  1.00  0.00    -0.352 N 
ATOM     30  C   UNL A   1      39.255  23.008  26.134  1.00  0.00     0.251 C 
ATOM     31  H   UNL A   1      37.982  21.932  25.016  1.00  0.00     0.163 HD
ATOM     32  O   UNL A   1      40.084  22.107  26.221  1.00  0.00    -0.269 OA
BRANCH  30  33
ATOM     33  C   UNL A   1      39.487  24.305  26.805  1.00  0.00     0.039 A 
ATOM     34  C   UNL A   1      38.978  24.501  28.090  1.00  0.00     0.014 A 
ATOM     35  C   UNL A   1      40.248  25.299  26.184  1.00  0.00     0.014 A 
ATOM     36  C   UNL A   1      39.291  25.671  28.783  1.00  0.00     0.010 A 
ATOM     37  C   UNL A   1      40.618  26.431  26.902  1.00  0.00     0.010 A 
ATOM     38  C   UNL A   1      40.146  26.627  28.209  1.00  0.00    -0.014 A 
BRANCH  38  39
ATOM     39  C   UNL A   1      40.566  27.836  28.963  1.00  0.00     0.031 A 
ATOM     40  C   UNL A   1      41.911  27.869  29.640  1.00  0.00     0.074 A 
ATOM     41  C   UNL A   1      39.709  28.867  29.103  1.00  0.00     0.049 A 
ATOM     42  N   UNL A   1      42.423  28.794  30.410  1.00  0.00    -0.248 NA
ATOM     43  C   UNL A   1      42.783  26.698  29.450  1.00  0.00     0.031 C 
ATOM     44  C   UNL A   1      38.355  28.928  28.544  1.00  0.00     0.029 A 
ATOM     45  N   UNL A   1      39.840  30.058  29.773  1.00  0.00    -0.354 N 
ATOM     46  C   UNL A   1      43.658  28.306  30.818  1.00  0.00     0.074 A 
ATOM     47  C   UNL A   1      43.806  26.989  30.241  1.00  0.00     0.031 C 
ATOM     48  C   UNL A   1      37.791  30.100  28.878  1.00  0.00     0.029 A 
ATOM     49  C   UNL A   1      38.723  30.860  29.704  1.00  0.00     0.049 A 
ATOM     50  H   UNL A   1      40.657  30.314  30.258  1.00  0.00     0.167 HD
ATOM     51  C   UNL A   1      44.592  28.911  31.589  1.00  0.00     0.037 A 
ATOM     52  C   UNL A   1      38.478  32.066  30.252  1.00  0.00     0.037 A 
ATOM     53  C   UNL A   1      44.463  30.245  32.113  1.00  0.00     0.049 A 
ATOM     54  C   UNL A   1      39.548  32.726  31.081  1.00  0.00     0.074 A 
ATOM     55  C   UNL A   1      45.397  30.983  32.820  1.00  0.00     0.029 A 
ATOM     56  N   UNL A   1      43.335  31.040  31.987  1.00  0.00    -0.354 N 
ATOM     57  N   UNL A   1      40.746  32.285  31.382  1.00  0.00    -0.248 NA
ATOM     58  C   UNL A   1      39.235  34.047  31.642  1.00  0.00     0.031 C 
ATOM     59  C   UNL A   1      44.818  32.210  33.157  1.00  0.00     0.029 A 
ATOM     60  C   UNL A   1      43.540  32.253  32.624  1.00  0.00     0.049 A 
ATOM     61  H   UNL A   1      42.510  30.782  31.516  1.00  0.00     0.167 HD
ATOM     62  C   UNL A   1      41.340  33.290  32.137  1.00  0.00     0.074 A 
ATOM     63  C   UNL A   1      40.375  34.364  32.240  1.00  0.00     0.031 C 
ATOM     64  C   UNL A   1      42.575  33.321  32.697  1.00  0.00     0.037 A 
BRANCH  51  65
ATOM     65  C   UNL A   1      45.848  28.150  31.908  1.00  0.00     0.058 A 
ATOM     66  C   UNL A   1      46.988  28.236  31.096  1.00  0.00     0.135 A 
ATOM     67  C   UNL A   1      45.936  27.387  33.083  1.00  0.00     0.135 A 
ATOM     68  F   UNL A   1      46.953  28.938  29.952  1.00  0.00    -0.206 F 
ATOM     69  C   UNL A   1      48.171  27.585  31.431  1.00  0.00     0.059 A 
ATOM     70  C   UNL A   1      47.115  26.747  33.452  1.00  0.00     0.059 A 
ATOM     71  F   UNL A   1      44.871  27.269  33.894  1.00  0.00    -0.206 F 
ATOM     72  C   UNL A   1      48.225  26.847  32.616  1.00  0.00     0.060 A 
BRANCH  72  73
ATOM     73  S   UNL A   1      49.780  26.044  33.060  1.00  0.00     0.124 S 
ATOM     74  O   UNL A   1      49.716  26.072  34.518  1.00  0.00    -0.237 OA
ATOM     75  O   UNL A   1      49.638  24.728  32.445  1.00  0.00    -0.237 OA
ATOM     76  O   UNL A   1      50.793  26.907  32.460  1.00  0.00    -0.744 OA
ENDBRANCH  72  73
ENDBRANCH  51  65
BRANCH  52  77
ATOM     77  C   UNL A   1      37.172  32.745  30.030  1.00  0.00     0.058 A 
ATOM     78  C   UNL A   1      37.009  33.665  28.983  1.00  0.00     0.135 A 
ATOM     79  C   UNL A   1      36.078  32.517  30.877  1.00  0.00     0.135 A 
ATOM     80  F   UNL A   1      38.029  33.920  28.150  1.00  0.00    -0.206 F 
ATOM     81  C   UNL A   1      35.819  34.363  28.805  1.00  0.00     0.059 A 
ATOM     82  C   UNL A   1      34.869  33.183  30.703  1.00  0.00     0.059 A 
ATOM     83  F   UNL A   1      36.175  31.632  31.881  1.00  0.00    -0.206 F 
ATOM     84  C   UNL A   1      34.756  34.120  29.676  1.00  0.00     0.060 A 
BRANCH  84  85
ATOM     85  S   UNL A   1      33.213  35.028  29.437  1.00  0.00     0.124 S 
ATOM     86  O   UNL A   1      33.704  36.327  28.993  1.00  0.00    -0.237 OA
ATOM     87  O   UNL A   1      32.533  34.222  28.428  1.00  0.00    -0.237 OA
ATOM     88  O   UNL A   1      32.603  35.001  30.763  1.00  0.00    -0.744 OA
ENDBRANCH  84  85
ENDBRANCH  52  77
BRANCH  64  89
ATOM     89  C   UNL A   1      42.974  34.571  33.428  1.00  0.00     0.058 A 
ATOM     90  C   UNL A   1      42.865  34.676  34.823  1.00  0.00     0.135 A 
ATOM     91  C   UNL A   1      43.521  35.657  32.726  1.00  0.00     0.135 A 
ATOM     92  F   UNL A   1      42.342  33.667  35.537  1.00  0.00    -0.206 F 
ATOM     93  C   UNL A   1      43.267  35.824  35.497  1.00  0.00     0.059 A 
ATOM     94  C   UNL A   1      43.954  36.805  33.383  1.00  0.00     0.059 A 
ATOM     95  F   UNL A   1      43.657  35.602  31.392  1.00  0.00    -0.206 F 
ATOM     96  C   UNL A   1      43.811  36.884  34.768  1.00  0.00     0.060 A 
BRANCH  96  97
ATOM     97  S   UNL A   1      44.363  38.355  35.656  1.00  0.00     0.124 S 
ATOM     98  O   UNL A   1      43.862  39.421  34.797  1.00  0.00    -0.237 OA
ATOM     99  O   UNL A   1      43.695  38.212  36.946  1.00  0.00    -0.237 OA
ATOM    100  O   UNL A   1      45.816  38.205  35.690  1.00  0.00    -0.744 OA
ENDBRANCH  96  97
ENDBRANCH  64  89
ENDBRANCH  38  39
ENDBRANCH  30  33
ENDBRANCH  28  29
ENDBRANCH   1  28
TORSDOF 16
ENDMDL
MODEL 2
REMARK VINA RESULT:     -12.3      4.889     10.798
REMARK SMILES Cc1ccc(-c2nc(C)c(C(=O)N3CCC(C(=O)NCCCCNC(=O)c4ccc(-c5c6nc(c(-c7c(F)cc(S(=O)(=O)[O-])cc7F)c7ccc([nH]7)c(-c7c(F)cc(S(=O)(=O)[O-])cc7F)c7nc(c(-c8c(F)cc(S(=O)(=O)[O-])cc8F)c8ccc5[nH]8)C=C7)C=C6)cc4)CC3)s2)o1
REMARK SMILES IDX 22 1 21 2 20 3 19 4 17 5 18 6 16 8 11 9 12 10 13 11 14 12
REMARK SMILES IDX 94 13 15 14 93 15 10 16 6 17 7 18 95 19 8 20 9 21 5 22 1 23
REMARK SMILES IDX 2 24 3 25 96 26 4 27 23 28 24 29 25 30 26 32 27 33 28 34
REMARK SMILES IDX 92 35 29 36 91 37 30 38 31 39 32 40 85 41 33 42 90 43 84 44
REMARK SMILES IDX 86 45 34 46 89 47 83 48 82 49 35 51 69 52 48 53 68 54 49 55
REMARK SMILES IDX 52 56 67 57 87 58 50 59 51 60 66 62 88 63 53 64 36 65 37 66
REMARK SMILES IDX 46 67 38 68 39 69 45 70 47 71 40 72 41 73 42 74 43 75 44 76
REMARK SMILES IDX 70 77 71 78 80 79 72 80 73 81 79 82 81 83 74 84 75 85 76 86
REMARK SMILES IDX 77 87 78 88 54 89 55 90 64 91 56 92 57 93 63 94 65 95 58 96
REMARK SMILES IDX 59 97 60 98 61 99 62 100
REMARK H PARENT 19 7 24 31 86 50 52 61
REMARK Flexibility Score: inf
ROOT
ATOM      1  C   UNL A   1      34.737  32.304  27.903  1.00  0.00     0.023 C 
ENDROOT
BRANCH   1   2
ATOM      2  C   UNL A   1      33.407  31.668  27.507  1.00  0.00     0.023 C 
BRANCH   2   3
ATOM      3  C   UNL A   1      33.478  30.170  27.225  1.00  0.00     0.116 C 
BRANCH   3   4
ATOM      4  N   UNL A   1      33.389  29.877  25.804  1.00  0.00    -0.356 N 
ATOM      5  C   UNL A   1      33.230  28.696  25.146  1.00  0.00     0.223 C 
ATOM      6  O   UNL A   1      33.183  28.715  23.914  1.00  0.00    -0.275 OA
ATOM      7  H   UNL A   1      33.456  30.666  25.218  1.00  0.00     0.163 HD
BRANCH   5   8
ATOM      8  C   UNL A   1      33.092  27.380  25.895  1.00  0.00     0.082 C 
ATOM      9  C   UNL A   1      31.959  23.529  25.081  1.00  0.00     0.265 C 
ATOM     10  O   UNL A   1      30.971  23.699  24.364  1.00  0.00    -0.268 OA
ATOM     11  N   UNL A   1      32.437  24.590  25.848  1.00  0.00    -0.338 N 
ATOM     12  C   UNL A   1      31.487  25.499  26.467  1.00  0.00     0.120 C 
ATOM     13  C   UNL A   1      33.844  24.949  25.958  1.00  0.00     0.120 C 
ATOM     14  C   UNL A   1      31.631  26.917  25.953  1.00  0.00     0.035 C 
ATOM     15  C   UNL A   1      34.097  26.335  25.381  1.00  0.00     0.035 C 
BRANCH   9  16
ATOM     16  C   UNL A   1      32.578  22.224  25.274  1.00  0.00     0.115 A 
ATOM     17  C   UNL A   1      33.136  19.870  25.028  1.00  0.00     0.159 A 
ATOM     18  N   UNL A   1      33.407  20.267  26.249  1.00  0.00    -0.237 NA
ATOM     19  S   UNL A   1      32.589  21.094  23.967  1.00  0.00    -0.105 S 
ATOM     20  C   UNL A   1      33.077  21.602  26.412  1.00  0.00     0.062 A 
ATOM     21  C   UNL A   1      33.222  22.137  27.790  1.00  0.00     0.068 C 
BRANCH  17  22
ATOM     22  C   UNL A   1      33.232  18.486  24.659  1.00  0.00     0.162 A 
ATOM     23  C   UNL A   1      32.508  15.101  25.597  1.00  0.00     0.087 C 
ATOM     24  C   UNL A   1      32.983  16.293  24.871  1.00  0.00     0.101 A 
ATOM     25  C   UNL A   1      33.629  16.491  23.673  1.00  0.00     0.046 A 
ATOM     26  O   UNL A   1      32.756  17.488  25.477  1.00  0.00    -0.459 OA
ATOM     27  C   UNL A   1      33.775  17.895  23.529  1.00  0.00     0.054 A 
ENDBRANCH  17  22
ENDBRANCH   9  16
ENDBRANCH   5   8
ENDBRANCH   3   4
ENDBRANCH   2   3
ENDBRANCH   1   2
BRANCH   1  28
ATOM     28  C   UNL A   1      35.782  31.337  28.446  1.00  0.00     0.116 C 
BRANCH  28  29
ATOM     29  N   UNL A   1      35.597  31.022  29.854  1.00  0.00    -0.352 N 
ATOM     30  C   UNL A   1      36.503  30.495  30.742  1.00  0.00     0.251 C 
ATOM     31  H   UNL A   1      34.702  31.212  30.220  1.00  0.00     0.163 HD
ATOM     32  O   UNL A   1      36.151  30.185  31.876  1.00  0.00    -0.269 OA
BRANCH  30  33
ATOM     33  C   UNL A   1      37.896  30.270  30.304  1.00  0.00     0.039 A 
ATOM     34  C   UNL A   1      38.865  29.966  31.262  1.00  0.00     0.014 A 
ATOM     35  C   UNL A   1      38.229  30.310  28.947  1.00  0.00     0.014 A 
ATOM     36  C   UNL A   1      40.156  29.632  30.853  1.00  0.00     0.010 A 
ATOM     37  C   UNL A   1      39.495  29.907  28.537  1.00  0.00     0.010 A 
ATOM     38  C   UNL A   1      40.471  29.562  29.485  1.00  0.00    -0.014 A 
BRANCH  38  39
ATOM     39  C   UNL A   1      41.812  29.121  29.025  1.00  0.00     0.031 A 
ATOM     40  C   UNL A   1      42.939  30.114  28.932  1.00  0.00     0.074 A 
ATOM     41  C   UNL A   1      41.993  27.848  28.618  1.00  0.00     0.049 A 
ATOM     42  N   UNL A   1      44.153  29.943  28.476  1.00  0.00    -0.248 NA
ATOM     43  C   UNL A   1      42.657  31.488  29.383  1.00  0.00     0.031 C 
ATOM     44  C   UNL A   1      40.962  26.806  28.604  1.00  0.00     0.029 A 
ATOM     45  N   UNL A   1      43.105  27.214  28.120  1.00  0.00    -0.354 N 
ATOM     46  C   UNL A   1      44.767  31.187  28.559  1.00  0.00     0.074 A 
ATOM     47  C   UNL A   1      43.783  32.113  29.073  1.00  0.00     0.031 C 
ATOM     48  C   UNL A   1      41.495  25.663  28.141  1.00  0.00     0.029 A 
ATOM     49  C   UNL A   1      42.891  25.895  27.790  1.00  0.00     0.049 A 
ATOM     50  H   UNL A   1      43.974  27.663  28.009  1.00  0.00     0.167 HD
ATOM     51  C   UNL A   1      46.042  31.521  28.250  1.00  0.00     0.037 A 
ATOM     52  C   UNL A   1      43.726  24.982  27.259  1.00  0.00     0.037 A 
ATOM     53  C   UNL A   1      47.033  30.583  27.793  1.00  0.00     0.049 A 
ATOM     54  C   UNL A   1      45.147  25.376  26.953  1.00  0.00     0.074 A 
ATOM     55  C   UNL A   1      48.377  30.805  27.551  1.00  0.00     0.029 A 
ATOM     56  N   UNL A   1      46.789  29.248  27.511  1.00  0.00    -0.354 N 
ATOM     57  N   UNL A   1      45.734  26.537  27.121  1.00  0.00    -0.248 NA
ATOM     58  C   UNL A   1      46.019  24.337  26.389  1.00  0.00     0.031 C 
ATOM     59  C   UNL A   1      48.939  29.612  27.082  1.00  0.00     0.029 A 
ATOM     60  C   UNL A   1      47.953  28.638  27.074  1.00  0.00     0.049 A 
ATOM     61  H   UNL A   1      45.919  28.799  27.606  1.00  0.00     0.167 HD
ATOM     62  C   UNL A   1      47.052  26.356  26.717  1.00  0.00     0.074 A 
ATOM     63  C   UNL A   1      47.179  24.975  26.304  1.00  0.00     0.031 C 
ATOM     64  C   UNL A   1      48.067  27.255  26.689  1.00  0.00     0.037 A 
BRANCH  51  65
ATOM     65  C   UNL A   1      46.456  32.957  28.407  1.00  0.00     0.058 A 
ATOM     66  C   UNL A   1      46.999  33.441  29.607  1.00  0.00     0.135 A 
ATOM     67  C   UNL A   1      46.380  33.840  27.319  1.00  0.00     0.135 A 
ATOM     68  F   UNL A   1      47.078  32.644  30.684  1.00  0.00    -0.206 F 
ATOM     69  C   UNL A   1      47.443  34.754  29.726  1.00  0.00     0.059 A 
ATOM     70  C   UNL A   1      46.841  35.150  27.406  1.00  0.00     0.059 A 
ATOM     71  F   UNL A   1      45.864  33.428  26.148  1.00  0.00    -0.206 F 
ATOM     72  C   UNL A   1      47.366  35.599  28.617  1.00  0.00     0.060 A 
BRANCH  72  73
ATOM     73  S   UNL A   1      47.988  37.286  28.774  1.00  0.00     0.124 S 
ATOM     74  O   UNL A   1      49.298  37.059  29.377  1.00  0.00    -0.237 OA
ATOM     75  O   UNL A   1      48.000  37.745  27.389  1.00  0.00    -0.237 OA
ATOM     76  O   UNL A   1      47.005  37.933  29.638  1.00  0.00    -0.744 OA
ENDBRANCH  72  73
ENDBRANCH  51  65
BRANCH  52  77
ATOM     77  C   UNL A   1      43.255  23.595  26.988  1.00  0.00     0.058 A 
ATOM     78  C   UNL A   1      43.132  22.662  28.029  1.00  0.00     0.135 A 
ATOM     79  C   UNL A   1      42.954  23.167  25.687  1.00  0.00     0.135 A 
ATOM     80  F   UNL A   1      43.414  23.023  29.290  1.00  0.00    -0.206 F 
ATOM     81  C   UNL A   1      42.764  21.342  27.785  1.00  0.00     0.059 A 
ATOM     82  C   UNL A   1      42.559  21.860  25.422  1.00  0.00     0.059 A 
ATOM     83  F   UNL A   1      43.036  24.026  24.659  1.00  0.00    -0.206 F 
ATOM     84  C   UNL A   1      42.486  20.949  26.476  1.00  0.00     0.060 A 
BRANCH  84  85
ATOM     85  S   UNL A   1      42.007  19.236  26.167  1.00  0.00     0.124 S 
ATOM     86  O   UNL A   1      42.820  18.910  25.002  1.00  0.00    -0.237 OA
ATOM     87  O   UNL A   1      42.384  18.579  27.415  1.00  0.00    -0.237 OA
ATOM     88  O   UNL A   1      40.570  19.330  25.929  1.00  0.00    -0.744 OA
ENDBRANCH  84  85
ENDBRANCH  52  77
BRANCH  64  89
ATOM     89  C   UNL A   1      49.414  26.764  26.243  1.00  0.00     0.058 A 
ATOM     90  C   UNL A   1      49.899  27.012  24.950  1.00  0.00     0.135 A 
ATOM     91  C   UNL A   1      50.253  26.083  27.141  1.00  0.00     0.135 A 
ATOM     92  F   UNL A   1      49.134  27.654  24.053  1.00  0.00    -0.206 F 
ATOM     93  C   UNL A   1      51.162  26.583  24.554  1.00  0.00     0.059 A 
ATOM     94  C   UNL A   1      51.529  25.668  26.774  1.00  0.00     0.059 A 
ATOM     95  F   UNL A   1      49.840  25.830  28.393  1.00  0.00    -0.206 F 
ATOM     96  C   UNL A   1      51.970  25.913  25.475  1.00  0.00     0.060 A 
BRANCH  96  97
ATOM     97  S   UNL A   1      53.621  25.393  24.962  1.00  0.00     0.124 S 
ATOM     98  O   UNL A   1      53.566  25.618  23.523  1.00  0.00    -0.237 OA
ATOM     99  O   UNL A   1      54.484  26.300  25.715  1.00  0.00    -0.237 OA
ATOM    100  O   UNL A   1      53.680  23.994  25.378  1.00  0.00    -0.744 OA
ENDBRANCH  96  97
ENDBRANCH  64  89
ENDBRANCH  38  39
ENDBRANCH  30  33
ENDBRANCH  28  29
ENDBRANCH   1  28
TORSDOF 16
ENDMDL
MODEL 3
REMARK VINA RESULT:     -12.3      4.688     10.706
REMARK SMILES Cc1ccc(-c2nc(C)c(C(=O)N3CCC(C(=O)NCCCCNC(=O)c4ccc(-c5c6nc(c(-c7c(F)cc(S(=O)(=O)[O-])cc7F)c7ccc([nH]7)c(-c7c(F)cc(S(=O)(=O)[O-])cc7F)c7nc(c(-c8c(F)cc(S(=O)(=O)[O-])cc8F)c8ccc5[nH]8)C=C7)C=C6)cc4)CC3)s2)o1
REMARK SMILES IDX 22 1 21 2 20 3 19 4 17 5 18 6 16 8 11 9 12 10 13 11 14 12
REMARK SMILES IDX 94 13 15 14 93 15 10 16 6 17 7 18 95 19 8 20 9 21 5 22 1 23
REMARK SMILES IDX 2 24 3 25 96 26 4 27 23 28 24 29 25 30 26 32 27 33 28 34
REMARK SMILES IDX 92 35 29 36 91 37 30 38 31 39 32 40 85 41 33 42 90 43 84 44
REMARK SMILES IDX 86 45 34 46 89 47 83 48 82 49 35 51 69 52 48 53 68 54 49 55
REMARK SMILES IDX 52 56 67 57 87 58 50 59 51 60 66 62 88 63 53 64 36 65 37 66
REMARK SMILES IDX 46 67 38 68 39 69 45 70 47 71 40 72 41 73 42 74 43 75 44 76
REMARK SMILES IDX 70 77 71 78 80 79 72 80 73 81 79 82 81 83 74 84 75 85 76 86
REMARK SMILES IDX 77 87 78 88 54 89 55 90 64 91 56 92 57 93 63 94 65 95 58 96
REMARK SMILES IDX 59 97 60 98 61 99 62 100
REMARK H PARENT 19 7 24 31 86 50 52 61
REMARK Flexibility Score: inf
ROOT
ATOM      1  C   UNL A   1      34.268  28.901  26.672  1.00  0.00     0.023 C 
ENDROOT
BRANCH   1   2
ATOM      2  C   UNL A   1      33.243  29.777  25.955  1.00  0.00     0.023 C 
BRANCH   2   3
ATOM      3  C   UNL A   1      31.864  29.142  25.796  1.00  0.00     0.116 C 
BRANCH   3   4
ATOM      4  N   UNL A   1      31.148  29.672  24.649  1.00  0.00    -0.356 N 
ATOM      5  C   UNL A   1      30.898  29.130  23.426  1.00  0.00     0.223 C 
ATOM      6  O   UNL A   1      30.255  29.795  22.611  1.00  0.00    -0.275 OA
ATOM      7  H   UNL A   1      30.781  30.578  24.777  1.00  0.00     0.163 HD
BRANCH   5   8
ATOM      8  C   UNL A   1      31.377  27.733  23.061  1.00  0.00     0.082 C 
ATOM      9  C   UNL A   1      33.599  24.746  24.768  1.00  0.00     0.265 C 
ATOM     10  O   UNL A   1      34.526  25.376  25.282  1.00  0.00    -0.268 OA
ATOM     11  N   UNL A   1      32.807  25.362  23.801  1.00  0.00    -0.338 N 
ATOM     12  C   UNL A   1      33.430  26.257  22.842  1.00  0.00     0.120 C 
ATOM     13  C   UNL A   1      31.352  25.288  23.771  1.00  0.00     0.120 C 
ATOM     14  C   UNL A   1      32.906  27.674  22.955  1.00  0.00     0.035 C 
ATOM     15  C   UNL A   1      30.736  26.667  23.966  1.00  0.00     0.035 C 
BRANCH   9  16
ATOM     16  C   UNL A   1      33.374  23.329  25.024  1.00  0.00     0.115 A 
ATOM     17  C   UNL A   1      33.226  20.919  24.728  1.00  0.00     0.159 A 
ATOM     18  N   UNL A   1      32.404  21.303  25.677  1.00  0.00    -0.237 NA
ATOM     19  S   UNL A   1      34.206  22.155  24.068  1.00  0.00    -0.105 S 
ATOM     20  C   UNL A   1      32.462  22.677  25.845  1.00  0.00     0.062 A 
ATOM     21  C   UNL A   1      31.485  23.248  26.807  1.00  0.00     0.068 C 
BRANCH  17  22
ATOM     22  C   UNL A   1      33.228  19.566  24.250  1.00  0.00     0.162 A 
ATOM     23  C   UNL A   1      34.574  16.268  24.666  1.00  0.00     0.087 C 
ATOM     24  C   UNL A   1      33.816  17.431  24.166  1.00  0.00     0.101 A 
ATOM     25  C   UNL A   1      32.909  17.618  23.150  1.00  0.00     0.046 A 
ATOM     26  O   UNL A   1      34.026  18.602  24.822  1.00  0.00    -0.459 OA
ATOM     27  C   UNL A   1      32.519  18.981  23.213  1.00  0.00     0.054 A 
ENDBRANCH  17  22
ENDBRANCH   9  16
ENDBRANCH   5   8
ENDBRANCH   3   4
ENDBRANCH   2   3
ENDBRANCH   1   2
BRANCH   1  28
ATOM     28  C   UNL A   1      35.433  29.653  27.304  1.00  0.00     0.116 C 
BRANCH  28  29
ATOM     29  N   UNL A   1      35.227  29.952  28.713  1.00  0.00    -0.352 N 
ATOM     30  C   UNL A   1      36.154  29.993  29.726  1.00  0.00     0.251 C 
ATOM     31  H   UNL A   1      34.299  30.153  28.976  1.00  0.00     0.163 HD
ATOM     32  O   UNL A   1      35.796  30.155  30.889  1.00  0.00    -0.269 OA
BRANCH  30  33
ATOM     33  C   UNL A   1      37.584  29.802  29.404  1.00  0.00     0.039 A 
ATOM     34  C   UNL A   1      38.487  29.582  30.445  1.00  0.00     0.014 A 
ATOM     35  C   UNL A   1      38.017  29.790  28.075  1.00  0.00     0.014 A 
ATOM     36  C   UNL A   1      39.817  29.279  30.150  1.00  0.00     0.010 A 
ATOM     37  C   UNL A   1      39.325  29.417  27.781  1.00  0.00     0.010 A 
ATOM     38  C   UNL A   1      40.237  29.156  28.815  1.00  0.00    -0.014 A 
BRANCH  38  39
ATOM     39  C   UNL A   1      41.624  28.745  28.478  1.00  0.00     0.031 A 
ATOM     40  C   UNL A   1      42.721  29.775  28.428  1.00  0.00     0.074 A 
ATOM     41  C   UNL A   1      41.878  27.464  28.143  1.00  0.00     0.049 A 
ATOM     42  N   UNL A   1      43.972  29.630  28.074  1.00  0.00    -0.248 NA
ATOM     43  C   UNL A   1      42.359  31.154  28.795  1.00  0.00     0.031 C 
ATOM     44  C   UNL A   1      40.887  26.385  28.097  1.00  0.00     0.029 A 
ATOM     45  N   UNL A   1      43.046  26.852  27.759  1.00  0.00    -0.354 N 
ATOM     46  C   UNL A   1      44.536  30.897  28.148  1.00  0.00     0.074 A 
ATOM     47  C   UNL A   1      43.484  31.807  28.545  1.00  0.00     0.031 C 
ATOM     48  C   UNL A   1      41.492  25.245  27.726  1.00  0.00     0.029 A 
ATOM     49  C   UNL A   1      42.903  25.513  27.473  1.00  0.00     0.049 A 
ATOM     50  H   UNL A   1      43.905  27.327  27.695  1.00  0.00     0.167 HD
ATOM     51  C   UNL A   1      45.819  31.265  27.923  1.00  0.00     0.037 A 
ATOM     52  C   UNL A   1      43.806  24.610  27.047  1.00  0.00     0.037 A 
ATOM     53  C   UNL A   1      46.873  30.346  27.585  1.00  0.00     0.049 A 
ATOM     54  C   UNL A   1      45.233  25.043  26.834  1.00  0.00     0.074 A 
ATOM     55  C   UNL A   1      48.224  30.607  27.436  1.00  0.00     0.029 A 
ATOM     56  N   UNL A   1      46.697  28.992  27.344  1.00  0.00    -0.354 N 
ATOM     57  N   UNL A   1      45.765  26.230  26.995  1.00  0.00    -0.248 NA
ATOM     58  C   UNL A   1      46.181  24.014  26.384  1.00  0.00     0.031 C 
ATOM     59  C   UNL A   1      48.859  29.417  27.065  1.00  0.00     0.029 A 
ATOM     60  C   UNL A   1      47.911  28.408  27.024  1.00  0.00     0.049 A 
ATOM     61  H   UNL A   1      45.837  28.516  27.392  1.00  0.00     0.167 HD
ATOM     62  C   UNL A   1      47.116  26.082  26.700  1.00  0.00     0.074 A 
ATOM     63  C   UNL A   1      47.321  24.690  26.360  1.00  0.00     0.031 C 
ATOM     64  C   UNL A   1      48.100  27.015  26.710  1.00  0.00     0.037 A 
BRANCH  51  65
ATOM     65  C   UNL A   1      46.171  32.721  28.048  1.00  0.00     0.058 A 
ATOM     66  C   UNL A   1      45.938  33.628  27.004  1.00  0.00     0.135 A 
ATOM     67  C   UNL A   1      46.677  33.226  29.256  1.00  0.00     0.135 A 
ATOM     68  F   UNL A   1      45.472  33.194  25.822  1.00  0.00    -0.206 F 
ATOM     69  C   UNL A   1      46.202  34.986  27.149  1.00  0.00     0.059 A 
ATOM     70  C   UNL A   1      46.926  34.584  29.433  1.00  0.00     0.059 A 
ATOM     71  F   UNL A   1      46.922  32.399  30.286  1.00  0.00    -0.206 F 
ATOM     72  C   UNL A   1      46.690  35.455  28.370  1.00  0.00     0.060 A 
BRANCH  72  73
ATOM     73  S   UNL A   1      46.987  37.226  28.557  1.00  0.00     0.124 S 
ATOM     74  O   UNL A   1      45.978  37.587  29.548  1.00  0.00    -0.237 OA
ATOM     75  O   UNL A   1      48.370  37.264  29.018  1.00  0.00    -0.237 OA
ATOM     76  O   UNL A   1      46.762  37.753  27.214  1.00  0.00    -0.744 OA
ENDBRANCH  72  73
ENDBRANCH  51  65
BRANCH  52  77
ATOM     77  C   UNL A   1      43.404  23.197  26.803  1.00  0.00     0.058 A 
ATOM     78  C   UNL A   1      43.140  22.329  27.874  1.00  0.00     0.135 A 
ATOM     79  C   UNL A   1      43.312  22.679  25.503  1.00  0.00     0.135 A 
ATOM     80  F   UNL A   1      43.221  22.778  29.136  1.00  0.00    -0.206 F 
ATOM     81  C   UNL A   1      42.835  20.988  27.667  1.00  0.00     0.059 A 
ATOM     82  C   UNL A   1      42.982  21.347  25.270  1.00  0.00     0.059 A 
ATOM     83  F   UNL A   1      43.535  23.471  24.444  1.00  0.00    -0.206 F 
ATOM     84  C   UNL A   1      42.765  20.504  26.360  1.00  0.00     0.060 A 
BRANCH  84  85
ATOM     85  S   UNL A   1      42.366  18.763  26.099  1.00  0.00     0.124 S 
ATOM     86  O   UNL A   1      40.952  18.836  25.751  1.00  0.00    -0.237 OA
ATOM     87  O   UNL A   1      43.273  18.396  25.016  1.00  0.00    -0.237 OA
ATOM     88  O   UNL A   1      42.669  18.155  27.391  1.00  0.00    -0.744 OA
ENDBRANCH  84  85
ENDBRANCH  52  77
BRANCH  64  89
ATOM     89  C   UNL A   1      49.494  26.556  26.391  1.00  0.00     0.058 A 
ATOM     90  C   UNL A   1      50.339  26.024  27.376  1.00  0.00     0.135 A 
ATOM     91  C   UNL A   1      49.969  26.599  25.070  1.00  0.00     0.135 A 
ATOM     92  F   UNL A   1      49.934  25.967  28.655  1.00  0.00    -0.206 F 
ATOM     93  C   UNL A   1      51.617  25.570  27.067  1.00  0.00     0.059 A 
ATOM     94  C   UNL A   1      51.233  26.126  24.734  1.00  0.00     0.059 A 
ATOM     95  F   UNL A   1      49.195  27.088  24.088  1.00  0.00    -0.206 F 
ATOM     96  C   UNL A   1      52.055  25.624  25.742  1.00  0.00     0.060 A 
BRANCH  96  97
ATOM     97  S   UNL A   1      53.701  24.998  25.346  1.00  0.00     0.124 S 
ATOM     98  O   UNL A   1      54.463  25.418  26.516  1.00  0.00    -0.237 OA
ATOM     99  O   UNL A   1      53.469  23.562  25.221  1.00  0.00    -0.237 OA
ATOM    100  O   UNL A   1      54.033  25.683  24.100  1.00  0.00    -0.744 OA
ENDBRANCH  96  97
ENDBRANCH  64  89
ENDBRANCH  38  39
ENDBRANCH  30  33
ENDBRANCH  28  29
ENDBRANCH   1  28
TORSDOF 16
ENDMDL
