MODEL 1
REMARK VINA RESULT:     -10.5      0.000      0.000
REMARK SMILES C[C@H](C[N@H+](C)[C@H]1CC[C@H]([NH3+])CC1)C(=O)NCCCCNC(=O)c1ccc(-c2c3nc(c(-c4c(F)cc(S(=O)(=O)[O-])cc4F)c4ccc([nH]4)c(-c4c(F)cc(S(=O)(=O)[O-])cc4F)c4nc(c(-c5c(F)cc(S(=O)(=O)[O-])cc5F)c5ccc2[nH]5)C=C4)C=C3)cc1
REMARK SMILES IDX 17 1 16 2 15 3 13 4 14 5 2 7 1 8 3 9 4 10 5 11 6 13 7 14
REMARK SMILES IDX 12 15 8 16 11 17 9 18 10 19 18 23 19 24 20 25 21 26 22 28
REMARK SMILES IDX 23 29 24 30 88 31 25 32 87 33 26 34 27 35 28 36 81 37 29 38
REMARK SMILES IDX 86 39 80 40 82 41 30 42 85 43 79 44 78 45 31 47 65 48 44 49
REMARK SMILES IDX 64 50 45 51 48 52 63 53 83 54 46 55 47 56 62 58 84 59 49 60
REMARK SMILES IDX 32 61 33 62 42 63 34 64 35 65 41 66 43 67 36 68 37 69 38 70
REMARK SMILES IDX 39 71 40 72 66 73 67 74 76 75 68 76 69 77 75 78 77 79 70 80
REMARK SMILES IDX 71 81 72 82 73 83 74 84 50 85 51 86 60 87 52 88 53 89 59 90
REMARK SMILES IDX 61 91 54 92 55 93 56 94 57 95 58 96
REMARK H PARENT 15 6 4 12 10 20 10 21 10 22 20 27 82 46 48 57
REMARK Flexibility Score: inf
ROOT
ATOM      1  C   UNL A   1      33.026  29.261  24.874  1.00  0.00     0.023 C 
ENDROOT
BRANCH   1   2
ATOM      2  C   UNL A   1      32.990  28.481  23.552  1.00  0.00     0.116 C 
BRANCH   2   3
ATOM      3  N   UNL A   1      33.352  27.103  23.835  1.00  0.00    -0.356 N 
ATOM      4  C   UNL A   1      33.492  26.135  22.861  1.00  0.00     0.228 C 
ATOM      5  O   UNL A   1      33.814  26.392  21.708  1.00  0.00    -0.275 OA
ATOM      6  H   UNL A   1      33.507  26.845  24.772  1.00  0.00     0.163 HD
BRANCH   4   7
ATOM      7  C   UNL A   1      33.146  24.733  23.370  1.00  0.00     0.130 C 
ATOM      8  C   UNL A   1      31.824  24.169  22.855  1.00  0.00     0.024 C 
BRANCH   7   9
ATOM      9  C   UNL A   1      33.278  24.641  24.916  1.00  0.00     0.275 C 
BRANCH   9  10
ATOM     10  N   UNL A   1      33.538  23.382  25.627  1.00  0.00    -0.334 N 
ATOM     11  C   UNL A   1      32.608  23.036  26.681  1.00  0.00     0.332 C 
ATOM     12  H   UNL A   1      33.267  22.728  24.893  1.00  0.00     0.348 HD
BRANCH  10  13
ATOM     13  C   UNL A   1      34.920  22.915  25.763  1.00  0.00     0.184 C 
ATOM     14  C   UNL A   1      35.938  24.054  25.548  1.00  0.00     0.071 C 
ATOM     15  C   UNL A   1      35.340  21.742  24.858  1.00  0.00     0.071 C 
ATOM     16  C   UNL A   1      37.343  23.586  25.938  1.00  0.00     0.071 C 
ATOM     17  C   UNL A   1      36.722  21.223  25.266  1.00  0.00     0.071 C 
ATOM     18  C   UNL A   1      37.782  22.324  25.190  1.00  0.00     0.181 C 
BRANCH  18  19
ATOM     19  N   UNL A   1      39.040  21.820  25.741  1.00  0.00    -0.355 N 
ATOM     20  H   UNL A   1      39.716  22.582  25.796  1.00  0.00     0.344 HD
ATOM     21  H   UNL A   1      39.406  21.084  25.137  1.00  0.00     0.344 HD
ATOM     22  H   UNL A   1      38.876  21.443  26.675  1.00  0.00     0.344 HD
ENDBRANCH  18  19
ENDBRANCH  10  13
ENDBRANCH   9  10
ENDBRANCH   7   9
ENDBRANCH   4   7
ENDBRANCH   2   3
ENDBRANCH   1   2
BRANCH   1  23
ATOM     23  C   UNL A   1      33.895  28.642  25.964  1.00  0.00     0.023 C 
BRANCH  23  24
ATOM     24  C   UNL A   1      33.411  28.876  27.387  1.00  0.00     0.116 C 
BRANCH  24  25
ATOM     25  N   UNL A   1      33.535  30.260  27.824  1.00  0.00    -0.352 N 
ATOM     26  C   UNL A   1      34.668  30.907  28.282  1.00  0.00     0.251 C 
ATOM     27  H   UNL A   1      32.713  30.800  27.789  1.00  0.00     0.163 HD
ATOM     28  O   UNL A   1      34.633  32.079  28.615  1.00  0.00    -0.269 OA
BRANCH  26  29
ATOM     29  C   UNL A   1      35.916  30.122  28.422  1.00  0.00     0.039 A 
ATOM     30  C   UNL A   1      36.800  30.084  27.342  1.00  0.00     0.014 A 
ATOM     31  C   UNL A   1      36.263  29.544  29.646  1.00  0.00     0.014 A 
ATOM     32  C   UNL A   1      38.088  29.576  27.528  1.00  0.00     0.010 A 
ATOM     33  C   UNL A   1      37.564  29.090  29.846  1.00  0.00     0.010 A 
ATOM     34  C   UNL A   1      38.497  29.140  28.799  1.00  0.00    -0.014 A 
BRANCH  34  35
ATOM     35  C   UNL A   1      39.925  28.841  29.076  1.00  0.00     0.031 A 
ATOM     36  C   UNL A   1      40.825  29.879  29.679  1.00  0.00     0.074 A 
ATOM     37  C   UNL A   1      40.424  27.648  28.696  1.00  0.00     0.049 A 
ATOM     38  N   UNL A   1      42.100  29.798  29.958  1.00  0.00    -0.248 NA
ATOM     39  C   UNL A   1      40.221  31.183  29.989  1.00  0.00     0.031 C 
ATOM     40  C   UNL A   1      39.661  26.585  28.033  1.00  0.00     0.029 A 
ATOM     41  N   UNL A   1      41.690  27.127  28.799  1.00  0.00    -0.354 N 
ATOM     42  C   UNL A   1      42.456  31.039  30.469  1.00  0.00     0.074 A 
ATOM     43  C   UNL A   1      41.270  31.869  30.421  1.00  0.00     0.031 C 
ATOM     44  C   UNL A   1      40.467  25.534  27.814  1.00  0.00     0.029 A 
ATOM     45  C   UNL A   1      41.807  25.854  28.292  1.00  0.00     0.049 A 
ATOM     46  H   UNL A   1      42.443  27.619  29.199  1.00  0.00     0.167 HD
ATOM     47  C   UNL A   1      43.657  31.443  30.949  1.00  0.00     0.037 A 
ATOM     48  C   UNL A   1      42.874  25.034  28.224  1.00  0.00     0.037 A 
ATOM     49  C   UNL A   1      44.827  30.606  31.006  1.00  0.00     0.049 A 
ATOM     50  C   UNL A   1      44.190  25.498  28.784  1.00  0.00     0.074 A 
ATOM     51  C   UNL A   1      46.071  30.901  31.536  1.00  0.00     0.029 A 
ATOM     52  N   UNL A   1      44.901  29.312  30.512  1.00  0.00    -0.354 N 
ATOM     53  N   UNL A   1      44.487  26.647  29.340  1.00  0.00    -0.248 NA
ATOM     54  C   UNL A   1      45.313  24.553  28.714  1.00  0.00     0.031 C 
ATOM     55  C   UNL A   1      46.908  29.797  31.331  1.00  0.00     0.029 A 
ATOM     56  C   UNL A   1      46.173  28.801  30.708  1.00  0.00     0.049 A 
ATOM     57  H   UNL A   1      44.158  28.828  30.084  1.00  0.00     0.167 HD
ATOM     58  C   UNL A   1      45.823  26.556  29.711  1.00  0.00     0.074 A 
ATOM     59  C   UNL A   1      46.275  25.235  29.322  1.00  0.00     0.031 C 
ATOM     60  C   UNL A   1      46.604  27.481  30.320  1.00  0.00     0.037 A 
BRANCH  47  61
ATOM     61  C   UNL A   1      43.760  32.853  31.460  1.00  0.00     0.058 A 
ATOM     62  C   UNL A   1      43.656  33.145  32.829  1.00  0.00     0.135 A 
ATOM     63  C   UNL A   1      43.995  33.920  30.578  1.00  0.00     0.135 A 
ATOM     64  F   UNL A   1      43.418  32.164  33.714  1.00  0.00    -0.206 F 
ATOM     65  C   UNL A   1      43.752  34.450  33.303  1.00  0.00     0.059 A 
ATOM     66  C   UNL A   1      44.119  35.230  31.033  1.00  0.00     0.059 A 
ATOM     67  F   UNL A   1      44.103  33.695  29.259  1.00  0.00    -0.206 F 
ATOM     68  C   UNL A   1      43.980  35.486  32.396  1.00  0.00     0.060 A 
BRANCH  68  69
ATOM     69  S   UNL A   1      44.101  37.173  33.027  1.00  0.00     0.124 S 
ATOM     70  O   UNL A   1      42.831  37.312  33.732  1.00  0.00    -0.237 OA
ATOM     71  O   UNL A   1      45.291  37.109  33.871  1.00  0.00    -0.237 OA
ATOM     72  O   UNL A   1      44.239  37.979  31.817  1.00  0.00    -0.744 OA
ENDBRANCH  68  69
ENDBRANCH  47  61
BRANCH  48  73
ATOM     73  C   UNL A   1      42.729  23.675  27.642  1.00  0.00     0.058 A 
ATOM     74  C   UNL A   1      42.892  23.465  26.265  1.00  0.00     0.135 A 
ATOM     75  C   UNL A   1      42.450  22.559  28.446  1.00  0.00     0.135 A 
ATOM     76  F   UNL A   1      43.156  24.501  25.456  1.00  0.00    -0.206 F 
ATOM     77  C   UNL A   1      42.772  22.198  25.702  1.00  0.00     0.059 A 
ATOM     78  C   UNL A   1      42.345  21.279  27.910  1.00  0.00     0.059 A 
ATOM     79  F   UNL A   1      42.303  22.706  29.772  1.00  0.00    -0.206 F 
ATOM     80  C   UNL A   1      42.500  21.111  26.534  1.00  0.00     0.060 A 
BRANCH  80  81
ATOM     81  S   UNL A   1      42.405  19.461  25.803  1.00  0.00     0.124 S 
ATOM     82  O   UNL A   1      40.998  19.390  25.422  1.00  0.00    -0.237 OA
ATOM     83  O   UNL A   1      43.361  19.556  24.703  1.00  0.00    -0.237 OA
ATOM     84  O   UNL A   1      42.810  18.587  26.899  1.00  0.00    -0.744 OA
ENDBRANCH  80  81
ENDBRANCH  48  73
BRANCH  60  85
ATOM     85  C   UNL A   1      48.021  27.089  30.629  1.00  0.00     0.058 A 
ATOM     86  C   UNL A   1      49.081  27.429  29.776  1.00  0.00     0.135 A 
ATOM     87  C   UNL A   1      48.325  26.409  31.820  1.00  0.00     0.135 A 
ATOM     88  F   UNL A   1      48.841  28.071  28.622  1.00  0.00    -0.206 F 
ATOM     89  C   UNL A   1      50.396  27.093  30.083  1.00  0.00     0.059 A 
ATOM     90  C   UNL A   1      49.635  26.083  32.158  1.00  0.00     0.059 A 
ATOM     91  F   UNL A   1      47.346  26.069  32.674  1.00  0.00    -0.206 F 
ATOM     92  C   UNL A   1      50.662  26.420  31.278  1.00  0.00     0.060 A 
BRANCH  92  93
ATOM     93  S   UNL A   1      52.376  26.021  31.686  1.00  0.00     0.124 S 
ATOM     94  O   UNL A   1      52.708  27.085  32.628  1.00  0.00    -0.237 OA
ATOM     95  O   UNL A   1      52.260  24.683  32.257  1.00  0.00    -0.237 OA
ATOM     96  O   UNL A   1      53.056  26.088  30.395  1.00  0.00    -0.744 OA
ENDBRANCH  92  93
ENDBRANCH  60  85
ENDBRANCH  34  35
ENDBRANCH  26  29
ENDBRANCH  24  25
ENDBRANCH  23  24
ENDBRANCH   1  23
TORSDOF 18
ENDMDL
MODEL 2
REMARK VINA RESULT:     -10.3      4.826     10.533
REMARK SMILES C[C@H](C[N@H+](C)[C@H]1CC[C@H]([NH3+])CC1)C(=O)NCCCCNC(=O)c1ccc(-c2c3nc(c(-c4c(F)cc(S(=O)(=O)[O-])cc4F)c4ccc([nH]4)c(-c4c(F)cc(S(=O)(=O)[O-])cc4F)c4nc(c(-c5c(F)cc(S(=O)(=O)[O-])cc5F)c5ccc2[nH]5)C=C4)C=C3)cc1
REMARK SMILES IDX 17 1 16 2 15 3 13 4 14 5 2 7 1 8 3 9 4 10 5 11 6 13 7 14
REMARK SMILES IDX 12 15 8 16 11 17 9 18 10 19 18 23 19 24 20 25 21 26 22 28
REMARK SMILES IDX 23 29 24 30 88 31 25 32 87 33 26 34 27 35 28 36 81 37 29 38
REMARK SMILES IDX 86 39 80 40 82 41 30 42 85 43 79 44 78 45 31 47 65 48 44 49
REMARK SMILES IDX 64 50 45 51 48 52 63 53 83 54 46 55 47 56 62 58 84 59 49 60
REMARK SMILES IDX 32 61 33 62 42 63 34 64 35 65 41 66 43 67 36 68 37 69 38 70
REMARK SMILES IDX 39 71 40 72 66 73 67 74 76 75 68 76 69 77 75 78 77 79 70 80
REMARK SMILES IDX 71 81 72 82 73 83 74 84 50 85 51 86 60 87 52 88 53 89 59 90
REMARK SMILES IDX 61 91 54 92 55 93 56 94 57 95 58 96
REMARK H PARENT 15 6 4 12 10 20 10 21 10 22 20 27 82 46 48 57
REMARK Flexibility Score: inf
ROOT
ATOM      1  C   UNL A   1      41.338  20.993  27.258  1.00  0.00     0.023 C 
ENDROOT
BRANCH   1   2
ATOM      2  C   UNL A   1      40.348  20.793  26.102  1.00  0.00     0.116 C 
BRANCH   2   3
ATOM      3  N   UNL A   1      39.188  21.631  26.356  1.00  0.00    -0.356 N 
ATOM      4  C   UNL A   1      38.077  21.664  25.538  1.00  0.00     0.228 C 
ATOM      5  O   UNL A   1      37.725  20.712  24.853  1.00  0.00    -0.275 OA
ATOM      6  H   UNL A   1      39.195  22.205  27.154  1.00  0.00     0.163 HD
BRANCH   4   7
ATOM      7  C   UNL A   1      37.381  23.028  25.544  1.00  0.00     0.130 C 
ATOM      8  C   UNL A   1      38.163  24.145  26.232  1.00  0.00     0.024 C 
BRANCH   7   9
ATOM      9  C   UNL A   1      35.916  22.917  26.053  1.00  0.00     0.275 C 
BRANCH   9  10
ATOM     10  N   UNL A   1      34.774  23.516  25.349  1.00  0.00    -0.334 N 
ATOM     11  C   UNL A   1      33.994  24.480  26.096  1.00  0.00     0.332 C 
ATOM     12  H   UNL A   1      35.285  24.120  24.707  1.00  0.00     0.348 HD
BRANCH  10  13
ATOM     13  C   UNL A   1      34.080  22.731  24.325  1.00  0.00     0.184 C 
ATOM     14  C   UNL A   1      33.443  23.628  23.243  1.00  0.00     0.071 C 
ATOM     15  C   UNL A   1      32.990  21.763  24.823  1.00  0.00     0.071 C 
ATOM     16  C   UNL A   1      32.947  22.773  22.074  1.00  0.00     0.071 C 
ATOM     17  C   UNL A   1      32.517  20.860  23.681  1.00  0.00     0.071 C 
ATOM     18  C   UNL A   1      31.969  21.677  22.508  1.00  0.00     0.181 C 
BRANCH  18  19
ATOM     19  N   UNL A   1      31.684  20.780  21.387  1.00  0.00    -0.355 N 
ATOM     20  H   UNL A   1      31.909  19.822  21.654  1.00  0.00     0.344 HD
ATOM     21  H   UNL A   1      32.250  21.051  20.583  1.00  0.00     0.344 HD
ATOM     22  H   UNL A   1      30.696  20.843  21.144  1.00  0.00     0.344 HD
ENDBRANCH  18  19
ENDBRANCH  10  13
ENDBRANCH   9  10
ENDBRANCH   7   9
ENDBRANCH   4   7
ENDBRANCH   2   3
ENDBRANCH   1   2
BRANCH   1  23
ATOM     23  C   UNL A   1      41.527  22.440  27.702  1.00  0.00     0.023 C 
BRANCH  23  24
ATOM     24  C   UNL A   1      42.596  23.214  26.943  1.00  0.00     0.116 C 
BRANCH  24  25
ATOM     25  N   UNL A   1      42.055  24.119  25.938  1.00  0.00    -0.352 N 
ATOM     26  C   UNL A   1      41.645  25.428  26.109  1.00  0.00     0.251 C 
ATOM     27  H   UNL A   1      41.973  23.755  25.027  1.00  0.00     0.163 HD
ATOM     28  O   UNL A   1      41.213  26.080  25.174  1.00  0.00    -0.269 OA
BRANCH  26  29
ATOM     29  C   UNL A   1      41.682  26.003  27.473  1.00  0.00     0.039 A 
ATOM     30  C   UNL A   1      42.746  26.841  27.811  1.00  0.00     0.014 A 
ATOM     31  C   UNL A   1      40.614  25.819  28.354  1.00  0.00     0.014 A 
ATOM     32  C   UNL A   1      42.678  27.596  28.984  1.00  0.00     0.010 A 
ATOM     33  C   UNL A   1      40.520  26.613  29.494  1.00  0.00     0.010 A 
ATOM     34  C   UNL A   1      41.533  27.536  29.796  1.00  0.00    -0.014 A 
BRANCH  34  35
ATOM     35  C   UNL A   1      41.330  28.512  30.897  1.00  0.00     0.031 A 
ATOM     36  C   UNL A   1      42.167  28.454  32.140  1.00  0.00     0.074 A 
ATOM     37  C   UNL A   1      40.321  29.401  30.798  1.00  0.00     0.049 A 
ATOM     38  N   UNL A   1      42.103  29.206  33.208  1.00  0.00    -0.248 NA
ATOM     39  C   UNL A   1      43.192  27.402  32.203  1.00  0.00     0.031 C 
ATOM     40  C   UNL A   1      39.393  29.505  29.666  1.00  0.00     0.029 A 
ATOM     41  N   UNL A   1      39.895  30.379  31.661  1.00  0.00    -0.354 N 
ATOM     42  C   UNL A   1      43.073  28.717  34.074  1.00  0.00     0.074 A 
ATOM     43  C   UNL A   1      43.681  27.575  33.423  1.00  0.00     0.031 C 
ATOM     44  C   UNL A   1      38.528  30.505  29.895  1.00  0.00     0.029 A 
ATOM     45  C   UNL A   1      38.818  31.097  31.197  1.00  0.00     0.049 A 
ATOM     46  H   UNL A   1      40.322  30.551  32.531  1.00  0.00     0.167 HD
ATOM     47  C   UNL A   1      43.433  29.188  35.292  1.00  0.00     0.037 A 
ATOM     48  C   UNL A   1      38.141  32.119  31.754  1.00  0.00     0.037 A 
ATOM     49  C   UNL A   1      42.832  30.333  35.926  1.00  0.00     0.049 A 
ATOM     50  C   UNL A   1      38.574  32.637  33.098  1.00  0.00     0.074 A 
ATOM     51  C   UNL A   1      43.173  30.929  37.128  1.00  0.00     0.029 A 
ATOM     52  N   UNL A   1      41.764  31.054  35.413  1.00  0.00    -0.354 N 
ATOM     53  N   UNL A   1      39.549  32.214  33.866  1.00  0.00    -0.248 NA
ATOM     54  C   UNL A   1      37.823  33.774  33.646  1.00  0.00     0.031 C 
ATOM     55  C   UNL A   1      42.288  31.989  37.358  1.00  0.00     0.029 A 
ATOM     56  C   UNL A   1      41.421  32.077  36.281  1.00  0.00     0.049 A 
ATOM     57  H   UNL A   1      41.315  30.865  34.557  1.00  0.00     0.167 HD
ATOM     58  C   UNL A   1      39.546  33.049  34.977  1.00  0.00     0.074 A 
ATOM     59  C   UNL A   1      38.477  34.007  34.777  1.00  0.00     0.031 C 
ATOM     60  C   UNL A   1      40.357  33.025  36.063  1.00  0.00     0.037 A 
BRANCH  47  61
ATOM     61  C   UNL A   1      44.536  28.467  36.015  1.00  0.00     0.058 A 
ATOM     62  C   UNL A   1      45.884  28.816  35.829  1.00  0.00     0.135 A 
ATOM     63  C   UNL A   1      44.244  27.439  36.926  1.00  0.00     0.135 A 
ATOM     64  F   UNL A   1      46.218  29.782  34.961  1.00  0.00    -0.206 F 
ATOM     65  C   UNL A   1      46.905  28.149  36.498  1.00  0.00     0.059 A 
ATOM     66  C   UNL A   1      45.249  26.775  37.624  1.00  0.00     0.059 A 
ATOM     67  F   UNL A   1      42.973  27.068  37.141  1.00  0.00    -0.206 F 
ATOM     68  C   UNL A   1      46.579  27.127  37.391  1.00  0.00     0.060 A 
BRANCH  68  69
ATOM     69  S   UNL A   1      47.916  26.272  38.250  1.00  0.00     0.124 S 
ATOM     70  O   UNL A   1      48.329  25.297  37.247  1.00  0.00    -0.237 OA
ATOM     71  O   UNL A   1      48.863  27.352  38.512  1.00  0.00    -0.237 OA
ATOM     72  O   UNL A   1      47.260  25.718  39.432  1.00  0.00    -0.744 OA
ENDBRANCH  68  69
ENDBRANCH  47  61
BRANCH  48  73
ATOM     73  C   UNL A   1      37.010  32.747  31.023  1.00  0.00     0.058 A 
ATOM     74  C   UNL A   1      37.246  33.728  30.048  1.00  0.00     0.135 A 
ATOM     75  C   UNL A   1      35.681  32.367  31.262  1.00  0.00     0.135 A 
ATOM     76  F   UNL A   1      38.499  34.127  29.787  1.00  0.00    -0.206 F 
ATOM     77  C   UNL A   1      36.202  34.320  29.343  1.00  0.00     0.059 A 
ATOM     78  C   UNL A   1      34.622  32.929  30.556  1.00  0.00     0.059 A 
ATOM     79  F   UNL A   1      35.406  31.419  32.172  1.00  0.00    -0.206 F 
ATOM     80  C   UNL A   1      34.893  33.911  29.603  1.00  0.00     0.060 A 
BRANCH  80  81
ATOM     81  S   UNL A   1      33.549  34.642  28.642  1.00  0.00     0.124 S 
ATOM     82  O   UNL A   1      33.196  33.544  27.748  1.00  0.00    -0.237 OA
ATOM     83  O   UNL A   1      32.570  34.964  29.676  1.00  0.00    -0.237 OA
ATOM     84  O   UNL A   1      34.181  35.796  28.010  1.00  0.00    -0.744 OA
ENDBRANCH  80  81
ENDBRANCH  48  73
BRANCH  60  85
ATOM     85  C   UNL A   1      40.138  34.083  37.107  1.00  0.00     0.058 A 
ATOM     86  C   UNL A   1      40.770  35.333  37.032  1.00  0.00     0.135 A 
ATOM     87  C   UNL A   1      39.246  33.858  38.168  1.00  0.00     0.135 A 
ATOM     88  F   UNL A   1      41.639  35.593  36.042  1.00  0.00    -0.206 F 
ATOM     89  C   UNL A   1      40.539  36.321  37.984  1.00  0.00     0.059 A 
ATOM     90  C   UNL A   1      38.983  34.840  39.118  1.00  0.00     0.059 A 
ATOM     91  F   UNL A   1      38.610  32.681  38.280  1.00  0.00    -0.206 F 
ATOM     92  C   UNL A   1      39.642  36.065  39.023  1.00  0.00     0.060 A 
BRANCH  92  93
ATOM     93  S   UNL A   1      39.320  37.367  40.232  1.00  0.00     0.124 S 
ATOM     94  O   UNL A   1      40.664  37.879  40.478  1.00  0.00    -0.237 OA
ATOM     95  O   UNL A   1      38.425  38.259  39.503  1.00  0.00    -0.237 OA
ATOM     96  O   UNL A   1      38.707  36.650  41.347  1.00  0.00    -0.744 OA
ENDBRANCH  92  93
ENDBRANCH  60  85
ENDBRANCH  34  35
ENDBRANCH  26  29
ENDBRANCH  24  25
ENDBRANCH  23  24
ENDBRANCH   1  23
TORSDOF 18
ENDMDL
MODEL 3
REMARK VINA RESULT:     -10.2      4.752     10.648
REMARK SMILES C[C@H](C[N@H+](C)[C@H]1CC[C@H]([NH3+])CC1)C(=O)NCCCCNC(=O)c1ccc(-c2c3nc(c(-c4c(F)cc(S(=O)(=O)[O-])cc4F)c4ccc([nH]4)c(-c4c(F)cc(S(=O)(=O)[O-])cc4F)c4nc(c(-c5c(F)cc(S(=O)(=O)[O-])cc5F)c5ccc2[nH]5)C=C4)C=C3)cc1
REMARK SMILES IDX 17 1 16 2 15 3 13 4 14 5 2 7 1 8 3 9 4 10 5 11 6 13 7 14
REMARK SMILES IDX 12 15 8 16 11 17 9 18 10 19 18 23 19 24 20 25 21 26 22 28
REMARK SMILES IDX 23 29 24 30 88 31 25 32 87 33 26 34 27 35 28 36 81 37 29 38
REMARK SMILES IDX 86 39 80 40 82 41 30 42 85 43 79 44 78 45 31 47 65 48 44 49
REMARK SMILES IDX 64 50 45 51 48 52 63 53 83 54 46 55 47 56 62 58 84 59 49 60
REMARK SMILES IDX 32 61 33 62 42 63 34 64 35 65 41 66 43 67 36 68 37 69 38 70
REMARK SMILES IDX 39 71 40 72 66 73 67 74 76 75 68 76 69 77 75 78 77 79 70 80
REMARK SMILES IDX 71 81 72 82 73 83 74 84 50 85 51 86 60 87 52 88 53 89 59 90
REMARK SMILES IDX 61 91 54 92 55 93 56 94 57 95 58 96
REMARK H PARENT 15 6 4 12 10 20 10 21 10 22 20 27 82 46 48 57
REMARK Flexibility Score: inf
ROOT
ATOM      1  C   UNL A   1      36.865  23.018  24.659  1.00  0.00     0.023 C 
ENDROOT
BRANCH   1   2
ATOM      2  C   UNL A   1      35.578  22.180  24.640  1.00  0.00     0.116 C 
BRANCH   2   3
ATOM      3  N   UNL A   1      34.449  23.094  24.625  1.00  0.00    -0.356 N 
ATOM      4  C   UNL A   1      34.062  23.810  23.511  1.00  0.00     0.228 C 
ATOM      5  O   UNL A   1      34.262  23.422  22.366  1.00  0.00    -0.275 OA
ATOM      6  H   UNL A   1      33.932  23.209  25.454  1.00  0.00     0.163 HD
BRANCH   4   7
ATOM      7  C   UNL A   1      33.415  25.151  23.868  1.00  0.00     0.130 C 
ATOM      8  C   UNL A   1      33.644  26.267  22.851  1.00  0.00     0.024 C 
BRANCH   7   9
ATOM      9  C   UNL A   1      33.761  25.580  25.321  1.00  0.00     0.275 C 
BRANCH   9  10
ATOM     10  N   UNL A   1      32.781  26.180  26.237  1.00  0.00    -0.334 N 
ATOM     11  C   UNL A   1      31.406  25.758  26.071  1.00  0.00     0.332 C 
ATOM     12  H   UNL A   1      33.044  25.688  27.091  1.00  0.00     0.348 HD
BRANCH  10  13
ATOM     13  C   UNL A   1      33.017  27.534  26.744  1.00  0.00     0.184 C 
ATOM     14  C   UNL A   1      31.943  28.529  26.257  1.00  0.00     0.071 C 
ATOM     15  C   UNL A   1      34.394  28.151  26.433  1.00  0.00     0.071 C 
ATOM     16  C   UNL A   1      32.084  29.861  26.999  1.00  0.00     0.071 C 
ATOM     17  C   UNL A   1      34.578  29.460  27.208  1.00  0.00     0.071 C 
ATOM     18  C   UNL A   1      33.482  30.473  26.869  1.00  0.00     0.181 C 
BRANCH  18  19
ATOM     19  N   UNL A   1      33.610  31.634  27.750  1.00  0.00    -0.355 N 
ATOM     20  H   UNL A   1      34.365  31.474  28.416  1.00  0.00     0.344 HD
ATOM     21  H   UNL A   1      32.735  31.775  28.256  1.00  0.00     0.344 HD
ATOM     22  H   UNL A   1      33.817  32.463  27.193  1.00  0.00     0.344 HD
ENDBRANCH  18  19
ENDBRANCH  10  13
ENDBRANCH   9  10
ENDBRANCH   7   9
ENDBRANCH   4   7
ENDBRANCH   2   3
ENDBRANCH   1   2
BRANCH   1  23
ATOM     23  C   UNL A   1      37.509  23.178  26.032  1.00  0.00     0.023 C 
BRANCH  23  24
ATOM     24  C   UNL A   1      38.582  24.254  26.122  1.00  0.00     0.116 C 
BRANCH  24  25
ATOM     25  N   UNL A   1      39.914  23.727  26.388  1.00  0.00    -0.352 N 
ATOM     26  C   UNL A   1      40.873  24.238  27.243  1.00  0.00     0.251 C 
ATOM     27  H   UNL A   1      40.161  22.908  25.901  1.00  0.00     0.163 HD
ATOM     28  O   UNL A   1      41.954  23.692  27.377  1.00  0.00    -0.269 OA
BRANCH  26  29
ATOM     29  C   UNL A   1      40.579  25.508  27.948  1.00  0.00     0.039 A 
ATOM     30  C   UNL A   1      39.420  25.584  28.721  1.00  0.00     0.014 A 
ATOM     31  C   UNL A   1      41.504  26.555  27.947  1.00  0.00     0.014 A 
ATOM     32  C   UNL A   1      39.248  26.661  29.594  1.00  0.00     0.010 A 
ATOM     33  C   UNL A   1      41.360  27.598  28.857  1.00  0.00     0.010 A 
ATOM     34  C   UNL A   1      40.251  27.638  29.716  1.00  0.00    -0.014 A 
BRANCH  34  35
ATOM     35  C   UNL A   1      40.207  28.638  30.812  1.00  0.00     0.031 A 
ATOM     36  C   UNL A   1      41.090  28.498  32.017  1.00  0.00     0.074 A 
ATOM     37  C   UNL A   1      39.297  29.631  30.748  1.00  0.00     0.049 A 
ATOM     38  N   UNL A   1      41.159  29.260  33.077  1.00  0.00    -0.248 NA
ATOM     39  C   UNL A   1      41.996  27.340  32.046  1.00  0.00     0.031 C 
ATOM     40  C   UNL A   1      38.334  29.827  29.659  1.00  0.00     0.029 A 
ATOM     41  N   UNL A   1      39.021  30.656  31.618  1.00  0.00    -0.354 N 
ATOM     42  C   UNL A   1      42.108  28.675  33.904  1.00  0.00     0.074 A 
ATOM     43  C   UNL A   1      42.557  27.468  33.240  1.00  0.00     0.031 C 
ATOM     44  C   UNL A   1      37.595  30.918  29.915  1.00  0.00     0.029 A 
ATOM     45  C   UNL A   1      38.008  31.484  31.194  1.00  0.00     0.049 A 
ATOM     46  H   UNL A   1      39.504  30.787  32.465  1.00  0.00     0.167 HD
ATOM     47  C   UNL A   1      42.574  29.113  35.098  1.00  0.00     0.037 A 
ATOM     48  C   UNL A   1      37.473  32.578  31.769  1.00  0.00     0.037 A 
ATOM     49  C   UNL A   1      42.132  30.321  35.744  1.00  0.00     0.049 A 
ATOM     50  C   UNL A   1      38.022  33.055  33.085  1.00  0.00     0.074 A 
ATOM     51  C   UNL A   1      42.591  30.885  36.922  1.00  0.00     0.029 A 
ATOM     52  N   UNL A   1      41.125  31.150  35.271  1.00  0.00    -0.354 N 
ATOM     53  N   UNL A   1      38.980  32.535  33.813  1.00  0.00    -0.248 NA
ATOM     54  C   UNL A   1      37.426  34.271  33.653  1.00  0.00     0.031 C 
ATOM     55  C   UNL A   1      41.838  32.037  37.179  1.00  0.00     0.029 A 
ATOM     56  C   UNL A   1      40.936  32.211  36.142  1.00  0.00     0.049 A 
ATOM     57  H   UNL A   1      40.619  31.005  34.439  1.00  0.00     0.167 HD
ATOM     58  C   UNL A   1      39.120  33.373  34.913  1.00  0.00     0.074 A 
ATOM     59  C   UNL A   1      38.153  34.440  34.750  1.00  0.00     0.031 C 
ATOM     60  C   UNL A   1      39.973  33.269  35.961  1.00  0.00     0.037 A 
BRANCH  47  61
ATOM     61  C   UNL A   1      43.625  28.281  35.779  1.00  0.00     0.058 A 
ATOM     62  C   UNL A   1      44.992  28.482  35.532  1.00  0.00     0.135 A 
ATOM     63  C   UNL A   1      43.265  27.293  36.710  1.00  0.00     0.135 A 
ATOM     64  F   UNL A   1      45.390  29.405  34.642  1.00  0.00    -0.206 F 
ATOM     65  C   UNL A   1      45.966  27.713  36.162  1.00  0.00     0.059 A 
ATOM     66  C   UNL A   1      44.224  26.529  37.370  1.00  0.00     0.059 A 
ATOM     67  F   UNL A   1      41.972  27.061  36.983  1.00  0.00    -0.206 F 
ATOM     68  C   UNL A   1      45.571  26.736  37.077  1.00  0.00     0.060 A 
BRANCH  68  69
ATOM     69  S   UNL A   1      46.846  25.746  37.885  1.00  0.00     0.124 S 
ATOM     70  O   UNL A   1      46.243  25.507  39.192  1.00  0.00    -0.237 OA
ATOM     71  O   UNL A   1      46.943  24.582  37.009  1.00  0.00    -0.237 OA
ATOM     72  O   UNL A   1      48.011  26.626  37.883  1.00  0.00    -0.744 OA
ENDBRANCH  68  69
ENDBRANCH  47  61
BRANCH  48  73
ATOM     73  C   UNL A   1      36.385  33.320  31.082  1.00  0.00     0.058 A 
ATOM     74  C   UNL A   1      36.651  34.079  29.932  1.00  0.00     0.135 A 
ATOM     75  C   UNL A   1      35.060  33.270  31.541  1.00  0.00     0.135 A 
ATOM     76  F   UNL A   1      37.903  34.160  29.458  1.00  0.00    -0.206 F 
ATOM     77  C   UNL A   1      35.644  34.771  29.267  1.00  0.00     0.059 A 
ATOM     78  C   UNL A   1      34.032  33.937  30.882  1.00  0.00     0.059 A 
ATOM     79  F   UNL A   1      34.752  32.543  32.626  1.00  0.00    -0.206 F 
ATOM     80  C   UNL A   1      34.336  34.692  29.749  1.00  0.00     0.060 A 
BRANCH  80  81
ATOM     81  S   UNL A   1      33.025  35.546  28.846  1.00  0.00     0.124 S 
ATOM     82  O   UNL A   1      32.202  36.058  29.936  1.00  0.00    -0.237 OA
ATOM     83  O   UNL A   1      33.774  36.544  28.087  1.00  0.00    -0.237 OA
ATOM     84  O   UNL A   1      32.426  34.484  28.044  1.00  0.00    -0.744 OA
ENDBRANCH  80  81
ENDBRANCH  48  73
BRANCH  60  85
ATOM     85  C   UNL A   1      39.920  34.351  37.001  1.00  0.00     0.058 A 
ATOM     86  C   UNL A   1      40.685  35.521  36.885  1.00  0.00     0.135 A 
ATOM     87  C   UNL A   1      39.054  34.237  38.100  1.00  0.00     0.135 A 
ATOM     88  F   UNL A   1      41.534  35.674  35.856  1.00  0.00    -0.206 F 
ATOM     89  C   UNL A   1      40.608  36.536  37.833  1.00  0.00     0.059 A 
ATOM     90  C   UNL A   1      38.944  35.248  39.049  1.00  0.00     0.059 A 
ATOM     91  F   UNL A   1      38.295  33.140  38.252  1.00  0.00    -0.206 F 
ATOM     92  C   UNL A   1      39.733  36.390  38.912  1.00  0.00     0.060 A 
BRANCH  92  93
ATOM     93  S   UNL A   1      39.611  37.729  40.118  1.00  0.00     0.124 S 
ATOM     94  O   UNL A   1      40.925  38.352  39.999  1.00  0.00    -0.237 OA
ATOM     95  O   UNL A   1      38.490  38.512  39.607  1.00  0.00    -0.237 OA
ATOM     96  O   UNL A   1      39.357  37.030  41.375  1.00  0.00    -0.744 OA
ENDBRANCH  92  93
ENDBRANCH  60  85
ENDBRANCH  34  35
ENDBRANCH  26  29
ENDBRANCH  24  25
ENDBRANCH  23  24
ENDBRANCH   1  23
TORSDOF 18
ENDMDL
