MODEL 1
REMARK VINA RESULT:     -13.0      0.000      0.000
REMARK SMILES CCn1c(N2CCC(C(=O)NCCCCNC(=O)c3ccc(-c4c5nc(c(-c6c(F)cc(S(=O)(=O)[O-])cc6F)c6ccc([nH]6)c(-c6c(F)cc(S(=O)(=O)[O-])cc6F)c6nc(c(-c7c(F)cc(S(=O)(=O)[O-])cc7F)c7ccc4[nH]7)C=C6)C=C5)cc3)CC2)nc2cc(C)ccc21
REMARK SMILES IDX 14 1 13 2 12 3 11 4 9 5 10 6 8 8 5 9 6 10 86 11 7 12 85 13
REMARK SMILES IDX 4 14 3 15 94 16 87 17 88 18 93 19 89 20 92 21 90 22 91 23
REMARK SMILES IDX 2 24 1 25 15 26 16 27 17 28 18 30 19 31 20 32 84 33 21 34
REMARK SMILES IDX 83 35 22 36 23 37 24 38 77 39 25 40 82 41 76 42 78 43 26 44
REMARK SMILES IDX 81 45 75 46 74 47 27 49 61 50 40 51 60 52 41 53 44 54 59 55
REMARK SMILES IDX 79 56 42 57 43 58 58 60 80 61 45 62 28 63 29 64 38 65 30 66
REMARK SMILES IDX 31 67 37 68 39 69 32 70 33 71 34 72 35 73 36 74 62 75 63 76
REMARK SMILES IDX 72 77 64 78 65 79 71 80 73 81 66 82 67 83 68 84 69 85 70 86
REMARK SMILES IDX 46 87 47 88 56 89 48 90 49 91 55 92 57 93 50 94 51 95 52 96
REMARK SMILES IDX 53 97 54 98
REMARK H PARENT 11 7 16 29 78 48 44 59
REMARK Flexibility Score: inf
ROOT
ATOM      1  C   UNL A   1      37.816  22.034  25.061  1.00  0.00     0.023 C 
ENDROOT
BRANCH   1   2
ATOM      2  C   UNL A   1      36.842  23.145  25.468  1.00  0.00     0.023 C 
BRANCH   2   3
ATOM      3  C   UNL A   1      35.521  22.658  26.050  1.00  0.00     0.116 C 
BRANCH   3   4
ATOM      4  N   UNL A   1      35.215  21.290  25.658  1.00  0.00    -0.356 N 
ATOM      5  C   UNL A   1      34.222  20.801  24.865  1.00  0.00     0.223 C 
ATOM      6  O   UNL A   1      34.205  19.589  24.631  1.00  0.00    -0.275 OA
ATOM      7  H   UNL A   1      35.824  20.609  26.026  1.00  0.00     0.163 HD
BRANCH   5   8
ATOM      8  C   UNL A   1      33.180  21.716  24.240  1.00  0.00     0.082 C 
ATOM      9  N   UNL A   1      32.236  24.399  23.944  1.00  0.00    -0.342 N 
ATOM     10  C   UNL A   1      31.433  23.497  24.758  1.00  0.00     0.120 C 
ATOM     11  C   UNL A   1      32.933  23.817  22.813  1.00  0.00     0.120 C 
ATOM     12  C   UNL A   1      32.270  22.352  25.301  1.00  0.00     0.035 C 
ATOM     13  C   UNL A   1      33.849  22.690  23.261  1.00  0.00     0.035 C 
BRANCH   9  14
ATOM     14  C   UNL A   1      32.515  25.643  24.407  1.00  0.00     0.206 A 
ATOM     15  N   UNL A   1      31.755  26.742  24.061  1.00  0.00    -0.310 N 
ATOM     16  C   UNL A   1      32.185  27.820  24.805  1.00  0.00     0.070 A 
ATOM     17  N   UNL A   1      33.413  25.971  25.311  1.00  0.00    -0.213 NA
ATOM     18  C   UNL A   1      33.237  27.313  25.558  1.00  0.00     0.091 A 
ATOM     19  C   UNL A   1      31.751  29.147  24.901  1.00  0.00     0.029 A 
ATOM     20  C   UNL A   1      33.921  28.171  26.437  1.00  0.00     0.034 A 
ATOM     21  C   UNL A   1      32.436  29.984  25.790  1.00  0.00     0.006 A 
ATOM     22  C   UNL A   1      33.515  29.517  26.551  1.00  0.00    -0.049 A 
ATOM     23  C   UNL A   1      34.240  30.440  27.488  1.00  0.00     0.044 C 
BRANCH  15  24
ATOM     24  C   UNL A   1      30.587  26.761  23.201  1.00  0.00     0.122 C 
ATOM     25  C   UNL A   1      29.293  26.524  23.963  1.00  0.00     0.028 C 
ENDBRANCH  15  24
ENDBRANCH   9  14
ENDBRANCH   5   8
ENDBRANCH   3   4
ENDBRANCH   2   3
ENDBRANCH   1   2
BRANCH   1  26
ATOM     26  C   UNL A   1      38.800  21.606  26.152  1.00  0.00     0.116 C 
BRANCH  26  27
ATOM     27  N   UNL A   1      40.192  21.813  25.807  1.00  0.00    -0.352 N 
ATOM     28  C   UNL A   1      41.152  22.710  26.184  1.00  0.00     0.251 C 
ATOM     29  H   UNL A   1      40.521  21.157  25.151  1.00  0.00     0.163 HD
ATOM     30  O   UNL A   1      42.305  22.439  25.834  1.00  0.00    -0.269 OA
BRANCH  28  31
ATOM     31  C   UNL A   1      40.903  23.987  26.907  1.00  0.00     0.039 A 
ATOM     32  C   UNL A   1      39.986  24.965  26.530  1.00  0.00     0.014 A 
ATOM     33  C   UNL A   1      41.747  24.245  28.007  1.00  0.00     0.014 A 
ATOM     34  C   UNL A   1      39.990  26.206  27.158  1.00  0.00     0.010 A 
ATOM     35  C   UNL A   1      41.744  25.481  28.647  1.00  0.00     0.010 A 
ATOM     36  C   UNL A   1      40.902  26.481  28.184  1.00  0.00    -0.014 A 
BRANCH  36  37
ATOM     37  C   UNL A   1      40.861  27.810  28.790  1.00  0.00     0.031 A 
ATOM     38  C   UNL A   1      41.936  28.725  28.318  1.00  0.00     0.074 A 
ATOM     39  C   UNL A   1      39.936  28.216  29.685  1.00  0.00     0.049 A 
ATOM     40  N   UNL A   1      42.978  29.119  28.973  1.00  0.00    -0.248 NA
ATOM     41  C   UNL A   1      41.938  29.119  26.901  1.00  0.00     0.031 C 
ATOM     42  C   UNL A   1      38.703  27.540  30.100  1.00  0.00     0.029 A 
ATOM     43  N   UNL A   1      39.892  29.383  30.391  1.00  0.00    -0.354 N 
ATOM     44  C   UNL A   1      43.669  29.978  28.122  1.00  0.00     0.074 A 
ATOM     45  C   UNL A   1      43.069  29.822  26.822  1.00  0.00     0.031 C 
ATOM     46  C   UNL A   1      37.938  28.395  30.822  1.00  0.00     0.029 A 
ATOM     47  C   UNL A   1      38.693  29.614  31.060  1.00  0.00     0.049 A 
ATOM     48  H   UNL A   1      40.648  30.012  30.425  1.00  0.00     0.167 HD
ATOM     49  C   UNL A   1      44.549  30.900  28.604  1.00  0.00     0.037 A 
ATOM     50  C   UNL A   1      38.357  30.726  31.761  1.00  0.00     0.037 A 
ATOM     51  C   UNL A   1      44.921  30.600  29.963  1.00  0.00     0.049 A 
ATOM     52  C   UNL A   1      39.626  31.374  32.167  1.00  0.00     0.074 A 
ATOM     53  C   UNL A   1      45.636  29.606  30.598  1.00  0.00     0.029 A 
ATOM     54  N   UNL A   1      44.213  31.252  30.940  1.00  0.00    -0.354 N 
ATOM     55  N   UNL A   1      40.459  30.863  33.029  1.00  0.00    -0.248 NA
ATOM     56  C   UNL A   1      40.161  32.437  31.332  1.00  0.00     0.031 C 
ATOM     57  C   UNL A   1      45.011  29.445  31.871  1.00  0.00     0.029 A 
ATOM     58  C   UNL A   1      43.977  30.378  31.968  1.00  0.00     0.049 A 
ATOM     59  H   UNL A   1      43.922  32.192  30.908  1.00  0.00     0.167 HD
ATOM     60  C   UNL A   1      41.711  31.223  32.560  1.00  0.00     0.074 A 
ATOM     61  C   UNL A   1      41.461  32.296  31.602  1.00  0.00     0.031 C 
ATOM     62  C   UNL A   1      42.795  30.430  32.799  1.00  0.00     0.037 A 
BRANCH  49  63
ATOM     63  C   UNL A   1      44.768  32.274  28.006  1.00  0.00     0.058 A 
ATOM     64  C   UNL A   1      46.000  32.573  27.385  1.00  0.00     0.135 A 
ATOM     65  C   UNL A   1      43.944  33.388  28.283  1.00  0.00     0.135 A 
ATOM     66  F   UNL A   1      46.868  31.595  27.078  1.00  0.00    -0.206 F 
ATOM     67  C   UNL A   1      46.414  33.883  27.131  1.00  0.00     0.059 A 
ATOM     68  C   UNL A   1      44.316  34.696  27.991  1.00  0.00     0.059 A 
ATOM     69  F   UNL A   1      42.784  33.272  28.938  1.00  0.00    -0.206 F 
ATOM     70  C   UNL A   1      45.568  34.939  27.453  1.00  0.00     0.060 A 
BRANCH  70  71
ATOM     71  S   UNL A   1      46.141  36.633  27.225  1.00  0.00     0.124 S 
ATOM     72  O   UNL A   1      47.033  36.488  26.081  1.00  0.00    -0.237 OA
ATOM     73  O   UNL A   1      44.890  37.342  26.978  1.00  0.00    -0.237 OA
ATOM     74  O   UNL A   1      46.788  36.942  28.497  1.00  0.00    -0.744 OA
ENDBRANCH  70  71
ENDBRANCH  49  63
BRANCH  50  75
ATOM     75  C   UNL A   1      37.067  31.462  31.833  1.00  0.00     0.058 A 
ATOM     76  C   UNL A   1      36.578  31.929  33.070  1.00  0.00     0.135 A 
ATOM     77  C   UNL A   1      36.491  32.029  30.683  1.00  0.00     0.135 A 
ATOM     78  F   UNL A   1      37.074  31.445  34.219  1.00  0.00    -0.206 F 
ATOM     79  C   UNL A   1      35.645  32.967  33.160  1.00  0.00     0.059 A 
ATOM     80  C   UNL A   1      35.553  33.062  30.748  1.00  0.00     0.059 A 
ATOM     81  F   UNL A   1      36.905  31.667  29.459  1.00  0.00    -0.206 F 
ATOM     82  C   UNL A   1      35.164  33.553  31.992  1.00  0.00     0.060 A 
BRANCH  82  83
ATOM     83  S   UNL A   1      34.138  35.039  32.111  1.00  0.00     0.124 S 
ATOM     84  O   UNL A   1      33.999  35.425  30.711  1.00  0.00    -0.237 OA
ATOM     85  O   UNL A   1      32.933  34.527  32.755  1.00  0.00    -0.237 OA
ATOM     86  O   UNL A   1      34.942  35.941  32.931  1.00  0.00    -0.744 OA
ENDBRANCH  82  83
ENDBRANCH  50  75
BRANCH  62  87
ATOM     87  C   UNL A   1      42.675  29.414  33.904  1.00  0.00     0.058 A 
ATOM     88  C   UNL A   1      42.936  29.663  35.264  1.00  0.00     0.135 A 
ATOM     89  C   UNL A   1      42.190  28.143  33.567  1.00  0.00     0.135 A 
ATOM     90  F   UNL A   1      43.315  30.879  35.683  1.00  0.00    -0.206 F 
ATOM     91  C   UNL A   1      42.771  28.671  36.235  1.00  0.00     0.059 A 
ATOM     92  C   UNL A   1      41.989  27.150  34.520  1.00  0.00     0.059 A 
ATOM     93  F   UNL A   1      41.871  27.862  32.292  1.00  0.00    -0.206 F 
ATOM     94  C   UNL A   1      42.299  27.416  35.852  1.00  0.00     0.060 A 
BRANCH  94  95
ATOM     95  S   UNL A   1      42.042  26.140  37.105  1.00  0.00     0.124 S 
ATOM     96  O   UNL A   1      40.631  26.323  37.444  1.00  0.00    -0.237 OA
ATOM     97  O   UNL A   1      42.357  24.912  36.372  1.00  0.00    -0.237 OA
ATOM     98  O   UNL A   1      42.985  26.489  38.152  1.00  0.00    -0.744 OA
ENDBRANCH  94  95
ENDBRANCH  62  87
ENDBRANCH  36  37
ENDBRANCH  28  31
ENDBRANCH  26  27
ENDBRANCH   1  26
TORSDOF 16
ENDMDL
MODEL 2
REMARK VINA RESULT:     -12.6      1.171      1.991
REMARK SMILES CCn1c(N2CCC(C(=O)NCCCCNC(=O)c3ccc(-c4c5nc(c(-c6c(F)cc(S(=O)(=O)[O-])cc6F)c6ccc([nH]6)c(-c6c(F)cc(S(=O)(=O)[O-])cc6F)c6nc(c(-c7c(F)cc(S(=O)(=O)[O-])cc7F)c7ccc4[nH]7)C=C6)C=C5)cc3)CC2)nc2cc(C)ccc21
REMARK SMILES IDX 14 1 13 2 12 3 11 4 9 5 10 6 8 8 5 9 6 10 86 11 7 12 85 13
REMARK SMILES IDX 4 14 3 15 94 16 87 17 88 18 93 19 89 20 92 21 90 22 91 23
REMARK SMILES IDX 2 24 1 25 15 26 16 27 17 28 18 30 19 31 20 32 84 33 21 34
REMARK SMILES IDX 83 35 22 36 23 37 24 38 77 39 25 40 82 41 76 42 78 43 26 44
REMARK SMILES IDX 81 45 75 46 74 47 27 49 61 50 40 51 60 52 41 53 44 54 59 55
REMARK SMILES IDX 79 56 42 57 43 58 58 60 80 61 45 62 28 63 29 64 38 65 30 66
REMARK SMILES IDX 31 67 37 68 39 69 32 70 33 71 34 72 35 73 36 74 62 75 63 76
REMARK SMILES IDX 72 77 64 78 65 79 71 80 73 81 66 82 67 83 68 84 69 85 70 86
REMARK SMILES IDX 46 87 47 88 56 89 48 90 49 91 55 92 57 93 50 94 51 95 52 96
REMARK SMILES IDX 53 97 54 98
REMARK H PARENT 11 7 16 29 78 48 44 59
REMARK Flexibility Score: inf
ROOT
ATOM      1  C   UNL A   1      37.574  21.803  24.983  1.00  0.00     0.023 C 
ENDROOT
BRANCH   1   2
ATOM      2  C   UNL A   1      37.085  20.422  25.433  1.00  0.00     0.023 C 
BRANCH   2   3
ATOM      3  C   UNL A   1      35.806  19.943  24.758  1.00  0.00     0.116 C 
BRANCH   3   4
ATOM      4  N   UNL A   1      34.614  20.323  25.502  1.00  0.00    -0.356 N 
ATOM      5  C   UNL A   1      33.806  21.413  25.375  1.00  0.00     0.223 C 
ATOM      6  O   UNL A   1      32.806  21.485  26.095  1.00  0.00    -0.275 OA
ATOM      7  H   UNL A   1      34.349  19.693  26.210  1.00  0.00     0.163 HD
BRANCH   5   8
ATOM      8  C   UNL A   1      34.089  22.498  24.347  1.00  0.00     0.082 C 
ATOM      9  N   UNL A   1      33.210  24.950  23.170  1.00  0.00    -0.342 N 
ATOM     10  C   UNL A   1      33.109  23.748  22.355  1.00  0.00     0.120 C 
ATOM     11  C   UNL A   1      34.325  25.026  24.094  1.00  0.00     0.120 C 
ATOM     12  C   UNL A   1      33.047  22.500  23.220  1.00  0.00     0.035 C 
ATOM     13  C   UNL A   1      34.321  23.843  25.048  1.00  0.00     0.035 C 
BRANCH   9  14
ATOM     14  C   UNL A   1      32.155  25.801  23.235  1.00  0.00     0.206 A 
ATOM     15  N   UNL A   1      32.216  27.085  22.730  1.00  0.00    -0.310 N 
ATOM     16  C   UNL A   1      30.957  27.640  22.801  1.00  0.00     0.070 A 
ATOM     17  N   UNL A   1      30.934  25.523  23.638  1.00  0.00    -0.213 NA
ATOM     18  C   UNL A   1      30.183  26.649  23.394  1.00  0.00     0.091 A 
ATOM     19  C   UNL A   1      30.432  28.873  22.394  1.00  0.00     0.029 A 
ATOM     20  C   UNL A   1      28.818  26.899  23.627  1.00  0.00     0.034 A 
ATOM     21  C   UNL A   1      29.070  29.098  22.622  1.00  0.00     0.006 A 
ATOM     22  C   UNL A   1      28.261  28.134  23.237  1.00  0.00    -0.049 A 
ATOM     23  C   UNL A   1      26.805  28.408  23.482  1.00  0.00     0.044 C 
BRANCH  15  24
ATOM     24  C   UNL A   1      33.346  27.712  22.073  1.00  0.00     0.122 C 
ATOM     25  C   UNL A   1      33.984  28.805  22.915  1.00  0.00     0.028 C 
ENDBRANCH  15  24
ENDBRANCH   9  14
ENDBRANCH   5   8
ENDBRANCH   3   4
ENDBRANCH   2   3
ENDBRANCH   1   2
BRANCH   1  26
ATOM     26  C   UNL A   1      38.437  22.547  26.004  1.00  0.00     0.116 C 
BRANCH  26  27
ATOM     27  N   UNL A   1      39.835  22.168  25.986  1.00  0.00    -0.352 N 
ATOM     28  C   UNL A   1      40.983  22.707  26.493  1.00  0.00     0.251 C 
ATOM     29  H   UNL A   1      39.993  21.330  25.495  1.00  0.00     0.163 HD
ATOM     30  O   UNL A   1      41.979  21.977  26.458  1.00  0.00    -0.269 OA
BRANCH  28  31
ATOM     31  C   UNL A   1      41.130  24.097  27.006  1.00  0.00     0.039 A 
ATOM     32  C   UNL A   1      42.021  24.504  27.996  1.00  0.00     0.014 A 
ATOM     33  C   UNL A   1      40.213  25.040  26.499  1.00  0.00     0.014 A 
ATOM     34  C   UNL A   1      41.923  25.779  28.544  1.00  0.00     0.010 A 
ATOM     35  C   UNL A   1      40.121  26.322  27.035  1.00  0.00     0.010 A 
ATOM     36  C   UNL A   1      40.942  26.671  28.097  1.00  0.00    -0.014 A 
BRANCH  36  37
ATOM     37  C   UNL A   1      40.885  27.989  28.726  1.00  0.00     0.031 A 
ATOM     38  C   UNL A   1      41.988  28.902  28.319  1.00  0.00     0.074 A 
ATOM     39  C   UNL A   1      39.925  28.387  29.586  1.00  0.00     0.049 A 
ATOM     40  N   UNL A   1      43.003  29.274  29.028  1.00  0.00    -0.248 NA
ATOM     41  C   UNL A   1      42.057  29.322  26.912  1.00  0.00     0.031 C 
ATOM     42  C   UNL A   1      38.668  27.716  29.932  1.00  0.00     0.029 A 
ATOM     43  N   UNL A   1      39.858  29.542  30.311  1.00  0.00    -0.354 N 
ATOM     44  C   UNL A   1      43.739  30.142  28.225  1.00  0.00     0.074 A 
ATOM     45  C   UNL A   1      43.196  30.015  26.896  1.00  0.00     0.031 C 
ATOM     46  C   UNL A   1      37.878  28.564  30.635  1.00  0.00     0.029 A 
ATOM     47  C   UNL A   1      38.633  29.771  30.930  1.00  0.00     0.049 A 
ATOM     48  H   UNL A   1      40.618  30.162  30.391  1.00  0.00     0.167 HD
ATOM     49  C   UNL A   1      44.604  31.047  28.764  1.00  0.00     0.037 A 
ATOM     50  C   UNL A   1      38.275  30.873  31.635  1.00  0.00     0.037 A 
ATOM     51  C   UNL A   1      44.912  30.719  30.132  1.00  0.00     0.049 A 
ATOM     52  C   UNL A   1      39.530  31.502  32.111  1.00  0.00     0.074 A 
ATOM     53  C   UNL A   1      45.589  29.707  30.779  1.00  0.00     0.029 A 
ATOM     54  N   UNL A   1      44.167  31.359  31.088  1.00  0.00    -0.354 N 
ATOM     55  N   UNL A   1      40.319  30.968  32.999  1.00  0.00    -0.248 NA
ATOM     56  C   UNL A   1      40.111  32.575  31.320  1.00  0.00     0.031 C 
ATOM     57  C   UNL A   1      44.906  29.528  32.020  1.00  0.00     0.029 A 
ATOM     58  C   UNL A   1      43.877  30.469  32.088  1.00  0.00     0.049 A 
ATOM     59  H   UNL A   1      43.885  32.302  31.061  1.00  0.00     0.167 HD
ATOM     60  C   UNL A   1      41.593  31.324  32.594  1.00  0.00     0.074 A 
ATOM     61  C   UNL A   1      41.396  32.416  31.645  1.00  0.00     0.031 C 
ATOM     62  C   UNL A   1      42.659  30.516  32.866  1.00  0.00     0.037 A 
BRANCH  49  63
ATOM     63  C   UNL A   1      44.861  32.429  28.202  1.00  0.00     0.058 A 
ATOM     64  C   UNL A   1      46.159  32.770  27.764  1.00  0.00     0.135 A 
ATOM     65  C   UNL A   1      43.971  33.515  28.356  1.00  0.00     0.135 A 
ATOM     66  F   UNL A   1      47.094  31.822  27.585  1.00  0.00    -0.206 F 
ATOM     67  C   UNL A   1      46.563  34.094  27.570  1.00  0.00     0.059 A 
ATOM     68  C   UNL A   1      44.338  34.836  28.120  1.00  0.00     0.059 A 
ATOM     69  F   UNL A   1      42.733  33.359  28.838  1.00  0.00    -0.206 F 
ATOM     70  C   UNL A   1      45.646  35.121  27.767  1.00  0.00     0.060 A 
BRANCH  70  71
ATOM     71  S   UNL A   1      46.189  36.833  27.622  1.00  0.00     0.124 S 
ATOM     72  O   UNL A   1      46.180  37.022  26.177  1.00  0.00    -0.237 OA
ATOM     73  O   UNL A   1      45.154  37.542  28.368  1.00  0.00    -0.237 OA
ATOM     74  O   UNL A   1      47.508  36.821  28.250  1.00  0.00    -0.744 OA
ENDBRANCH  70  71
ENDBRANCH  49  63
BRANCH  50  75
ATOM     75  C   UNL A   1      36.989  31.620  31.664  1.00  0.00     0.058 A 
ATOM     76  C   UNL A   1      36.417  32.014  32.890  1.00  0.00     0.135 A 
ATOM     77  C   UNL A   1      36.502  32.266  30.514  1.00  0.00     0.135 A 
ATOM     78  F   UNL A   1      36.825  31.450  34.038  1.00  0.00    -0.206 F 
ATOM     79  C   UNL A   1      35.489  33.055  32.981  1.00  0.00     0.059 A 
ATOM     80  C   UNL A   1      35.570  33.305  30.580  1.00  0.00     0.059 A 
ATOM     81  F   UNL A   1      37.000  31.979  29.302  1.00  0.00    -0.206 F 
ATOM     82  C   UNL A   1      35.098  33.721  31.822  1.00  0.00     0.060 A 
BRANCH  82  83
ATOM     83  S   UNL A   1      34.078  35.209  31.964  1.00  0.00     0.124 S 
ATOM     84  O   UNL A   1      34.919  36.077  32.781  1.00  0.00    -0.237 OA
ATOM     85  O   UNL A   1      33.919  35.606  30.569  1.00  0.00    -0.237 OA
ATOM     86  O   UNL A   1      32.862  34.727  32.613  1.00  0.00    -0.744 OA
ENDBRANCH  82  83
ENDBRANCH  50  75
BRANCH  62  87
ATOM     87  C   UNL A   1      42.480  29.482  33.946  1.00  0.00     0.058 A 
ATOM     88  C   UNL A   1      42.599  29.723  35.326  1.00  0.00     0.135 A 
ATOM     89  C   UNL A   1      42.088  28.195  33.552  1.00  0.00     0.135 A 
ATOM     90  F   UNL A   1      42.881  30.950  35.791  1.00  0.00    -0.206 F 
ATOM     91  C   UNL A   1      42.388  28.713  36.268  1.00  0.00     0.059 A 
ATOM     92  C   UNL A   1      41.842  27.181  34.472  1.00  0.00     0.059 A 
ATOM     93  F   UNL A   1      41.905  27.917  32.250  1.00  0.00    -0.206 F 
ATOM     94  C   UNL A   1      42.012  27.443  35.830  1.00  0.00     0.060 A 
BRANCH  94  95
ATOM     95  S   UNL A   1      41.695  26.141  37.041  1.00  0.00     0.124 S 
ATOM     96  O   UNL A   1      41.577  24.955  36.193  1.00  0.00    -0.237 OA
ATOM     97  O   UNL A   1      42.893  26.195  37.882  1.00  0.00    -0.237 OA
ATOM     98  O   UNL A   1      40.469  26.566  37.693  1.00  0.00    -0.744 OA
ENDBRANCH  94  95
ENDBRANCH  62  87
ENDBRANCH  36  37
ENDBRANCH  28  31
ENDBRANCH  26  27
ENDBRANCH   1  26
TORSDOF 16
ENDMDL
MODEL 3
REMARK VINA RESULT:     -12.6      2.910      9.557
REMARK SMILES CCn1c(N2CCC(C(=O)NCCCCNC(=O)c3ccc(-c4c5nc(c(-c6c(F)cc(S(=O)(=O)[O-])cc6F)c6ccc([nH]6)c(-c6c(F)cc(S(=O)(=O)[O-])cc6F)c6nc(c(-c7c(F)cc(S(=O)(=O)[O-])cc7F)c7ccc4[nH]7)C=C6)C=C5)cc3)CC2)nc2cc(C)ccc21
REMARK SMILES IDX 14 1 13 2 12 3 11 4 9 5 10 6 8 8 5 9 6 10 86 11 7 12 85 13
REMARK SMILES IDX 4 14 3 15 94 16 87 17 88 18 93 19 89 20 92 21 90 22 91 23
REMARK SMILES IDX 2 24 1 25 15 26 16 27 17 28 18 30 19 31 20 32 84 33 21 34
REMARK SMILES IDX 83 35 22 36 23 37 24 38 77 39 25 40 82 41 76 42 78 43 26 44
REMARK SMILES IDX 81 45 75 46 74 47 27 49 61 50 40 51 60 52 41 53 44 54 59 55
REMARK SMILES IDX 79 56 42 57 43 58 58 60 80 61 45 62 28 63 29 64 38 65 30 66
REMARK SMILES IDX 31 67 37 68 39 69 32 70 33 71 34 72 35 73 36 74 62 75 63 76
REMARK SMILES IDX 72 77 64 78 65 79 71 80 73 81 66 82 67 83 68 84 69 85 70 86
REMARK SMILES IDX 46 87 47 88 56 89 48 90 49 91 55 92 57 93 50 94 51 95 52 96
REMARK SMILES IDX 53 97 54 98
REMARK H PARENT 11 7 16 29 78 48 44 59
REMARK Flexibility Score: inf
ROOT
ATOM      1  C   UNL A   1      33.233  30.414  27.122  1.00  0.00     0.023 C 
ENDROOT
BRANCH   1   2
ATOM      2  C   UNL A   1      33.658  29.051  26.565  1.00  0.00     0.023 C 
BRANCH   2   3
ATOM      3  C   UNL A   1      33.406  28.862  25.074  1.00  0.00     0.116 C 
BRANCH   3   4
ATOM      4  N   UNL A   1      32.215  29.567  24.621  1.00  0.00    -0.356 N 
ATOM      5  C   UNL A   1      31.033  29.085  24.146  1.00  0.00     0.223 C 
ATOM      6  O   UNL A   1      30.140  29.894  23.877  1.00  0.00    -0.275 OA
ATOM      7  H   UNL A   1      32.275  30.548  24.664  1.00  0.00     0.163 HD
BRANCH   5   8
ATOM      8  C   UNL A   1      30.787  27.592  23.989  1.00  0.00     0.082 C 
ATOM      9  N   UNL A   1      31.834  24.956  24.343  1.00  0.00    -0.342 N 
ATOM     10  C   UNL A   1      31.724  25.450  22.978  1.00  0.00     0.120 C 
ATOM     11  C   UNL A   1      30.820  25.394  25.284  1.00  0.00     0.120 C 
ATOM     12  C   UNL A   1      31.719  26.969  22.941  1.00  0.00     0.035 C 
ATOM     13  C   UNL A   1      30.773  26.911  25.364  1.00  0.00     0.035 C 
BRANCH   9  14
ATOM     14  C   UNL A   1      32.980  24.351  24.743  1.00  0.00     0.206 A 
ATOM     15  N   UNL A   1      33.141  22.980  24.696  1.00  0.00    -0.310 N 
ATOM     16  C   UNL A   1      34.450  22.686  25.011  1.00  0.00     0.070 A 
ATOM     17  N   UNL A   1      34.107  24.935  25.088  1.00  0.00    -0.213 NA
ATOM     18  C   UNL A   1      35.023  23.924  25.274  1.00  0.00     0.091 A 
ATOM     19  C   UNL A   1      35.172  21.487  25.069  1.00  0.00     0.029 A 
ATOM     20  C   UNL A   1      36.378  23.984  25.645  1.00  0.00     0.034 A 
ATOM     21  C   UNL A   1      36.522  21.567  25.427  1.00  0.00     0.006 A 
ATOM     22  C   UNL A   1      37.130  22.794  25.722  1.00  0.00    -0.049 A 
ATOM     23  C   UNL A   1      38.579  22.849  26.116  1.00  0.00     0.044 C 
BRANCH  15  24
ATOM     24  C   UNL A   1      32.176  22.003  24.232  1.00  0.00     0.122 C 
ATOM     25  C   UNL A   1      32.269  21.749  22.736  1.00  0.00     0.028 C 
ENDBRANCH  15  24
ENDBRANCH   9  14
ENDBRANCH   5   8
ENDBRANCH   3   4
ENDBRANCH   2   3
ENDBRANCH   1   2
BRANCH   1  26
ATOM     26  C   UNL A   1      34.384  31.313  27.578  1.00  0.00     0.116 C 
BRANCH  26  27
ATOM     27  N   UNL A   1      34.229  31.841  28.918  1.00  0.00    -0.352 N 
ATOM     28  C   UNL A   1      35.050  31.965  30.003  1.00  0.00     0.251 C 
ATOM     29  H   UNL A   1      33.324  32.189  29.085  1.00  0.00     0.163 HD
ATOM     30  O   UNL A   1      34.623  32.672  30.921  1.00  0.00    -0.269 OA
BRANCH  28  31
ATOM     31  C   UNL A   1      36.355  31.272  30.180  1.00  0.00     0.039 A 
ATOM     32  C   UNL A   1      37.606  31.884  30.164  1.00  0.00     0.014 A 
ATOM     33  C   UNL A   1      36.298  29.866  30.275  1.00  0.00     0.014 A 
ATOM     34  C   UNL A   1      38.763  31.112  30.127  1.00  0.00     0.010 A 
ATOM     35  C   UNL A   1      37.453  29.090  30.253  1.00  0.00     0.010 A 
ATOM     36  C   UNL A   1      38.684  29.715  30.122  1.00  0.00    -0.014 A 
BRANCH  36  37
ATOM     37  C   UNL A   1      39.938  28.965  30.068  1.00  0.00     0.031 A 
ATOM     38  C   UNL A   1      40.576  28.754  31.396  1.00  0.00     0.074 A 
ATOM     39  C   UNL A   1      40.489  28.474  28.938  1.00  0.00     0.049 A 
ATOM     40  N   UNL A   1      41.639  29.326  31.858  1.00  0.00    -0.248 NA
ATOM     41  C   UNL A   1      39.862  27.935  32.386  1.00  0.00     0.031 C 
ATOM     42  C   UNL A   1      39.909  28.399  27.593  1.00  0.00     0.029 A 
ATOM     43  N   UNL A   1      41.704  27.876  28.775  1.00  0.00    -0.354 N 
ATOM     44  C   UNL A   1      41.850  28.788  33.125  1.00  0.00     0.074 A 
ATOM     45  C   UNL A   1      40.652  28.058  33.453  1.00  0.00     0.031 C 
ATOM     46  C   UNL A   1      40.685  27.613  26.807  1.00  0.00     0.029 A 
ATOM     47  C   UNL A   1      41.893  27.266  27.538  1.00  0.00     0.049 A 
ATOM     48  H   UNL A   1      42.394  27.877  29.477  1.00  0.00     0.167 HD
ATOM     49  C   UNL A   1      43.077  28.820  33.716  1.00  0.00     0.037 A 
ATOM     50  C   UNL A   1      42.968  26.536  27.150  1.00  0.00     0.037 A 
ATOM     51  C   UNL A   1      43.943  29.767  33.061  1.00  0.00     0.049 A 
ATOM     52  C   UNL A   1      44.103  26.963  28.001  1.00  0.00     0.074 A 
ATOM     53  C   UNL A   1      43.987  31.138  32.926  1.00  0.00     0.029 A 
ATOM     54  N   UNL A   1      44.783  29.256  32.105  1.00  0.00    -0.354 N 
ATOM     55  N   UNL A   1      44.654  28.142  27.940  1.00  0.00    -0.248 NA
ATOM     56  C   UNL A   1      44.401  26.193  29.198  1.00  0.00     0.031 C 
ATOM     57  C   UNL A   1      44.537  31.373  31.630  1.00  0.00     0.029 A 
ATOM     58  C   UNL A   1      44.842  30.137  31.058  1.00  0.00     0.049 A 
ATOM     59  H   UNL A   1      45.263  28.399  32.161  1.00  0.00     0.167 HD
ATOM     60  C   UNL A   1      45.000  28.434  29.247  1.00  0.00     0.074 A 
ATOM     61  C   UNL A   1      44.947  27.154  29.947  1.00  0.00     0.031 C 
ATOM     62  C   UNL A   1      45.032  29.726  29.684  1.00  0.00     0.037 A 
BRANCH  49  63
ATOM     63  C   UNL A   1      43.627  27.732  34.614  1.00  0.00     0.058 A 
ATOM     64  C   UNL A   1      44.003  28.050  35.938  1.00  0.00     0.135 A 
ATOM     65  C   UNL A   1      44.075  26.479  34.142  1.00  0.00     0.135 A 
ATOM     66  F   UNL A   1      43.638  29.217  36.493  1.00  0.00    -0.206 F 
ATOM     67  C   UNL A   1      44.827  27.221  36.703  1.00  0.00     0.059 A 
ATOM     68  C   UNL A   1      44.855  25.616  34.907  1.00  0.00     0.059 A 
ATOM     69  F   UNL A   1      43.865  26.073  32.886  1.00  0.00    -0.206 F 
ATOM     70  C   UNL A   1      45.261  26.011  36.170  1.00  0.00     0.060 A 
BRANCH  70  71
ATOM     71  S   UNL A   1      46.409  24.989  37.111  1.00  0.00     0.124 S 
ATOM     72  O   UNL A   1      45.680  24.807  38.361  1.00  0.00    -0.237 OA
ATOM     73  O   UNL A   1      46.527  23.809  36.260  1.00  0.00    -0.237 OA
ATOM     74  O   UNL A   1      47.608  25.818  37.192  1.00  0.00    -0.744 OA
ENDBRANCH  70  71
ENDBRANCH  49  63
BRANCH  50  75
ATOM     75  C   UNL A   1      43.041  25.283  26.352  1.00  0.00     0.058 A 
ATOM     76  C   UNL A   1      43.968  25.159  25.297  1.00  0.00     0.135 A 
ATOM     77  C   UNL A   1      42.481  24.086  26.832  1.00  0.00     0.135 A 
ATOM     78  F   UNL A   1      44.554  26.251  24.781  1.00  0.00    -0.206 F 
ATOM     79  C   UNL A   1      44.387  23.916  24.814  1.00  0.00     0.059 A 
ATOM     80  C   UNL A   1      42.880  22.833  26.360  1.00  0.00     0.059 A 
ATOM     81  F   UNL A   1      41.607  24.097  27.850  1.00  0.00    -0.206 F 
ATOM     82  C   UNL A   1      43.863  22.755  25.378  1.00  0.00     0.060 A 
BRANCH  82  83
ATOM     83  S   UNL A   1      44.571  21.156  24.914  1.00  0.00     0.124 S 
ATOM     84  O   UNL A   1      45.859  21.182  25.598  1.00  0.00    -0.237 OA
ATOM     85  O   UNL A   1      43.586  20.219  25.444  1.00  0.00    -0.237 OA
ATOM     86  O   UNL A   1      44.638  21.224  23.456  1.00  0.00    -0.744 OA
ENDBRANCH  82  83
ENDBRANCH  50  75
BRANCH  62  87
ATOM     87  C   UNL A   1      45.094  30.806  28.636  1.00  0.00     0.058 A 
ATOM     88  C   UNL A   1      46.270  31.269  28.018  1.00  0.00     0.135 A 
ATOM     89  C   UNL A   1      43.879  31.339  28.181  1.00  0.00     0.135 A 
ATOM     90  F   UNL A   1      47.465  30.745  28.330  1.00  0.00    -0.206 F 
ATOM     91  C   UNL A   1      46.239  32.256  27.030  1.00  0.00     0.059 A 
ATOM     92  C   UNL A   1      43.821  32.300  27.177  1.00  0.00     0.059 A 
ATOM     93  F   UNL A   1      42.718  30.898  28.695  1.00  0.00    -0.206 F 
ATOM     94  C   UNL A   1      45.008  32.768  26.618  1.00  0.00     0.060 A 
BRANCH  94  95
ATOM     95  S   UNL A   1      44.954  34.013  25.311  1.00  0.00     0.124 S 
ATOM     96  O   UNL A   1      44.459  33.241  24.171  1.00  0.00    -0.237 OA
ATOM     97  O   UNL A   1      44.018  34.999  25.855  1.00  0.00    -0.237 OA
ATOM     98  O   UNL A   1      46.330  34.466  25.206  1.00  0.00    -0.744 OA
ENDBRANCH  94  95
ENDBRANCH  62  87
ENDBRANCH  36  37
ENDBRANCH  28  31
ENDBRANCH  26  27
ENDBRANCH   1  26
TORSDOF 16
ENDMDL
