MODEL 1
REMARK VINA RESULT:     -11.0      0.000      0.000
REMARK SMILES CCCCNC(=O)c1cnn([C@@H](C)C(=O)NCCCCNC(=O)c2ccc(-c3c4nc(c(-c5c(F)cc(S(=O)(=O)[O-])cc5F)c5ccc([nH]5)c(-c5c(F)cc(S(=O)(=O)[O-])cc5F)c5nc(c(-c6c(F)cc(S(=O)(=O)[O-])cc6F)c6ccc3[nH]6)C=C5)C=C4)cc2)c1
REMARK SMILES IDX 17 1 16 2 14 3 15 4 12 6 13 7 11 8 8 9 9 10 90 11 10 12 6 13
REMARK SMILES IDX 5 14 7 16 4 17 3 18 2 19 1 20 18 21 19 22 20 23 21 24 22 25
REMARK SMILES IDX 23 27 24 28 25 29 89 30 26 31 88 32 27 33 28 34 29 35 82 36
REMARK SMILES IDX 30 37 87 38 81 39 83 40 31 41 86 42 80 43 79 44 32 46 66 47
REMARK SMILES IDX 45 48 65 49 46 50 49 51 64 52 84 53 47 54 48 55 63 57 85 58
REMARK SMILES IDX 50 59 33 60 34 61 43 62 35 63 36 64 42 65 44 66 37 67 38 68
REMARK SMILES IDX 39 69 40 70 41 71 67 72 68 73 77 74 69 75 70 76 76 77 78 78
REMARK SMILES IDX 71 79 72 80 73 81 74 82 75 83 51 84 52 85 61 86 53 87 54 88
REMARK SMILES IDX 60 89 62 90 55 91 56 92 57 93 58 94 59 95
REMARK H PARENT 16 5 5 15 21 26 83 45 49 56
REMARK Flexibility Score: inf
ROOT
ATOM      1  C   UNL A   1      37.187  23.734  25.818  1.00  0.00     0.116 C 
ENDROOT
BRANCH   1   2
ATOM      2  N   UNL A   1      37.103  23.450  24.394  1.00  0.00    -0.354 N 
ATOM      3  C   UNL A   1      36.038  23.267  23.562  1.00  0.00     0.244 C 
ATOM      4  O   UNL A   1      36.309  22.901  22.410  1.00  0.00    -0.273 OA
ATOM      5  H   UNL A   1      37.977  23.376  23.947  1.00  0.00     0.163 HD
BRANCH   3   6
ATOM      6  C   UNL A   1      34.574  23.499  23.941  1.00  0.00     0.193 C 
ATOM      7  C   UNL A   1      33.655  22.301  23.723  1.00  0.00     0.044 C 
BRANCH   6   8
ATOM      8  N   UNL A   1      34.055  24.746  23.396  1.00  0.00    -0.260 N 
ATOM      9  C   UNL A   1      33.518  26.863  23.059  1.00  0.00     0.077 A 
ATOM     10  C   UNL A   1      33.298  26.050  21.933  1.00  0.00     0.149 A 
ATOM     11  C   UNL A   1      34.053  25.984  23.986  1.00  0.00     0.123 A 
ATOM     12  N   UNL A   1      33.454  24.757  22.195  1.00  0.00    -0.180 NA
BRANCH   9  13
ATOM     13  C   UNL A   1      33.321  28.288  23.223  1.00  0.00     0.254 C 
ATOM     14  N   UNL A   1      32.166  28.739  23.823  1.00  0.00    -0.352 N 
ATOM     15  H   UNL A   1      32.018  29.710  23.754  1.00  0.00     0.163 HD
ATOM     16  O   UNL A   1      34.150  29.113  22.854  1.00  0.00    -0.269 OA
BRANCH  14  17
ATOM     17  C   UNL A   1      31.131  28.014  24.540  1.00  0.00     0.116 C 
BRANCH  17  18
ATOM     18  C   UNL A   1      29.959  27.623  23.645  1.00  0.00     0.021 C 
BRANCH  18  19
ATOM     19  C   UNL A   1      29.305  26.287  23.989  1.00  0.00    -0.002 C 
ATOM     20  C   UNL A   1      30.261  25.108  23.900  1.00  0.00     0.004 C 
ENDBRANCH  18  19
ENDBRANCH  17  18
ENDBRANCH  14  17
ENDBRANCH   9  13
ENDBRANCH   6   8
ENDBRANCH   3   6
ENDBRANCH   1   2
BRANCH   1  21
ATOM     21  C   UNL A   1      38.552  23.364  26.420  1.00  0.00     0.023 C 
BRANCH  21  22
ATOM     22  C   UNL A   1      39.120  21.992  26.046  1.00  0.00     0.023 C 
BRANCH  22  23
ATOM     23  C   UNL A   1      40.167  21.442  27.005  1.00  0.00     0.116 C 
BRANCH  23  24
ATOM     24  N   UNL A   1      41.336  20.886  26.326  1.00  0.00    -0.352 N 
ATOM     25  C   UNL A   1      42.438  21.571  25.846  1.00  0.00     0.251 C 
ATOM     26  H   UNL A   1      41.340  19.910  26.195  1.00  0.00     0.163 HD
ATOM     27  O   UNL A   1      43.176  21.078  25.004  1.00  0.00    -0.269 OA
BRANCH  25  28
ATOM     28  C   UNL A   1      42.695  22.920  26.377  1.00  0.00     0.039 A 
ATOM     29  C   UNL A   1      42.208  24.058  25.731  1.00  0.00     0.014 A 
ATOM     30  C   UNL A   1      43.345  23.013  27.603  1.00  0.00     0.014 A 
ATOM     31  C   UNL A   1      42.285  25.290  26.383  1.00  0.00     0.010 A 
ATOM     32  C   UNL A   1      43.302  24.202  28.295  1.00  0.00     0.010 A 
ATOM     33  C   UNL A   1      42.804  25.357  27.683  1.00  0.00    -0.014 A 
BRANCH  33  34
ATOM     34  C   UNL A   1      42.718  26.598  28.466  1.00  0.00     0.031 A 
ATOM     35  C   UNL A   1      43.822  27.595  28.276  1.00  0.00     0.074 A 
ATOM     36  C   UNL A   1      41.578  26.967  29.091  1.00  0.00     0.049 A 
ATOM     37  N   UNL A   1      44.560  28.167  29.175  1.00  0.00    -0.248 NA
ATOM     38  C   UNL A   1      44.189  27.965  26.897  1.00  0.00     0.031 C 
ATOM     39  C   UNL A   1      40.293  26.255  29.114  1.00  0.00     0.029 A 
ATOM     40  N   UNL A   1      41.275  28.147  29.702  1.00  0.00    -0.354 N 
ATOM     41  C   UNL A   1      45.348  29.105  28.504  1.00  0.00     0.074 A 
ATOM     42  C   UNL A   1      45.178  28.839  27.099  1.00  0.00     0.031 C 
ATOM     43  C   UNL A   1      39.311  27.115  29.452  1.00  0.00     0.029 A 
ATOM     44  C   UNL A   1      39.911  28.376  29.839  1.00  0.00     0.049 A 
ATOM     45  H   UNL A   1      41.960  28.779  30.016  1.00  0.00     0.167 HD
ATOM     46  C   UNL A   1      45.935  30.159  29.143  1.00  0.00     0.037 A 
ATOM     47  C   UNL A   1      39.305  29.532  30.198  1.00  0.00     0.037 A 
ATOM     48  C   UNL A   1      45.975  29.961  30.568  1.00  0.00     0.049 A 
ATOM     49  C   UNL A   1      40.316  30.359  30.902  1.00  0.00     0.074 A 
ATOM     50  C   UNL A   1      46.515  29.002  31.402  1.00  0.00     0.029 A 
ATOM     51  N   UNL A   1      45.094  30.670  31.347  1.00  0.00    -0.354 N 
ATOM     52  N   UNL A   1      40.846  30.041  32.052  1.00  0.00    -0.248 NA
ATOM     53  C   UNL A   1      41.057  31.342  30.128  1.00  0.00     0.031 C 
ATOM     54  C   UNL A   1      45.569  28.860  32.460  1.00  0.00     0.029 A 
ATOM     55  C   UNL A   1      44.543  29.777  32.230  1.00  0.00     0.049 A 
ATOM     56  H   UNL A   1      44.897  31.633  31.285  1.00  0.00     0.167 HD
ATOM     57  C   UNL A   1      42.168  30.445  31.958  1.00  0.00     0.074 A 
ATOM     58  C   UNL A   1      42.208  31.338  30.804  1.00  0.00     0.031 C 
ATOM     59  C   UNL A   1      43.159  29.802  32.647  1.00  0.00     0.037 A 
BRANCH  46  60
ATOM     60  C   UNL A   1      46.186  31.518  28.521  1.00  0.00     0.058 A 
ATOM     61  C   UNL A   1      45.126  32.206  27.889  1.00  0.00     0.135 A 
ATOM     62  C   UNL A   1      47.477  32.031  28.266  1.00  0.00     0.135 A 
ATOM     63  F   UNL A   1      43.855  31.807  28.055  1.00  0.00    -0.206 F 
ATOM     64  C   UNL A   1      45.342  33.264  27.002  1.00  0.00     0.059 A 
ATOM     65  C   UNL A   1      47.709  33.119  27.430  1.00  0.00     0.059 A 
ATOM     66  F   UNL A   1      48.582  31.438  28.733  1.00  0.00    -0.206 F 
ATOM     67  C   UNL A   1      46.642  33.697  26.762  1.00  0.00     0.060 A 
BRANCH  67  68
ATOM     68  S   UNL A   1      46.942  34.959  25.511  1.00  0.00     0.124 S 
ATOM     69  O   UNL A   1      46.887  36.176  26.313  1.00  0.00    -0.237 OA
ATOM     70  O   UNL A   1      48.260  34.586  25.008  1.00  0.00    -0.237 OA
ATOM     71  O   UNL A   1      45.842  34.768  24.572  1.00  0.00    -0.744 OA
ENDBRANCH  67  68
ENDBRANCH  46  60
BRANCH  47  72
ATOM     72  C   UNL A   1      37.995  30.056  29.734  1.00  0.00     0.058 A 
ATOM     73  C   UNL A   1      37.059  30.589  30.636  1.00  0.00     0.135 A 
ATOM     74  C   UNL A   1      37.734  30.277  28.364  1.00  0.00     0.135 A 
ATOM     75  F   UNL A   1      37.241  30.447  31.958  1.00  0.00    -0.206 F 
ATOM     76  C   UNL A   1      35.953  31.332  30.210  1.00  0.00     0.059 A 
ATOM     77  C   UNL A   1      36.631  31.000  27.915  1.00  0.00     0.059 A 
ATOM     78  F   UNL A   1      38.596  29.873  27.420  1.00  0.00    -0.206 F 
ATOM     79  C   UNL A   1      35.757  31.548  28.845  1.00  0.00     0.060 A 
BRANCH  79  80
ATOM     80  S   UNL A   1      34.431  32.649  28.300  1.00  0.00     0.124 S 
ATOM     81  O   UNL A   1      33.922  33.159  29.568  1.00  0.00    -0.237 OA
ATOM     82  O   UNL A   1      35.150  33.608  27.469  1.00  0.00    -0.237 OA
ATOM     83  O   UNL A   1      33.527  31.758  27.578  1.00  0.00    -0.744 OA
ENDBRANCH  79  80
ENDBRANCH  47  72
BRANCH  59  84
ATOM     84  C   UNL A   1      42.767  28.840  33.740  1.00  0.00     0.058 A 
ATOM     85  C   UNL A   1      42.700  27.444  33.577  1.00  0.00     0.135 A 
ATOM     86  C   UNL A   1      42.620  29.334  35.044  1.00  0.00     0.135 A 
ATOM     87  F   UNL A   1      42.940  26.876  32.389  1.00  0.00    -0.206 F 
ATOM     88  C   UNL A   1      42.455  26.586  34.649  1.00  0.00     0.059 A 
ATOM     89  C   UNL A   1      42.406  28.495  36.135  1.00  0.00     0.059 A 
ATOM     90  F   UNL A   1      42.740  30.651  35.281  1.00  0.00    -0.206 F 
ATOM     91  C   UNL A   1      42.312  27.120  35.927  1.00  0.00     0.060 A 
BRANCH  91  92
ATOM     92  S   UNL A   1      42.089  25.999  37.325  1.00  0.00     0.124 S 
ATOM     93  O   UNL A   1      42.386  24.701  36.727  1.00  0.00    -0.237 OA
ATOM     94  O   UNL A   1      43.069  26.490  38.290  1.00  0.00    -0.237 OA
ATOM     95  O   UNL A   1      40.695  26.205  37.708  1.00  0.00    -0.744 OA
ENDBRANCH  91  92
ENDBRANCH  59  84
ENDBRANCH  33  34
ENDBRANCH  25  28
ENDBRANCH  23  24
ENDBRANCH  22  23
ENDBRANCH  21  22
ENDBRANCH   1  21
TORSDOF 19
ENDMDL
MODEL 2
REMARK VINA RESULT:     -10.8      2.658      9.042
REMARK SMILES CCCCNC(=O)c1cnn([C@@H](C)C(=O)NCCCCNC(=O)c2ccc(-c3c4nc(c(-c5c(F)cc(S(=O)(=O)[O-])cc5F)c5ccc([nH]5)c(-c5c(F)cc(S(=O)(=O)[O-])cc5F)c5nc(c(-c6c(F)cc(S(=O)(=O)[O-])cc6F)c6ccc3[nH]6)C=C5)C=C4)cc2)c1
REMARK SMILES IDX 17 1 16 2 14 3 15 4 12 6 13 7 11 8 8 9 9 10 90 11 10 12 6 13
REMARK SMILES IDX 5 14 7 16 4 17 3 18 2 19 1 20 18 21 19 22 20 23 21 24 22 25
REMARK SMILES IDX 23 27 24 28 25 29 89 30 26 31 88 32 27 33 28 34 29 35 82 36
REMARK SMILES IDX 30 37 87 38 81 39 83 40 31 41 86 42 80 43 79 44 32 46 66 47
REMARK SMILES IDX 45 48 65 49 46 50 49 51 64 52 84 53 47 54 48 55 63 57 85 58
REMARK SMILES IDX 50 59 33 60 34 61 43 62 35 63 36 64 42 65 44 66 37 67 38 68
REMARK SMILES IDX 39 69 40 70 41 71 67 72 68 73 77 74 69 75 70 76 76 77 78 78
REMARK SMILES IDX 71 79 72 80 73 81 74 82 75 83 51 84 52 85 61 86 53 87 54 88
REMARK SMILES IDX 60 89 62 90 55 91 56 92 57 93 58 94 59 95
REMARK H PARENT 16 5 5 15 21 26 83 45 49 56
REMARK Flexibility Score: inf
ROOT
ATOM      1  C   UNL A   1      34.985  29.358  27.286  1.00  0.00     0.116 C 
ENDROOT
BRANCH   1   2
ATOM      2  N   UNL A   1      33.658  28.870  27.625  1.00  0.00    -0.354 N 
ATOM      3  C   UNL A   1      32.523  28.727  26.883  1.00  0.00     0.244 C 
ATOM      4  O   UNL A   1      31.504  28.405  27.511  1.00  0.00    -0.273 OA
ATOM      5  H   UNL A   1      33.560  28.591  28.564  1.00  0.00     0.163 HD
BRANCH   3   6
ATOM      6  C   UNL A   1      32.432  28.910  25.368  1.00  0.00     0.193 C 
ATOM      7  C   UNL A   1      31.139  29.552  24.873  1.00  0.00     0.044 C 
BRANCH   6   8
ATOM      8  N   UNL A   1      32.802  27.702  24.644  1.00  0.00    -0.260 N 
ATOM      9  C   UNL A   1      33.061  26.135  23.107  1.00  0.00     0.077 A 
ATOM     10  C   UNL A   1      33.887  25.951  24.230  1.00  0.00     0.149 A 
ATOM     11  C   UNL A   1      32.393  27.313  23.394  1.00  0.00     0.123 A 
ATOM     12  N   UNL A   1      33.603  26.790  25.219  1.00  0.00    -0.180 NA
BRANCH   9  13
ATOM     13  C   UNL A   1      32.962  25.350  21.895  1.00  0.00     0.254 C 
ATOM     14  N   UNL A   1      32.535  24.042  21.977  1.00  0.00    -0.352 N 
ATOM     15  H   UNL A   1      32.647  23.519  21.150  1.00  0.00     0.163 HD
ATOM     16  O   UNL A   1      33.236  25.808  20.790  1.00  0.00    -0.269 OA
BRANCH  14  17
ATOM     17  C   UNL A   1      31.945  23.311  23.086  1.00  0.00     0.116 C 
BRANCH  17  18
ATOM     18  C   UNL A   1      32.569  21.933  23.279  1.00  0.00     0.021 C 
BRANCH  18  19
ATOM     19  C   UNL A   1      33.685  21.871  24.319  1.00  0.00    -0.002 C 
ATOM     20  C   UNL A   1      33.991  20.458  24.789  1.00  0.00     0.004 C 
ENDBRANCH  18  19
ENDBRANCH  17  18
ENDBRANCH  14  17
ENDBRANCH   9  13
ENDBRANCH   6   8
ENDBRANCH   3   6
ENDBRANCH   1   2
BRANCH   1  21
ATOM     21  C   UNL A   1      35.324  30.690  27.975  1.00  0.00     0.023 C 
BRANCH  21  22
ATOM     22  C   UNL A   1      34.250  31.780  27.930  1.00  0.00     0.023 C 
BRANCH  22  23
ATOM     23  C   UNL A   1      34.766  33.203  28.092  1.00  0.00     0.116 C 
BRANCH  23  24
ATOM     24  N   UNL A   1      34.175  33.905  29.231  1.00  0.00    -0.352 N 
ATOM     25  C   UNL A   1      34.451  33.716  30.573  1.00  0.00     0.251 C 
ATOM     26  H   UNL A   1      33.503  34.592  29.018  1.00  0.00     0.163 HD
ATOM     27  O   UNL A   1      33.673  34.089  31.441  1.00  0.00    -0.269 OA
BRANCH  25  28
ATOM     28  C   UNL A   1      35.712  33.044  30.929  1.00  0.00     0.039 A 
ATOM     29  C   UNL A   1      35.734  31.703  31.318  1.00  0.00     0.014 A 
ATOM     30  C   UNL A   1      36.891  33.763  30.758  1.00  0.00     0.014 A 
ATOM     31  C   UNL A   1      36.964  31.053  31.431  1.00  0.00     0.010 A 
ATOM     32  C   UNL A   1      38.090  33.086  30.743  1.00  0.00     0.010 A 
ATOM     33  C   UNL A   1      38.144  31.738  31.110  1.00  0.00    -0.014 A 
BRANCH  33  34
ATOM     34  C   UNL A   1      39.429  31.028  31.030  1.00  0.00     0.031 A 
ATOM     35  C   UNL A   1      40.155  30.796  32.321  1.00  0.00     0.074 A 
ATOM     36  C   UNL A   1      39.803  30.358  29.917  1.00  0.00     0.049 A 
ATOM     37  N   UNL A   1      41.383  31.082  32.622  1.00  0.00    -0.248 NA
ATOM     38  C   UNL A   1      39.398  30.216  33.445  1.00  0.00     0.031 C 
ATOM     39  C   UNL A   1      39.058  30.216  28.659  1.00  0.00     0.029 A 
ATOM     40  N   UNL A   1      40.858  29.516  29.734  1.00  0.00    -0.354 N 
ATOM     41  C   UNL A   1      41.614  30.551  33.893  1.00  0.00     0.074 A 
ATOM     42  C   UNL A   1      40.326  30.156  34.402  1.00  0.00     0.031 C 
ATOM     43  C   UNL A   1      39.530  29.153  27.976  1.00  0.00     0.029 A 
ATOM     44  C   UNL A   1      40.712  28.656  28.653  1.00  0.00     0.049 A 
ATOM     45  H   UNL A   1      41.652  29.517  30.315  1.00  0.00     0.167 HD
ATOM     46  C   UNL A   1      42.871  30.295  34.363  1.00  0.00     0.037 A 
ATOM     47  C   UNL A   1      41.474  27.578  28.351  1.00  0.00     0.037 A 
ATOM     48  C   UNL A   1      43.875  30.980  33.593  1.00  0.00     0.049 A 
ATOM     49  C   UNL A   1      42.771  27.748  29.051  1.00  0.00     0.074 A 
ATOM     50  C   UNL A   1      44.131  32.303  33.285  1.00  0.00     0.029 A 
ATOM     51  N   UNL A   1      44.633  30.247  32.714  1.00  0.00    -0.354 N 
ATOM     52  N   UNL A   1      43.632  28.689  28.775  1.00  0.00    -0.248 NA
ATOM     53  C   UNL A   1      42.935  27.119  30.353  1.00  0.00     0.031 C 
ATOM     54  C   UNL A   1      44.606  32.282  31.940  1.00  0.00     0.029 A 
ATOM     55  C   UNL A   1      44.658  30.948  31.535  1.00  0.00     0.049 A 
ATOM     56  H   UNL A   1      45.074  29.385  32.895  1.00  0.00     0.167 HD
ATOM     57  C   UNL A   1      44.158  29.061  30.002  1.00  0.00     0.074 A 
ATOM     58  C   UNL A   1      43.780  27.987  30.915  1.00  0.00     0.031 C 
ATOM     59  C   UNL A   1      44.607  30.333  30.227  1.00  0.00     0.037 A 
BRANCH  46  60
ATOM     60  C   UNL A   1      43.227  29.172  35.315  1.00  0.00     0.058 A 
ATOM     61  C   UNL A   1      44.002  29.446  36.464  1.00  0.00     0.135 A 
ATOM     62  C   UNL A   1      43.090  27.804  34.990  1.00  0.00     0.135 A 
ATOM     63  F   UNL A   1      44.203  30.710  36.868  1.00  0.00    -0.206 F 
ATOM     64  C   UNL A   1      44.661  28.444  37.182  1.00  0.00     0.059 A 
ATOM     65  C   UNL A   1      43.693  26.786  35.724  1.00  0.00     0.059 A 
ATOM     66  F   UNL A   1      42.451  27.396  33.888  1.00  0.00    -0.206 F 
ATOM     67  C   UNL A   1      44.518  27.118  36.787  1.00  0.00     0.060 A 
BRANCH  67  68
ATOM     68  S   UNL A   1      45.479  25.835  37.611  1.00  0.00     0.124 S 
ATOM     69  O   UNL A   1      45.701  24.897  36.517  1.00  0.00    -0.237 OA
ATOM     70  O   UNL A   1      46.652  26.575  38.066  1.00  0.00    -0.237 OA
ATOM     71  O   UNL A   1      44.586  25.376  38.670  1.00  0.00    -0.744 OA
ENDBRANCH  67  68
ENDBRANCH  46  60
BRANCH  47  72
ATOM     72  C   UNL A   1      41.043  26.306  27.718  1.00  0.00     0.058 A 
ATOM     73  C   UNL A   1      41.781  25.720  26.676  1.00  0.00     0.135 A 
ATOM     74  C   UNL A   1      40.033  25.504  28.290  1.00  0.00     0.135 A 
ATOM     75  F   UNL A   1      42.778  26.403  26.090  1.00  0.00    -0.206 F 
ATOM     76  C   UNL A   1      41.561  24.405  26.254  1.00  0.00     0.059 A 
ATOM     77  C   UNL A   1      39.783  24.197  27.876  1.00  0.00     0.059 A 
ATOM     78  F   UNL A   1      39.313  25.937  29.336  1.00  0.00    -0.206 F 
ATOM     79  C   UNL A   1      40.570  23.644  26.874  1.00  0.00     0.060 A 
BRANCH  79  80
ATOM     80  S   UNL A   1      40.398  21.894  26.453  1.00  0.00     0.124 S 
ATOM     81  O   UNL A   1      41.548  21.679  25.583  1.00  0.00    -0.237 OA
ATOM     82  O   UNL A   1      40.459  21.256  27.763  1.00  0.00    -0.237 OA
ATOM     83  O   UNL A   1      39.096  21.832  25.793  1.00  0.00    -0.744 OA
ENDBRANCH  79  80
ENDBRANCH  47  72
BRANCH  59  84
ATOM     84  C   UNL A   1      44.801  31.248  29.045  1.00  0.00     0.058 A 
ATOM     85  C   UNL A   1      43.828  32.150  28.577  1.00  0.00     0.135 A 
ATOM     86  C   UNL A   1      46.077  31.335  28.470  1.00  0.00     0.135 A 
ATOM     87  F   UNL A   1      42.618  32.215  29.144  1.00  0.00    -0.206 F 
ATOM     88  C   UNL A   1      44.098  33.064  27.559  1.00  0.00     0.059 A 
ATOM     89  C   UNL A   1      46.379  32.262  27.474  1.00  0.00     0.059 A 
ATOM     90  F   UNL A   1      47.071  30.549  28.917  1.00  0.00    -0.206 F 
ATOM     91  C   UNL A   1      45.380  33.115  27.014  1.00  0.00     0.060 A 
BRANCH  91  92
ATOM     92  S   UNL A   1      45.749  34.363  25.762  1.00  0.00     0.124 S 
ATOM     93  O   UNL A   1      47.184  34.184  25.564  1.00  0.00    -0.237 OA
ATOM     94  O   UNL A   1      44.901  33.959  24.645  1.00  0.00    -0.237 OA
ATOM     95  O   UNL A   1      45.360  35.616  26.405  1.00  0.00    -0.744 OA
ENDBRANCH  91  92
ENDBRANCH  59  84
ENDBRANCH  33  34
ENDBRANCH  25  28
ENDBRANCH  23  24
ENDBRANCH  22  23
ENDBRANCH  21  22
ENDBRANCH   1  21
TORSDOF 19
ENDMDL
MODEL 3
REMARK VINA RESULT:     -10.7      1.452      2.364
REMARK SMILES CCCCNC(=O)c1cnn([C@@H](C)C(=O)NCCCCNC(=O)c2ccc(-c3c4nc(c(-c5c(F)cc(S(=O)(=O)[O-])cc5F)c5ccc([nH]5)c(-c5c(F)cc(S(=O)(=O)[O-])cc5F)c5nc(c(-c6c(F)cc(S(=O)(=O)[O-])cc6F)c6ccc3[nH]6)C=C5)C=C4)cc2)c1
REMARK SMILES IDX 17 1 16 2 14 3 15 4 12 6 13 7 11 8 8 9 9 10 90 11 10 12 6 13
REMARK SMILES IDX 5 14 7 16 4 17 3 18 2 19 1 20 18 21 19 22 20 23 21 24 22 25
REMARK SMILES IDX 23 27 24 28 25 29 89 30 26 31 88 32 27 33 28 34 29 35 82 36
REMARK SMILES IDX 30 37 87 38 81 39 83 40 31 41 86 42 80 43 79 44 32 46 66 47
REMARK SMILES IDX 45 48 65 49 46 50 49 51 64 52 84 53 47 54 48 55 63 57 85 58
REMARK SMILES IDX 50 59 33 60 34 61 43 62 35 63 36 64 42 65 44 66 37 67 38 68
REMARK SMILES IDX 39 69 40 70 41 71 67 72 68 73 77 74 69 75 70 76 76 77 78 78
REMARK SMILES IDX 71 79 72 80 73 81 74 82 75 83 51 84 52 85 61 86 53 87 54 88
REMARK SMILES IDX 60 89 62 90 55 91 56 92 57 93 58 94 59 95
REMARK H PARENT 16 5 5 15 21 26 83 45 49 56
REMARK Flexibility Score: inf
ROOT
ATOM      1  C   UNL A   1      37.774  23.960  26.406  1.00  0.00     0.116 C 
ENDROOT
BRANCH   1   2
ATOM      2  N   UNL A   1      37.319  23.704  25.048  1.00  0.00    -0.354 N 
ATOM      3  C   UNL A   1      36.516  22.734  24.524  1.00  0.00     0.244 C 
ATOM      4  O   UNL A   1      36.430  22.714  23.288  1.00  0.00    -0.273 OA
ATOM      5  H   UNL A   1      37.652  24.350  24.385  1.00  0.00     0.163 HD
BRANCH   3   6
ATOM      6  C   UNL A   1      35.721  21.712  25.339  1.00  0.00     0.193 C 
ATOM      7  C   UNL A   1      35.961  20.255  24.954  1.00  0.00     0.044 C 
BRANCH   6   8
ATOM      8  N   UNL A   1      34.313  22.069  25.444  1.00  0.00    -0.260 N 
ATOM      9  C   UNL A   1      32.373  22.920  26.073  1.00  0.00     0.077 A 
ATOM     10  C   UNL A   1      32.327  22.313  24.805  1.00  0.00     0.149 A 
ATOM     11  C   UNL A   1      33.699  22.777  26.445  1.00  0.00     0.123 A 
ATOM     12  N   UNL A   1      33.441  21.653  24.511  1.00  0.00    -0.180 NA
BRANCH   9  13
ATOM     13  C   UNL A   1      31.331  23.605  26.808  1.00  0.00     0.254 C 
ATOM     14  N   UNL A   1      31.126  24.948  26.585  1.00  0.00    -0.352 N 
ATOM     15  H   UNL A   1      30.523  25.386  27.228  1.00  0.00     0.163 HD
ATOM     16  O   UNL A   1      30.613  23.030  27.621  1.00  0.00    -0.269 OA
BRANCH  14  17
ATOM     17  C   UNL A   1      31.656  25.824  25.553  1.00  0.00     0.116 C 
BRANCH  17  18
ATOM     18  C   UNL A   1      32.931  26.539  25.987  1.00  0.00     0.021 C 
BRANCH  18  19
ATOM     19  C   UNL A   1      33.980  26.708  24.890  1.00  0.00    -0.002 C 
ATOM     20  C   UNL A   1      34.058  25.519  23.945  1.00  0.00     0.004 C 
ENDBRANCH  18  19
ENDBRANCH  17  18
ENDBRANCH  14  17
ENDBRANCH   9  13
ENDBRANCH   6   8
ENDBRANCH   3   6
ENDBRANCH   1   2
BRANCH   1  21
ATOM     21  C   UNL A   1      39.216  23.488  26.649  1.00  0.00     0.023 C 
BRANCH  21  22
ATOM     22  C   UNL A   1      39.538  22.038  26.276  1.00  0.00     0.023 C 
BRANCH  22  23
ATOM     23  C   UNL A   1      40.545  21.344  27.183  1.00  0.00     0.116 C 
BRANCH  23  24
ATOM     24  N   UNL A   1      41.690  20.794  26.460  1.00  0.00    -0.352 N 
ATOM     25  C   UNL A   1      42.764  21.486  25.929  1.00  0.00     0.251 C 
ATOM     26  H   UNL A   1      41.699  19.817  26.337  1.00  0.00     0.163 HD
ATOM     27  O   UNL A   1      43.471  20.992  25.061  1.00  0.00    -0.269 OA
BRANCH  25  28
ATOM     28  C   UNL A   1      43.029  22.842  26.438  1.00  0.00     0.039 A 
ATOM     29  C   UNL A   1      42.638  23.974  25.721  1.00  0.00     0.014 A 
ATOM     30  C   UNL A   1      43.585  22.952  27.708  1.00  0.00     0.014 A 
ATOM     31  C   UNL A   1      42.710  25.224  26.339  1.00  0.00     0.010 A 
ATOM     32  C   UNL A   1      43.532  24.165  28.358  1.00  0.00     0.010 A 
ATOM     33  C   UNL A   1      43.128  25.315  27.674  1.00  0.00    -0.014 A 
BRANCH  33  34
ATOM     34  C   UNL A   1      43.028  26.584  28.409  1.00  0.00     0.031 A 
ATOM     35  C   UNL A   1      44.085  27.611  28.132  1.00  0.00     0.074 A 
ATOM     36  C   UNL A   1      41.902  26.938  29.068  1.00  0.00     0.049 A 
ATOM     37  N   UNL A   1      44.837  28.246  28.975  1.00  0.00    -0.248 NA
ATOM     38  C   UNL A   1      44.379  27.937  26.725  1.00  0.00     0.031 C 
ATOM     39  C   UNL A   1      40.647  26.181  29.176  1.00  0.00     0.029 A 
ATOM     40  N   UNL A   1      41.580  28.130  29.643  1.00  0.00    -0.354 N 
ATOM     41  C   UNL A   1      45.560  29.184  28.233  1.00  0.00     0.074 A 
ATOM     42  C   UNL A   1      45.342  28.853  26.848  1.00  0.00     0.031 C 
ATOM     43  C   UNL A   1      39.648  27.018  29.520  1.00  0.00     0.029 A 
ATOM     44  C   UNL A   1      40.216  28.315  29.830  1.00  0.00     0.049 A 
ATOM     45  H   UNL A   1      42.253  28.799  29.902  1.00  0.00     0.167 HD
ATOM     46  C   UNL A   1      46.134  30.284  28.803  1.00  0.00     0.037 A 
ATOM     47  C   UNL A   1      39.581  29.462  30.169  1.00  0.00     0.037 A 
ATOM     48  C   UNL A   1      46.240  30.147  30.231  1.00  0.00     0.049 A 
ATOM     49  C   UNL A   1      40.589  30.353  30.795  1.00  0.00     0.074 A 
ATOM     50  C   UNL A   1      46.851  29.244  31.079  1.00  0.00     0.029 A 
ATOM     51  N   UNL A   1      45.367  30.855  31.019  1.00  0.00    -0.354 N 
ATOM     52  N   UNL A   1      41.178  30.103  31.933  1.00  0.00    -0.248 NA
ATOM     53  C   UNL A   1      41.259  31.330  29.951  1.00  0.00     0.031 C 
ATOM     54  C   UNL A   1      45.957  29.112  32.182  1.00  0.00     0.029 A 
ATOM     55  C   UNL A   1      44.887  29.980  31.960  1.00  0.00     0.049 A 
ATOM     56  H   UNL A   1      45.130  31.807  30.927  1.00  0.00     0.167 HD
ATOM     57  C   UNL A   1      42.480  30.550  31.765  1.00  0.00     0.074 A 
ATOM     58  C   UNL A   1      42.438  31.396  30.576  1.00  0.00     0.031 C 
ATOM     59  C   UNL A   1      43.522  29.972  32.436  1.00  0.00     0.037 A 
BRANCH  46  60
ATOM     60  C   UNL A   1      46.306  31.624  28.117  1.00  0.00     0.058 A 
ATOM     61  C   UNL A   1      47.551  32.289  28.179  1.00  0.00     0.135 A 
ATOM     62  C   UNL A   1      45.225  32.408  27.658  1.00  0.00     0.135 A 
ATOM     63  F   UNL A   1      48.650  31.645  28.603  1.00  0.00    -0.206 F 
ATOM     64  C   UNL A   1      47.691  33.649  27.893  1.00  0.00     0.059 A 
ATOM     65  C   UNL A   1      45.353  33.751  27.315  1.00  0.00     0.059 A 
ATOM     66  F   UNL A   1      43.973  31.938  27.620  1.00  0.00    -0.206 F 
ATOM     67  C   UNL A   1      46.578  34.377  27.485  1.00  0.00     0.060 A 
BRANCH  67  68
ATOM     68  S   UNL A   1      46.715  36.159  27.257  1.00  0.00     0.124 S 
ATOM     69  O   UNL A   1      45.392  36.604  27.681  1.00  0.00    -0.237 OA
ATOM     70  O   UNL A   1      47.818  36.499  28.149  1.00  0.00    -0.237 OA
ATOM     71  O   UNL A   1      47.003  36.294  25.833  1.00  0.00    -0.744 OA
ENDBRANCH  67  68
ENDBRANCH  46  60
BRANCH  47  72
ATOM     72  C   UNL A   1      38.235  29.919  29.741  1.00  0.00     0.058 A 
ATOM     73  C   UNL A   1      37.305  30.422  30.667  1.00  0.00     0.135 A 
ATOM     74  C   UNL A   1      37.919  30.107  28.379  1.00  0.00     0.135 A 
ATOM     75  F   UNL A   1      37.536  30.309  31.984  1.00  0.00    -0.206 F 
ATOM     76  C   UNL A   1      36.153  31.107  30.268  1.00  0.00     0.059 A 
ATOM     77  C   UNL A   1      36.770  30.772  27.956  1.00  0.00     0.059 A 
ATOM     78  F   UNL A   1      38.768  29.728  27.412  1.00  0.00    -0.206 F 
ATOM     79  C   UNL A   1      35.902  31.293  28.908  1.00  0.00     0.060 A 
BRANCH  79  80
ATOM     80  S   UNL A   1      34.510  32.324  28.392  1.00  0.00     0.124 S 
ATOM     81  O   UNL A   1      33.687  31.373  27.654  1.00  0.00    -0.237 OA
ATOM     82  O   UNL A   1      33.973  32.777  29.670  1.00  0.00    -0.237 OA
ATOM     83  O   UNL A   1      35.141  33.363  27.582  1.00  0.00    -0.744 OA
ENDBRANCH  79  80
ENDBRANCH  47  72
BRANCH  59  84
ATOM     84  C   UNL A   1      43.213  29.043  33.582  1.00  0.00     0.058 A 
ATOM     85  C   UNL A   1      43.017  29.465  34.910  1.00  0.00     0.135 A 
ATOM     86  C   UNL A   1      42.939  27.698  33.296  1.00  0.00     0.135 A 
ATOM     87  F   UNL A   1      43.146  30.753  35.251  1.00  0.00    -0.206 F 
ATOM     88  C   UNL A   1      42.611  28.585  35.912  1.00  0.00     0.059 A 
ATOM     89  C   UNL A   1      42.501  26.807  34.274  1.00  0.00     0.059 A 
ATOM     90  F   UNL A   1      43.040  27.244  32.036  1.00  0.00    -0.206 F 
ATOM     91  C   UNL A   1      42.351  27.256  35.585  1.00  0.00     0.060 A 
BRANCH  91  92
ATOM     92  S   UNL A   1      41.735  26.142  36.866  1.00  0.00     0.124 S 
ATOM     93  O   UNL A   1      41.407  24.945  36.100  1.00  0.00    -0.237 OA
ATOM     94  O   UNL A   1      42.879  26.025  37.766  1.00  0.00    -0.237 OA
ATOM     95  O   UNL A   1      40.591  26.861  37.420  1.00  0.00    -0.744 OA
ENDBRANCH  91  92
ENDBRANCH  59  84
ENDBRANCH  33  34
ENDBRANCH  25  28
ENDBRANCH  23  24
ENDBRANCH  22  23
ENDBRANCH  21  22
ENDBRANCH   1  21
TORSDOF 19
ENDMDL
