MODEL 1
REMARK VINA RESULT:     -11.4      0.000      0.000
REMARK SMILES C[NH2+][C@@]1(C(=O)NCCCCNC(=O)c2ccc(-c3c4nc(c(-c5c(F)cc(S(=O)(=O)[O-])cc5F)c5ccc([nH]5)c(-c5c(F)cc(S(=O)(=O)[O-])cc5F)c5nc(c(-c6c(F)cc(S(=O)(=O)[O-])cc6F)c6ccc3[nH]6)C=C5)C=C4)cc2)CCC[C@H]1CCSc1nccc(=O)[nH]1
REMARK SMILES IDX 8 1 7 2 6 3 4 4 5 5 3 7 80 8 83 9 81 10 82 11 2 12 1 13
REMARK SMILES IDX 84 16 85 17 86 18 87 19 88 20 93 21 89 22 91 23 90 25 92 26
REMARK SMILES IDX 9 27 10 28 11 29 12 30 13 32 14 33 15 34 79 35 16 36 78 37
REMARK SMILES IDX 17 38 18 39 19 40 72 41 20 42 77 43 71 44 73 45 21 46 76 47
REMARK SMILES IDX 70 48 69 49 22 51 56 52 35 53 55 54 36 55 39 56 54 57 74 58
REMARK SMILES IDX 37 59 38 60 53 62 75 63 40 64 23 65 24 66 33 67 25 68 26 69
REMARK SMILES IDX 32 70 34 71 27 72 28 73 29 74 30 75 31 76 57 77 58 78 67 79
REMARK SMILES IDX 59 80 60 81 66 82 68 83 61 84 62 85 63 86 64 87 65 88 41 89
REMARK SMILES IDX 42 90 51 91 43 92 44 93 50 94 52 95 45 96 46 97 47 98 48 99
REMARK SMILES IDX 49 100
REMARK H PARENT 6 6 2 14 2 15 93 24 11 31 73 50 39 61
REMARK Flexibility Score: inf
ROOT
ATOM      1  C   UNL A   1      32.831  29.063  24.729  1.00  0.00     0.023 C 
ENDROOT
BRANCH   1   2
ATOM      2  C   UNL A   1      32.130  27.959  23.952  1.00  0.00     0.116 C 
BRANCH   2   3
ATOM      3  N   UNL A   1      32.933  27.362  22.917  1.00  0.00    -0.351 N 
ATOM      4  C   UNL A   1      33.257  26.078  22.604  1.00  0.00     0.281 C 
ATOM      5  O   UNL A   1      33.647  25.986  21.430  1.00  0.00    -0.268 OA
ATOM      6  H   UNL A   1      33.332  28.024  22.307  1.00  0.00     0.163 HD
BRANCH   4   7
ATOM      7  C   UNL A   1      33.071  24.798  23.555  1.00  0.00     0.178 C 
ATOM      8  C   UNL A   1      33.030  25.223  25.037  1.00  0.00     0.079 C 
ATOM      9  C   UNL A   1      34.245  23.751  23.463  1.00  0.00     0.061 C 
ATOM     10  C   UNL A   1      34.418  25.020  25.609  1.00  0.00     0.008 C 
ATOM     11  C   UNL A   1      35.057  23.915  24.781  1.00  0.00     0.011 C 
BRANCH   7  12
ATOM     12  N   UNL A   1      31.788  24.081  23.263  1.00  0.00    -0.336 N 
ATOM     13  C   UNL A   1      30.539  24.811  23.408  1.00  0.00     0.331 C 
ATOM     14  H   UNL A   1      31.838  23.758  22.296  1.00  0.00     0.346 HD
ATOM     15  H   UNL A   1      31.740  23.356  23.978  1.00  0.00     0.346 HD
ENDBRANCH   7  12
BRANCH   9  16
ATOM     16  C   UNL A   1      33.902  22.232  23.366  1.00  0.00     0.022 C 
BRANCH  16  17
ATOM     17  C   UNL A   1      33.724  21.394  24.639  1.00  0.00     0.079 C 
BRANCH  17  18
ATOM     18  S   UNL A   1      35.084  20.234  24.951  1.00  0.00    -0.088 SA
BRANCH  18  19
ATOM     19  C   UNL A   1      34.343  18.728  24.531  1.00  0.00     0.168 A 
ATOM     20  N   UNL A   1      33.271  18.629  23.824  1.00  0.00    -0.233 NA
ATOM     21  N   UNL A   1      35.034  17.674  25.030  1.00  0.00    -0.301 N 
ATOM     22  C   UNL A   1      32.835  17.357  23.557  1.00  0.00     0.120 A 
ATOM     23  C   UNL A   1      34.669  16.392  24.767  1.00  0.00     0.251 A 
ATOM     24  H   UNL A   1      35.820  17.842  25.598  1.00  0.00     0.172 HD
ATOM     25  C   UNL A   1      33.451  16.240  23.958  1.00  0.00     0.091 A 
ATOM     26  O   UNL A   1      35.315  15.424  25.149  1.00  0.00    -0.269 OA
ENDBRANCH  18  19
ENDBRANCH  17  18
ENDBRANCH  16  17
ENDBRANCH   9  16
ENDBRANCH   4   7
ENDBRANCH   2   3
ENDBRANCH   1   2
BRANCH   1  27
ATOM     27  C   UNL A   1      33.939  28.598  25.668  1.00  0.00     0.023 C 
BRANCH  27  28
ATOM     28  C   UNL A   1      33.613  28.659  27.156  1.00  0.00     0.116 C 
BRANCH  28  29
ATOM     29  N   UNL A   1      33.553  30.012  27.695  1.00  0.00    -0.352 N 
ATOM     30  C   UNL A   1      34.550  30.727  28.318  1.00  0.00     0.251 C 
ATOM     31  H   UNL A   1      32.688  30.474  27.601  1.00  0.00     0.163 HD
ATOM     32  O   UNL A   1      34.323  31.840  28.783  1.00  0.00    -0.269 OA
BRANCH  30  33
ATOM     33  C   UNL A   1      35.884  30.111  28.457  1.00  0.00     0.039 A 
ATOM     34  C   UNL A   1      36.771  30.167  27.382  1.00  0.00     0.014 A 
ATOM     35  C   UNL A   1      36.282  29.567  29.681  1.00  0.00     0.014 A 
ATOM     36  C   UNL A   1      38.092  29.755  27.561  1.00  0.00     0.010 A 
ATOM     37  C   UNL A   1      37.618  29.240  29.882  1.00  0.00     0.010 A 
ATOM     38  C   UNL A   1      38.537  29.333  28.825  1.00  0.00    -0.014 A 
BRANCH  38  39
ATOM     39  C   UNL A   1      39.963  28.993  29.067  1.00  0.00     0.031 A 
ATOM     40  C   UNL A   1      40.901  30.035  29.612  1.00  0.00     0.074 A 
ATOM     41  C   UNL A   1      40.427  27.773  28.728  1.00  0.00     0.049 A 
ATOM     42  N   UNL A   1      42.188  29.957  29.825  1.00  0.00    -0.248 NA
ATOM     43  C   UNL A   1      40.320  31.351  29.930  1.00  0.00     0.031 C 
ATOM     44  C   UNL A   1      39.629  26.698  28.133  1.00  0.00     0.029 A 
ATOM     45  N   UNL A   1      41.686  27.233  28.824  1.00  0.00    -0.354 N 
ATOM     46  C   UNL A   1      42.573  31.211  30.282  1.00  0.00     0.074 A 
ATOM     47  C   UNL A   1      41.396  32.050  30.260  1.00  0.00     0.031 C 
ATOM     48  C   UNL A   1      40.410  25.622  27.941  1.00  0.00     0.029 A 
ATOM     49  C   UNL A   1      41.772  25.941  28.360  1.00  0.00     0.049 A 
ATOM     50  H   UNL A   1      42.456  27.726  29.189  1.00  0.00     0.167 HD
ATOM     51  C   UNL A   1      43.792  31.620  30.707  1.00  0.00     0.037 A 
ATOM     52  C   UNL A   1      42.829  25.109  28.274  1.00  0.00     0.037 A 
ATOM     53  C   UNL A   1      44.952  30.769  30.755  1.00  0.00     0.049 A 
ATOM     54  C   UNL A   1      44.171  25.582  28.764  1.00  0.00     0.074 A 
ATOM     55  C   UNL A   1      46.216  31.065  31.234  1.00  0.00     0.029 A 
ATOM     56  N   UNL A   1      44.992  29.457  30.304  1.00  0.00    -0.354 N 
ATOM     57  N   UNL A   1      44.501  26.749  29.264  1.00  0.00    -0.248 NA
ATOM     58  C   UNL A   1      45.283  24.625  28.685  1.00  0.00     0.031 C 
ATOM     59  C   UNL A   1      47.033  29.951  31.027  1.00  0.00     0.029 A 
ATOM     60  C   UNL A   1      46.265  28.938  30.472  1.00  0.00     0.049 A 
ATOM     61  H   UNL A   1      44.229  28.968  29.922  1.00  0.00     0.167 HD
ATOM     62  C   UNL A   1      45.851  26.657  29.585  1.00  0.00     0.074 A 
ATOM     63  C   UNL A   1      46.272  25.317  29.233  1.00  0.00     0.031 C 
ATOM     64  C   UNL A   1      46.668  27.598  30.122  1.00  0.00     0.037 A 
BRANCH  51  65
ATOM     65  C   UNL A   1      43.933  33.048  31.159  1.00  0.00     0.058 A 
ATOM     66  C   UNL A   1      44.273  34.076  30.264  1.00  0.00     0.135 A 
ATOM     67  C   UNL A   1      43.689  33.401  32.496  1.00  0.00     0.135 A 
ATOM     68  F   UNL A   1      44.536  33.795  28.978  1.00  0.00    -0.206 F 
ATOM     69  C   UNL A   1      44.396  35.396  30.684  1.00  0.00     0.059 A 
ATOM     70  C   UNL A   1      43.775  34.719  32.932  1.00  0.00     0.059 A 
ATOM     71  F   UNL A   1      43.363  32.458  33.395  1.00  0.00    -0.206 F 
ATOM     72  C   UNL A   1      44.143  35.709  32.021  1.00  0.00     0.060 A 
BRANCH  72  73
ATOM     73  S   UNL A   1      44.293  37.429  32.546  1.00  0.00     0.124 S 
ATOM     74  O   UNL A   1      45.666  37.462  33.042  1.00  0.00    -0.237 OA
ATOM     75  O   UNL A   1      44.051  38.155  31.304  1.00  0.00    -0.237 OA
ATOM     76  O   UNL A   1      43.255  37.567  33.563  1.00  0.00    -0.744 OA
ENDBRANCH  72  73
ENDBRANCH  51  65
BRANCH  52  77
ATOM     77  C   UNL A   1      42.652  23.738  27.725  1.00  0.00     0.058 A 
ATOM     78  C   UNL A   1      42.669  23.505  26.341  1.00  0.00     0.135 A 
ATOM     79  C   UNL A   1      42.480  22.630  28.569  1.00  0.00     0.135 A 
ATOM     80  F   UNL A   1      42.823  24.532  25.490  1.00  0.00    -0.206 F 
ATOM     81  C   UNL A   1      42.506  22.228  25.814  1.00  0.00     0.059 A 
ATOM     82  C   UNL A   1      42.343  21.339  28.066  1.00  0.00     0.059 A 
ATOM     83  F   UNL A   1      42.473  22.794  29.901  1.00  0.00    -0.206 F 
ATOM     84  C   UNL A   1      42.347  21.150  26.685  1.00  0.00     0.060 A 
BRANCH  84  85
ATOM     85  S   UNL A   1      42.189  19.491  25.989  1.00  0.00     0.124 S 
ATOM     86  O   UNL A   1      43.088  19.567  24.843  1.00  0.00    -0.237 OA
ATOM     87  O   UNL A   1      42.635  18.651  27.096  1.00  0.00    -0.237 OA
ATOM     88  O   UNL A   1      40.768  19.394  25.671  1.00  0.00    -0.744 OA
ENDBRANCH  84  85
ENDBRANCH  52  77
BRANCH  64  89
ATOM     89  C   UNL A   1      48.093  27.205  30.399  1.00  0.00     0.058 A 
ATOM     90  C   UNL A   1      49.128  27.487  29.495  1.00  0.00     0.135 A 
ATOM     91  C   UNL A   1      48.434  26.591  31.616  1.00  0.00     0.135 A 
ATOM     92  F   UNL A   1      48.855  28.068  28.316  1.00  0.00    -0.206 F 
ATOM     93  C   UNL A   1      50.449  27.152  29.777  1.00  0.00     0.059 A 
ATOM     94  C   UNL A   1      49.752  26.276  31.931  1.00  0.00     0.059 A 
ATOM     95  F   UNL A   1      47.484  26.308  32.522  1.00  0.00    -0.206 F 
ATOM     96  C   UNL A   1      50.752  26.550  30.999  1.00  0.00     0.060 A 
BRANCH  96  97
ATOM     97  S   UNL A   1      52.474  26.156  31.366  1.00  0.00     0.124 S 
ATOM     98  O   UNL A   1      52.842  27.252  32.257  1.00  0.00    -0.237 OA
ATOM     99  O   UNL A   1      52.367  24.841  31.991  1.00  0.00    -0.237 OA
ATOM    100  O   UNL A   1      53.115  26.169  30.055  1.00  0.00    -0.744 OA
ENDBRANCH  96  97
ENDBRANCH  64  89
ENDBRANCH  38  39
ENDBRANCH  30  33
ENDBRANCH  28  29
ENDBRANCH  27  28
ENDBRANCH   1  27
TORSDOF 19
ENDMDL
MODEL 2
REMARK VINA RESULT:     -10.9      3.447     10.061
REMARK SMILES C[NH2+][C@@]1(C(=O)NCCCCNC(=O)c2ccc(-c3c4nc(c(-c5c(F)cc(S(=O)(=O)[O-])cc5F)c5ccc([nH]5)c(-c5c(F)cc(S(=O)(=O)[O-])cc5F)c5nc(c(-c6c(F)cc(S(=O)(=O)[O-])cc6F)c6ccc3[nH]6)C=C5)C=C4)cc2)CCC[C@H]1CCSc1nccc(=O)[nH]1
REMARK SMILES IDX 8 1 7 2 6 3 4 4 5 5 3 7 80 8 83 9 81 10 82 11 2 12 1 13
REMARK SMILES IDX 84 16 85 17 86 18 87 19 88 20 93 21 89 22 91 23 90 25 92 26
REMARK SMILES IDX 9 27 10 28 11 29 12 30 13 32 14 33 15 34 79 35 16 36 78 37
REMARK SMILES IDX 17 38 18 39 19 40 72 41 20 42 77 43 71 44 73 45 21 46 76 47
REMARK SMILES IDX 70 48 69 49 22 51 56 52 35 53 55 54 36 55 39 56 54 57 74 58
REMARK SMILES IDX 37 59 38 60 53 62 75 63 40 64 23 65 24 66 33 67 25 68 26 69
REMARK SMILES IDX 32 70 34 71 27 72 28 73 29 74 30 75 31 76 57 77 58 78 67 79
REMARK SMILES IDX 59 80 60 81 66 82 68 83 61 84 62 85 63 86 64 87 65 88 41 89
REMARK SMILES IDX 42 90 51 91 43 92 44 93 50 94 52 95 45 96 46 97 47 98 48 99
REMARK SMILES IDX 49 100
REMARK H PARENT 6 6 2 14 2 15 93 24 11 31 73 50 39 61
REMARK Flexibility Score: inf
ROOT
ATOM      1  C   UNL A   1      34.951  22.267  25.615  1.00  0.00     0.023 C 
ENDROOT
BRANCH   1   2
ATOM      2  C   UNL A   1      33.454  22.179  25.359  1.00  0.00     0.116 C 
BRANCH   2   3
ATOM      3  N   UNL A   1      32.647  22.886  26.319  1.00  0.00    -0.351 N 
ATOM      4  C   UNL A   1      31.933  24.043  26.272  1.00  0.00     0.281 C 
ATOM      5  O   UNL A   1      31.088  24.087  27.179  1.00  0.00    -0.268 OA
ATOM      6  H   UNL A   1      32.603  22.437  27.194  1.00  0.00     0.163 HD
BRANCH   4   7
ATOM      7  C   UNL A   1      32.051  25.182  25.146  1.00  0.00     0.178 C 
ATOM      8  C   UNL A   1      33.435  25.861  25.204  1.00  0.00     0.079 C 
ATOM      9  C   UNL A   1      31.013  26.357  25.307  1.00  0.00     0.061 C 
ATOM     10  C   UNL A   1      33.283  27.142  25.999  1.00  0.00     0.008 C 
ATOM     11  C   UNL A   1      31.833  27.572  25.830  1.00  0.00     0.011 C 
BRANCH   7  12
ATOM     12  N   UNL A   1      31.893  24.611  23.771  1.00  0.00    -0.336 N 
ATOM     13  C   UNL A   1      30.774  23.719  23.516  1.00  0.00     0.331 C 
ATOM     14  H   UNL A   1      31.803  25.398  23.127  1.00  0.00     0.346 HD
ATOM     15  H   UNL A   1      32.716  24.022  23.649  1.00  0.00     0.346 HD
ENDBRANCH   7  12
BRANCH   9  16
ATOM     16  C   UNL A   1      30.250  26.874  24.048  1.00  0.00     0.022 C 
BRANCH  16  17
ATOM     17  C   UNL A   1      29.854  28.353  23.934  1.00  0.00     0.079 C 
BRANCH  17  18
ATOM     18  S   UNL A   1      30.831  29.283  22.721  1.00  0.00    -0.088 SA
BRANCH  18  19
ATOM     19  C   UNL A   1      29.625  30.326  22.050  1.00  0.00     0.168 A 
ATOM     20  N   UNL A   1      28.794  29.966  21.134  1.00  0.00    -0.233 NA
ATOM     21  N   UNL A   1      29.661  31.560  22.612  1.00  0.00    -0.301 N 
ATOM     22  C   UNL A   1      27.882  30.909  20.737  1.00  0.00     0.120 A 
ATOM     23  C   UNL A   1      28.758  32.521  22.283  1.00  0.00     0.251 A 
ATOM     24  H   UNL A   1      30.359  31.764  23.276  1.00  0.00     0.172 HD
ATOM     25  C   UNL A   1      27.790  32.143  21.243  1.00  0.00     0.091 A 
ATOM     26  O   UNL A   1      28.727  33.619  22.825  1.00  0.00    -0.269 OA
ENDBRANCH  18  19
ENDBRANCH  17  18
ENDBRANCH  16  17
ENDBRANCH   9  16
ENDBRANCH   4   7
ENDBRANCH   2   3
ENDBRANCH   1   2
BRANCH   1  27
ATOM     27  C   UNL A   1      35.743  23.067  24.586  1.00  0.00     0.023 C 
BRANCH  27  28
ATOM     28  C   UNL A   1      37.022  23.719  25.099  1.00  0.00     0.116 C 
BRANCH  28  29
ATOM     29  N   UNL A   1      38.094  22.774  25.390  1.00  0.00    -0.352 N 
ATOM     30  C   UNL A   1      39.224  22.972  26.150  1.00  0.00     0.251 C 
ATOM     31  H   UNL A   1      37.996  21.878  24.993  1.00  0.00     0.163 HD
ATOM     32  O   UNL A   1      40.074  22.093  26.245  1.00  0.00    -0.269 OA
BRANCH  30  33
ATOM     33  C   UNL A   1      39.414  24.279  26.809  1.00  0.00     0.039 A 
ATOM     34  C   UNL A   1      38.924  24.462  28.103  1.00  0.00     0.014 A 
ATOM     35  C   UNL A   1      40.160  25.281  26.182  1.00  0.00     0.014 A 
ATOM     36  C   UNL A   1      39.257  25.623  28.803  1.00  0.00     0.010 A 
ATOM     37  C   UNL A   1      40.561  26.393  26.911  1.00  0.00     0.010 A 
ATOM     38  C   UNL A   1      40.117  26.575  28.230  1.00  0.00    -0.014 A 
BRANCH  38  39
ATOM     39  C   UNL A   1      40.573  27.763  28.996  1.00  0.00     0.031 A 
ATOM     40  C   UNL A   1      41.928  27.762  29.648  1.00  0.00     0.074 A 
ATOM     41  C   UNL A   1      39.739  28.810  29.165  1.00  0.00     0.049 A 
ATOM     42  N   UNL A   1      42.477  28.668  30.413  1.00  0.00    -0.248 NA
ATOM     43  C   UNL A   1      42.765  26.568  29.438  1.00  0.00     0.031 C 
ATOM     44  C   UNL A   1      38.376  28.903  28.634  1.00  0.00     0.029 A 
ATOM     45  N   UNL A   1      39.909  29.992  29.842  1.00  0.00    -0.354 N 
ATOM     46  C   UNL A   1      43.710  28.149  30.790  1.00  0.00     0.074 A 
ATOM     47  C   UNL A   1      43.805  26.824  30.218  1.00  0.00     0.031 C 
ATOM     48  C   UNL A   1      37.846  30.086  28.983  1.00  0.00     0.029 A 
ATOM     49  C   UNL A   1      38.812  30.821  29.796  1.00  0.00     0.049 A 
ATOM     50  H   UNL A   1      40.740  30.225  30.316  1.00  0.00     0.167 HD
ATOM     51  C   UNL A   1      44.686  28.734  31.524  1.00  0.00     0.037 A 
ATOM     52  C   UNL A   1      38.604  32.031  30.350  1.00  0.00     0.037 A 
ATOM     53  C   UNL A   1      44.595  30.066  32.063  1.00  0.00     0.049 A 
ATOM     54  C   UNL A   1      39.708  32.666  31.152  1.00  0.00     0.074 A 
ATOM     55  C   UNL A   1      45.556  30.777  32.760  1.00  0.00     0.029 A 
ATOM     56  N   UNL A   1      43.479  30.885  31.970  1.00  0.00    -0.354 N 
ATOM     57  N   UNL A   1      40.898  32.192  31.435  1.00  0.00    -0.248 NA
ATOM     58  C   UNL A   1      39.446  34.002  31.704  1.00  0.00     0.031 C 
ATOM     59  C   UNL A   1      45.003  32.006  33.133  1.00  0.00     0.029 A 
ATOM     60  C   UNL A   1      43.719  32.085  32.617  1.00  0.00     0.049 A 
ATOM     61  H   UNL A   1      42.641  30.648  31.511  1.00  0.00     0.167 HD
ATOM     62  C   UNL A   1      41.537  33.182  32.174  1.00  0.00     0.074 A 
ATOM     63  C   UNL A   1      40.605  34.285  32.283  1.00  0.00     0.031 C 
ATOM     64  C   UNL A   1      42.782  33.178  32.713  1.00  0.00     0.037 A 
BRANCH  51  65
ATOM     65  C   UNL A   1      45.938  27.941  31.782  1.00  0.00     0.058 A 
ATOM     66  C   UNL A   1      46.002  26.969  32.794  1.00  0.00     0.135 A 
ATOM     67  C   UNL A   1      47.078  28.127  30.983  1.00  0.00     0.135 A 
ATOM     68  F   UNL A   1      44.949  26.761  33.600  1.00  0.00    -0.206 F 
ATOM     69  C   UNL A   1      47.159  26.233  33.025  1.00  0.00     0.059 A 
ATOM     70  C   UNL A   1      48.236  27.380  31.175  1.00  0.00     0.059 A 
ATOM     71  F   UNL A   1      47.073  29.044  30.002  1.00  0.00    -0.206 F 
ATOM     72  C   UNL A   1      48.271  26.444  32.209  1.00  0.00     0.060 A 
BRANCH  72  73
ATOM     73  S   UNL A   1      49.760  25.470  32.513  1.00  0.00     0.124 S 
ATOM     74  O   UNL A   1      50.007  24.896  31.194  1.00  0.00    -0.237 OA
ATOM     75  O   UNL A   1      50.712  26.486  32.950  1.00  0.00    -0.237 OA
ATOM     76  O   UNL A   1      49.342  24.522  33.541  1.00  0.00    -0.744 OA
ENDBRANCH  72  73
ENDBRANCH  51  65
BRANCH  52  77
ATOM     77  C   UNL A   1      37.306  32.729  30.146  1.00  0.00     0.058 A 
ATOM     78  C   UNL A   1      36.221  32.507  31.008  1.00  0.00     0.135 A 
ATOM     79  C   UNL A   1      37.127  33.644  29.096  1.00  0.00     0.135 A 
ATOM     80  F   UNL A   1      36.338  31.636  32.022  1.00  0.00    -0.206 F 
ATOM     81  C   UNL A   1      35.003  33.153  30.829  1.00  0.00     0.059 A 
ATOM     82  C   UNL A   1      35.926  34.323  28.913  1.00  0.00     0.059 A 
ATOM     83  F   UNL A   1      38.137  33.905  28.253  1.00  0.00    -0.206 F 
ATOM     84  C   UNL A   1      34.865  34.063  29.780  1.00  0.00     0.060 A 
BRANCH  84  85
ATOM     85  S   UNL A   1      33.295  34.935  29.590  1.00  0.00     0.124 S 
ATOM     86  O   UNL A   1      32.811  34.970  30.965  1.00  0.00    -0.237 OA
ATOM     87  O   UNL A   1      33.720  36.213  29.029  1.00  0.00    -0.237 OA
ATOM     88  O   UNL A   1      32.543  34.077  28.678  1.00  0.00    -0.744 OA
ENDBRANCH  84  85
ENDBRANCH  52  77
BRANCH  64  89
ATOM     89  C   UNL A   1      43.229  34.416  33.439  1.00  0.00     0.058 A 
ATOM     90  C   UNL A   1      43.721  35.539  32.757  1.00  0.00     0.135 A 
ATOM     91  C   UNL A   1      43.104  34.502  34.836  1.00  0.00     0.135 A 
ATOM     92  F   UNL A   1      43.865  35.508  31.421  1.00  0.00    -0.206 F 
ATOM     93  C   UNL A   1      44.097  36.694  33.435  1.00  0.00     0.059 A 
ATOM     94  C   UNL A   1      43.445  35.657  35.531  1.00  0.00     0.059 A 
ATOM     95  F   UNL A   1      42.628  33.460  35.538  1.00  0.00    -0.206 F 
ATOM     96  C   UNL A   1      43.952  36.745  34.822  1.00  0.00     0.060 A 
BRANCH  96  97
ATOM     97  S   UNL A   1      44.408  38.263  35.684  1.00  0.00     0.124 S 
ATOM     98  O   UNL A   1      45.863  38.156  35.718  1.00  0.00    -0.237 OA
ATOM     99  O   UNL A   1      43.869  39.296  34.805  1.00  0.00    -0.237 OA
ATOM    100  O   UNL A   1      43.740  38.136  36.976  1.00  0.00    -0.744 OA
ENDBRANCH  96  97
ENDBRANCH  64  89
ENDBRANCH  38  39
ENDBRANCH  30  33
ENDBRANCH  28  29
ENDBRANCH  27  28
ENDBRANCH   1  27
TORSDOF 19
ENDMDL
MODEL 3
REMARK VINA RESULT:     -10.9      1.508      2.118
REMARK SMILES C[NH2+][C@@]1(C(=O)NCCCCNC(=O)c2ccc(-c3c4nc(c(-c5c(F)cc(S(=O)(=O)[O-])cc5F)c5ccc([nH]5)c(-c5c(F)cc(S(=O)(=O)[O-])cc5F)c5nc(c(-c6c(F)cc(S(=O)(=O)[O-])cc6F)c6ccc3[nH]6)C=C5)C=C4)cc2)CCC[C@H]1CCSc1nccc(=O)[nH]1
REMARK SMILES IDX 8 1 7 2 6 3 4 4 5 5 3 7 80 8 83 9 81 10 82 11 2 12 1 13
REMARK SMILES IDX 84 16 85 17 86 18 87 19 88 20 93 21 89 22 91 23 90 25 92 26
REMARK SMILES IDX 9 27 10 28 11 29 12 30 13 32 14 33 15 34 79 35 16 36 78 37
REMARK SMILES IDX 17 38 18 39 19 40 72 41 20 42 77 43 71 44 73 45 21 46 76 47
REMARK SMILES IDX 70 48 69 49 22 51 56 52 35 53 55 54 36 55 39 56 54 57 74 58
REMARK SMILES IDX 37 59 38 60 53 62 75 63 40 64 23 65 24 66 33 67 25 68 26 69
REMARK SMILES IDX 32 70 34 71 27 72 28 73 29 74 30 75 31 76 57 77 58 78 67 79
REMARK SMILES IDX 59 80 60 81 66 82 68 83 61 84 62 85 63 86 64 87 65 88 41 89
REMARK SMILES IDX 42 90 51 91 43 92 44 93 50 94 52 95 45 96 46 97 47 98 48 99
REMARK SMILES IDX 49 100
REMARK H PARENT 6 6 2 14 2 15 93 24 11 31 73 50 39 61
REMARK Flexibility Score: inf
ROOT
ATOM      1  C   UNL A   1      33.388  27.416  24.688  1.00  0.00     0.023 C 
ENDROOT
BRANCH   1   2
ATOM      2  C   UNL A   1      34.042  26.139  25.195  1.00  0.00     0.116 C 
BRANCH   2   3
ATOM      3  N   UNL A   1      34.391  25.201  24.161  1.00  0.00    -0.351 N 
ATOM      4  C   UNL A   1      33.714  24.201  23.534  1.00  0.00     0.281 C 
ATOM      5  O   UNL A   1      34.251  23.900  22.457  1.00  0.00    -0.268 OA
ATOM      6  H   UNL A   1      35.316  25.306  23.839  1.00  0.00     0.163 HD
BRANCH   4   7
ATOM      7  C   UNL A   1      32.336  23.540  24.026  1.00  0.00     0.178 C 
ATOM      8  C   UNL A   1      31.172  23.964  23.107  1.00  0.00     0.079 C 
ATOM      9  C   UNL A   1      31.893  23.976  25.474  1.00  0.00     0.061 C 
ATOM     10  C   UNL A   1      30.460  25.122  23.776  1.00  0.00     0.008 C 
ATOM     11  C   UNL A   1      30.702  24.958  25.270  1.00  0.00     0.011 C 
BRANCH   7  12
ATOM     12  N   UNL A   1      32.405  22.044  23.994  1.00  0.00    -0.336 N 
ATOM     13  C   UNL A   1      32.134  21.365  22.738  1.00  0.00     0.331 C 
ATOM     14  H   UNL A   1      33.347  21.780  24.283  1.00  0.00     0.346 HD
ATOM     15  H   UNL A   1      31.647  21.747  24.609  1.00  0.00     0.346 HD
ENDBRANCH   7  12
BRANCH   9  16
ATOM     16  C   UNL A   1      31.378  22.891  26.470  1.00  0.00     0.022 C 
BRANCH  16  17
ATOM     17  C   UNL A   1      32.278  21.713  26.867  1.00  0.00     0.079 C 
BRANCH  17  18
ATOM     18  S   UNL A   1      33.778  22.205  27.761  1.00  0.00    -0.088 SA
BRANCH  18  19
ATOM     19  C   UNL A   1      34.967  22.091  26.509  1.00  0.00     0.168 A 
ATOM     20  N   UNL A   1      34.936  21.212  25.568  1.00  0.00    -0.233 NA
ATOM     21  N   UNL A   1      35.922  23.044  26.638  1.00  0.00    -0.301 N 
ATOM     22  C   UNL A   1      35.940  21.283  24.637  1.00  0.00     0.120 A 
ATOM     23  C   UNL A   1      36.920  23.184  25.725  1.00  0.00     0.251 A 
ATOM     24  H   UNL A   1      35.894  23.650  27.413  1.00  0.00     0.172 HD
ATOM     25  C   UNL A   1      36.913  22.199  24.634  1.00  0.00     0.091 A 
ATOM     26  O   UNL A   1      37.754  24.078  25.783  1.00  0.00    -0.269 OA
ENDBRANCH  18  19
ENDBRANCH  17  18
ENDBRANCH  16  17
ENDBRANCH   9  16
ENDBRANCH   4   7
ENDBRANCH   2   3
ENDBRANCH   1   2
BRANCH   1  27
ATOM     27  C   UNL A   1      33.782  28.689  25.429  1.00  0.00     0.023 C 
BRANCH  27  28
ATOM     28  C   UNL A   1      33.624  28.646  26.945  1.00  0.00     0.116 C 
BRANCH  28  29
ATOM     29  N   UNL A   1      33.536  29.961  27.569  1.00  0.00    -0.352 N 
ATOM     30  C   UNL A   1      34.510  30.644  28.260  1.00  0.00     0.251 C 
ATOM     31  H   UNL A   1      32.668  30.418  27.485  1.00  0.00     0.163 HD
ATOM     32  O   UNL A   1      34.259  31.722  28.791  1.00  0.00    -0.269 OA
BRANCH  30  33
ATOM     33  C   UNL A   1      35.848  30.034  28.389  1.00  0.00     0.039 A 
ATOM     34  C   UNL A   1      36.732  30.108  27.312  1.00  0.00     0.014 A 
ATOM     35  C   UNL A   1      36.253  29.480  29.606  1.00  0.00     0.014 A 
ATOM     36  C   UNL A   1      38.055  29.701  27.484  1.00  0.00     0.010 A 
ATOM     37  C   UNL A   1      37.590  29.159  29.800  1.00  0.00     0.010 A 
ATOM     38  C   UNL A   1      38.507  29.269  28.742  1.00  0.00    -0.014 A 
BRANCH  38  39
ATOM     39  C   UNL A   1      39.935  28.935  28.977  1.00  0.00     0.031 A 
ATOM     40  C   UNL A   1      40.875  29.986  29.501  1.00  0.00     0.074 A 
ATOM     41  C   UNL A   1      40.399  27.712  28.650  1.00  0.00     0.049 A 
ATOM     42  N   UNL A   1      42.164  29.913  29.705  1.00  0.00    -0.248 NA
ATOM     43  C   UNL A   1      40.294  31.305  29.806  1.00  0.00     0.031 C 
ATOM     44  C   UNL A   1      39.599  26.627  28.075  1.00  0.00     0.029 A 
ATOM     45  N   UNL A   1      41.660  27.176  28.741  1.00  0.00    -0.354 N 
ATOM     46  C   UNL A   1      42.550  31.174  30.142  1.00  0.00     0.074 A 
ATOM     47  C   UNL A   1      41.371  32.010  30.119  1.00  0.00     0.031 C 
ATOM     48  C   UNL A   1      40.381  25.551  27.890  1.00  0.00     0.029 A 
ATOM     49  C   UNL A   1      41.745  25.878  28.293  1.00  0.00     0.049 A 
ATOM     50  H   UNL A   1      42.432  27.675  29.094  1.00  0.00     0.167 HD
ATOM     51  C   UNL A   1      43.772  31.591  30.552  1.00  0.00     0.037 A 
ATOM     52  C   UNL A   1      42.803  25.048  28.210  1.00  0.00     0.037 A 
ATOM     53  C   UNL A   1      44.934  30.743  30.601  1.00  0.00     0.049 A 
ATOM     54  C   UNL A   1      44.148  25.530  28.682  1.00  0.00     0.074 A 
ATOM     55  C   UNL A   1      46.201  31.048  31.066  1.00  0.00     0.029 A 
ATOM     56  N   UNL A   1      44.973  29.426  30.167  1.00  0.00    -0.354 N 
ATOM     57  N   UNL A   1      44.480  26.704  29.165  1.00  0.00    -0.248 NA
ATOM     58  C   UNL A   1      45.262  24.574  28.606  1.00  0.00     0.031 C 
ATOM     59  C   UNL A   1      47.019  29.932  30.867  1.00  0.00     0.029 A 
ATOM     60  C   UNL A   1      46.249  28.912  30.331  1.00  0.00     0.049 A 
ATOM     61  H   UNL A   1      44.208  28.930  29.797  1.00  0.00     0.167 HD
ATOM     62  C   UNL A   1      45.833  26.619  29.476  1.00  0.00     0.074 A 
ATOM     63  C   UNL A   1      46.254  25.276  29.138  1.00  0.00     0.031 C 
ATOM     64  C   UNL A   1      46.652  27.568  29.995  1.00  0.00     0.037 A 
BRANCH  51  65
ATOM     65  C   UNL A   1      43.913  33.024  30.984  1.00  0.00     0.058 A 
ATOM     66  C   UNL A   1      44.300  34.033  30.086  1.00  0.00     0.135 A 
ATOM     67  C   UNL A   1      43.623  33.404  32.305  1.00  0.00     0.135 A 
ATOM     68  F   UNL A   1      44.608  33.726  28.816  1.00  0.00    -0.206 F 
ATOM     69  C   UNL A   1      44.423  35.359  30.489  1.00  0.00     0.059 A 
ATOM     70  C   UNL A   1      43.708  34.728  32.722  1.00  0.00     0.059 A 
ATOM     71  F   UNL A   1      43.250  32.481  33.207  1.00  0.00    -0.206 F 
ATOM     72  C   UNL A   1      44.123  35.697  31.809  1.00  0.00     0.060 A 
BRANCH  72  73
ATOM     73  S   UNL A   1      44.274  37.424  32.310  1.00  0.00     0.124 S 
ATOM     74  O   UNL A   1      45.708  37.529  32.563  1.00  0.00    -0.237 OA
ATOM     75  O   UNL A   1      43.786  38.134  31.133  1.00  0.00    -0.237 OA
ATOM     76  O   UNL A   1      43.421  37.513  33.491  1.00  0.00    -0.744 OA
ENDBRANCH  72  73
ENDBRANCH  51  65
BRANCH  52  77
ATOM     77  C   UNL A   1      42.625  23.669  27.679  1.00  0.00     0.058 A 
ATOM     78  C   UNL A   1      42.682  23.412  26.301  1.00  0.00     0.135 A 
ATOM     79  C   UNL A   1      42.412  22.578  28.537  1.00  0.00     0.135 A 
ATOM     80  F   UNL A   1      42.875  24.421  25.437  1.00  0.00    -0.206 F 
ATOM     81  C   UNL A   1      42.518  22.128  25.791  1.00  0.00     0.059 A 
ATOM     82  C   UNL A   1      42.273  21.281  28.052  1.00  0.00     0.059 A 
ATOM     83  F   UNL A   1      42.366  22.767  29.865  1.00  0.00    -0.206 F 
ATOM     84  C   UNL A   1      42.318  21.067  26.676  1.00  0.00     0.060 A 
BRANCH  84  85
ATOM     85  S   UNL A   1      42.159  19.398  26.004  1.00  0.00     0.124 S 
ATOM     86  O   UNL A   1      43.020  19.472  24.829  1.00  0.00    -0.237 OA
ATOM     87  O   UNL A   1      42.651  18.577  27.105  1.00  0.00    -0.237 OA
ATOM     88  O   UNL A   1      40.729  19.279  25.733  1.00  0.00    -0.744 OA
ENDBRANCH  84  85
ENDBRANCH  52  77
BRANCH  64  89
ATOM     89  C   UNL A   1      48.079  27.182  30.265  1.00  0.00     0.058 A 
ATOM     90  C   UNL A   1      49.104  27.436  29.341  1.00  0.00     0.135 A 
ATOM     91  C   UNL A   1      48.436  26.602  31.495  1.00  0.00     0.135 A 
ATOM     92  F   UNL A   1      48.817  27.984  28.148  1.00  0.00    -0.206 F 
ATOM     93  C   UNL A   1      50.428  27.109  29.615  1.00  0.00     0.059 A 
ATOM     94  C   UNL A   1      49.757  26.295  31.802  1.00  0.00     0.059 A 
ATOM     95  F   UNL A   1      47.497  26.347  32.420  1.00  0.00    -0.206 F 
ATOM     96  C   UNL A   1      50.745  26.541  30.850  1.00  0.00     0.060 A 
BRANCH  96  97
ATOM     97  S   UNL A   1      52.471  26.156  31.207  1.00  0.00     0.124 S 
ATOM     98  O   UNL A   1      52.855  27.282  32.052  1.00  0.00    -0.237 OA
ATOM     99  O   UNL A   1      52.371  24.865  31.881  1.00  0.00    -0.237 OA
ATOM    100  O   UNL A   1      53.094  26.120  29.887  1.00  0.00    -0.744 OA
ENDBRANCH  96  97
ENDBRANCH  64  89
ENDBRANCH  38  39
ENDBRANCH  30  33
ENDBRANCH  28  29
ENDBRANCH  27  28
ENDBRANCH   1  27
TORSDOF 19
ENDMDL
