MODEL 1
REMARK VINA RESULT:     -11.6      0.000      0.000
REMARK SMILES Cc1ncccc1Oc1ccc(C(=O)NCCCCNC(=O)c2ccc(-c3c4nc(c(-c5c(F)cc(S(=O)(=O)[O-])cc5F)c5ccc([nH]5)c(-c5c(F)cc(S(=O)(=O)[O-])cc5F)c5nc(c(-c6c(F)cc(S(=O)(=O)[O-])cc6F)c6ccc3[nH]6)C=C5)C=C4)cc2)cc1Cl
REMARK SMILES IDX 18 1 17 2 16 3 15 4 13 5 14 6 12 8 9 9 10 10 90 11 11 12
REMARK SMILES IDX 89 13 91 14 8 15 7 16 1 17 2 18 3 19 4 20 6 21 5 22 19 23
REMARK SMILES IDX 20 24 21 25 22 27 23 28 24 29 88 30 25 31 87 32 26 33 27 34
REMARK SMILES IDX 28 35 81 36 29 37 86 38 80 39 82 40 30 41 85 42 79 43 78 44
REMARK SMILES IDX 31 46 65 47 44 48 64 49 45 50 48 51 63 52 83 53 46 54 47 55
REMARK SMILES IDX 62 57 84 58 49 59 32 60 33 61 42 62 34 63 35 64 41 65 43 66
REMARK SMILES IDX 36 67 37 68 38 69 39 70 40 71 66 72 67 73 76 74 68 75 69 76
REMARK SMILES IDX 75 77 77 78 70 79 71 80 72 81 73 82 74 83 50 84 51 85 60 86
REMARK SMILES IDX 52 87 53 88 59 89 61 90 54 91 55 92 56 93 57 94 58 95
REMARK H PARENT 15 7 20 26 82 45 48 56
REMARK Flexibility Score: inf
ROOT
ATOM      1  C   UNL A   1      33.784  28.146  25.580  1.00  0.00     0.023 C 
ENDROOT
BRANCH   1   2
ATOM      2  C   UNL A   1      33.270  29.308  24.724  1.00  0.00     0.023 C 
BRANCH   2   3
ATOM      3  C   UNL A   1      33.413  29.089  23.217  1.00  0.00     0.116 C 
BRANCH   3   4
ATOM      4  N   UNL A   1      32.127  29.228  22.559  1.00  0.00    -0.352 N 
ATOM      5  C   UNL A   1      31.052  28.383  22.465  1.00  0.00     0.251 C 
ATOM      6  O   UNL A   1      30.055  28.767  21.856  1.00  0.00    -0.269 OA
ATOM      7  H   UNL A   1      32.004  30.087  22.095  1.00  0.00     0.163 HD
BRANCH   5   8
ATOM      8  C   UNL A   1      31.010  27.059  23.138  1.00  0.00     0.041 A 
ATOM      9  C   UNL A   1      30.822  24.456  24.146  1.00  0.00     0.146 A 
ATOM     10  C   UNL A   1      31.532  24.693  22.968  1.00  0.00     0.049 A 
ATOM     11  C   UNL A   1      30.334  25.530  24.894  1.00  0.00     0.084 A 
ATOM     12  C   UNL A   1      31.610  25.988  22.458  1.00  0.00     0.018 A 
ATOM     13  C   UNL A   1      30.440  26.831  24.394  1.00  0.00     0.038 A 
ATOM     14  Cl  UNL A   1      29.573  25.300  26.426  1.00  0.00    -0.080 Cl
BRANCH   9  15
ATOM     15  O   UNL A   1      30.706  23.154  24.542  1.00  0.00    -0.454 OA
BRANCH  15  16
ATOM     16  C   UNL A   1      31.835  22.410  24.813  1.00  0.00     0.148 A 
ATOM     17  C   UNL A   1      32.126  21.052  22.640  1.00  0.00     0.071 C 
ATOM     18  C   UNL A   1      32.521  21.479  24.020  1.00  0.00     0.080 A 
ATOM     19  N   UNL A   1      33.655  20.858  24.458  1.00  0.00    -0.258 NA
ATOM     20  C   UNL A   1      34.132  21.167  25.681  1.00  0.00     0.111 A 
ATOM     21  C   UNL A   1      32.376  22.710  26.072  1.00  0.00     0.050 A 
ATOM     22  C   UNL A   1      33.535  22.085  26.517  1.00  0.00     0.024 A 
ENDBRANCH  15  16
ENDBRANCH   9  15
ENDBRANCH   5   8
ENDBRANCH   3   4
ENDBRANCH   2   3
ENDBRANCH   1   2
BRANCH   1  23
ATOM     23  C   UNL A   1      33.608  28.325  27.084  1.00  0.00     0.116 C 
BRANCH  23  24
ATOM     24  N   UNL A   1      33.483  29.719  27.482  1.00  0.00    -0.352 N 
ATOM     25  C   UNL A   1      34.421  30.531  28.077  1.00  0.00     0.251 C 
ATOM     26  H   UNL A   1      32.610  30.137  27.301  1.00  0.00     0.163 HD
ATOM     27  O   UNL A   1      34.113  31.655  28.449  1.00  0.00    -0.269 OA
BRANCH  25  28
ATOM     28  C   UNL A   1      35.789  30.016  28.297  1.00  0.00     0.039 A 
ATOM     29  C   UNL A   1      36.705  30.073  27.244  1.00  0.00     0.014 A 
ATOM     30  C   UNL A   1      36.171  29.508  29.542  1.00  0.00     0.014 A 
ATOM     31  C   UNL A   1      38.028  29.684  27.460  1.00  0.00     0.010 A 
ATOM     32  C   UNL A   1      37.504  29.182  29.773  1.00  0.00     0.010 A 
ATOM     33  C   UNL A   1      38.446  29.270  28.736  1.00  0.00    -0.014 A 
BRANCH  33  34
ATOM     34  C   UNL A   1      39.866  28.937  29.010  1.00  0.00     0.031 A 
ATOM     35  C   UNL A   1      40.786  29.973  29.594  1.00  0.00     0.074 A 
ATOM     36  C   UNL A   1      40.342  27.724  28.664  1.00  0.00     0.049 A 
ATOM     37  N   UNL A   1      42.068  29.897  29.835  1.00  0.00    -0.248 NA
ATOM     38  C   UNL A   1      40.190  31.277  29.927  1.00  0.00     0.031 C 
ATOM     39  C   UNL A   1      39.559  26.653  28.041  1.00  0.00     0.029 A 
ATOM     40  N   UNL A   1      41.602  27.191  28.774  1.00  0.00    -0.354 N 
ATOM     41  C   UNL A   1      42.437  31.144  30.326  1.00  0.00     0.074 A 
ATOM     42  C   UNL A   1      41.251  31.971  30.309  1.00  0.00     0.031 C 
ATOM     43  C   UNL A   1      40.351  25.587  27.845  1.00  0.00     0.029 A 
ATOM     44  C   UNL A   1      41.703  25.907  28.295  1.00  0.00     0.049 A 
ATOM     45  H   UNL A   1      42.362  27.683  29.160  1.00  0.00     0.167 HD
ATOM     46  C   UNL A   1      43.650  31.553  30.768  1.00  0.00     0.037 A 
ATOM     47  C   UNL A   1      42.765  25.081  28.222  1.00  0.00     0.037 A 
ATOM     48  C   UNL A   1      44.817  30.711  30.817  1.00  0.00     0.049 A 
ATOM     49  C   UNL A   1      44.097  25.554  28.737  1.00  0.00     0.074 A 
ATOM     50  C   UNL A   1      46.072  31.009  31.317  1.00  0.00     0.029 A 
ATOM     51  N   UNL A   1      44.873  29.406  30.350  1.00  0.00    -0.354 N 
ATOM     52  N   UNL A   1      44.412  26.715  29.262  1.00  0.00    -0.248 NA
ATOM     53  C   UNL A   1      45.216  24.606  28.656  1.00  0.00     0.031 C 
ATOM     54  C   UNL A   1      46.897  29.896  31.121  1.00  0.00     0.029 A 
ATOM     55  C   UNL A   1      46.145  28.891  30.534  1.00  0.00     0.049 A 
ATOM     56  H   UNL A   1      44.119  28.918  29.947  1.00  0.00     0.167 HD
ATOM     57  C   UNL A   1      45.758  26.626  29.599  1.00  0.00     0.074 A 
ATOM     58  C   UNL A   1      46.195  25.295  29.226  1.00  0.00     0.031 C 
ATOM     59  C   UNL A   1      46.559  27.560  30.167  1.00  0.00     0.037 A 
BRANCH  46  60
ATOM     60  C   UNL A   1      43.775  32.974  31.243  1.00  0.00     0.058 A 
ATOM     61  C   UNL A   1      44.064  34.024  30.357  1.00  0.00     0.135 A 
ATOM     62  C   UNL A   1      43.573  33.294  32.595  1.00  0.00     0.135 A 
ATOM     63  F   UNL A   1      44.282  33.771  29.057  1.00  0.00    -0.206 F 
ATOM     64  C   UNL A   1      44.175  35.338  30.799  1.00  0.00     0.059 A 
ATOM     65  C   UNL A   1      43.654  34.606  33.055  1.00  0.00     0.059 A 
ATOM     66  F   UNL A   1      43.296  32.328  33.485  1.00  0.00    -0.206 F 
ATOM     67  C   UNL A   1      43.970  35.618  32.150  1.00  0.00     0.060 A 
BRANCH  67  68
ATOM     68  S   UNL A   1      44.115  37.330  32.708  1.00  0.00     0.124 S 
ATOM     69  O   UNL A   1      45.466  37.341  33.261  1.00  0.00    -0.237 OA
ATOM     70  O   UNL A   1      43.932  38.079  31.470  1.00  0.00    -0.237 OA
ATOM     71  O   UNL A   1      43.036  37.461  33.683  1.00  0.00    -0.744 OA
ENDBRANCH  67  68
ENDBRANCH  46  60
BRANCH  47  72
ATOM     72  C   UNL A   1      42.607  23.711  27.667  1.00  0.00     0.058 A 
ATOM     73  C   UNL A   1      42.409  22.612  28.516  1.00  0.00     0.135 A 
ATOM     74  C   UNL A   1      42.645  23.473  26.286  1.00  0.00     0.135 A 
ATOM     75  F   UNL A   1      42.370  22.791  29.846  1.00  0.00    -0.206 F 
ATOM     76  C   UNL A   1      42.269  21.322  28.018  1.00  0.00     0.059 A 
ATOM     77  C   UNL A   1      42.485  22.194  25.761  1.00  0.00     0.059 A 
ATOM     78  F   UNL A   1      42.815  24.494  25.431  1.00  0.00    -0.206 F 
ATOM     79  C   UNL A   1      42.309  21.122  26.637  1.00  0.00     0.060 A 
BRANCH  79  80
ATOM     80  S   UNL A   1      42.085  19.449  25.996  1.00  0.00     0.124 S 
ATOM     81  O   UNL A   1      42.907  19.484  24.791  1.00  0.00    -0.237 OA
ATOM     82  O   UNL A   1      42.594  18.629  27.092  1.00  0.00    -0.237 OA
ATOM     83  O   UNL A   1      40.645  19.365  25.777  1.00  0.00    -0.744 OA
ENDBRANCH  79  80
ENDBRANCH  47  72
BRANCH  59  84
ATOM     84  C   UNL A   1      47.981  27.168  30.455  1.00  0.00     0.058 A 
ATOM     85  C   UNL A   1      49.022  27.466  29.562  1.00  0.00     0.135 A 
ATOM     86  C   UNL A   1      48.312  26.534  31.663  1.00  0.00     0.135 A 
ATOM     87  F   UNL A   1      48.756  28.065  28.390  1.00  0.00    -0.206 F 
ATOM     88  C   UNL A   1      50.341  27.130  29.847  1.00  0.00     0.059 A 
ATOM     89  C   UNL A   1      49.627  26.212  31.980  1.00  0.00     0.059 A 
ATOM     90  F   UNL A   1      47.354  26.236  32.555  1.00  0.00    -0.206 F 
ATOM     91  C   UNL A   1      50.633  26.504  31.061  1.00  0.00     0.060 A 
BRANCH  91  92
ATOM     92  S   UNL A   1      52.353  26.107  31.439  1.00  0.00     0.124 S 
ATOM     93  O   UNL A   1      52.964  26.155  30.114  1.00  0.00    -0.237 OA
ATOM     94  O   UNL A   1      52.732  27.183  32.350  1.00  0.00    -0.237 OA
ATOM     95  O   UNL A   1      52.271  24.782  32.045  1.00  0.00    -0.744 OA
ENDBRANCH  91  92
ENDBRANCH  59  84
ENDBRANCH  33  34
ENDBRANCH  25  28
ENDBRANCH  23  24
ENDBRANCH   1  23
TORSDOF 16
ENDMDL
MODEL 2
REMARK VINA RESULT:     -11.3      2.879      9.377
REMARK SMILES Cc1ncccc1Oc1ccc(C(=O)NCCCCNC(=O)c2ccc(-c3c4nc(c(-c5c(F)cc(S(=O)(=O)[O-])cc5F)c5ccc([nH]5)c(-c5c(F)cc(S(=O)(=O)[O-])cc5F)c5nc(c(-c6c(F)cc(S(=O)(=O)[O-])cc6F)c6ccc3[nH]6)C=C5)C=C4)cc2)cc1Cl
REMARK SMILES IDX 18 1 17 2 16 3 15 4 13 5 14 6 12 8 9 9 10 10 90 11 11 12
REMARK SMILES IDX 89 13 91 14 8 15 7 16 1 17 2 18 3 19 4 20 6 21 5 22 19 23
REMARK SMILES IDX 20 24 21 25 22 27 23 28 24 29 88 30 25 31 87 32 26 33 27 34
REMARK SMILES IDX 28 35 81 36 29 37 86 38 80 39 82 40 30 41 85 42 79 43 78 44
REMARK SMILES IDX 31 46 65 47 44 48 64 49 45 50 48 51 63 52 83 53 46 54 47 55
REMARK SMILES IDX 62 57 84 58 49 59 32 60 33 61 42 62 34 63 35 64 41 65 43 66
REMARK SMILES IDX 36 67 37 68 38 69 39 70 40 71 66 72 67 73 76 74 68 75 69 76
REMARK SMILES IDX 75 77 77 78 70 79 71 80 72 81 73 82 74 83 50 84 51 85 60 86
REMARK SMILES IDX 52 87 53 88 59 89 61 90 54 91 55 92 56 93 57 94 58 95
REMARK H PARENT 15 7 20 26 82 45 48 56
REMARK Flexibility Score: inf
ROOT
ATOM      1  C   UNL A   1      35.510  23.347  26.125  1.00  0.00     0.023 C 
ENDROOT
BRANCH   1   2
ATOM      2  C   UNL A   1      35.407  21.867  26.508  1.00  0.00     0.023 C 
BRANCH   2   3
ATOM      3  C   UNL A   1      34.146  21.508  27.296  1.00  0.00     0.116 C 
BRANCH   3   4
ATOM      4  N   UNL A   1      33.397  20.469  26.614  1.00  0.00    -0.352 N 
ATOM      5  C   UNL A   1      32.565  20.508  25.526  1.00  0.00     0.251 C 
ATOM      6  O   UNL A   1      32.068  19.455  25.128  1.00  0.00    -0.269 OA
ATOM      7  H   UNL A   1      33.508  19.572  27.002  1.00  0.00     0.163 HD
BRANCH   5   8
ATOM      8  C   UNL A   1      32.303  21.754  24.759  1.00  0.00     0.041 A 
ATOM      9  C   UNL A   1      31.517  24.035  23.342  1.00  0.00     0.146 A 
ATOM     10  C   UNL A   1      31.006  23.802  24.621  1.00  0.00     0.049 A 
ATOM     11  C   UNL A   1      32.525  23.212  22.834  1.00  0.00     0.084 A 
ATOM     12  C   UNL A   1      31.386  22.656  25.317  1.00  0.00     0.018 A 
ATOM     13  C   UNL A   1      32.924  22.080  23.549  1.00  0.00     0.038 A 
ATOM     14  Cl  UNL A   1      33.288  23.538  21.321  1.00  0.00    -0.080 Cl
BRANCH   9  15
ATOM     15  O   UNL A   1      31.035  25.126  22.677  1.00  0.00    -0.454 OA
BRANCH  15  16
ATOM     16  C   UNL A   1      31.182  26.387  23.218  1.00  0.00     0.148 A 
ATOM     17  C   UNL A   1      33.688  26.429  23.825  1.00  0.00     0.071 C 
ATOM     18  C   UNL A   1      32.319  27.028  23.728  1.00  0.00     0.080 A 
ATOM     19  N   UNL A   1      32.271  28.309  24.199  1.00  0.00    -0.258 NA
ATOM     20  C   UNL A   1      31.099  28.973  24.151  1.00  0.00     0.111 A 
ATOM     21  C   UNL A   1      29.988  27.122  23.176  1.00  0.00     0.050 A 
ATOM     22  C   UNL A   1      29.939  28.429  23.647  1.00  0.00     0.024 A 
ENDBRANCH  15  16
ENDBRANCH   9  15
ENDBRANCH   5   8
ENDBRANCH   3   4
ENDBRANCH   2   3
ENDBRANCH   1   2
BRANCH   1  23
ATOM     23  C   UNL A   1      36.732  23.715  25.292  1.00  0.00     0.116 C 
BRANCH  23  24
ATOM     24  N   UNL A   1      37.819  22.756  25.420  1.00  0.00    -0.352 N 
ATOM     25  C   UNL A   1      39.045  22.921  26.022  1.00  0.00     0.251 C 
ATOM     26  H   UNL A   1      37.655  21.871  25.022  1.00  0.00     0.163 HD
ATOM     27  O   UNL A   1      39.892  22.042  25.943  1.00  0.00    -0.269 OA
BRANCH  25  28
ATOM     28  C   UNL A   1      39.339  24.186  26.729  1.00  0.00     0.039 A 
ATOM     29  C   UNL A   1      38.876  24.348  28.036  1.00  0.00     0.014 A 
ATOM     30  C   UNL A   1      40.092  25.192  26.115  1.00  0.00     0.014 A 
ATOM     31  C   UNL A   1      39.226  25.492  28.755  1.00  0.00     0.010 A 
ATOM     32  C   UNL A   1      40.493  26.300  26.854  1.00  0.00     0.010 A 
ATOM     33  C   UNL A   1      40.068  26.459  28.182  1.00  0.00    -0.014 A 
BRANCH  33  34
ATOM     34  C   UNL A   1      40.525  27.639  28.958  1.00  0.00     0.031 A 
ATOM     35  C   UNL A   1      41.870  27.625  29.630  1.00  0.00     0.074 A 
ATOM     36  C   UNL A   1      39.698  28.691  29.116  1.00  0.00     0.049 A 
ATOM     37  N   UNL A   1      42.413  28.525  30.409  1.00  0.00    -0.248 NA
ATOM     38  C   UNL A   1      42.704  26.431  29.422  1.00  0.00     0.031 C 
ATOM     39  C   UNL A   1      38.348  28.799  28.556  1.00  0.00     0.029 A 
ATOM     40  N   UNL A   1      39.864  29.866  29.805  1.00  0.00    -0.354 N 
ATOM     41  C   UNL A   1      43.638  27.998  30.800  1.00  0.00     0.074 A 
ATOM     42  C   UNL A   1      43.741  26.683  30.207  1.00  0.00     0.031 C 
ATOM     43  C   UNL A   1      37.820  29.983  28.905  1.00  0.00     0.029 A 
ATOM     44  C   UNL A   1      38.775  30.703  29.741  1.00  0.00     0.049 A 
ATOM     45  H   UNL A   1      40.686  30.088  30.298  1.00  0.00     0.167 HD
ATOM     46  C   UNL A   1      44.597  28.569  31.567  1.00  0.00     0.037 A 
ATOM     47  C   UNL A   1      38.568  31.913  30.297  1.00  0.00     0.037 A 
ATOM     48  C   UNL A   1      44.504  29.894  32.123  1.00  0.00     0.049 A 
ATOM     49  C   UNL A   1      39.657  32.532  31.130  1.00  0.00     0.074 A 
ATOM     50  C   UNL A   1      45.452  30.591  32.850  1.00  0.00     0.029 A 
ATOM     51  N   UNL A   1      43.397  30.723  32.012  1.00  0.00    -0.354 N 
ATOM     52  N   UNL A   1      40.838  32.049  31.432  1.00  0.00    -0.248 NA
ATOM     53  C   UNL A   1      39.389  33.863  31.692  1.00  0.00     0.031 C 
ATOM     54  C   UNL A   1      44.906  31.828  33.210  1.00  0.00     0.029 A 
ATOM     55  C   UNL A   1      43.632  31.917  32.672  1.00  0.00     0.049 A 
ATOM     56  H   UNL A   1      42.567  30.496  31.533  1.00  0.00     0.167 HD
ATOM     57  C   UNL A   1      41.464  33.027  32.197  1.00  0.00     0.074 A 
ATOM     58  C   UNL A   1      40.534  34.133  32.303  1.00  0.00     0.031 C 
ATOM     59  C   UNL A   1      42.698  33.012  32.758  1.00  0.00     0.037 A 
BRANCH  46  60
ATOM     60  C   UNL A   1      45.837  27.766  31.845  1.00  0.00     0.058 A 
ATOM     61  C   UNL A   1      45.927  26.909  32.954  1.00  0.00     0.135 A 
ATOM     62  C   UNL A   1      46.936  27.827  30.974  1.00  0.00     0.135 A 
ATOM     63  F   UNL A   1      44.911  26.825  33.827  1.00  0.00    -0.206 F 
ATOM     64  C   UNL A   1      47.074  26.164  33.206  1.00  0.00     0.059 A 
ATOM     65  C   UNL A   1      48.085  27.071  31.192  1.00  0.00     0.059 A 
ATOM     66  F   UNL A   1      46.904  28.630  29.898  1.00  0.00    -0.206 F 
ATOM     67  C   UNL A   1      48.149  26.253  32.320  1.00  0.00     0.060 A 
BRANCH  67  68
ATOM     68  S   UNL A   1      49.630  25.277  32.658  1.00  0.00     0.124 S 
ATOM     69  O   UNL A   1      50.008  24.851  31.315  1.00  0.00    -0.237 OA
ATOM     70  O   UNL A   1      50.514  26.256  33.284  1.00  0.00    -0.237 OA
ATOM     71  O   UNL A   1      49.146  24.220  33.540  1.00  0.00    -0.744 OA
ENDBRANCH  67  68
ENDBRANCH  46  60
BRANCH  47  72
ATOM     72  C   UNL A   1      37.290  32.633  30.059  1.00  0.00     0.058 A 
ATOM     73  C   UNL A   1      37.200  33.629  29.075  1.00  0.00     0.135 A 
ATOM     74  C   UNL A   1      36.136  32.339  30.800  1.00  0.00     0.135 A 
ATOM     75  F   UNL A   1      38.279  33.949  28.344  1.00  0.00    -0.206 F 
ATOM     76  C   UNL A   1      36.016  34.322  28.845  1.00  0.00     0.059 A 
ATOM     77  C   UNL A   1      34.933  33.002  30.573  1.00  0.00     0.059 A 
ATOM     78  F   UNL A   1      36.166  31.382  31.741  1.00  0.00    -0.206 F 
ATOM     79  C   UNL A   1      34.887  34.001  29.600  1.00  0.00     0.060 A 
BRANCH  79  80
ATOM     80  S   UNL A   1      33.343  34.876  29.265  1.00  0.00     0.124 S 
ATOM     81  O   UNL A   1      32.728  34.900  30.587  1.00  0.00    -0.237 OA
ATOM     82  O   UNL A   1      33.820  36.159  28.759  1.00  0.00    -0.237 OA
ATOM     83  O   UNL A   1      32.686  34.026  28.277  1.00  0.00    -0.744 OA
ENDBRANCH  79  80
ENDBRANCH  47  72
BRANCH  59  84
ATOM     84  C   UNL A   1      43.131  34.240  33.508  1.00  0.00     0.058 A 
ATOM     85  C   UNL A   1      43.704  35.340  32.852  1.00  0.00     0.135 A 
ATOM     86  C   UNL A   1      42.922  34.336  34.893  1.00  0.00     0.135 A 
ATOM     87  F   UNL A   1      43.931  35.294  31.529  1.00  0.00    -0.206 F 
ATOM     88  C   UNL A   1      44.073  36.487  33.546  1.00  0.00     0.059 A 
ATOM     89  C   UNL A   1      43.260  35.483  35.603  1.00  0.00     0.059 A 
ATOM     90  F   UNL A   1      42.368  33.314  35.566  1.00  0.00    -0.206 F 
ATOM     91  C   UNL A   1      43.845  36.549  34.922  1.00  0.00     0.060 A 
BRANCH  91  92
ATOM     92  S   UNL A   1      44.292  38.058  35.808  1.00  0.00     0.124 S 
ATOM     93  O   UNL A   1      43.813  39.088  34.892  1.00  0.00    -0.237 OA
ATOM     94  O   UNL A   1      43.547  37.924  37.056  1.00  0.00    -0.237 OA
ATOM     95  O   UNL A   1      45.743  37.958  35.938  1.00  0.00    -0.744 OA
ENDBRANCH  91  92
ENDBRANCH  59  84
ENDBRANCH  33  34
ENDBRANCH  25  28
ENDBRANCH  23  24
ENDBRANCH   1  23
TORSDOF 16
ENDMDL
MODEL 3
REMARK VINA RESULT:     -11.1      4.870     10.592
REMARK SMILES Cc1ncccc1Oc1ccc(C(=O)NCCCCNC(=O)c2ccc(-c3c4nc(c(-c5c(F)cc(S(=O)(=O)[O-])cc5F)c5ccc([nH]5)c(-c5c(F)cc(S(=O)(=O)[O-])cc5F)c5nc(c(-c6c(F)cc(S(=O)(=O)[O-])cc6F)c6ccc3[nH]6)C=C5)C=C4)cc2)cc1Cl
REMARK SMILES IDX 18 1 17 2 16 3 15 4 13 5 14 6 12 8 9 9 10 10 90 11 11 12
REMARK SMILES IDX 89 13 91 14 8 15 7 16 1 17 2 18 3 19 4 20 6 21 5 22 19 23
REMARK SMILES IDX 20 24 21 25 22 27 23 28 24 29 88 30 25 31 87 32 26 33 27 34
REMARK SMILES IDX 28 35 81 36 29 37 86 38 80 39 82 40 30 41 85 42 79 43 78 44
REMARK SMILES IDX 31 46 65 47 44 48 64 49 45 50 48 51 63 52 83 53 46 54 47 55
REMARK SMILES IDX 62 57 84 58 49 59 32 60 33 61 42 62 34 63 35 64 41 65 43 66
REMARK SMILES IDX 36 67 37 68 38 69 39 70 40 71 66 72 67 73 76 74 68 75 69 76
REMARK SMILES IDX 75 77 77 78 70 79 71 80 72 81 73 82 74 83 50 84 51 85 60 86
REMARK SMILES IDX 52 87 53 88 59 89 61 90 54 91 55 92 56 93 57 94 58 95
REMARK H PARENT 15 7 20 26 82 45 48 56
REMARK Flexibility Score: inf
ROOT
ATOM      1  C   UNL A   1      37.366  23.710  25.986  1.00  0.00     0.023 C 
ENDROOT
BRANCH   1   2
ATOM      2  C   UNL A   1      37.525  22.216  25.688  1.00  0.00     0.023 C 
BRANCH   2   3
ATOM      3  C   UNL A   1      36.828  21.754  24.408  1.00  0.00     0.116 C 
BRANCH   3   4
ATOM      4  N   UNL A   1      35.751  20.832  24.720  1.00  0.00    -0.352 N 
ATOM      5  C   UNL A   1      34.412  21.032  24.939  1.00  0.00     0.251 C 
ATOM      6  O   UNL A   1      33.702  20.053  25.163  1.00  0.00    -0.269 OA
ATOM      7  H   UNL A   1      36.032  19.892  24.786  1.00  0.00     0.163 HD
BRANCH   5   8
ATOM      8  C   UNL A   1      33.772  22.369  24.834  1.00  0.00     0.041 A 
ATOM      9  C   UNL A   1      32.367  24.788  24.841  1.00  0.00     0.146 A 
ATOM     10  C   UNL A   1      32.850  24.264  26.041  1.00  0.00     0.049 A 
ATOM     11  C   UNL A   1      32.710  24.185  23.628  1.00  0.00     0.084 A 
ATOM     12  C   UNL A   1      33.534  23.049  26.037  1.00  0.00     0.018 A 
ATOM     13  C   UNL A   1      33.422  22.982  23.627  1.00  0.00     0.038 A 
ATOM     14  Cl  UNL A   1      32.257  24.872  22.111  1.00  0.00    -0.080 Cl
BRANCH   9  15
ATOM     15  O   UNL A   1      31.626  25.933  24.924  1.00  0.00    -0.454 OA
BRANCH  15  16
ATOM     16  C   UNL A   1      32.139  27.044  25.560  1.00  0.00     0.148 A 
ATOM     17  C   UNL A   1      33.925  27.854  23.885  1.00  0.00     0.071 C 
ATOM     18  C   UNL A   1      33.137  27.941  25.156  1.00  0.00     0.080 A 
ATOM     19  N   UNL A   1      33.492  29.015  25.921  1.00  0.00    -0.258 NA
ATOM     20  C   UNL A   1      32.845  29.221  27.086  1.00  0.00     0.111 A 
ATOM     21  C   UNL A   1      31.485  27.307  26.773  1.00  0.00     0.050 A 
ATOM     22  C   UNL A   1      31.837  28.405  27.549  1.00  0.00     0.024 A 
ENDBRANCH  15  16
ENDBRANCH   9  15
ENDBRANCH   5   8
ENDBRANCH   3   4
ENDBRANCH   2   3
ENDBRANCH   1   2
BRANCH   1  23
ATOM     23  C   UNL A   1      38.526  24.345  26.746  1.00  0.00     0.116 C 
BRANCH  23  24
ATOM     24  N   UNL A   1      39.703  24.553  25.918  1.00  0.00    -0.352 N 
ATOM     25  C   UNL A   1      40.732  25.450  26.096  1.00  0.00     0.251 C 
ATOM     26  H   UNL A   1      39.774  23.976  25.124  1.00  0.00     0.163 HD
ATOM     27  O   UNL A   1      41.596  25.571  25.239  1.00  0.00    -0.269 OA
BRANCH  25  28
ATOM     28  C   UNL A   1      40.757  26.290  27.313  1.00  0.00     0.039 A 
ATOM     29  C   UNL A   1      41.598  27.405  27.341  1.00  0.00     0.014 A 
ATOM     30  C   UNL A   1      39.936  25.995  28.404  1.00  0.00     0.014 A 
ATOM     31  C   UNL A   1      41.564  28.266  28.439  1.00  0.00     0.010 A 
ATOM     32  C   UNL A   1      39.856  26.889  29.468  1.00  0.00     0.010 A 
ATOM     33  C   UNL A   1      40.666  28.035  29.494  1.00  0.00    -0.014 A 
BRANCH  33  34
ATOM     34  C   UNL A   1      40.550  28.984  30.628  1.00  0.00     0.031 A 
ATOM     35  C   UNL A   1      41.438  28.836  31.832  1.00  0.00     0.074 A 
ATOM     36  C   UNL A   1      39.593  29.935  30.603  1.00  0.00     0.049 A 
ATOM     37  N   UNL A   1      41.437  29.517  32.948  1.00  0.00    -0.248 NA
ATOM     38  C   UNL A   1      42.444  27.762  31.786  1.00  0.00     0.031 C 
ATOM     39  C   UNL A   1      38.637  30.144  29.513  1.00  0.00     0.029 A 
ATOM     40  N   UNL A   1      39.259  30.894  31.525  1.00  0.00    -0.354 N 
ATOM     41  C   UNL A   1      42.421  28.944  33.744  1.00  0.00     0.074 A 
ATOM     42  C   UNL A   1      42.971  27.832  32.999  1.00  0.00     0.031 C 
ATOM     43  C   UNL A   1      37.839  31.180  29.821  1.00  0.00     0.029 A 
ATOM     44  C   UNL A   1      38.203  31.686  31.141  1.00  0.00     0.049 A 
ATOM     45  H   UNL A   1      39.732  31.004  32.381  1.00  0.00     0.167 HD
ATOM     46  C   UNL A   1      42.841  29.323  34.974  1.00  0.00     0.037 A 
ATOM     47  C   UNL A   1      37.594  32.703  31.781  1.00  0.00     0.037 A 
ATOM     48  C   UNL A   1      42.315  30.455  35.693  1.00  0.00     0.049 A 
ATOM     49  C   UNL A   1      38.092  33.116  33.139  1.00  0.00     0.074 A 
ATOM     50  C   UNL A   1      42.724  30.966  36.912  1.00  0.00     0.029 A 
ATOM     51  N   UNL A   1      41.265  31.251  35.258  1.00  0.00    -0.354 N 
ATOM     52  N   UNL A   1      39.071  32.606  33.848  1.00  0.00    -0.248 NA
ATOM     53  C   UNL A   1      37.408  34.246  33.782  1.00  0.00     0.031 C 
ATOM     54  C   UNL A   1      41.899  32.050  37.231  1.00  0.00     0.029 A 
ATOM     55  C   UNL A   1      41.002  32.239  36.192  1.00  0.00     0.049 A 
ATOM     56  H   UNL A   1      40.780  31.132  34.410  1.00  0.00     0.167 HD
ATOM     57  C   UNL A   1      39.138  33.369  35.008  1.00  0.00     0.074 A 
ATOM     58  C   UNL A   1      38.106  34.382  34.902  1.00  0.00     0.031 C 
ATOM     59  C   UNL A   1      39.978  33.245  36.065  1.00  0.00     0.037 A 
BRANCH  46  60
ATOM     60  C   UNL A   1      43.930  28.512  35.620  1.00  0.00     0.058 A 
ATOM     61  C   UNL A   1      43.639  27.430  36.466  1.00  0.00     0.135 A 
ATOM     62  C   UNL A   1      45.280  28.799  35.363  1.00  0.00     0.135 A 
ATOM     63  F   UNL A   1      42.366  27.123  36.757  1.00  0.00    -0.206 F 
ATOM     64  C   UNL A   1      44.649  26.680  37.059  1.00  0.00     0.059 A 
ATOM     65  C   UNL A   1      46.307  28.045  35.925  1.00  0.00     0.059 A 
ATOM     66  F   UNL A   1      45.614  29.824  34.562  1.00  0.00    -0.206 F 
ATOM     67  C   UNL A   1      45.980  26.996  36.783  1.00  0.00     0.060 A 
BRANCH  67  68
ATOM     68  S   UNL A   1      47.280  26.010  37.557  1.00  0.00     0.124 S 
ATOM     69  O   UNL A   1      48.034  25.561  36.392  1.00  0.00    -0.237 OA
ATOM     70  O   UNL A   1      47.951  26.989  38.407  1.00  0.00    -0.237 OA
ATOM     71  O   UNL A   1      46.540  24.971  38.267  1.00  0.00    -0.744 OA
ENDBRANCH  67  68
ENDBRANCH  46  60
BRANCH  47  72
ATOM     72  C   UNL A   1      36.466  33.422  31.134  1.00  0.00     0.058 A 
ATOM     73  C   UNL A   1      36.686  34.247  30.020  1.00  0.00     0.135 A 
ATOM     74  C   UNL A   1      35.151  33.297  31.606  1.00  0.00     0.135 A 
ATOM     75  F   UNL A   1      37.928  34.402  29.536  1.00  0.00    -0.206 F 
ATOM     76  C   UNL A   1      35.645  34.937  29.407  1.00  0.00     0.059 A 
ATOM     77  C   UNL A   1      34.090  33.959  30.996  1.00  0.00     0.059 A 
ATOM     78  F   UNL A   1      34.886  32.506  32.657  1.00  0.00    -0.206 F 
ATOM     79  C   UNL A   1      34.349  34.786  29.903  1.00  0.00     0.060 A 
BRANCH  79  80
ATOM     80  S   UNL A   1      32.998  35.652  29.074  1.00  0.00     0.124 S 
ATOM     81  O   UNL A   1      32.410  34.581  28.277  1.00  0.00    -0.237 OA
ATOM     82  O   UNL A   1      32.198  36.122  30.201  1.00  0.00    -0.237 OA
ATOM     83  O   UNL A   1      33.683  36.698  28.322  1.00  0.00    -0.744 OA
ENDBRANCH  79  80
ENDBRANCH  47  72
BRANCH  59  84
ATOM     84  C   UNL A   1      39.844  34.247  37.175  1.00  0.00     0.058 A 
ATOM     85  C   UNL A   1      40.445  35.514  37.102  1.00  0.00     0.135 A 
ATOM     86  C   UNL A   1      39.061  33.955  38.304  1.00  0.00     0.135 A 
ATOM     87  F   UNL A   1      41.209  35.838  36.046  1.00  0.00    -0.206 F 
ATOM     88  C   UNL A   1      40.291  36.450  38.118  1.00  0.00     0.059 A 
ATOM     89  C   UNL A   1      38.874  34.887  39.321  1.00  0.00     0.059 A 
ATOM     90  F   UNL A   1      38.458  32.762  38.418  1.00  0.00    -0.206 F 
ATOM     91  C   UNL A   1      39.501  36.127  39.223  1.00  0.00     0.060 A 
BRANCH  91  92
ATOM     92  S   UNL A   1      39.276  37.364  40.519  1.00  0.00     0.124 S 
ATOM     93  O   UNL A   1      40.602  37.971  40.579  1.00  0.00    -0.237 OA
ATOM     94  O   UNL A   1      38.217  38.206  39.970  1.00  0.00    -0.237 OA
ATOM     95  O   UNL A   1      38.896  36.570  41.684  1.00  0.00    -0.744 OA
ENDBRANCH  91  92
ENDBRANCH  59  84
ENDBRANCH  33  34
ENDBRANCH  25  28
ENDBRANCH  23  24
ENDBRANCH   1  23
TORSDOF 16
ENDMDL
