MODEL 1
REMARK VINA RESULT:     -12.3      0.000      0.000
REMARK SMILES O=C(NCCCCNC(=O)[C@@H]1CC=CC[C@@H]1C(=O)Nc1ccc(Br)cc1Cl)c1ccc(-c2c3nc(c(-c4c(F)cc(S(=O)(=O)[O-])cc4F)c4ccc([nH]4)c(-c4c(F)cc(S(=O)(=O)[O-])cc4F)c4nc(c(-c5c(F)cc(S(=O)(=O)[O-])cc5F)c5ccc2[nH]5)C=C4)C=C3)cc1
REMARK SMILES IDX 5 1 4 2 3 3 1 4 2 5 28 7 29 8 93 9 30 10 92 11 31 12 32 13
REMARK SMILES IDX 33 14 86 15 34 16 91 17 85 18 87 19 35 20 90 21 84 22 83 23
REMARK SMILES IDX 36 25 70 26 49 27 69 28 50 29 53 30 68 31 88 32 51 33 52 34
REMARK SMILES IDX 67 36 89 37 54 38 37 39 38 40 47 41 39 42 40 43 46 44 48 45
REMARK SMILES IDX 41 46 42 47 43 48 44 49 45 50 71 51 72 52 81 53 73 54 74 55
REMARK SMILES IDX 80 56 82 57 75 58 76 59 77 60 78 61 79 62 55 63 56 64 65 65
REMARK SMILES IDX 57 66 58 67 64 68 66 69 59 70 60 71 61 72 62 73 63 74 6 75
REMARK SMILES IDX 7 76 8 77 9 78 10 80 11 81 12 82 16 83 13 84 15 85 14 86
REMARK SMILES IDX 17 87 18 88 19 89 20 91 21 92 26 93 22 94 25 95 27 96 23 97
REMARK SMILES IDX 24 98
REMARK H PARENT 3 6 87 24 53 35 8 79 19 90
REMARK Flexibility Score: inf
ROOT
ATOM      1  C   UNL A   1      37.464  23.118  25.996  1.00  0.00     0.023 C 
ENDROOT
BRANCH   1   2
ATOM      2  C   UNL A   1      38.428  24.188  26.492  1.00  0.00     0.116 C 
BRANCH   2   3
ATOM      3  N   UNL A   1      39.817  23.986  26.109  1.00  0.00    -0.352 N 
ATOM      4  O   UNL A   1      42.029  24.513  26.126  1.00  0.00    -0.269 OA
ATOM      5  C   UNL A   1      40.899  24.716  26.554  1.00  0.00     0.251 C 
ATOM      6  H   UNL A   1      40.002  23.260  25.471  1.00  0.00     0.163 HD
BRANCH   5   7
ATOM      7  C   UNL A   1      40.637  25.788  27.534  1.00  0.00     0.039 A 
ATOM      8  C   UNL A   1      41.465  26.912  27.556  1.00  0.00     0.014 A 
ATOM      9  C   UNL A   1      39.664  25.596  28.516  1.00  0.00     0.014 A 
ATOM     10  C   UNL A   1      41.420  27.766  28.647  1.00  0.00     0.010 A 
ATOM     11  C   UNL A   1      39.563  26.508  29.568  1.00  0.00     0.010 A 
ATOM     12  C   UNL A   1      40.464  27.581  29.661  1.00  0.00    -0.014 A 
BRANCH  12  13
ATOM     13  C   UNL A   1      40.389  28.565  30.770  1.00  0.00     0.031 A 
ATOM     14  C   UNL A   1      41.328  28.500  31.944  1.00  0.00     0.074 A 
ATOM     15  C   UNL A   1      39.473  29.547  30.681  1.00  0.00     0.049 A 
ATOM     16  N   UNL A   1      41.385  29.283  32.991  1.00  0.00    -0.248 NA
ATOM     17  C   UNL A   1      42.322  27.416  31.953  1.00  0.00     0.031 C 
ATOM     18  C   UNL A   1      38.508  29.697  29.586  1.00  0.00     0.029 A 
ATOM     19  N   UNL A   1      39.209  30.611  31.501  1.00  0.00    -0.354 N 
ATOM     20  C   UNL A   1      42.402  28.779  33.794  1.00  0.00     0.074 A 
ATOM     21  C   UNL A   1      42.926  27.609  33.119  1.00  0.00     0.031 C 
ATOM     22  C   UNL A   1      37.793  30.814  29.778  1.00  0.00     0.029 A 
ATOM     23  C   UNL A   1      38.197  31.419  31.040  1.00  0.00     0.049 A 
ATOM     24  H   UNL A   1      39.697  30.781  32.339  1.00  0.00     0.167 HD
ATOM     25  C   UNL A   1      42.853  29.253  34.981  1.00  0.00     0.037 A 
ATOM     26  C   UNL A   1      37.637  32.514  31.583  1.00  0.00     0.037 A 
ATOM     27  C   UNL A   1      42.331  30.430  35.630  1.00  0.00     0.049 A 
ATOM     28  C   UNL A   1      38.148  33.009  32.902  1.00  0.00     0.074 A 
ATOM     29  C   UNL A   1      42.738  31.011  36.819  1.00  0.00     0.029 A 
ATOM     30  N   UNL A   1      41.288  31.207  35.146  1.00  0.00    -0.354 N 
ATOM     31  N   UNL A   1      39.119  32.525  33.641  1.00  0.00    -0.248 NA
ATOM     32  C   UNL A   1      37.488  34.192  33.467  1.00  0.00     0.031 C 
ATOM     33  C   UNL A   1      41.916  32.115  37.074  1.00  0.00     0.029 A 
ATOM     34  C   UNL A   1      41.026  32.250  36.021  1.00  0.00     0.049 A 
ATOM     35  H   UNL A   1      40.805  31.043  34.303  1.00  0.00     0.167 HD
ATOM     36  C   UNL A   1      39.189  33.347  34.758  1.00  0.00     0.074 A 
ATOM     37  C   UNL A   1      38.180  34.374  34.583  1.00  0.00     0.031 C 
ATOM     38  C   UNL A   1      40.011  33.257  35.832  1.00  0.00     0.037 A 
BRANCH  25  39
ATOM     39  C   UNL A   1      43.953  28.492  35.675  1.00  0.00     0.058 A 
ATOM     40  C   UNL A   1      43.678  27.460  36.586  1.00  0.00     0.135 A 
ATOM     41  C   UNL A   1      45.300  28.760  35.379  1.00  0.00     0.135 A 
ATOM     42  F   UNL A   1      42.411  27.170  36.917  1.00  0.00    -0.206 F 
ATOM     43  C   UNL A   1      44.701  26.733  37.191  1.00  0.00     0.059 A 
ATOM     44  C   UNL A   1      46.337  28.031  35.955  1.00  0.00     0.059 A 
ATOM     45  F   UNL A   1      45.619  29.736  34.514  1.00  0.00    -0.206 F 
ATOM     46  C   UNL A   1      46.027  27.026  36.869  1.00  0.00     0.060 A 
BRANCH  46  47
ATOM     47  S   UNL A   1      47.341  26.066  37.654  1.00  0.00     0.124 S 
ATOM     48  O   UNL A   1      47.307  26.588  39.017  1.00  0.00    -0.237 OA
ATOM     49  O   UNL A   1      46.868  24.695  37.491  1.00  0.00    -0.237 OA
ATOM     50  O   UNL A   1      48.527  26.415  36.879  1.00  0.00    -0.744 OA
ENDBRANCH  46  47
ENDBRANCH  25  39
BRANCH  26  51
ATOM     51  C   UNL A   1      36.517  33.190  30.879  1.00  0.00     0.058 A 
ATOM     52  C   UNL A   1      35.200  33.085  31.345  1.00  0.00     0.135 A 
ATOM     53  C   UNL A   1      36.754  33.996  29.753  1.00  0.00     0.135 A 
ATOM     54  F   UNL A   1      34.926  32.326  32.417  1.00  0.00    -0.206 F 
ATOM     55  C   UNL A   1      34.152  33.749  30.715  1.00  0.00     0.059 A 
ATOM     56  C   UNL A   1      35.728  34.691  29.124  1.00  0.00     0.059 A 
ATOM     57  F   UNL A   1      38.003  34.145  29.283  1.00  0.00    -0.206 F 
ATOM     58  C   UNL A   1      34.428  34.552  29.606  1.00  0.00     0.060 A 
BRANCH  58  59
ATOM     59  S   UNL A   1      33.073  35.457  28.830  1.00  0.00     0.124 S 
ATOM     60  O   UNL A   1      32.421  34.403  28.061  1.00  0.00    -0.237 OA
ATOM     61  O   UNL A   1      32.333  35.957  29.984  1.00  0.00    -0.237 OA
ATOM     62  O   UNL A   1      33.760  36.480  28.047  1.00  0.00    -0.744 OA
ENDBRANCH  58  59
ENDBRANCH  26  51
BRANCH  38  63
ATOM     63  C   UNL A   1      39.855  34.309  36.892  1.00  0.00     0.058 A 
ATOM     64  C   UNL A   1      40.498  35.553  36.789  1.00  0.00     0.135 A 
ATOM     65  C   UNL A   1      39.040  34.078  38.010  1.00  0.00     0.135 A 
ATOM     66  F   UNL A   1      41.297  35.817  35.744  1.00  0.00    -0.206 F 
ATOM     67  C   UNL A   1      40.358  36.523  37.775  1.00  0.00     0.059 A 
ATOM     68  C   UNL A   1      38.866  35.045  38.996  1.00  0.00     0.059 A 
ATOM     69  F   UNL A   1      38.399  32.907  38.150  1.00  0.00    -0.206 F 
ATOM     70  C   UNL A   1      39.542  36.259  38.877  1.00  0.00     0.060 A 
BRANCH  70  71
ATOM     71  S   UNL A   1      39.352  37.532  40.142  1.00  0.00     0.124 S 
ATOM     72  O   UNL A   1      39.017  36.732  41.314  1.00  0.00    -0.237 OA
ATOM     73  O   UNL A   1      40.670  38.159  40.157  1.00  0.00    -0.237 OA
ATOM     74  O   UNL A   1      38.275  38.369  39.621  1.00  0.00    -0.744 OA
ENDBRANCH  70  71
ENDBRANCH  38  63
ENDBRANCH  12  13
ENDBRANCH   5   7
ENDBRANCH   2   3
ENDBRANCH   1   2
BRANCH   1  75
ATOM     75  C   UNL A   1      36.851  23.360  24.614  1.00  0.00     0.023 C 
BRANCH  75  76
ATOM     76  C   UNL A   1      35.329  23.236  24.556  1.00  0.00     0.116 C 
BRANCH  76  77
ATOM     77  N   UNL A   1      34.646  24.021  25.562  1.00  0.00    -0.356 N 
ATOM     78  C   UNL A   1      33.897  25.144  25.501  1.00  0.00     0.224 C 
ATOM     79  H   UNL A   1      34.745  23.664  26.473  1.00  0.00     0.163 HD
ATOM     80  O   UNL A   1      33.197  25.396  26.492  1.00  0.00    -0.275 OA
BRANCH  78  81
ATOM     81  C   UNL A   1      33.918  26.157  24.371  1.00  0.00     0.095 C 
ATOM     82  C   UNL A   1      33.831  27.647  24.674  1.00  0.00     0.041 C 
ATOM     83  C   UNL A   1      32.988  25.703  23.226  1.00  0.00     0.095 C 
ATOM     84  C   UNL A   1      33.966  28.473  23.431  1.00  0.00    -0.030 C 
ATOM     85  C   UNL A   1      33.205  26.581  21.964  1.00  0.00     0.041 C 
ATOM     86  C   UNL A   1      33.693  27.985  22.213  1.00  0.00    -0.030 C 
BRANCH  83  87
ATOM     87  C   UNL A   1      31.488  25.718  23.563  1.00  0.00     0.228 C 
ATOM     88  O   UNL A   1      30.842  26.765  23.616  1.00  0.00    -0.274 OA
ATOM     89  N   UNL A   1      30.803  24.520  23.585  1.00  0.00    -0.324 N 
ATOM     90  H   UNL A   1      29.842  24.565  23.377  1.00  0.00     0.169 HD
BRANCH  89  91
ATOM     91  C   UNL A   1      31.319  23.243  23.871  1.00  0.00     0.060 A 
ATOM     92  C   UNL A   1      31.777  22.465  22.805  1.00  0.00     0.029 A 
ATOM     93  C   UNL A   1      31.330  22.696  25.165  1.00  0.00     0.065 A 
ATOM     94  C   UNL A   1      32.387  21.231  23.053  1.00  0.00     0.018 A 
ATOM     95  C   UNL A   1      31.979  21.488  25.423  1.00  0.00     0.038 A 
ATOM     96  Cl  UNL A   1      30.324  23.339  26.415  1.00  0.00    -0.082 Cl
ATOM     97  C   UNL A   1      32.524  20.771  24.363  1.00  0.00     0.019 A 
ATOM     98  Br  UNL A   1      33.407  19.132  24.695  1.00  0.00    -0.051 Br
ENDBRANCH  89  91
ENDBRANCH  83  87
ENDBRANCH  78  81
ENDBRANCH  76  77
ENDBRANCH  75  76
ENDBRANCH   1  75
TORSDOF 16
ENDMDL
MODEL 2
REMARK VINA RESULT:     -12.3      6.768     11.922
REMARK SMILES O=C(NCCCCNC(=O)[C@@H]1CC=CC[C@@H]1C(=O)Nc1ccc(Br)cc1Cl)c1ccc(-c2c3nc(c(-c4c(F)cc(S(=O)(=O)[O-])cc4F)c4ccc([nH]4)c(-c4c(F)cc(S(=O)(=O)[O-])cc4F)c4nc(c(-c5c(F)cc(S(=O)(=O)[O-])cc5F)c5ccc2[nH]5)C=C4)C=C3)cc1
REMARK SMILES IDX 5 1 4 2 3 3 1 4 2 5 28 7 29 8 93 9 30 10 92 11 31 12 32 13
REMARK SMILES IDX 33 14 86 15 34 16 91 17 85 18 87 19 35 20 90 21 84 22 83 23
REMARK SMILES IDX 36 25 70 26 49 27 69 28 50 29 53 30 68 31 88 32 51 33 52 34
REMARK SMILES IDX 67 36 89 37 54 38 37 39 38 40 47 41 39 42 40 43 46 44 48 45
REMARK SMILES IDX 41 46 42 47 43 48 44 49 45 50 71 51 72 52 81 53 73 54 74 55
REMARK SMILES IDX 80 56 82 57 75 58 76 59 77 60 78 61 79 62 55 63 56 64 65 65
REMARK SMILES IDX 57 66 58 67 64 68 66 69 59 70 60 71 61 72 62 73 63 74 6 75
REMARK SMILES IDX 7 76 8 77 9 78 10 80 11 81 12 82 16 83 13 84 15 85 14 86
REMARK SMILES IDX 17 87 18 88 19 89 20 91 21 92 26 93 22 94 25 95 27 96 23 97
REMARK SMILES IDX 24 98
REMARK H PARENT 3 6 87 24 53 35 8 79 19 90
REMARK Flexibility Score: inf
ROOT
ATOM      1  C   UNL A   1      33.959  29.487  26.778  1.00  0.00     0.023 C 
ENDROOT
BRANCH   1   2
ATOM      2  C   UNL A   1      35.208  29.335  27.636  1.00  0.00     0.116 C 
BRANCH   2   3
ATOM      3  N   UNL A   1      35.185  30.078  28.887  1.00  0.00    -0.352 N 
ATOM      4  O   UNL A   1      36.127  30.870  30.800  1.00  0.00    -0.269 OA
ATOM      5  C   UNL A   1      36.256  30.282  29.732  1.00  0.00     0.251 C 
ATOM      6  H   UNL A   1      34.325  30.471  29.157  1.00  0.00     0.163 HD
BRANCH   5   7
ATOM      7  C   UNL A   1      37.559  29.722  29.325  1.00  0.00     0.039 A 
ATOM      8  C   UNL A   1      38.413  29.197  30.296  1.00  0.00     0.014 A 
ATOM      9  C   UNL A   1      37.979  29.858  28.000  1.00  0.00     0.014 A 
ATOM     10  C   UNL A   1      39.739  28.952  29.974  1.00  0.00     0.010 A 
ATOM     11  C   UNL A   1      39.292  29.527  27.660  1.00  0.00     0.010 A 
ATOM     12  C   UNL A   1      40.193  29.105  28.652  1.00  0.00    -0.014 A 
BRANCH  12  13
ATOM     13  C   UNL A   1      41.597  28.751  28.326  1.00  0.00     0.031 A 
ATOM     14  C   UNL A   1      42.700  29.772  28.385  1.00  0.00     0.074 A 
ATOM     15  C   UNL A   1      41.866  27.470  28.006  1.00  0.00     0.049 A 
ATOM     16  N   UNL A   1      43.973  29.617  28.126  1.00  0.00    -0.248 NA
ATOM     17  C   UNL A   1      42.330  31.141  28.774  1.00  0.00     0.031 C 
ATOM     18  C   UNL A   1      40.867  26.401  27.912  1.00  0.00     0.029 A 
ATOM     19  N   UNL A   1      43.049  26.842  27.720  1.00  0.00    -0.354 N 
ATOM     20  C   UNL A   1      44.556  30.869  28.297  1.00  0.00     0.074 A 
ATOM     21  C   UNL A   1      43.490  31.777  28.668  1.00  0.00     0.031 C 
ATOM     22  C   UNL A   1      41.484  25.243  27.640  1.00  0.00     0.029 A 
ATOM     23  C   UNL A   1      42.908  25.499  27.470  1.00  0.00     0.049 A 
ATOM     24  H   UNL A   1      43.916  27.309  27.696  1.00  0.00     0.167 HD
ATOM     25  C   UNL A   1      45.858  31.220  28.158  1.00  0.00     0.037 A 
ATOM     26  C   UNL A   1      43.819  24.575  27.117  1.00  0.00     0.037 A 
ATOM     27  C   UNL A   1      46.908  30.297  27.806  1.00  0.00     0.049 A 
ATOM     28  C   UNL A   1      45.249  24.993  26.960  1.00  0.00     0.074 A 
ATOM     29  C   UNL A   1      48.263  30.545  27.669  1.00  0.00     0.029 A 
ATOM     30  N   UNL A   1      46.723  28.948  27.534  1.00  0.00    -0.354 N 
ATOM     31  N   UNL A   1      45.782  26.179  27.138  1.00  0.00    -0.248 NA
ATOM     32  C   UNL A   1      46.202  23.956  26.549  1.00  0.00     0.031 C 
ATOM     33  C   UNL A   1      48.891  29.357  27.276  1.00  0.00     0.029 A 
ATOM     34  C   UNL A   1      47.934  28.357  27.212  1.00  0.00     0.049 A 
ATOM     35  H   UNL A   1      45.857  28.479  27.567  1.00  0.00     0.167 HD
ATOM     36  C   UNL A   1      47.136  26.030  26.864  1.00  0.00     0.074 A 
ATOM     37  C   UNL A   1      47.342  24.633  26.535  1.00  0.00     0.031 C 
ATOM     38  C   UNL A   1      48.117  26.966  26.879  1.00  0.00     0.037 A 
BRANCH  25  39
ATOM     39  C   UNL A   1      46.227  32.665  28.366  1.00  0.00     0.058 A 
ATOM     40  C   UNL A   1      46.681  33.143  29.605  1.00  0.00     0.135 A 
ATOM     41  C   UNL A   1      46.184  33.572  27.293  1.00  0.00     0.135 A 
ATOM     42  F   UNL A   1      46.731  32.325  30.667  1.00  0.00    -0.206 F 
ATOM     43  C   UNL A   1      47.062  34.471  29.777  1.00  0.00     0.059 A 
ATOM     44  C   UNL A   1      46.580  34.899  27.437  1.00  0.00     0.059 A 
ATOM     45  F   UNL A   1      45.758  33.168  26.085  1.00  0.00    -0.206 F 
ATOM     46  C   UNL A   1      47.008  35.342  28.687  1.00  0.00     0.060 A 
BRANCH  46  47
ATOM     47  S   UNL A   1      47.516  37.059  28.925  1.00  0.00     0.124 S 
ATOM     48  O   UNL A   1      48.942  36.984  28.625  1.00  0.00    -0.237 OA
ATOM     49  O   UNL A   1      46.700  37.766  27.942  1.00  0.00    -0.237 OA
ATOM     50  O   UNL A   1      47.182  37.324  30.320  1.00  0.00    -0.744 OA
ENDBRANCH  46  47
ENDBRANCH  25  39
BRANCH  26  51
ATOM     51  C   UNL A   1      43.386  23.175  26.872  1.00  0.00     0.058 A 
ATOM     52  C   UNL A   1      43.356  22.644  25.576  1.00  0.00     0.135 A 
ATOM     53  C   UNL A   1      43.042  22.329  27.938  1.00  0.00     0.135 A 
ATOM     54  F   UNL A   1      43.675  23.415  24.526  1.00  0.00    -0.206 F 
ATOM     55  C   UNL A   1      42.991  21.321  25.342  1.00  0.00     0.059 A 
ATOM     56  C   UNL A   1      42.702  20.997  27.732  1.00  0.00     0.059 A 
ATOM     57  F   UNL A   1      43.078  22.787  29.199  1.00  0.00    -0.206 F 
ATOM     58  C   UNL A   1      42.669  20.505  26.429  1.00  0.00     0.060 A 
BRANCH  58  59
ATOM     59  S   UNL A   1      42.254  18.775  26.124  1.00  0.00     0.124 S 
ATOM     60  O   UNL A   1      42.534  18.175  27.423  1.00  0.00    -0.237 OA
ATOM     61  O   UNL A   1      40.846  18.857  25.747  1.00  0.00    -0.237 OA
ATOM     62  O   UNL A   1      43.161  18.400  25.044  1.00  0.00    -0.744 OA
ENDBRANCH  58  59
ENDBRANCH  26  51
BRANCH  38  63
ATOM     63  C   UNL A   1      49.502  26.497  26.542  1.00  0.00     0.058 A 
ATOM     64  C   UNL A   1      50.012  26.595  25.238  1.00  0.00     0.135 A 
ATOM     65  C   UNL A   1      50.335  25.963  27.537  1.00  0.00     0.135 A 
ATOM     66  F   UNL A   1      49.250  27.089  24.249  1.00  0.00    -0.206 F 
ATOM     67  C   UNL A   1      51.293  26.154  24.926  1.00  0.00     0.059 A 
ATOM     68  C   UNL A   1      51.629  25.538  27.251  1.00  0.00     0.059 A 
ATOM     69  F   UNL A   1      49.896  25.854  28.800  1.00  0.00    -0.206 F 
ATOM     70  C   UNL A   1      52.094  25.624  25.939  1.00  0.00     0.060 A 
BRANCH  70  71
ATOM     71  S   UNL A   1      53.762  25.071  25.528  1.00  0.00     0.124 S 
ATOM     72  O   UNL A   1      53.552  23.643  25.313  1.00  0.00    -0.237 OA
ATOM     73  O   UNL A   1      54.067  25.853  24.334  1.00  0.00    -0.237 OA
ATOM     74  O   UNL A   1      54.538  25.423  26.714  1.00  0.00    -0.744 OA
ENDBRANCH  70  71
ENDBRANCH  38  63
ENDBRANCH  12  13
ENDBRANCH   5   7
ENDBRANCH   2   3
ENDBRANCH   1   2
BRANCH   1  75
ATOM     75  C   UNL A   1      32.746  28.659  27.212  1.00  0.00     0.023 C 
BRANCH  75  76
ATOM     76  C   UNL A   1      32.240  27.666  26.166  1.00  0.00     0.116 C 
BRANCH  76  77
ATOM     77  N   UNL A   1      33.294  27.089  25.359  1.00  0.00    -0.356 N 
ATOM     78  C   UNL A   1      33.722  25.822  25.171  1.00  0.00     0.224 C 
ATOM     79  H   UNL A   1      33.800  27.756  24.840  1.00  0.00     0.163 HD
ATOM     80  O   UNL A   1      34.443  25.621  24.183  1.00  0.00    -0.275 OA
BRANCH  78  81
ATOM     81  C   UNL A   1      33.472  24.659  26.114  1.00  0.00     0.095 C 
ATOM     82  C   UNL A   1      34.580  23.656  26.406  1.00  0.00     0.041 C 
ATOM     83  C   UNL A   1      32.109  24.003  25.808  1.00  0.00     0.095 C 
ATOM     84  C   UNL A   1      34.157  22.648  27.432  1.00  0.00    -0.030 C 
ATOM     85  C   UNL A   1      31.722  22.999  26.927  1.00  0.00     0.041 C 
ATOM     86  C   UNL A   1      32.870  22.364  27.669  1.00  0.00    -0.030 C 
BRANCH  83  87
ATOM     87  C   UNL A   1      32.028  23.269  24.461  1.00  0.00     0.228 C 
ATOM     88  O   UNL A   1      32.524  22.154  24.295  1.00  0.00    -0.274 OA
ATOM     89  N   UNL A   1      31.192  23.769  23.483  1.00  0.00    -0.324 N 
ATOM     90  H   UNL A   1      30.830  23.114  22.844  1.00  0.00     0.169 HD
BRANCH  89  91
ATOM     91  C   UNL A   1      30.797  25.106  23.295  1.00  0.00     0.060 A 
ATOM     92  C   UNL A   1      29.642  25.548  23.942  1.00  0.00     0.029 A 
ATOM     93  C   UNL A   1      31.476  25.988  22.437  1.00  0.00     0.065 A 
ATOM     94  C   UNL A   1      29.267  26.894  23.861  1.00  0.00     0.018 A 
ATOM     95  C   UNL A   1      31.135  27.341  22.391  1.00  0.00     0.038 A 
ATOM     96  Cl  UNL A   1      32.553  25.400  21.220  1.00  0.00    -0.082 Cl
ATOM     97  C   UNL A   1      30.041  27.791  23.123  1.00  0.00     0.019 A 
ATOM     98  Br  UNL A   1      29.565  29.620  23.071  1.00  0.00    -0.051 Br
ENDBRANCH  89  91
ENDBRANCH  83  87
ENDBRANCH  78  81
ENDBRANCH  76  77
ENDBRANCH  75  76
ENDBRANCH   1  75
TORSDOF 16
ENDMDL
MODEL 3
REMARK VINA RESULT:     -12.0      6.823     11.968
REMARK SMILES O=C(NCCCCNC(=O)[C@@H]1CC=CC[C@@H]1C(=O)Nc1ccc(Br)cc1Cl)c1ccc(-c2c3nc(c(-c4c(F)cc(S(=O)(=O)[O-])cc4F)c4ccc([nH]4)c(-c4c(F)cc(S(=O)(=O)[O-])cc4F)c4nc(c(-c5c(F)cc(S(=O)(=O)[O-])cc5F)c5ccc2[nH]5)C=C4)C=C3)cc1
REMARK SMILES IDX 5 1 4 2 3 3 1 4 2 5 28 7 29 8 93 9 30 10 92 11 31 12 32 13
REMARK SMILES IDX 33 14 86 15 34 16 91 17 85 18 87 19 35 20 90 21 84 22 83 23
REMARK SMILES IDX 36 25 70 26 49 27 69 28 50 29 53 30 68 31 88 32 51 33 52 34
REMARK SMILES IDX 67 36 89 37 54 38 37 39 38 40 47 41 39 42 40 43 46 44 48 45
REMARK SMILES IDX 41 46 42 47 43 48 44 49 45 50 71 51 72 52 81 53 73 54 74 55
REMARK SMILES IDX 80 56 82 57 75 58 76 59 77 60 78 61 79 62 55 63 56 64 65 65
REMARK SMILES IDX 57 66 58 67 64 68 66 69 59 70 60 71 61 72 62 73 63 74 6 75
REMARK SMILES IDX 7 76 8 77 9 78 10 80 11 81 12 82 16 83 13 84 15 85 14 86
REMARK SMILES IDX 17 87 18 88 19 89 20 91 21 92 26 93 22 94 25 95 27 96 23 97
REMARK SMILES IDX 24 98
REMARK H PARENT 3 6 87 24 53 35 8 79 19 90
REMARK Flexibility Score: inf
ROOT
ATOM      1  C   UNL A   1      34.971  31.459  27.834  1.00  0.00     0.023 C 
ENDROOT
BRANCH   1   2
ATOM      2  C   UNL A   1      35.971  31.744  28.947  1.00  0.00     0.116 C 
BRANCH   2   3
ATOM      3  N   UNL A   1      35.698  31.064  30.205  1.00  0.00    -0.352 N 
ATOM      4  O   UNL A   1      36.259  29.734  31.962  1.00  0.00    -0.269 OA
ATOM      5  C   UNL A   1      36.598  30.325  30.943  1.00  0.00     0.251 C 
ATOM      6  H   UNL A   1      34.784  31.138  30.561  1.00  0.00     0.163 HD
BRANCH   5   7
ATOM      7  C   UNL A   1      37.980  30.232  30.433  1.00  0.00     0.039 A 
ATOM      8  C   UNL A   1      38.195  30.094  29.061  1.00  0.00     0.014 A 
ATOM      9  C   UNL A   1      39.039  30.135  31.338  1.00  0.00     0.014 A 
ATOM     10  C   UNL A   1      39.446  29.705  28.606  1.00  0.00     0.010 A 
ATOM     11  C   UNL A   1      40.317  29.830  30.866  1.00  0.00     0.010 A 
ATOM     12  C   UNL A   1      40.524  29.577  29.500  1.00  0.00    -0.014 A 
BRANCH  12  13
ATOM     13  C   UNL A   1      41.868  29.245  28.966  1.00  0.00     0.031 A 
ATOM     14  C   UNL A   1      42.968  30.269  28.910  1.00  0.00     0.074 A 
ATOM     15  C   UNL A   1      42.090  27.980  28.559  1.00  0.00     0.049 A 
ATOM     16  N   UNL A   1      44.192  30.133  28.469  1.00  0.00    -0.248 NA
ATOM     17  C   UNL A   1      42.656  31.619  29.403  1.00  0.00     0.031 C 
ATOM     18  C   UNL A   1      41.087  26.910  28.563  1.00  0.00     0.029 A 
ATOM     19  N   UNL A   1      43.220  27.371  28.084  1.00  0.00    -0.354 N 
ATOM     20  C   UNL A   1      44.792  31.380  28.607  1.00  0.00     0.074 A 
ATOM     21  C   UNL A   1      43.790  32.266  29.161  1.00  0.00     0.031 C 
ATOM     22  C   UNL A   1      41.660  25.767  28.161  1.00  0.00     0.029 A 
ATOM     23  C   UNL A   1      43.045  26.038  27.802  1.00  0.00     0.049 A 
ATOM     24  H   UNL A   1      44.076  27.843  27.958  1.00  0.00     0.167 HD
ATOM     25  C   UNL A   1      46.062  31.744  28.301  1.00  0.00     0.037 A 
ATOM     26  C   UNL A   1      43.898  25.135  27.287  1.00  0.00     0.037 A 
ATOM     27  C   UNL A   1      47.053  30.842  27.767  1.00  0.00     0.049 A 
ATOM     28  C   UNL A   1      45.292  25.567  26.948  1.00  0.00     0.074 A 
ATOM     29  C   UNL A   1      48.375  31.104  27.451  1.00  0.00     0.029 A 
ATOM     30  N   UNL A   1      46.831  29.505  27.470  1.00  0.00    -0.354 N 
ATOM     31  N   UNL A   1      45.845  26.749  27.097  1.00  0.00    -0.248 NA
ATOM     32  C   UNL A   1      46.178  24.553  26.365  1.00  0.00     0.031 C 
ATOM     33  C   UNL A   1      48.941  29.936  26.926  1.00  0.00     0.029 A 
ATOM     34  C   UNL A   1      47.985  28.934  26.956  1.00  0.00     0.049 A 
ATOM     35  H   UNL A   1      45.979  29.030  27.605  1.00  0.00     0.167 HD
ATOM     36  C   UNL A   1      47.146  26.619  26.630  1.00  0.00     0.074 A 
ATOM     37  C   UNL A   1      47.305  25.237  26.218  1.00  0.00     0.031 C 
ATOM     38  C   UNL A   1      48.119  27.559  26.545  1.00  0.00     0.037 A 
BRANCH  25  39
ATOM     39  C   UNL A   1      46.456  33.182  28.513  1.00  0.00     0.058 A 
ATOM     40  C   UNL A   1      46.301  34.148  27.507  1.00  0.00     0.135 A 
ATOM     41  C   UNL A   1      46.940  33.611  29.761  1.00  0.00     0.135 A 
ATOM     42  F   UNL A   1      45.855  33.793  26.292  1.00  0.00    -0.206 F 
ATOM     43  C   UNL A   1      46.627  35.485  27.725  1.00  0.00     0.059 A 
ATOM     44  C   UNL A   1      47.252  34.945  30.007  1.00  0.00     0.059 A 
ATOM     45  F   UNL A   1      47.108  32.729  30.759  1.00  0.00    -0.206 F 
ATOM     46  C   UNL A   1      47.104  35.873  28.978  1.00  0.00     0.060 A 
BRANCH  46  47
ATOM     47  S   UNL A   1      47.513  37.612  29.248  1.00  0.00     0.124 S 
ATOM     48  O   UNL A   1      48.837  37.508  29.854  1.00  0.00    -0.237 OA
ATOM     49  O   UNL A   1      47.478  38.156  27.894  1.00  0.00    -0.237 OA
ATOM     50  O   UNL A   1      46.453  38.078  30.136  1.00  0.00    -0.744 OA
ENDBRANCH  46  47
ENDBRANCH  25  39
BRANCH  26  51
ATOM     51  C   UNL A   1      43.436  23.743  27.048  1.00  0.00     0.058 A 
ATOM     52  C   UNL A   1      43.327  22.826  28.102  1.00  0.00     0.135 A 
ATOM     53  C   UNL A   1      43.047  23.321  25.767  1.00  0.00     0.135 A 
ATOM     54  F   UNL A   1      43.688  23.185  29.344  1.00  0.00    -0.206 F 
ATOM     55  C   UNL A   1      42.856  21.534  27.894  1.00  0.00     0.059 A 
ATOM     56  C   UNL A   1      42.547  22.044  25.540  1.00  0.00     0.059 A 
ATOM     57  F   UNL A   1      43.113  24.171  24.730  1.00  0.00    -0.206 F 
ATOM     58  C   UNL A   1      42.465  21.154  26.609  1.00  0.00     0.060 A 
BRANCH  58  59
ATOM     59  S   UNL A   1      41.799  19.495  26.357  1.00  0.00     0.124 S 
ATOM     60  O   UNL A   1      42.217  18.824  27.581  1.00  0.00    -0.237 OA
ATOM     61  O   UNL A   1      40.368  19.753  26.225  1.00  0.00    -0.237 OA
ATOM     62  O   UNL A   1      42.461  19.052  25.133  1.00  0.00    -0.744 OA
ENDBRANCH  58  59
ENDBRANCH  26  51
BRANCH  38  63
ATOM     63  C   UNL A   1      49.444  27.112  25.997  1.00  0.00     0.058 A 
ATOM     64  C   UNL A   1      50.438  26.574  26.829  1.00  0.00     0.135 A 
ATOM     65  C   UNL A   1      49.713  27.204  24.623  1.00  0.00     0.135 A 
ATOM     66  F   UNL A   1      50.231  26.476  28.151  1.00  0.00    -0.206 F 
ATOM     67  C   UNL A   1      51.666  26.168  26.320  1.00  0.00     0.059 A 
ATOM     68  C   UNL A   1      50.926  26.780  24.089  1.00  0.00     0.059 A 
ATOM     69  F   UNL A   1      48.792  27.705  23.784  1.00  0.00    -0.206 F 
ATOM     70  C   UNL A   1      51.902  26.277  24.949  1.00  0.00     0.060 A 
BRANCH  70  71
ATOM     71  S   UNL A   1      53.493  25.730  24.296  1.00  0.00     0.124 S 
ATOM     72  O   UNL A   1      53.310  25.939  22.864  1.00  0.00    -0.237 OA
ATOM     73  O   UNL A   1      54.431  26.634  24.954  1.00  0.00    -0.237 OA
ATOM     74  O   UNL A   1      53.574  24.336  24.724  1.00  0.00    -0.744 OA
ENDBRANCH  70  71
ENDBRANCH  38  63
ENDBRANCH  12  13
ENDBRANCH   5   7
ENDBRANCH   2   3
ENDBRANCH   1   2
BRANCH   1  75
ATOM     75  C   UNL A   1      34.798  29.986  27.453  1.00  0.00     0.023 C 
BRANCH  75  76
ATOM     76  C   UNL A   1      33.643  29.703  26.492  1.00  0.00     0.116 C 
BRANCH  76  77
ATOM     77  N   UNL A   1      34.066  29.139  25.228  1.00  0.00    -0.356 N 
ATOM     78  C   UNL A   1      33.814  27.961  24.615  1.00  0.00     0.224 C 
ATOM     79  H   UNL A   1      34.655  29.733  24.710  1.00  0.00     0.163 HD
ATOM     80  O   UNL A   1      34.072  27.902  23.405  1.00  0.00    -0.275 OA
BRANCH  78  81
ATOM     81  C   UNL A   1      33.336  26.695  25.302  1.00  0.00     0.095 C 
ATOM     82  C   UNL A   1      34.266  25.496  25.434  1.00  0.00     0.041 C 
ATOM     83  C   UNL A   1      31.916  26.327  24.823  1.00  0.00     0.095 C 
ATOM     84  C   UNL A   1      33.635  24.392  26.226  1.00  0.00    -0.030 C 
ATOM     85  C   UNL A   1      31.315  25.202  25.708  1.00  0.00     0.041 C 
ATOM     86  C   UNL A   1      32.307  24.270  26.355  1.00  0.00    -0.030 C 
BRANCH  83  87
ATOM     87  C   UNL A   1      31.822  25.880  23.356  1.00  0.00     0.228 C 
ATOM     88  O   UNL A   1      32.494  24.948  22.914  1.00  0.00    -0.274 OA
ATOM     89  N   UNL A   1      30.801  26.384  22.575  1.00  0.00    -0.324 N 
ATOM     90  H   UNL A   1      30.497  25.812  21.834  1.00  0.00     0.169 HD
BRANCH  89  91
ATOM     91  C   UNL A   1      30.146  27.621  22.715  1.00  0.00     0.060 A 
ATOM     92  C   UNL A   1      30.854  28.781  22.392  1.00  0.00     0.029 A 
ATOM     93  C   UNL A   1      28.842  27.740  23.223  1.00  0.00     0.065 A 
ATOM     94  C   UNL A   1      30.211  30.023  22.423  1.00  0.00     0.018 A 
ATOM     95  C   UNL A   1      28.182  28.969  23.211  1.00  0.00     0.038 A 
ATOM     96  Cl  UNL A   1      28.115  26.458  24.126  1.00  0.00    -0.082 Cl
ATOM     97  C   UNL A   1      28.867  30.104  22.789  1.00  0.00     0.019 A 
ATOM     98  Br  UNL A   1      27.987  31.777  22.766  1.00  0.00    -0.051 Br
ENDBRANCH  89  91
ENDBRANCH  83  87
ENDBRANCH  78  81
ENDBRANCH  76  77
ENDBRANCH  75  76
ENDBRANCH   1  75
TORSDOF 16
ENDMDL
