MODEL 1
REMARK VINA RESULT:     -12.8      0.000      0.000
REMARK SMILES CC(C)(C)c1cc2c(cc1Cl)C=C(C(=O)NCCCCNC(=O)c1ccc(-c3c4nc(c(-c5c(F)cc(S(=O)(=O)[O-])cc5F)c5ccc([nH]5)c(-c5c(F)cc(S(=O)(=O)[O-])cc5F)c5nc(c(-c6c(F)cc(S(=O)(=O)[O-])cc6F)c6ccc3[nH]6)C=C5)C=C4)cc1)[C@@H](C(F)(F)F)O2
REMARK SMILES IDX 19 1 18 2 17 3 16 4 14 5 15 6 13 8 5 9 6 10 10 11 7 12 9 13
REMARK SMILES IDX 11 14 8 15 95 16 12 17 90 18 2 19 1 20 3 21 4 22 91 23 92 24
REMARK SMILES IDX 93 25 94 26 20 27 21 28 22 29 23 31 24 32 25 33 89 34 26 35
REMARK SMILES IDX 88 36 27 37 28 38 29 39 82 40 30 41 87 42 81 43 83 44 31 45
REMARK SMILES IDX 86 46 80 47 79 48 32 50 66 51 45 52 65 53 46 54 49 55 64 56
REMARK SMILES IDX 84 57 47 58 48 59 63 61 85 62 50 63 33 64 34 65 43 66 35 67
REMARK SMILES IDX 36 68 42 69 44 70 37 71 38 72 39 73 40 74 41 75 67 76 68 77
REMARK SMILES IDX 77 78 69 79 70 80 76 81 78 82 71 83 72 84 73 85 74 86 75 87
REMARK SMILES IDX 51 88 52 89 61 90 53 91 54 92 60 93 62 94 55 95 56 96 57 97
REMARK SMILES IDX 58 98 59 99
REMARK H PARENT 16 7 21 30 83 49 49 60
REMARK Flexibility Score: inf
ROOT
ATOM      1  C   UNL A   1      37.356  23.590  25.029  1.00  0.00     0.023 C 
ENDROOT
BRANCH   1   2
ATOM      2  C   UNL A   1      37.432  22.119  24.607  1.00  0.00     0.023 C 
BRANCH   2   3
ATOM      3  C   UNL A   1      37.059  21.130  25.708  1.00  0.00     0.116 C 
BRANCH   3   4
ATOM      4  N   UNL A   1      36.071  20.162  25.265  1.00  0.00    -0.352 N 
ATOM      5  C   UNL A   1      34.762  20.178  24.919  1.00  0.00     0.251 C 
ATOM      6  O   UNL A   1      34.290  19.086  24.583  1.00  0.00    -0.270 OA
ATOM      7  H   UNL A   1      36.454  19.257  25.198  1.00  0.00     0.163 HD
BRANCH   5   8
ATOM      8  C   UNL A   1      33.886  21.386  24.919  1.00  0.00     0.067 C 
ATOM      9  C   UNL A   1      31.635  25.812  23.799  1.00  0.00    -0.020 A 
ATOM     10  C   UNL A   1      31.338  24.697  24.614  1.00  0.00     0.053 A 
ATOM     11  C   UNL A   1      32.825  25.717  23.036  1.00  0.00     0.045 A 
ATOM     12  C   UNL A   1      32.162  23.570  24.665  1.00  0.00     0.128 A 
ATOM     13  C   UNL A   1      33.629  24.560  23.063  1.00  0.00     0.032 A 
ATOM     14  Cl  UNL A   1      33.437  26.987  22.031  1.00  0.00    -0.084 Cl
ATOM     15  C   UNL A   1      33.301  23.484  23.880  1.00  0.00     0.019 A 
ATOM     16  O   UNL A   1      31.773  22.562  25.502  1.00  0.00    -0.475 OA
ATOM     17  C   UNL A   1      34.102  22.267  23.922  1.00  0.00     0.025 C 
ATOM     18  C   UNL A   1      32.843  21.685  25.960  1.00  0.00     0.314 C 
BRANCH   9  19
ATOM     19  C   UNL A   1      30.692  27.042  23.825  1.00  0.00    -0.012 C 
ATOM     20  C   UNL A   1      30.494  27.695  22.427  1.00  0.00     0.016 C 
ATOM     21  C   UNL A   1      31.229  28.181  24.723  1.00  0.00     0.016 C 
ATOM     22  C   UNL A   1      29.291  26.605  24.299  1.00  0.00     0.016 C 
ENDBRANCH   9  19
BRANCH  18  23
ATOM     23  C   UNL A   1      33.451  22.251  27.258  1.00  0.00     0.429 C 
ATOM     24  F   UNL A   1      34.358  21.383  27.773  1.00  0.00    -0.167 F 
ATOM     25  F   UNL A   1      34.106  23.419  27.059  1.00  0.00    -0.167 F 
ATOM     26  F   UNL A   1      32.524  22.479  28.215  1.00  0.00    -0.167 F 
ENDBRANCH  18  23
ENDBRANCH   5   8
ENDBRANCH   3   4
ENDBRANCH   2   3
ENDBRANCH   1   2
BRANCH   1  27
ATOM     27  C   UNL A   1      38.182  23.963  26.258  1.00  0.00     0.116 C 
BRANCH  27  28
ATOM     28  N   UNL A   1      39.612  23.718  26.116  1.00  0.00    -0.352 N 
ATOM     29  C   UNL A   1      40.640  24.437  26.687  1.00  0.00     0.251 C 
ATOM     30  H   UNL A   1      39.872  22.955  25.551  1.00  0.00     0.163 HD
ATOM     31  O   UNL A   1      41.811  24.166  26.446  1.00  0.00    -0.269 OA
BRANCH  29  32
ATOM     32  C   UNL A   1      40.287  25.580  27.549  1.00  0.00     0.039 A 
ATOM     33  C   UNL A   1      40.955  26.798  27.394  1.00  0.00     0.014 A 
ATOM     34  C   UNL A   1      39.391  25.382  28.601  1.00  0.00     0.014 A 
ATOM     35  C   UNL A   1      40.850  27.760  28.389  1.00  0.00     0.010 A 
ATOM     36  C   UNL A   1      39.238  26.380  29.564  1.00  0.00     0.010 A 
ATOM     37  C   UNL A   1      40.008  27.551  29.495  1.00  0.00    -0.014 A 
BRANCH  37  38
ATOM     38  C   UNL A   1      39.976  28.554  30.589  1.00  0.00     0.031 A 
ATOM     39  C   UNL A   1      40.974  28.488  31.714  1.00  0.00     0.074 A 
ATOM     40  C   UNL A   1      39.082  29.558  30.532  1.00  0.00     0.049 A 
ATOM     41  N   UNL A   1      41.077  29.256  32.769  1.00  0.00    -0.248 NA
ATOM     42  C   UNL A   1      41.988  27.422  31.650  1.00  0.00     0.031 C 
ATOM     43  C   UNL A   1      38.087  29.741  29.473  1.00  0.00     0.029 A 
ATOM     44  N   UNL A   1      38.881  30.625  31.368  1.00  0.00    -0.354 N 
ATOM     45  C   UNL A   1      42.145  28.756  33.504  1.00  0.00     0.074 A 
ATOM     46  C   UNL A   1      42.653  27.609  32.782  1.00  0.00     0.031 C 
ATOM     47  C   UNL A   1      37.412  30.879  29.698  1.00  0.00     0.029 A 
ATOM     48  C   UNL A   1      37.885  31.472  30.945  1.00  0.00     0.049 A 
ATOM     49  H   UNL A   1      39.400  30.771  32.191  1.00  0.00     0.167 HD
ATOM     50  C   UNL A   1      42.657  29.214  34.672  1.00  0.00     0.037 A 
ATOM     51  C   UNL A   1      37.394  32.592  31.506  1.00  0.00     0.037 A 
ATOM     52  C   UNL A   1      42.164  30.373  35.371  1.00  0.00     0.049 A 
ATOM     53  C   UNL A   1      37.965  33.068  32.810  1.00  0.00     0.074 A 
ATOM     54  C   UNL A   1      42.610  30.914  36.564  1.00  0.00     0.029 A 
ATOM     55  N   UNL A   1      41.123  31.178  34.933  1.00  0.00    -0.354 N 
ATOM     56  N   UNL A   1      38.941  32.552  33.516  1.00  0.00    -0.248 NA
ATOM     57  C   UNL A   1      37.356  34.266  33.402  1.00  0.00     0.031 C 
ATOM     58  C   UNL A   1      41.824  32.034  36.860  1.00  0.00     0.029 A 
ATOM     59  C   UNL A   1      40.908  32.208  35.835  1.00  0.00     0.049 A 
ATOM     60  H   UNL A   1      40.611  31.038  34.103  1.00  0.00     0.167 HD
ATOM     61  C   UNL A   1      39.064  33.360  34.638  1.00  0.00     0.074 A 
ATOM     62  C   UNL A   1      38.076  34.413  34.505  1.00  0.00     0.031 C 
ATOM     63  C   UNL A   1      39.912  33.238  35.688  1.00  0.00     0.037 A 
BRANCH  50  64
ATOM     64  C   UNL A   1      43.803  28.458  35.280  1.00  0.00     0.058 A 
ATOM     65  C   UNL A   1      45.135  28.754  34.956  1.00  0.00     0.135 A 
ATOM     66  C   UNL A   1      43.567  27.459  36.240  1.00  0.00     0.135 A 
ATOM     67  F   UNL A   1      45.415  29.686  34.031  1.00  0.00    -0.206 F 
ATOM     68  C   UNL A   1      46.196  28.080  35.554  1.00  0.00     0.059 A 
ATOM     69  C   UNL A   1      44.613  26.784  36.863  1.00  0.00     0.059 A 
ATOM     70  F   UNL A   1      42.311  27.134  36.581  1.00  0.00    -0.206 F 
ATOM     71  C   UNL A   1      45.924  27.096  36.507  1.00  0.00     0.060 A 
BRANCH  71  72
ATOM     72  S   UNL A   1      47.310  26.239  37.285  1.00  0.00     0.124 S 
ATOM     73  O   UNL A   1      47.749  25.359  36.206  1.00  0.00    -0.237 OA
ATOM     74  O   UNL A   1      48.215  27.337  37.612  1.00  0.00    -0.237 OA
ATOM     75  O   UNL A   1      46.699  25.572  38.430  1.00  0.00    -0.744 OA
ENDBRANCH  71  72
ENDBRANCH  50  64
BRANCH  51  76
ATOM     76  C   UNL A   1      36.298  33.327  30.829  1.00  0.00     0.058 A 
ATOM     77  C   UNL A   1      34.995  33.308  31.344  1.00  0.00     0.135 A 
ATOM     78  C   UNL A   1      36.545  34.107  29.689  1.00  0.00     0.135 A 
ATOM     79  F   UNL A   1      34.712  32.571  32.429  1.00  0.00    -0.206 F 
ATOM     80  C   UNL A   1      33.972  34.043  30.755  1.00  0.00     0.059 A 
ATOM     81  C   UNL A   1      35.545  34.868  29.096  1.00  0.00     0.059 A 
ATOM     82  F   UNL A   1      37.782  34.168  29.171  1.00  0.00    -0.206 F 
ATOM     83  C   UNL A   1      34.259  34.826  29.634  1.00  0.00     0.060 A 
BRANCH  83  84
ATOM     84  S   UNL A   1      32.948  35.846  28.927  1.00  0.00     0.124 S 
ATOM     85  O   UNL A   1      32.315  34.912  28.005  1.00  0.00    -0.237 OA
ATOM     86  O   UNL A   1      32.167  36.208  30.106  1.00  0.00    -0.237 OA
ATOM     87  O   UNL A   1      33.680  36.949  28.311  1.00  0.00    -0.744 OA
ENDBRANCH  83  84
ENDBRANCH  51  76
BRANCH  63  88
ATOM     88  C   UNL A   1      39.806  34.270  36.772  1.00  0.00     0.058 A 
ATOM     89  C   UNL A   1      39.064  34.026  37.937  1.00  0.00     0.135 A 
ATOM     90  C   UNL A   1      40.478  35.497  36.659  1.00  0.00     0.135 A 
ATOM     91  F   UNL A   1      38.400  32.870  38.086  1.00  0.00    -0.206 F 
ATOM     92  C   UNL A   1      38.975  34.977  38.949  1.00  0.00     0.059 A 
ATOM     93  C   UNL A   1      40.416  36.453  37.666  1.00  0.00     0.059 A 
ATOM     94  F   UNL A   1      41.207  35.770  35.564  1.00  0.00    -0.206 F 
ATOM     95  C   UNL A   1      39.651  36.189  38.801  1.00  0.00     0.060 A 
BRANCH  95  96
ATOM     96  S   UNL A   1      39.544  37.407  40.129  1.00  0.00     0.124 S 
ATOM     97  O   UNL A   1      40.936  37.826  40.255  1.00  0.00    -0.237 OA
ATOM     98  O   UNL A   1      38.630  38.401  39.573  1.00  0.00    -0.237 OA
ATOM     99  O   UNL A   1      39.014  36.638  41.251  1.00  0.00    -0.744 OA
ENDBRANCH  95  96
ENDBRANCH  63  88
ENDBRANCH  37  38
ENDBRANCH  29  32
ENDBRANCH  27  28
ENDBRANCH   1  27
TORSDOF 16
ENDMDL
MODEL 2
REMARK VINA RESULT:     -12.7      1.403      1.690
REMARK SMILES CC(C)(C)c1cc2c(cc1Cl)C=C(C(=O)NCCCCNC(=O)c1ccc(-c3c4nc(c(-c5c(F)cc(S(=O)(=O)[O-])cc5F)c5ccc([nH]5)c(-c5c(F)cc(S(=O)(=O)[O-])cc5F)c5nc(c(-c6c(F)cc(S(=O)(=O)[O-])cc6F)c6ccc3[nH]6)C=C5)C=C4)cc1)[C@@H](C(F)(F)F)O2
REMARK SMILES IDX 19 1 18 2 17 3 16 4 14 5 15 6 13 8 5 9 6 10 10 11 7 12 9 13
REMARK SMILES IDX 11 14 8 15 95 16 12 17 90 18 2 19 1 20 3 21 4 22 91 23 92 24
REMARK SMILES IDX 93 25 94 26 20 27 21 28 22 29 23 31 24 32 25 33 89 34 26 35
REMARK SMILES IDX 88 36 27 37 28 38 29 39 82 40 30 41 87 42 81 43 83 44 31 45
REMARK SMILES IDX 86 46 80 47 79 48 32 50 66 51 45 52 65 53 46 54 49 55 64 56
REMARK SMILES IDX 84 57 47 58 48 59 63 61 85 62 50 63 33 64 34 65 43 66 35 67
REMARK SMILES IDX 36 68 42 69 44 70 37 71 38 72 39 73 40 74 41 75 67 76 68 77
REMARK SMILES IDX 77 78 69 79 70 80 76 81 78 82 71 83 72 84 73 85 74 86 75 87
REMARK SMILES IDX 51 88 52 89 61 90 53 91 54 92 60 93 62 94 55 95 56 96 57 97
REMARK SMILES IDX 58 98 59 99
REMARK H PARENT 16 7 21 30 83 49 49 60
REMARK Flexibility Score: inf
ROOT
ATOM      1  C   UNL A   1      37.306  23.143  25.336  1.00  0.00     0.023 C 
ENDROOT
BRANCH   1   2
ATOM      2  C   UNL A   1      37.420  21.668  25.736  1.00  0.00     0.023 C 
BRANCH   2   3
ATOM      3  C   UNL A   1      36.841  20.694  24.713  1.00  0.00     0.116 C 
BRANCH   3   4
ATOM      4  N   UNL A   1      35.492  20.279  25.054  1.00  0.00    -0.352 N 
ATOM      5  C   UNL A   1      34.261  20.843  25.068  1.00  0.00     0.251 C 
ATOM      6  O   UNL A   1      33.343  20.103  25.438  1.00  0.00    -0.270 OA
ATOM      7  H   UNL A   1      35.464  19.341  25.353  1.00  0.00     0.163 HD
BRANCH   5   8
ATOM      8  C   UNL A   1      33.955  22.252  24.680  1.00  0.00     0.067 C 
ATOM      9  C   UNL A   1      32.671  27.177  24.701  1.00  0.00    -0.020 A 
ATOM     10  C   UNL A   1      33.321  26.299  23.805  1.00  0.00     0.053 A 
ATOM     11  C   UNL A   1      32.300  26.620  25.950  1.00  0.00     0.045 A 
ATOM     12  C   UNL A   1      33.583  24.965  24.127  1.00  0.00     0.128 A 
ATOM     13  C   UNL A   1      32.604  25.284  26.281  1.00  0.00     0.032 A 
ATOM     14  Cl  UNL A   1      31.423  27.475  27.172  1.00  0.00    -0.084 Cl
ATOM     15  C   UNL A   1      33.245  24.452  25.369  1.00  0.00     0.019 A 
ATOM     16  O   UNL A   1      34.206  24.213  23.171  1.00  0.00    -0.475 OA
ATOM     17  C   UNL A   1      33.587  23.071  25.685  1.00  0.00     0.025 C 
ATOM     18  C   UNL A   1      33.989  22.776  23.271  1.00  0.00     0.314 C 
BRANCH   9  19
ATOM     19  C   UNL A   1      32.381  28.634  24.257  1.00  0.00    -0.012 C 
ATOM     20  C   UNL A   1      32.984  28.986  22.868  1.00  0.00     0.016 C 
ATOM     21  C   UNL A   1      32.980  29.679  25.227  1.00  0.00     0.016 C 
ATOM     22  C   UNL A   1      30.857  28.837  24.130  1.00  0.00     0.016 C 
ENDBRANCH   9  19
BRANCH  18  23
ATOM     23  C   UNL A   1      32.733  22.387  22.466  1.00  0.00     0.429 C 
ATOM     24  F   UNL A   1      32.922  22.637  21.146  1.00  0.00    -0.167 F 
ATOM     25  F   UNL A   1      32.436  21.070  22.571  1.00  0.00    -0.167 F 
ATOM     26  F   UNL A   1      31.632  23.070  22.851  1.00  0.00    -0.167 F 
ENDBRANCH  18  23
ENDBRANCH   5   8
ENDBRANCH   3   4
ENDBRANCH   2   3
ENDBRANCH   1   2
BRANCH   1  27
ATOM     27  C   UNL A   1      38.204  24.104  26.111  1.00  0.00     0.116 C 
BRANCH  27  28
ATOM     28  N   UNL A   1      39.619  23.754  26.088  1.00  0.00    -0.352 N 
ATOM     29  C   UNL A   1      40.644  24.387  26.757  1.00  0.00     0.251 C 
ATOM     30  H   UNL A   1      39.869  22.979  25.535  1.00  0.00     0.163 HD
ATOM     31  O   UNL A   1      41.807  24.031  26.613  1.00  0.00    -0.269 OA
BRANCH  29  32
ATOM     32  C   UNL A   1      40.303  25.544  27.605  1.00  0.00     0.039 A 
ATOM     33  C   UNL A   1      41.062  26.714  27.519  1.00  0.00     0.014 A 
ATOM     34  C   UNL A   1      39.317  25.399  28.582  1.00  0.00     0.014 A 
ATOM     35  C   UNL A   1      40.945  27.673  28.517  1.00  0.00     0.010 A 
ATOM     36  C   UNL A   1      39.158  26.396  29.545  1.00  0.00     0.010 A 
ATOM     37  C   UNL A   1      40.008  27.513  29.551  1.00  0.00    -0.014 A 
BRANCH  37  38
ATOM     38  C   UNL A   1      39.959  28.506  30.653  1.00  0.00     0.031 A 
ATOM     39  C   UNL A   1      40.940  28.430  31.793  1.00  0.00     0.074 A 
ATOM     40  C   UNL A   1      39.066  29.511  30.592  1.00  0.00     0.049 A 
ATOM     41  N   UNL A   1      41.027  29.189  32.856  1.00  0.00    -0.248 NA
ATOM     42  C   UNL A   1      41.955  27.365  31.735  1.00  0.00     0.031 C 
ATOM     43  C   UNL A   1      38.087  29.702  29.520  1.00  0.00     0.029 A 
ATOM     44  N   UNL A   1      38.852  30.570  31.434  1.00  0.00    -0.354 N 
ATOM     45  C   UNL A   1      42.083  28.682  33.603  1.00  0.00     0.074 A 
ATOM     46  C   UNL A   1      42.603  27.542  32.879  1.00  0.00     0.031 C 
ATOM     47  C   UNL A   1      37.409  30.839  29.744  1.00  0.00     0.029 A 
ATOM     48  C   UNL A   1      37.863  31.420  31.003  1.00  0.00     0.049 A 
ATOM     49  H   UNL A   1      39.358  30.709  32.266  1.00  0.00     0.167 HD
ATOM     50  C   UNL A   1      42.577  29.130  34.783  1.00  0.00     0.037 A 
ATOM     51  C   UNL A   1      37.363  32.536  31.566  1.00  0.00     0.037 A 
ATOM     52  C   UNL A   1      42.073  30.283  35.484  1.00  0.00     0.049 A 
ATOM     53  C   UNL A   1      37.914  33.001  32.883  1.00  0.00     0.074 A 
ATOM     54  C   UNL A   1      42.501  30.813  36.689  1.00  0.00     0.029 A 
ATOM     55  N   UNL A   1      41.039  31.091  35.037  1.00  0.00    -0.354 N 
ATOM     56  N   UNL A   1      38.880  32.478  33.600  1.00  0.00    -0.248 NA
ATOM     57  C   UNL A   1      37.296  34.193  33.476  1.00  0.00     0.031 C 
ATOM     58  C   UNL A   1      41.710  31.930  36.982  1.00  0.00     0.029 A 
ATOM     59  C   UNL A   1      40.810  32.113  35.945  1.00  0.00     0.049 A 
ATOM     60  H   UNL A   1      40.540  30.959  34.199  1.00  0.00     0.167 HD
ATOM     61  C   UNL A   1      38.985  33.276  34.730  1.00  0.00     0.074 A 
ATOM     62  C   UNL A   1      37.999  34.330  34.592  1.00  0.00     0.031 C 
ATOM     63  C   UNL A   1      39.817  33.145  35.792  1.00  0.00     0.037 A 
BRANCH  50  64
ATOM     64  C   UNL A   1      43.714  28.368  35.402  1.00  0.00     0.058 A 
ATOM     65  C   UNL A   1      45.051  28.675  35.110  1.00  0.00     0.135 A 
ATOM     66  C   UNL A   1      43.463  27.352  36.339  1.00  0.00     0.135 A 
ATOM     67  F   UNL A   1      45.345  29.623  34.206  1.00  0.00    -0.206 F 
ATOM     68  C   UNL A   1      46.102  27.995  35.718  1.00  0.00     0.059 A 
ATOM     69  C   UNL A   1      44.499  26.672  36.973  1.00  0.00     0.059 A 
ATOM     70  F   UNL A   1      42.201  27.017  36.650  1.00  0.00    -0.206 F 
ATOM     71  C   UNL A   1      45.815  26.994  36.649  1.00  0.00     0.060 A 
BRANCH  71  72
ATOM     72  S   UNL A   1      47.189  26.130  37.441  1.00  0.00     0.124 S 
ATOM     73  O   UNL A   1      46.677  24.765  37.502  1.00  0.00    -0.237 OA
ATOM     74  O   UNL A   1      48.284  26.354  36.501  1.00  0.00    -0.237 OA
ATOM     75  O   UNL A   1      47.322  26.809  38.726  1.00  0.00    -0.744 OA
ENDBRANCH  71  72
ENDBRANCH  50  64
BRANCH  51  76
ATOM     76  C   UNL A   1      36.278  33.277  30.879  1.00  0.00     0.058 A 
ATOM     77  C   UNL A   1      34.955  33.202  31.336  1.00  0.00     0.135 A 
ATOM     78  C   UNL A   1      36.552  34.118  29.790  1.00  0.00     0.135 A 
ATOM     79  F   UNL A   1      34.647  32.406  32.371  1.00  0.00    -0.206 F 
ATOM     80  C   UNL A   1      33.939  33.940  30.740  1.00  0.00     0.059 A 
ATOM     81  C   UNL A   1      35.557  34.883  29.191  1.00  0.00     0.059 A 
ATOM     82  F   UNL A   1      37.807  34.233  29.329  1.00  0.00    -0.206 F 
ATOM     83  C   UNL A   1      34.252  34.784  29.672  1.00  0.00     0.060 A 
BRANCH  83  84
ATOM     84  S   UNL A   1      32.945  35.806  28.959  1.00  0.00     0.124 S 
ATOM     85  O   UNL A   1      32.350  34.890  27.995  1.00  0.00    -0.237 OA
ATOM     86  O   UNL A   1      32.129  36.124  30.127  1.00  0.00    -0.237 OA
ATOM     87  O   UNL A   1      33.678  36.935  28.393  1.00  0.00    -0.744 OA
ENDBRANCH  83  84
ENDBRANCH  51  76
BRANCH  63  88
ATOM     88  C   UNL A   1      39.694  34.167  36.883  1.00  0.00     0.058 A 
ATOM     89  C   UNL A   1      38.972  33.897  38.054  1.00  0.00     0.135 A 
ATOM     90  C   UNL A   1      40.331  35.413  36.770  1.00  0.00     0.135 A 
ATOM     91  F   UNL A   1      38.340  32.721  38.203  1.00  0.00    -0.206 F 
ATOM     92  C   UNL A   1      38.867  34.838  39.073  1.00  0.00     0.059 A 
ATOM     93  C   UNL A   1      40.254  36.361  37.784  1.00  0.00     0.059 A 
ATOM     94  F   UNL A   1      41.040  35.712  35.670  1.00  0.00    -0.206 F 
ATOM     95  C   UNL A   1      39.509  36.069  38.926  1.00  0.00     0.060 A 
BRANCH  95  96
ATOM     96  S   UNL A   1      39.382  37.277  40.262  1.00  0.00     0.124 S 
ATOM     97  O   UNL A   1      40.787  37.568  40.527  1.00  0.00    -0.237 OA
ATOM     98  O   UNL A   1      38.616  38.354  39.642  1.00  0.00    -0.237 OA
ATOM     99  O   UNL A   1      38.682  36.545  41.313  1.00  0.00    -0.744 OA
ENDBRANCH  95  96
ENDBRANCH  63  88
ENDBRANCH  37  38
ENDBRANCH  29  32
ENDBRANCH  27  28
ENDBRANCH   1  27
TORSDOF 16
ENDMDL
MODEL 3
REMARK VINA RESULT:     -12.6      6.608     11.980
REMARK SMILES CC(C)(C)c1cc2c(cc1Cl)C=C(C(=O)NCCCCNC(=O)c1ccc(-c3c4nc(c(-c5c(F)cc(S(=O)(=O)[O-])cc5F)c5ccc([nH]5)c(-c5c(F)cc(S(=O)(=O)[O-])cc5F)c5nc(c(-c6c(F)cc(S(=O)(=O)[O-])cc6F)c6ccc3[nH]6)C=C5)C=C4)cc1)[C@@H](C(F)(F)F)O2
REMARK SMILES IDX 19 1 18 2 17 3 16 4 14 5 15 6 13 8 5 9 6 10 10 11 7 12 9 13
REMARK SMILES IDX 11 14 8 15 95 16 12 17 90 18 2 19 1 20 3 21 4 22 91 23 92 24
REMARK SMILES IDX 93 25 94 26 20 27 21 28 22 29 23 31 24 32 25 33 89 34 26 35
REMARK SMILES IDX 88 36 27 37 28 38 29 39 82 40 30 41 87 42 81 43 83 44 31 45
REMARK SMILES IDX 86 46 80 47 79 48 32 50 66 51 45 52 65 53 46 54 49 55 64 56
REMARK SMILES IDX 84 57 47 58 48 59 63 61 85 62 50 63 33 64 34 65 43 66 35 67
REMARK SMILES IDX 36 68 42 69 44 70 37 71 38 72 39 73 40 74 41 75 67 76 68 77
REMARK SMILES IDX 77 78 69 79 70 80 76 81 78 82 71 83 72 84 73 85 74 86 75 87
REMARK SMILES IDX 51 88 52 89 61 90 53 91 54 92 60 93 62 94 55 95 56 96 57 97
REMARK SMILES IDX 58 98 59 99
REMARK H PARENT 16 7 21 30 83 49 49 60
REMARK Flexibility Score: inf
ROOT
ATOM      1  C   UNL A   1      33.607  29.414  27.267  1.00  0.00     0.023 C 
ENDROOT
BRANCH   1   2
ATOM      2  C   UNL A   1      33.121  30.454  26.252  1.00  0.00     0.023 C 
BRANCH   2   3
ATOM      3  C   UNL A   1      31.611  30.449  26.024  1.00  0.00     0.116 C 
BRANCH   3   4
ATOM      4  N   UNL A   1      31.260  30.012  24.685  1.00  0.00    -0.352 N 
ATOM      5  C   UNL A   1      31.287  28.851  23.989  1.00  0.00     0.251 C 
ATOM      6  O   UNL A   1      30.875  28.921  22.826  1.00  0.00    -0.270 OA
ATOM      7  H   UNL A   1      30.910  30.754  24.141  1.00  0.00     0.163 HD
BRANCH   5   8
ATOM      8  C   UNL A   1      31.767  27.540  24.518  1.00  0.00     0.067 C 
ATOM      9  C   UNL A   1      34.358  23.238  25.350  1.00  0.00    -0.020 A 
ATOM     10  C   UNL A   1      33.401  24.003  26.055  1.00  0.00     0.053 A 
ATOM     11  C   UNL A   1      34.782  23.776  24.109  1.00  0.00     0.045 A 
ATOM     12  C   UNL A   1      32.905  25.213  25.564  1.00  0.00     0.128 A 
ATOM     13  C   UNL A   1      34.305  25.016  23.641  1.00  0.00     0.032 A 
ATOM     14  Cl  UNL A   1      35.879  22.981  23.032  1.00  0.00    -0.084 Cl
ATOM     15  C   UNL A   1      33.363  25.738  24.366  1.00  0.00     0.019 A 
ATOM     16  O   UNL A   1      31.974  25.853  26.334  1.00  0.00    -0.475 OA
ATOM     17  C   UNL A   1      32.861  27.030  23.918  1.00  0.00     0.025 C 
ATOM     18  C   UNL A   1      31.093  26.764  25.615  1.00  0.00     0.314 C 
BRANCH   9  19
ATOM     19  C   UNL A   1      34.833  21.886  25.942  1.00  0.00    -0.012 C 
ATOM     20  C   UNL A   1      34.420  20.659  25.079  1.00  0.00     0.016 C 
ATOM     21  C   UNL A   1      34.234  21.609  27.340  1.00  0.00     0.016 C 
ATOM     22  C   UNL A   1      36.374  21.869  26.008  1.00  0.00     0.016 C 
ENDBRANCH   9  19
BRANCH  18  23
ATOM     23  C   UNL A   1      29.853  25.995  25.118  1.00  0.00     0.429 C 
ATOM     24  F   UNL A   1      29.242  25.366  26.152  1.00  0.00    -0.167 F 
ATOM     25  F   UNL A   1      28.926  26.810  24.560  1.00  0.00    -0.167 F 
ATOM     26  F   UNL A   1      30.155  25.054  24.195  1.00  0.00    -0.167 F 
ENDBRANCH  18  23
ENDBRANCH   5   8
ENDBRANCH   3   4
ENDBRANCH   2   3
ENDBRANCH   1   2
BRANCH   1  27
ATOM     27  C   UNL A   1      35.047  29.588  27.746  1.00  0.00     0.116 C 
BRANCH  27  28
ATOM     28  N   UNL A   1      35.201  30.517  28.859  1.00  0.00    -0.352 N 
ATOM     29  C   UNL A   1      36.340  30.746  29.601  1.00  0.00     0.251 C 
ATOM     30  H   UNL A   1      34.404  31.040  29.106  1.00  0.00     0.163 HD
ATOM     31  O   UNL A   1      36.328  31.515  30.555  1.00  0.00    -0.269 OA
BRANCH  29  32
ATOM     32  C   UNL A   1      37.555  29.988  29.250  1.00  0.00     0.039 A 
ATOM     33  C   UNL A   1      38.405  29.533  30.262  1.00  0.00     0.014 A 
ATOM     34  C   UNL A   1      37.910  29.866  27.906  1.00  0.00     0.014 A 
ATOM     35  C   UNL A   1      39.683  29.104  29.931  1.00  0.00     0.010 A 
ATOM     36  C   UNL A   1      39.172  29.371  27.575  1.00  0.00     0.010 A 
ATOM     37  C   UNL A   1      40.087  29.040  28.587  1.00  0.00    -0.014 A 
BRANCH  37  38
ATOM     38  C   UNL A   1      41.485  28.661  28.261  1.00  0.00     0.031 A 
ATOM     39  C   UNL A   1      42.594  29.673  28.368  1.00  0.00     0.074 A 
ATOM     40  C   UNL A   1      41.758  27.387  27.926  1.00  0.00     0.049 A 
ATOM     41  N   UNL A   1      43.866  29.532  28.093  1.00  0.00    -0.248 NA
ATOM     42  C   UNL A   1      42.232  31.019  28.843  1.00  0.00     0.031 C 
ATOM     43  C   UNL A   1      40.767  26.313  27.821  1.00  0.00     0.029 A 
ATOM     44  N   UNL A   1      42.948  26.773  27.637  1.00  0.00    -0.354 N 
ATOM     45  C   UNL A   1      44.450  30.770  28.337  1.00  0.00     0.074 A 
ATOM     46  C   UNL A   1      43.393  31.656  28.771  1.00  0.00     0.031 C 
ATOM     47  C   UNL A   1      41.397  25.163  27.537  1.00  0.00     0.029 A 
ATOM     48  C   UNL A   1      42.824  25.430  27.381  1.00  0.00     0.049 A 
ATOM     49  H   UNL A   1      43.809  27.249  27.615  1.00  0.00     0.167 HD
ATOM     50  C   UNL A   1      45.750  31.130  28.213  1.00  0.00     0.037 A 
ATOM     51  C   UNL A   1      43.751  24.515  27.042  1.00  0.00     0.037 A 
ATOM     52  C   UNL A   1      46.803  30.234  27.807  1.00  0.00     0.049 A 
ATOM     53  C   UNL A   1      45.181  24.944  26.892  1.00  0.00     0.074 A 
ATOM     54  C   UNL A   1      48.150  30.506  27.644  1.00  0.00     0.029 A 
ATOM     55  N   UNL A   1      46.628  28.891  27.512  1.00  0.00    -0.354 N 
ATOM     56  N   UNL A   1      45.706  26.132  27.077  1.00  0.00    -0.248 NA
ATOM     57  C   UNL A   1      46.141  23.916  26.470  1.00  0.00     0.031 C 
ATOM     58  C   UNL A   1      48.788  29.330  27.230  1.00  0.00     0.029 A 
ATOM     59  C   UNL A   1      47.842  28.320  27.163  1.00  0.00     0.049 A 
ATOM     60  H   UNL A   1      45.768  28.412  27.545  1.00  0.00     0.167 HD
ATOM     61  C   UNL A   1      47.057  25.995  26.792  1.00  0.00     0.074 A 
ATOM     62  C   UNL A   1      47.274  24.604  26.444  1.00  0.00     0.031 C 
ATOM     63  C   UNL A   1      48.032  26.937  26.810  1.00  0.00     0.037 A 
BRANCH  50  64
ATOM     64  C   UNL A   1      46.113  32.558  28.507  1.00  0.00     0.058 A 
ATOM     65  C   UNL A   1      46.084  33.545  27.511  1.00  0.00     0.135 A 
ATOM     66  C   UNL A   1      46.442  32.954  29.814  1.00  0.00     0.135 A 
ATOM     67  F   UNL A   1      45.794  33.217  26.242  1.00  0.00    -0.206 F 
ATOM     68  C   UNL A   1      46.378  34.875  27.797  1.00  0.00     0.059 A 
ATOM     69  C   UNL A   1      46.723  34.281  30.126  1.00  0.00     0.059 A 
ATOM     70  F   UNL A   1      46.489  32.047  30.802  1.00  0.00    -0.206 F 
ATOM     71  C   UNL A   1      46.697  35.233  29.109  1.00  0.00     0.060 A 
BRANCH  71  72
ATOM     72  S   UNL A   1      47.064  36.964  29.468  1.00  0.00     0.124 S 
ATOM     73  O   UNL A   1      48.364  37.124  28.824  1.00  0.00    -0.237 OA
ATOM     74  O   UNL A   1      45.951  37.660  28.828  1.00  0.00    -0.237 OA
ATOM     75  O   UNL A   1      47.075  37.014  30.926  1.00  0.00    -0.744 OA
ENDBRANCH  71  72
ENDBRANCH  50  64
BRANCH  51  76
ATOM     76  C   UNL A   1      43.340  23.108  26.818  1.00  0.00     0.058 A 
ATOM     77  C   UNL A   1      43.300  22.567  25.526  1.00  0.00     0.135 A 
ATOM     78  C   UNL A   1      43.035  22.262  27.896  1.00  0.00     0.135 A 
ATOM     79  F   UNL A   1      43.578  23.342  24.466  1.00  0.00    -0.206 F 
ATOM     80  C   UNL A   1      42.977  21.233  25.307  1.00  0.00     0.059 A 
ATOM     81  C   UNL A   1      42.731  20.919  27.705  1.00  0.00     0.059 A 
ATOM     82  F   UNL A   1      43.076  22.733  29.152  1.00  0.00    -0.206 F 
ATOM     83  C   UNL A   1      42.701  20.415  26.405  1.00  0.00     0.060 A 
BRANCH  83  84
ATOM     84  S   UNL A   1      42.369  18.662  26.122  1.00  0.00     0.124 S 
ATOM     85  O   UNL A   1      43.309  18.355  25.052  1.00  0.00    -0.237 OA
ATOM     86  O   UNL A   1      42.669  18.076  27.424  1.00  0.00    -0.237 OA
ATOM     87  O   UNL A   1      40.957  18.648  25.750  1.00  0.00    -0.744 OA
ENDBRANCH  83  84
ENDBRANCH  51  76
BRANCH  63  88
ATOM     88  C   UNL A   1      49.416  26.491  26.442  1.00  0.00     0.058 A 
ATOM     89  C   UNL A   1      49.913  26.662  25.142  1.00  0.00     0.135 A 
ATOM     90  C   UNL A   1      50.262  25.919  27.405  1.00  0.00     0.135 A 
ATOM     91  F   UNL A   1      49.138  27.199  24.187  1.00  0.00    -0.206 F 
ATOM     92  C   UNL A   1      51.201  26.261  24.801  1.00  0.00     0.059 A 
ATOM     93  C   UNL A   1      51.558  25.527  27.090  1.00  0.00     0.059 A 
ATOM     94  F   UNL A   1      49.831  25.743  28.664  1.00  0.00    -0.206 F 
ATOM     95  C   UNL A   1      52.014  25.690  25.783  1.00  0.00     0.060 A 
BRANCH  95  96
ATOM     96  S   UNL A   1      53.691  25.191  25.335  1.00  0.00     0.124 S 
ATOM     97  O   UNL A   1      53.604  23.740  25.452  1.00  0.00    -0.237 OA
ATOM     98  O   UNL A   1      53.823  25.712  23.977  1.00  0.00    -0.237 OA
ATOM     99  O   UNL A   1      54.519  25.855  26.337  1.00  0.00    -0.744 OA
ENDBRANCH  95  96
ENDBRANCH  63  88
ENDBRANCH  37  38
ENDBRANCH  29  32
ENDBRANCH  27  28
ENDBRANCH   1  27
TORSDOF 16
ENDMDL
