MODEL 1
REMARK VINA RESULT:     -10.5      0.000      0.000
REMARK SMILES CC(C)C[C@@H](CNc1ccccc1C(N)=O)C(=O)NCCCCNC(=O)c1ccc(-c2c3nc(c(-c4c(F)cc(S(=O)(=O)[O-])cc4F)c4ccc([nH]4)c(-c4c(F)cc(S(=O)(=O)[O-])cc4F)c4nc(c(-c5c(F)cc(S(=O)(=O)[O-])cc5F)c5ccc2[nH]5)C=C4)C=C3)cc1
REMARK SMILES IDX 21 1 20 2 19 3 17 4 18 5 5 7 4 8 2 9 1 10 3 11 6 12 7 13
REMARK SMILES IDX 8 15 9 16 13 17 10 18 12 19 11 20 14 21 15 22 16 23 22 26
REMARK SMILES IDX 23 27 24 28 25 29 26 31 27 32 28 33 92 34 29 35 91 36 30 37
REMARK SMILES IDX 31 38 32 39 85 40 33 41 90 42 84 43 86 44 34 45 89 46 83 47
REMARK SMILES IDX 82 48 35 50 69 51 48 52 68 53 49 54 52 55 67 56 87 57 50 58
REMARK SMILES IDX 51 59 66 61 88 62 53 63 36 64 37 65 46 66 38 67 39 68 45 69
REMARK SMILES IDX 47 70 40 71 41 72 42 73 43 74 44 75 70 76 71 77 80 78 72 79
REMARK SMILES IDX 73 80 79 81 81 82 74 83 75 84 76 85 77 86 78 87 54 88 55 89
REMARK SMILES IDX 64 90 56 91 57 92 63 93 65 94 58 95 59 96 60 97 61 98 62 99
REMARK H PARENT 19 6 7 14 15 24 15 25 24 30 86 49 52 60
REMARK Flexibility Score: inf
ROOT
ATOM      1  C   UNL A   1      31.827  27.630  26.769  1.00  0.00     0.023 C 
ENDROOT
BRANCH   1   2
ATOM      2  C   UNL A   1      31.144  26.802  25.693  1.00  0.00     0.116 C 
BRANCH   2   3
ATOM      3  N   UNL A   1      30.335  25.720  26.203  1.00  0.00    -0.356 N 
ATOM      4  C   UNL A   1      30.697  24.423  26.410  1.00  0.00     0.224 C 
ATOM      5  O   UNL A   1      29.990  23.743  27.160  1.00  0.00    -0.275 OA
ATOM      6  H   UNL A   1      29.404  25.948  26.428  1.00  0.00     0.163 HD
BRANCH   4   7
ATOM      7  C   UNL A   1      31.901  23.793  25.711  1.00  0.00     0.098 C 
BRANCH   7   8
ATOM      8  C   UNL A   1      31.872  24.056  24.190  1.00  0.00     0.018 C 
BRANCH   8   9
ATOM      9  C   UNL A   1      33.175  24.522  23.526  1.00  0.00    -0.017 C 
ATOM     10  C   UNL A   1      33.874  23.391  22.774  1.00  0.00     0.007 C 
ATOM     11  C   UNL A   1      32.853  25.663  22.551  1.00  0.00     0.007 C 
ENDBRANCH   8   9
ENDBRANCH   7   8
BRANCH   7  12
ATOM     12  C   UNL A   1      33.207  23.930  26.520  1.00  0.00     0.126 C 
BRANCH  12  13
ATOM     13  N   UNL A   1      33.930  22.688  26.821  1.00  0.00    -0.384 N 
ATOM     14  H   UNL A   1      33.584  22.061  27.497  1.00  0.00     0.160 HD
BRANCH  13  15
ATOM     15  C   UNL A   1      35.126  22.403  26.131  1.00  0.00     0.047 A 
ATOM     16  C   UNL A   1      36.100  23.421  26.116  1.00  0.00     0.026 A 
ATOM     17  C   UNL A   1      35.406  21.252  25.361  1.00  0.00     0.062 A 
ATOM     18  C   UNL A   1      37.370  23.242  25.565  1.00  0.00     0.002 A 
ATOM     19  C   UNL A   1      36.691  21.080  24.791  1.00  0.00     0.016 A 
ATOM     20  C   UNL A   1      37.680  22.053  24.930  1.00  0.00     0.001 A 
BRANCH  17  21
ATOM     21  C   UNL A   1      34.345  20.266  24.990  1.00  0.00     0.250 C 
ATOM     22  N   UNL A   1      34.701  18.944  24.920  1.00  0.00    -0.366 N 
ATOM     23  O   UNL A   1      33.200  20.594  24.707  1.00  0.00    -0.269 OA
ATOM     24  H   UNL A   1      35.620  18.668  25.145  1.00  0.00     0.159 HD
ATOM     25  H   UNL A   1      34.039  18.269  24.646  1.00  0.00     0.159 HD
ENDBRANCH  17  21
ENDBRANCH  13  15
ENDBRANCH  12  13
ENDBRANCH   7  12
ENDBRANCH   4   7
ENDBRANCH   2   3
ENDBRANCH   1   2
BRANCH   1  26
ATOM     26  C   UNL A   1      33.351  27.653  26.657  1.00  0.00     0.023 C 
BRANCH  26  27
ATOM     27  C   UNL A   1      33.937  28.820  25.863  1.00  0.00     0.116 C 
BRANCH  27  28
ATOM     28  N   UNL A   1      33.651  30.127  26.439  1.00  0.00    -0.352 N 
ATOM     29  C   UNL A   1      34.351  30.799  27.415  1.00  0.00     0.251 C 
ATOM     30  H   UNL A   1      32.856  30.590  26.085  1.00  0.00     0.163 HD
ATOM     31  O   UNL A   1      33.944  31.866  27.858  1.00  0.00    -0.269 OA
BRANCH  29  32
ATOM     32  C   UNL A   1      35.583  30.185  27.947  1.00  0.00     0.039 A 
ATOM     33  C   UNL A   1      36.789  30.411  27.284  1.00  0.00     0.014 A 
ATOM     34  C   UNL A   1      35.550  29.476  29.151  1.00  0.00     0.014 A 
ATOM     35  C   UNL A   1      37.983  29.996  27.877  1.00  0.00     0.010 A 
ATOM     36  C   UNL A   1      36.745  29.129  29.772  1.00  0.00     0.010 A 
ATOM     37  C   UNL A   1      37.974  29.397  29.148  1.00  0.00    -0.014 A 
BRANCH  37  38
ATOM     38  C   UNL A   1      39.239  29.066  29.851  1.00  0.00     0.031 A 
ATOM     39  C   UNL A   1      39.663  29.861  31.055  1.00  0.00     0.074 A 
ATOM     40  C   UNL A   1      40.040  28.096  29.364  1.00  0.00     0.049 A 
ATOM     41  N   UNL A   1      40.767  29.778  31.750  1.00  0.00    -0.248 NA
ATOM     42  C   UNL A   1      38.737  30.905  31.520  1.00  0.00     0.031 C 
ATOM     43  C   UNL A   1      39.765  27.291  28.171  1.00  0.00     0.029 A 
ATOM     44  N   UNL A   1      41.254  27.630  29.803  1.00  0.00    -0.354 N 
ATOM     45  C   UNL A   1      40.671  30.758  32.730  1.00  0.00     0.074 A 
ATOM     46  C   UNL A   1      39.429  31.463  32.502  1.00  0.00     0.031 C 
ATOM     47  C   UNL A   1      40.772  26.423  27.983  1.00  0.00     0.029 A 
ATOM     48  C   UNL A   1      41.781  26.631  29.018  1.00  0.00     0.049 A 
ATOM     49  H   UNL A   1      41.706  27.978  30.605  1.00  0.00     0.167 HD
ATOM     50  C   UNL A   1      41.528  31.028  33.743  1.00  0.00     0.037 A 
ATOM     51  C   UNL A   1      42.949  25.965  29.112  1.00  0.00     0.037 A 
ATOM     52  C   UNL A   1      42.754  30.311  33.977  1.00  0.00     0.049 A 
ATOM     53  C   UNL A   1      43.882  26.278  30.250  1.00  0.00     0.074 A 
ATOM     54  C   UNL A   1      43.670  30.485  34.999  1.00  0.00     0.029 A 
ATOM     55  N   UNL A   1      43.237  29.283  33.179  1.00  0.00    -0.354 N 
ATOM     56  N   UNL A   1      43.752  27.177  31.197  1.00  0.00    -0.248 NA
ATOM     57  C   UNL A   1      45.115  25.485  30.339  1.00  0.00     0.031 C 
ATOM     58  C   UNL A   1      44.724  29.587  34.799  1.00  0.00     0.029 A 
ATOM     59  C   UNL A   1      44.442  28.821  33.681  1.00  0.00     0.049 A 
ATOM     60  H   UNL A   1      42.788  28.934  32.374  1.00  0.00     0.167 HD
ATOM     61  C   UNL A   1      44.873  27.041  32.007  1.00  0.00     0.074 A 
ATOM     62  C   UNL A   1      45.665  25.964  31.447  1.00  0.00     0.031 C 
ATOM     63  C   UNL A   1      45.216  27.743  33.115  1.00  0.00     0.037 A 
BRANCH  50  64
ATOM     64  C   UNL A   1      41.158  32.136  34.689  1.00  0.00     0.058 A 
ATOM     65  C   UNL A   1      40.439  31.883  35.869  1.00  0.00     0.135 A 
ATOM     66  C   UNL A   1      41.564  33.457  34.442  1.00  0.00     0.135 A 
ATOM     67  F   UNL A   1      40.011  30.641  36.146  1.00  0.00    -0.206 F 
ATOM     68  C   UNL A   1      40.115  32.902  36.757  1.00  0.00     0.059 A 
ATOM     69  C   UNL A   1      41.275  34.489  35.331  1.00  0.00     0.059 A 
ATOM     70  F   UNL A   1      42.251  33.756  33.328  1.00  0.00    -0.206 F 
ATOM     71  C   UNL A   1      40.540  34.202  36.481  1.00  0.00     0.060 A 
BRANCH  71  72
ATOM     72  S   UNL A   1      40.125  35.510  37.654  1.00  0.00     0.124 S 
ATOM     73  O   UNL A   1      41.310  35.522  38.506  1.00  0.00    -0.237 OA
ATOM     74  O   UNL A   1      39.960  36.669  36.782  1.00  0.00    -0.237 OA
ATOM     75  O   UNL A   1      38.902  35.025  38.286  1.00  0.00    -0.744 OA
ENDBRANCH  71  72
ENDBRANCH  50  64
BRANCH  51  76
ATOM     76  C   UNL A   1      43.288  24.921  28.108  1.00  0.00     0.058 A 
ATOM     77  C   UNL A   1      43.990  25.244  26.937  1.00  0.00     0.135 A 
ATOM     78  C   UNL A   1      42.938  23.577  28.311  1.00  0.00     0.135 A 
ATOM     79  F   UNL A   1      44.340  26.516  26.695  1.00  0.00    -0.206 F 
ATOM     80  C   UNL A   1      44.324  24.275  25.997  1.00  0.00     0.059 A 
ATOM     81  C   UNL A   1      43.283  22.586  27.397  1.00  0.00     0.059 A 
ATOM     82  F   UNL A   1      42.281  23.214  29.423  1.00  0.00    -0.206 F 
ATOM     83  C   UNL A   1      43.970  22.946  26.238  1.00  0.00     0.060 A 
BRANCH  83  84
ATOM     84  S   UNL A   1      44.462  21.687  25.041  1.00  0.00     0.124 S 
ATOM     85  O   UNL A   1      43.451  20.660  25.261  1.00  0.00    -0.237 OA
ATOM     86  O   UNL A   1      44.370  22.414  23.778  1.00  0.00    -0.237 OA
ATOM     87  O   UNL A   1      45.817  21.341  25.457  1.00  0.00    -0.744 OA
ENDBRANCH  83  84
ENDBRANCH  51  76
BRANCH  63  88
ATOM     88  C   UNL A   1      46.487  27.355  33.819  1.00  0.00     0.058 A 
ATOM     89  C   UNL A   1      46.507  26.366  34.814  1.00  0.00     0.135 A 
ATOM     90  C   UNL A   1      47.709  27.940  33.450  1.00  0.00     0.135 A 
ATOM     91  F   UNL A   1      45.365  25.780  35.208  1.00  0.00    -0.206 F 
ATOM     92  C   UNL A   1      47.692  25.985  35.435  1.00  0.00     0.059 A 
ATOM     93  C   UNL A   1      48.910  27.554  34.038  1.00  0.00     0.059 A 
ATOM     94  F   UNL A   1      47.747  28.884  32.495  1.00  0.00    -0.206 F 
ATOM     95  C   UNL A   1      48.890  26.583  35.038  1.00  0.00     0.060 A 
BRANCH  95  96
ATOM     96  S   UNL A   1      50.425  26.053  35.826  1.00  0.00     0.124 S 
ATOM     97  O   UNL A   1      50.634  24.746  35.215  1.00  0.00    -0.237 OA
ATOM     98  O   UNL A   1      51.360  27.099  35.420  1.00  0.00    -0.237 OA
ATOM     99  O   UNL A   1      50.091  26.038  37.247  1.00  0.00    -0.744 OA
ENDBRANCH  95  96
ENDBRANCH  63  88
ENDBRANCH  37  38
ENDBRANCH  29  32
ENDBRANCH  27  28
ENDBRANCH  26  27
ENDBRANCH   1  26
TORSDOF 20
ENDMDL
MODEL 2
REMARK VINA RESULT:     -10.4      4.891      6.365
REMARK SMILES CC(C)C[C@@H](CNc1ccccc1C(N)=O)C(=O)NCCCCNC(=O)c1ccc(-c2c3nc(c(-c4c(F)cc(S(=O)(=O)[O-])cc4F)c4ccc([nH]4)c(-c4c(F)cc(S(=O)(=O)[O-])cc4F)c4nc(c(-c5c(F)cc(S(=O)(=O)[O-])cc5F)c5ccc2[nH]5)C=C4)C=C3)cc1
REMARK SMILES IDX 21 1 20 2 19 3 17 4 18 5 5 7 4 8 2 9 1 10 3 11 6 12 7 13
REMARK SMILES IDX 8 15 9 16 13 17 10 18 12 19 11 20 14 21 15 22 16 23 22 26
REMARK SMILES IDX 23 27 24 28 25 29 26 31 27 32 28 33 92 34 29 35 91 36 30 37
REMARK SMILES IDX 31 38 32 39 85 40 33 41 90 42 84 43 86 44 34 45 89 46 83 47
REMARK SMILES IDX 82 48 35 50 69 51 48 52 68 53 49 54 52 55 67 56 87 57 50 58
REMARK SMILES IDX 51 59 66 61 88 62 53 63 36 64 37 65 46 66 38 67 39 68 45 69
REMARK SMILES IDX 47 70 40 71 41 72 42 73 43 74 44 75 70 76 71 77 80 78 72 79
REMARK SMILES IDX 73 80 79 81 81 82 74 83 75 84 76 85 77 86 78 87 54 88 55 89
REMARK SMILES IDX 64 90 56 91 57 92 63 93 65 94 58 95 59 96 60 97 61 98 62 99
REMARK H PARENT 19 6 7 14 15 24 15 25 24 30 86 49 52 60
REMARK Flexibility Score: inf
ROOT
ATOM      1  C   UNL A   1      33.509  30.287  26.919  1.00  0.00     0.023 C 
ENDROOT
BRANCH   1   2
ATOM      2  C   UNL A   1      32.315  29.761  26.140  1.00  0.00     0.116 C 
BRANCH   2   3
ATOM      3  N   UNL A   1      31.621  28.671  26.786  1.00  0.00    -0.356 N 
ATOM      4  C   UNL A   1      31.453  27.396  26.336  1.00  0.00     0.224 C 
ATOM      5  O   UNL A   1      31.139  26.533  27.162  1.00  0.00    -0.275 OA
ATOM      6  H   UNL A   1      31.217  28.876  27.659  1.00  0.00     0.163 HD
BRANCH   4   7
ATOM      7  C   UNL A   1      31.589  27.029  24.859  1.00  0.00     0.098 C 
BRANCH   7   8
ATOM      8  C   UNL A   1      33.046  26.669  24.499  1.00  0.00     0.018 C 
BRANCH   8   9
ATOM      9  C   UNL A   1      33.591  27.177  23.157  1.00  0.00    -0.017 C 
ATOM     10  C   UNL A   1      33.298  26.209  22.012  1.00  0.00     0.007 C 
ATOM     11  C   UNL A   1      32.957  28.541  22.849  1.00  0.00     0.007 C 
ENDBRANCH   8   9
ENDBRANCH   7   8
BRANCH   7  12
ATOM     12  C   UNL A   1      30.406  26.190  24.335  1.00  0.00     0.126 C 
BRANCH  12  13
ATOM     13  N   UNL A   1      30.208  24.871  24.950  1.00  0.00    -0.384 N 
ATOM     14  H   UNL A   1      29.471  24.724  25.588  1.00  0.00     0.160 HD
BRANCH  13  15
ATOM     15  C   UNL A   1      31.083  23.818  24.618  1.00  0.00     0.047 A 
ATOM     16  C   UNL A   1      31.205  23.510  23.249  1.00  0.00     0.026 A 
ATOM     17  C   UNL A   1      31.764  22.967  25.518  1.00  0.00     0.062 A 
ATOM     18  C   UNL A   1      32.112  22.565  22.765  1.00  0.00     0.002 A 
ATOM     19  C   UNL A   1      32.672  22.000  25.023  1.00  0.00     0.016 A 
ATOM     20  C   UNL A   1      32.875  21.831  23.654  1.00  0.00     0.001 A 
BRANCH  17  21
ATOM     21  C   UNL A   1      31.449  22.939  26.979  1.00  0.00     0.250 C 
ATOM     22  N   UNL A   1      32.388  22.402  27.822  1.00  0.00    -0.366 N 
ATOM     23  O   UNL A   1      30.385  23.332  27.440  1.00  0.00    -0.269 OA
ATOM     24  H   UNL A   1      33.248  22.083  27.463  1.00  0.00     0.159 HD
ATOM     25  H   UNL A   1      32.203  22.336  28.787  1.00  0.00     0.159 HD
ENDBRANCH  17  21
ENDBRANCH  13  15
ENDBRANCH  12  13
ENDBRANCH   7  12
ENDBRANCH   4   7
ENDBRANCH   2   3
ENDBRANCH   1   2
BRANCH   1  26
ATOM     26  C   UNL A   1      34.511  29.206  27.321  1.00  0.00     0.023 C 
BRANCH  26  27
ATOM     27  C   UNL A   1      35.757  29.700  28.054  1.00  0.00     0.116 C 
BRANCH  27  28
ATOM     28  N   UNL A   1      35.526  30.030  29.455  1.00  0.00    -0.352 N 
ATOM     29  C   UNL A   1      36.455  30.190  30.457  1.00  0.00     0.251 C 
ATOM     30  H   UNL A   1      34.584  30.154  29.718  1.00  0.00     0.163 HD
ATOM     31  O   UNL A   1      36.104  30.392  31.613  1.00  0.00    -0.269 OA
BRANCH  29  32
ATOM     32  C   UNL A   1      37.886  30.072  30.115  1.00  0.00     0.039 A 
ATOM     33  C   UNL A   1      38.770  29.581  31.077  1.00  0.00     0.014 A 
ATOM     34  C   UNL A   1      38.324  30.351  28.818  1.00  0.00     0.014 A 
ATOM     35  C   UNL A   1      40.084  29.287  30.710  1.00  0.00     0.010 A 
ATOM     36  C   UNL A   1      39.612  29.990  28.439  1.00  0.00     0.010 A 
ATOM     37  C   UNL A   1      40.501  29.443  29.377  1.00  0.00    -0.014 A 
BRANCH  37  38
ATOM     38  C   UNL A   1      41.855  29.016  28.940  1.00  0.00     0.031 A 
ATOM     39  C   UNL A   1      42.971  30.019  28.851  1.00  0.00     0.074 A 
ATOM     40  C   UNL A   1      42.059  27.740  28.554  1.00  0.00     0.049 A 
ATOM     41  N   UNL A   1      44.192  29.856  28.415  1.00  0.00    -0.248 NA
ATOM     42  C   UNL A   1      42.664  31.391  29.284  1.00  0.00     0.031 C 
ATOM     43  C   UNL A   1      41.042  26.685  28.541  1.00  0.00     0.029 A 
ATOM     44  N   UNL A   1      43.188  27.114  28.087  1.00  0.00    -0.354 N 
ATOM     45  C   UNL A   1      44.799  31.103  28.516  1.00  0.00     0.074 A 
ATOM     46  C   UNL A   1      43.793  32.024  28.999  1.00  0.00     0.031 C 
ATOM     47  C   UNL A   1      41.596  25.543  28.103  1.00  0.00     0.029 A 
ATOM     48  C   UNL A   1      42.996  25.789  27.770  1.00  0.00     0.049 A 
ATOM     49  H   UNL A   1      44.054  27.570  27.986  1.00  0.00     0.167 HD
ATOM     50  C   UNL A   1      46.084  31.442  28.257  1.00  0.00     0.037 A 
ATOM     51  C   UNL A   1      43.847  24.876  27.260  1.00  0.00     0.037 A 
ATOM     52  C   UNL A   1      47.085  30.517  27.794  1.00  0.00     0.049 A 
ATOM     53  C   UNL A   1      45.271  25.275  26.984  1.00  0.00     0.074 A 
ATOM     54  C   UNL A   1      48.424  30.757  27.539  1.00  0.00     0.029 A 
ATOM     55  N   UNL A   1      46.860  29.176  27.518  1.00  0.00    -0.354 N 
ATOM     56  N   UNL A   1      45.840  26.449  27.132  1.00  0.00    -0.248 NA
ATOM     57  C   UNL A   1      46.171  24.229  26.481  1.00  0.00     0.031 C 
ATOM     58  C   UNL A   1      49.000  29.570  27.075  1.00  0.00     0.029 A 
ATOM     59  C   UNL A   1      48.033  28.578  27.086  1.00  0.00     0.049 A 
ATOM     60  H   UNL A   1      45.994  28.717  27.616  1.00  0.00     0.167 HD
ATOM     61  C   UNL A   1      47.170  26.275  26.764  1.00  0.00     0.074 A 
ATOM     62  C   UNL A   1      47.323  24.881  26.398  1.00  0.00     0.031 C 
ATOM     63  C   UNL A   1      48.172  27.187  26.732  1.00  0.00     0.037 A 
BRANCH  50  64
ATOM     64  C   UNL A   1      46.484  32.873  28.485  1.00  0.00     0.058 A 
ATOM     65  C   UNL A   1      46.987  33.303  29.724  1.00  0.00     0.135 A 
ATOM     66  C   UNL A   1      46.411  33.814  27.447  1.00  0.00     0.135 A 
ATOM     67  F   UNL A   1      47.063  32.449  30.756  1.00  0.00    -0.206 F 
ATOM     68  C   UNL A   1      47.380  34.621  29.932  1.00  0.00     0.059 A 
ATOM     69  C   UNL A   1      46.824  35.131  27.624  1.00  0.00     0.059 A 
ATOM     70  F   UNL A   1      45.934  33.457  26.244  1.00  0.00    -0.206 F 
ATOM     71  C   UNL A   1      47.297  35.528  28.874  1.00  0.00     0.060 A 
BRANCH  71  72
ATOM     72  S   UNL A   1      47.828  37.229  29.157  1.00  0.00     0.124 S 
ATOM     73  O   UNL A   1      48.545  37.104  30.422  1.00  0.00    -0.237 OA
ATOM     74  O   UNL A   1      48.655  37.496  27.984  1.00  0.00    -0.237 OA
ATOM     75  O   UNL A   1      46.572  37.972  29.218  1.00  0.00    -0.744 OA
ENDBRANCH  71  72
ENDBRANCH  50  64
BRANCH  51  76
ATOM     76  C   UNL A   1      43.374  23.491  26.995  1.00  0.00     0.058 A 
ATOM     77  C   UNL A   1      43.069  23.066  25.693  1.00  0.00     0.135 A 
ATOM     78  C   UNL A   1      43.241  22.558  28.035  1.00  0.00     0.135 A 
ATOM     79  F   UNL A   1      43.174  23.923  24.667  1.00  0.00    -0.206 F 
ATOM     80  C   UNL A   1      42.639  21.769  25.432  1.00  0.00     0.059 A 
ATOM     81  C   UNL A   1      42.836  21.249  27.795  1.00  0.00     0.059 A 
ATOM     82  F   UNL A   1      43.536  22.910  29.296  1.00  0.00    -0.206 F 
ATOM     83  C   UNL A   1      42.529  20.865  26.491  1.00  0.00     0.060 A 
BRANCH  83  84
ATOM     84  S   UNL A   1      42.028  19.168  26.132  1.00  0.00     0.124 S 
ATOM     85  O   UNL A   1      42.883  18.842  24.998  1.00  0.00    -0.237 OA
ATOM     86  O   UNL A   1      42.341  18.486  27.385  1.00  0.00    -0.237 OA
ATOM     87  O   UNL A   1      40.605  19.295  25.837  1.00  0.00    -0.744 OA
ENDBRANCH  83  84
ENDBRANCH  51  76
BRANCH  63  88
ATOM     88  C   UNL A   1      49.535  26.708  26.316  1.00  0.00     0.058 A 
ATOM     89  C   UNL A   1      50.023  26.909  25.016  1.00  0.00     0.135 A 
ATOM     90  C   UNL A   1      50.385  26.092  27.249  1.00  0.00     0.135 A 
ATOM     91  F   UNL A   1      49.249  27.487  24.085  1.00  0.00    -0.206 F 
ATOM     92  C   UNL A   1      51.301  26.496  24.649  1.00  0.00     0.059 A 
ATOM     93  C   UNL A   1      51.676  25.697  26.911  1.00  0.00     0.059 A 
ATOM     94  F   UNL A   1      49.971  25.887  28.510  1.00  0.00    -0.206 F 
ATOM     95  C   UNL A   1      52.121  25.894  25.605  1.00  0.00     0.060 A 
BRANCH  95  96
ATOM     96  S   UNL A   1      53.789  25.396  25.125  1.00  0.00     0.124 S 
ATOM     97  O   UNL A   1      53.740  23.955  25.343  1.00  0.00    -0.237 OA
ATOM     98  O   UNL A   1      53.853  25.825  23.731  1.00  0.00    -0.237 OA
ATOM     99  O   UNL A   1      54.644  26.142  26.043  1.00  0.00    -0.744 OA
ENDBRANCH  95  96
ENDBRANCH  63  88
ENDBRANCH  37  38
ENDBRANCH  29  32
ENDBRANCH  27  28
ENDBRANCH  26  27
ENDBRANCH   1  26
TORSDOF 20
ENDMDL
MODEL 3
REMARK VINA RESULT:     -10.3      5.799      8.753
REMARK SMILES CC(C)C[C@@H](CNc1ccccc1C(N)=O)C(=O)NCCCCNC(=O)c1ccc(-c2c3nc(c(-c4c(F)cc(S(=O)(=O)[O-])cc4F)c4ccc([nH]4)c(-c4c(F)cc(S(=O)(=O)[O-])cc4F)c4nc(c(-c5c(F)cc(S(=O)(=O)[O-])cc5F)c5ccc2[nH]5)C=C4)C=C3)cc1
REMARK SMILES IDX 21 1 20 2 19 3 17 4 18 5 5 7 4 8 2 9 1 10 3 11 6 12 7 13
REMARK SMILES IDX 8 15 9 16 13 17 10 18 12 19 11 20 14 21 15 22 16 23 22 26
REMARK SMILES IDX 23 27 24 28 25 29 26 31 27 32 28 33 92 34 29 35 91 36 30 37
REMARK SMILES IDX 31 38 32 39 85 40 33 41 90 42 84 43 86 44 34 45 89 46 83 47
REMARK SMILES IDX 82 48 35 50 69 51 48 52 68 53 49 54 52 55 67 56 87 57 50 58
REMARK SMILES IDX 51 59 66 61 88 62 53 63 36 64 37 65 46 66 38 67 39 68 45 69
REMARK SMILES IDX 47 70 40 71 41 72 42 73 43 74 44 75 70 76 71 77 80 78 72 79
REMARK SMILES IDX 73 80 79 81 81 82 74 83 75 84 76 85 77 86 78 87 54 88 55 89
REMARK SMILES IDX 64 90 56 91 57 92 63 93 65 94 58 95 59 96 60 97 61 98 62 99
REMARK H PARENT 19 6 7 14 15 24 15 25 24 30 86 49 52 60
REMARK Flexibility Score: inf
ROOT
ATOM      1  C   UNL A   1      34.391  33.420  28.249  1.00  0.00     0.023 C 
ENDROOT
BRANCH   1   2
ATOM      2  C   UNL A   1      34.294  34.243  29.523  1.00  0.00     0.116 C 
BRANCH   2   3
ATOM      3  N   UNL A   1      34.029  33.466  30.711  1.00  0.00    -0.356 N 
ATOM      4  C   UNL A   1      34.074  33.873  32.011  1.00  0.00     0.224 C 
ATOM      5  O   UNL A   1      33.491  33.178  32.849  1.00  0.00    -0.275 OA
ATOM      6  H   UNL A   1      33.786  32.524  30.563  1.00  0.00     0.163 HD
BRANCH   4   7
ATOM      7  C   UNL A   1      34.854  35.111  32.449  1.00  0.00     0.098 C 
BRANCH   7   8
ATOM      8  C   UNL A   1      33.982  36.055  33.304  1.00  0.00     0.018 C 
BRANCH   8   9
ATOM      9  C   UNL A   1      32.905  36.875  32.580  1.00  0.00    -0.017 C 
ATOM     10  C   UNL A   1      33.302  37.204  31.142  1.00  0.00     0.007 C 
ATOM     11  C   UNL A   1      31.593  36.079  32.579  1.00  0.00     0.007 C 
ENDBRANCH   8   9
ENDBRANCH   7   8
BRANCH   7  12
ATOM     12  C   UNL A   1      36.311  34.796  32.843  1.00  0.00     0.126 C 
BRANCH  12  13
ATOM     13  N   UNL A   1      36.622  33.396  33.161  1.00  0.00    -0.384 N 
ATOM     14  H   UNL A   1      35.933  32.809  33.549  1.00  0.00     0.160 HD
BRANCH  13  15
ATOM     15  C   UNL A   1      37.917  32.902  32.905  1.00  0.00     0.047 A 
ATOM     16  C   UNL A   1      38.449  33.167  31.628  1.00  0.00     0.026 A 
ATOM     17  C   UNL A   1      38.692  32.076  33.750  1.00  0.00     0.062 A 
ATOM     18  C   UNL A   1      39.757  32.833  31.270  1.00  0.00     0.002 A 
ATOM     19  C   UNL A   1      40.012  31.727  33.378  1.00  0.00     0.016 A 
ATOM     20  C   UNL A   1      40.554  32.141  32.162  1.00  0.00     0.001 A 
BRANCH  17  21
ATOM     21  C   UNL A   1      38.117  31.421  34.965  1.00  0.00     0.250 C 
ATOM     22  N   UNL A   1      38.343  30.079  35.131  1.00  0.00    -0.366 N 
ATOM     23  O   UNL A   1      37.427  32.017  35.782  1.00  0.00    -0.269 OA
ATOM     24  H   UNL A   1      38.897  29.588  34.481  1.00  0.00     0.159 HD
ATOM     25  H   UNL A   1      37.953  29.605  35.901  1.00  0.00     0.159 HD
ENDBRANCH  17  21
ENDBRANCH  13  15
ENDBRANCH  12  13
ENDBRANCH   7  12
ENDBRANCH   4   7
ENDBRANCH   2   3
ENDBRANCH   1   2
BRANCH   1  26
ATOM     26  C   UNL A   1      35.746  32.744  28.050  1.00  0.00     0.023 C 
BRANCH  26  27
ATOM     27  C   UNL A   1      35.826  31.283  28.493  1.00  0.00     0.116 C 
BRANCH  27  28
ATOM     28  N   UNL A   1      35.655  31.093  29.928  1.00  0.00    -0.352 N 
ATOM     29  C   UNL A   1      36.452  30.378  30.793  1.00  0.00     0.251 C 
ATOM     30  H   UNL A   1      34.869  31.531  30.330  1.00  0.00     0.163 HD
ATOM     31  O   UNL A   1      36.137  30.242  31.969  1.00  0.00    -0.269 OA
BRANCH  29  32
ATOM     32  C   UNL A   1      37.674  29.743  30.263  1.00  0.00     0.039 A 
ATOM     33  C   UNL A   1      37.977  29.891  28.909  1.00  0.00     0.014 A 
ATOM     34  C   UNL A   1      38.560  29.095  31.128  1.00  0.00     0.014 A 
ATOM     35  C   UNL A   1      39.217  29.460  28.435  1.00  0.00     0.010 A 
ATOM     36  C   UNL A   1      39.822  28.733  30.668  1.00  0.00     0.010 A 
ATOM     37  C   UNL A   1      40.168  28.923  29.321  1.00  0.00    -0.014 A 
BRANCH  37  38
ATOM     38  C   UNL A   1      41.537  28.578  28.862  1.00  0.00     0.031 A 
ATOM     39  C   UNL A   1      42.588  29.648  28.751  1.00  0.00     0.074 A 
ATOM     40  C   UNL A   1      41.814  27.316  28.478  1.00  0.00     0.049 A 
ATOM     41  N   UNL A   1      43.810  29.559  28.295  1.00  0.00    -0.248 NA
ATOM     42  C   UNL A   1      42.204  31.001  29.185  1.00  0.00     0.031 C 
ATOM     43  C   UNL A   1      40.864  26.200  28.485  1.00  0.00     0.029 A 
ATOM     44  N   UNL A   1      42.972  26.759  27.993  1.00  0.00    -0.354 N 
ATOM     45  C   UNL A   1      44.339  30.841  28.383  1.00  0.00     0.074 A 
ATOM     46  C   UNL A   1      43.286  31.701  28.879  1.00  0.00     0.031 C 
ATOM     47  C   UNL A   1      41.480  25.092  28.042  1.00  0.00     0.029 A 
ATOM     48  C   UNL A   1      42.857  25.423  27.685  1.00  0.00     0.049 A 
ATOM     49  H   UNL A   1      43.806  27.268  27.876  1.00  0.00     0.167 HD
ATOM     50  C   UNL A   1      45.596  31.258  28.101  1.00  0.00     0.037 A 
ATOM     51  C   UNL A   1      43.754  24.563  27.163  1.00  0.00     0.037 A 
ATOM     52  C   UNL A   1      46.645  30.395  27.625  1.00  0.00     0.049 A 
ATOM     53  C   UNL A   1      45.146  25.048  26.863  1.00  0.00     0.074 A 
ATOM     54  C   UNL A   1      47.962  30.716  27.347  1.00  0.00     0.029 A 
ATOM     55  N   UNL A   1      46.500  29.041  27.357  1.00  0.00    -0.354 N 
ATOM     56  N   UNL A   1      45.644  26.254  26.997  1.00  0.00    -0.248 NA
ATOM     57  C   UNL A   1      46.101  24.057  26.348  1.00  0.00     0.031 C 
ATOM     58  C   UNL A   1      48.603  29.565  26.877  1.00  0.00     0.029 A 
ATOM     59  C   UNL A   1      47.700  28.515  26.908  1.00  0.00     0.049 A 
ATOM     60  H   UNL A   1      45.665  28.530  27.470  1.00  0.00     0.167 HD
ATOM     61  C   UNL A   1      46.976  26.162  26.608  1.00  0.00     0.074 A 
ATOM     62  C   UNL A   1      47.209  24.779  26.244  1.00  0.00     0.031 C 
ATOM     63  C   UNL A   1      47.919  27.134  26.555  1.00  0.00     0.037 A 
BRANCH  50  64
ATOM     64  C   UNL A   1      45.912  32.712  28.317  1.00  0.00     0.058 A 
ATOM     65  C   UNL A   1      45.723  33.661  27.300  1.00  0.00     0.135 A 
ATOM     66  C   UNL A   1      46.361  33.172  29.565  1.00  0.00     0.135 A 
ATOM     67  F   UNL A   1      45.312  33.274  26.082  1.00  0.00    -0.206 F 
ATOM     68  C   UNL A   1      45.992  35.010  27.503  1.00  0.00     0.059 A 
ATOM     69  C   UNL A   1      46.610  34.521  29.800  1.00  0.00     0.059 A 
ATOM     70  F   UNL A   1      46.561  32.307  30.572  1.00  0.00    -0.206 F 
ATOM     71  C   UNL A   1      46.433  35.431  28.759  1.00  0.00     0.060 A 
BRANCH  71  72
ATOM     72  S   UNL A   1      46.760  37.188  29.010  1.00  0.00     0.124 S 
ATOM     73  O   UNL A   1      45.459  37.774  28.701  1.00  0.00    -0.237 OA
ATOM     74  O   UNL A   1      47.157  37.233  30.415  1.00  0.00    -0.237 OA
ATOM     75  O   UNL A   1      47.823  37.477  28.052  1.00  0.00    -0.744 OA
ENDBRANCH  71  72
ENDBRANCH  50  64
BRANCH  51  76
ATOM     76  C   UNL A   1      43.364  23.150  26.911  1.00  0.00     0.058 A 
ATOM     77  C   UNL A   1      43.198  22.666  25.605  1.00  0.00     0.135 A 
ATOM     78  C   UNL A   1      43.172  22.249  27.971  1.00  0.00     0.135 A 
ATOM     79  F   UNL A   1      43.364  23.490  24.559  1.00  0.00    -0.206 F 
ATOM     80  C   UNL A   1      42.846  21.343  25.357  1.00  0.00     0.059 A 
ATOM     81  C   UNL A   1      42.843  20.916  27.747  1.00  0.00     0.059 A 
ATOM     82  F   UNL A   1      43.334  22.658  29.239  1.00  0.00    -0.206 F 
ATOM     83  C   UNL A   1      42.675  20.474  26.436  1.00  0.00     0.060 A 
BRANCH  83  84
ATOM     84  S   UNL A   1      42.278  18.744  26.100  1.00  0.00     0.124 S 
ATOM     85  O   UNL A   1      40.865  18.829  25.752  1.00  0.00    -0.237 OA
ATOM     86  O   UNL A   1      43.189  18.429  25.003  1.00  0.00    -0.237 OA
ATOM     87  O   UNL A   1      42.580  18.080  27.364  1.00  0.00    -0.744 OA
ENDBRANCH  83  84
ENDBRANCH  51  76
BRANCH  63  88
ATOM     88  C   UNL A   1      49.302  26.738  26.119  1.00  0.00     0.058 A 
ATOM     89  C   UNL A   1      49.730  26.894  24.792  1.00  0.00     0.135 A 
ATOM     90  C   UNL A   1      50.229  26.252  27.055  1.00  0.00     0.135 A 
ATOM     91  F   UNL A   1      48.881  27.349  23.857  1.00  0.00    -0.206 F 
ATOM     92  C   UNL A   1      51.024  26.561  24.403  1.00  0.00     0.059 A 
ATOM     93  C   UNL A   1      51.536  25.939  26.693  1.00  0.00     0.059 A 
ATOM     94  F   UNL A   1      49.874  26.095  28.341  1.00  0.00    -0.206 F 
ATOM     95  C   UNL A   1      51.921  26.086  25.362  1.00  0.00     0.060 A 
BRANCH  95  96
ATOM     96  S   UNL A   1      53.607  25.692  24.851  1.00  0.00     0.124 S 
ATOM     97  O   UNL A   1      53.562  26.002  23.427  1.00  0.00    -0.237 OA
ATOM     98  O   UNL A   1      54.402  26.600  25.673  1.00  0.00    -0.237 OA
ATOM     99  O   UNL A   1      53.741  24.277  25.183  1.00  0.00    -0.744 OA
ENDBRANCH  95  96
ENDBRANCH  63  88
ENDBRANCH  37  38
ENDBRANCH  29  32
ENDBRANCH  27  28
ENDBRANCH  26  27
ENDBRANCH   1  26
TORSDOF 20
ENDMDL
