MODEL 1
REMARK VINA RESULT:     -11.2      0.000      0.000
REMARK SMILES CC(C)(C)N(CC(=O)NCCCCNC(=O)c1ccc(-c2c3nc(c(-c4c(F)cc(S(=O)(=O)[O-])cc4F)c4ccc([nH]4)c(-c4c(F)cc(S(=O)(=O)[O-])cc4F)c4nc(c(-c5c(F)cc(S(=O)(=O)[O-])cc5F)c5ccc2[nH]5)C=C4)C=C3)cc1)C(=O)NC[C@H]1CCOC1
REMARK SMILES IDX 11 1 10 2 9 3 7 4 8 5 6 7 5 8 2 9 1 10 3 11 4 12 83 13 84 14
REMARK SMILES IDX 85 15 86 17 87 18 88 19 91 20 89 21 90 22 12 23 13 24 14 25
REMARK SMILES IDX 15 26 16 28 17 29 18 30 82 31 19 32 81 33 20 34 21 35 22 36
REMARK SMILES IDX 75 37 23 38 80 39 74 40 76 41 24 42 79 43 73 44 72 45 25 47
REMARK SMILES IDX 59 48 38 49 58 50 39 51 42 52 57 53 77 54 40 55 41 56 56 58
REMARK SMILES IDX 78 59 43 60 26 61 27 62 36 63 28 64 29 65 35 66 37 67 30 68
REMARK SMILES IDX 31 69 32 70 33 71 34 72 60 73 61 74 70 75 62 76 63 77 69 78
REMARK SMILES IDX 71 79 64 80 65 81 66 82 67 83 68 84 44 85 45 86 54 87 46 88
REMARK SMILES IDX 47 89 53 90 55 91 48 92 49 93 50 94 51 95 52 96
REMARK H PARENT 9 6 85 16 14 27 76 46 42 57
REMARK Flexibility Score: inf
ROOT
ATOM      1  C   UNL A   1      39.420  21.858  26.070  1.00  0.00     0.023 C 
ENDROOT
BRANCH   1   2
ATOM      2  C   UNL A   1      38.002  22.367  25.828  1.00  0.00     0.116 C 
BRANCH   2   3
ATOM      3  N   UNL A   1      37.589  22.298  24.450  1.00  0.00    -0.355 N 
ATOM      4  C   UNL A   1      36.553  22.940  23.847  1.00  0.00     0.239 C 
ATOM      5  O   UNL A   1      36.605  23.067  22.619  1.00  0.00    -0.273 OA
ATOM      6  H   UNL A   1      38.124  21.709  23.871  1.00  0.00     0.163 HD
BRANCH   4   7
ATOM      7  C   UNL A   1      35.449  23.665  24.644  1.00  0.00     0.221 C 
BRANCH   7   8
ATOM      8  N   UNL A   1      34.127  23.038  24.807  1.00  0.00    -0.311 N 
BRANCH   8   9
ATOM      9  C   UNL A   1      33.203  23.545  25.917  1.00  0.00     0.037 C 
ATOM     10  C   UNL A   1      33.587  23.081  27.350  1.00  0.00     0.034 C 
ATOM     11  C   UNL A   1      31.734  23.088  25.728  1.00  0.00     0.034 C 
ATOM     12  C   UNL A   1      33.245  25.092  25.969  1.00  0.00     0.034 C 
ENDBRANCH   8   9
BRANCH   8  13
ATOM     13  C   UNL A   1      33.570  22.204  23.858  1.00  0.00     0.318 C 
ATOM     14  O   UNL A   1      33.207  22.614  22.750  1.00  0.00    -0.249 OA
ATOM     15  N   UNL A   1      33.367  20.885  24.004  1.00  0.00    -0.338 N 
ATOM     16  H   UNL A   1      32.808  20.547  23.268  1.00  0.00     0.165 HD
BRANCH  15  17
ATOM     17  C   UNL A   1      33.710  19.794  24.906  1.00  0.00     0.123 C 
BRANCH  17  18
ATOM     18  C   UNL A   1      33.002  18.475  24.565  1.00  0.00     0.036 C 
ATOM     19  C   UNL A   1      33.813  17.598  23.626  1.00  0.00     0.036 C 
ATOM     20  C   UNL A   1      32.697  17.563  25.747  1.00  0.00     0.165 C 
ATOM     21  C   UNL A   1      33.418  16.194  24.018  1.00  0.00     0.160 C 
ATOM     22  O   UNL A   1      33.108  16.234  25.411  1.00  0.00    -0.381 OA
ENDBRANCH  17  18
ENDBRANCH  15  17
ENDBRANCH   8  13
ENDBRANCH   7   8
ENDBRANCH   4   7
ENDBRANCH   2   3
ENDBRANCH   1   2
BRANCH   1  23
ATOM     23  C   UNL A   1      40.058  22.296  27.386  1.00  0.00     0.023 C 
BRANCH  23  24
ATOM     24  C   UNL A   1      41.377  23.051  27.260  1.00  0.00     0.116 C 
BRANCH  24  25
ATOM     25  N   UNL A   1      41.444  23.941  26.108  1.00  0.00    -0.352 N 
ATOM     26  C   UNL A   1      41.458  25.316  26.085  1.00  0.00     0.251 C 
ATOM     27  H   UNL A   1      41.485  23.499  25.229  1.00  0.00     0.163 HD
ATOM     28  O   UNL A   1      41.478  25.918  25.015  1.00  0.00    -0.269 OA
BRANCH  26  29
ATOM     29  C   UNL A   1      41.394  26.058  27.362  1.00  0.00     0.039 A 
ATOM     30  C   UNL A   1      42.482  26.852  27.729  1.00  0.00     0.014 A 
ATOM     31  C   UNL A   1      40.239  26.028  28.146  1.00  0.00     0.014 A 
ATOM     32  C   UNL A   1      42.377  27.690  28.841  1.00  0.00     0.010 A 
ATOM     33  C   UNL A   1      40.109  26.916  29.208  1.00  0.00     0.010 A 
ATOM     34  C   UNL A   1      41.172  27.763  29.559  1.00  0.00    -0.014 A 
BRANCH  34  35
ATOM     35  C   UNL A   1      40.992  28.732  30.668  1.00  0.00     0.031 A 
ATOM     36  C   UNL A   1      41.826  28.615  31.913  1.00  0.00     0.074 A 
ATOM     37  C   UNL A   1      40.017  29.660  30.588  1.00  0.00     0.049 A 
ATOM     38  N   UNL A   1      41.752  29.299  33.024  1.00  0.00    -0.248 NA
ATOM     39  C   UNL A   1      42.859  27.565  31.921  1.00  0.00     0.031 C 
ATOM     40  C   UNL A   1      39.099  29.831  29.459  1.00  0.00     0.029 A 
ATOM     41  N   UNL A   1      39.624  30.625  31.482  1.00  0.00    -0.354 N 
ATOM     42  C   UNL A   1      42.708  28.749  33.871  1.00  0.00     0.074 A 
ATOM     43  C   UNL A   1      43.317  27.645  33.161  1.00  0.00     0.031 C 
ATOM     44  C   UNL A   1      38.264  30.849  29.720  1.00  0.00     0.029 A 
ATOM     45  C   UNL A   1      38.562  31.382  31.045  1.00  0.00     0.049 A 
ATOM     46  H   UNL A   1      40.061  30.761  32.354  1.00  0.00     0.167 HD
ATOM     47  C   UNL A   1      43.060  29.142  35.117  1.00  0.00     0.037 A 
ATOM     48  C   UNL A   1      37.901  32.389  31.649  1.00  0.00     0.037 A 
ATOM     49  C   UNL A   1      42.477  30.267  35.801  1.00  0.00     0.049 A 
ATOM     50  C   UNL A   1      38.335  32.833  33.018  1.00  0.00     0.074 A 
ATOM     51  C   UNL A   1      42.815  30.794  37.035  1.00  0.00     0.029 A 
ATOM     52  N   UNL A   1      41.437  31.041  35.307  1.00  0.00    -0.354 N 
ATOM     53  N   UNL A   1      39.287  32.345  33.778  1.00  0.00    -0.248 NA
ATOM     54  C   UNL A   1      37.613  33.967  33.611  1.00  0.00     0.031 C 
ATOM     55  C   UNL A   1      41.959  31.868  37.300  1.00  0.00     0.029 A 
ATOM     56  C   UNL A   1      41.113  32.034  36.215  1.00  0.00     0.049 A 
ATOM     57  H   UNL A   1      40.995  30.904  34.437  1.00  0.00     0.167 HD
ATOM     58  C   UNL A   1      39.292  33.125  34.928  1.00  0.00     0.074 A 
ATOM     59  C   UNL A   1      38.257  34.125  34.759  1.00  0.00     0.031 C 
ATOM     60  C   UNL A   1      40.082  33.024  36.025  1.00  0.00     0.037 A 
BRANCH  47  61
ATOM     61  C   UNL A   1      44.133  28.355  35.815  1.00  0.00     0.058 A 
ATOM     62  C   UNL A   1      45.494  28.659  35.649  1.00  0.00     0.135 A 
ATOM     63  C   UNL A   1      43.798  27.296  36.674  1.00  0.00     0.135 A 
ATOM     64  F   UNL A   1      45.869  29.652  34.827  1.00  0.00    -0.206 F 
ATOM     65  C   UNL A   1      46.486  27.920  36.282  1.00  0.00     0.059 A 
ATOM     66  C   UNL A   1      44.775  26.558  37.337  1.00  0.00     0.059 A 
ATOM     67  F   UNL A   1      42.513  26.961  36.867  1.00  0.00    -0.206 F 
ATOM     68  C   UNL A   1      46.117  26.868  37.121  1.00  0.00     0.060 A 
BRANCH  68  69
ATOM     69  S   UNL A   1      47.417  25.913  37.933  1.00  0.00     0.124 S 
ATOM     70  O   UNL A   1      48.566  26.206  37.083  1.00  0.00    -0.237 OA
ATOM     71  O   UNL A   1      47.450  26.501  39.269  1.00  0.00    -0.237 OA
ATOM     72  O   UNL A   1      46.921  24.542  37.869  1.00  0.00    -0.744 OA
ENDBRANCH  68  69
ENDBRANCH  47  61
BRANCH  48  73
ATOM     73  C   UNL A   1      36.778  33.064  30.947  1.00  0.00     0.058 A 
ATOM     74  C   UNL A   1      37.025  33.999  29.931  1.00  0.00     0.135 A 
ATOM     75  C   UNL A   1      35.441  32.776  31.259  1.00  0.00     0.135 A 
ATOM     76  F   UNL A   1      38.288  34.311  29.600  1.00  0.00    -0.206 F 
ATOM     77  C   UNL A   1      35.988  34.636  29.258  1.00  0.00     0.059 A 
ATOM     78  C   UNL A   1      34.386  33.384  30.587  1.00  0.00     0.059 A 
ATOM     79  F   UNL A   1      35.153  31.876  32.212  1.00  0.00    -0.206 F 
ATOM     80  C   UNL A   1      34.670  34.321  29.593  1.00  0.00     0.060 A 
BRANCH  80  81
ATOM     81  S   UNL A   1      33.329  35.115  28.678  1.00  0.00     0.124 S 
ATOM     82  O   UNL A   1      34.064  36.038  27.823  1.00  0.00    -0.237 OA
ATOM     83  O   UNL A   1      32.703  33.981  28.004  1.00  0.00    -0.237 OA
ATOM     84  O   UNL A   1      32.525  35.729  29.731  1.00  0.00    -0.744 OA
ENDBRANCH  80  81
ENDBRANCH  48  73
BRANCH  60  85
ATOM     85  C   UNL A   1      39.880  34.036  37.115  1.00  0.00     0.058 A 
ATOM     86  C   UNL A   1      40.413  35.331  37.024  1.00  0.00     0.135 A 
ATOM     87  C   UNL A   1      39.097  33.724  38.238  1.00  0.00     0.135 A 
ATOM     88  F   UNL A   1      41.174  35.676  35.973  1.00  0.00    -0.206 F 
ATOM     89  C   UNL A   1      40.193  36.277  38.019  1.00  0.00     0.059 A 
ATOM     90  C   UNL A   1      38.845  34.662  39.234  1.00  0.00     0.059 A 
ATOM     91  F   UNL A   1      38.557  32.502  38.368  1.00  0.00    -0.206 F 
ATOM     92  C   UNL A   1      39.407  35.933  39.121  1.00  0.00     0.060 A 
BRANCH  92  93
ATOM     93  S   UNL A   1      39.094  37.182  40.387  1.00  0.00     0.124 S 
ATOM     94  O   UNL A   1      38.527  38.268  39.594  1.00  0.00    -0.237 OA
ATOM     95  O   UNL A   1      38.166  36.499  41.282  1.00  0.00    -0.237 OA
ATOM     96  O   UNL A   1      40.419  37.437  40.945  1.00  0.00    -0.744 OA
ENDBRANCH  92  93
ENDBRANCH  60  85
ENDBRANCH  34  35
ENDBRANCH  26  29
ENDBRANCH  24  25
ENDBRANCH  23  24
ENDBRANCH   1  23
TORSDOF 19
ENDMDL
MODEL 2
REMARK VINA RESULT:     -11.1      6.944     12.488
REMARK SMILES CC(C)(C)N(CC(=O)NCCCCNC(=O)c1ccc(-c2c3nc(c(-c4c(F)cc(S(=O)(=O)[O-])cc4F)c4ccc([nH]4)c(-c4c(F)cc(S(=O)(=O)[O-])cc4F)c4nc(c(-c5c(F)cc(S(=O)(=O)[O-])cc5F)c5ccc2[nH]5)C=C4)C=C3)cc1)C(=O)NC[C@H]1CCOC1
REMARK SMILES IDX 11 1 10 2 9 3 7 4 8 5 6 7 5 8 2 9 1 10 3 11 4 12 83 13 84 14
REMARK SMILES IDX 85 15 86 17 87 18 88 19 91 20 89 21 90 22 12 23 13 24 14 25
REMARK SMILES IDX 15 26 16 28 17 29 18 30 82 31 19 32 81 33 20 34 21 35 22 36
REMARK SMILES IDX 75 37 23 38 80 39 74 40 76 41 24 42 79 43 73 44 72 45 25 47
REMARK SMILES IDX 59 48 38 49 58 50 39 51 42 52 57 53 77 54 40 55 41 56 56 58
REMARK SMILES IDX 78 59 43 60 26 61 27 62 36 63 28 64 29 65 35 66 37 67 30 68
REMARK SMILES IDX 31 69 32 70 33 71 34 72 60 73 61 74 70 75 62 76 63 77 69 78
REMARK SMILES IDX 71 79 64 80 65 81 66 82 67 83 68 84 44 85 45 86 54 87 46 88
REMARK SMILES IDX 47 89 53 90 55 91 48 92 49 93 50 94 51 95 52 96
REMARK H PARENT 9 6 85 16 14 27 76 46 42 57
REMARK Flexibility Score: inf
ROOT
ATOM      1  C   UNL A   1      34.795  29.379  27.450  1.00  0.00     0.023 C 
ENDROOT
BRANCH   1   2
ATOM      2  C   UNL A   1      33.861  28.775  26.407  1.00  0.00     0.116 C 
BRANCH   2   3
ATOM      3  N   UNL A   1      32.988  27.756  26.932  1.00  0.00    -0.355 N 
ATOM      4  C   UNL A   1      31.936  27.148  26.320  1.00  0.00     0.239 C 
ATOM      5  O   UNL A   1      31.580  26.052  26.765  1.00  0.00    -0.273 OA
ATOM      6  H   UNL A   1      33.178  27.462  27.852  1.00  0.00     0.163 HD
BRANCH   4   7
ATOM      7  C   UNL A   1      31.323  27.677  25.007  1.00  0.00     0.221 C 
BRANCH   7   8
ATOM      8  N   UNL A   1      32.064  27.538  23.741  1.00  0.00    -0.311 N 
BRANCH   8   9
ATOM      9  C   UNL A   1      32.111  26.168  23.061  1.00  0.00     0.037 C 
ATOM     10  C   UNL A   1      33.325  25.282  23.459  1.00  0.00     0.034 C 
ATOM     11  C   UNL A   1      32.178  26.269  21.516  1.00  0.00     0.034 C 
ATOM     12  C   UNL A   1      30.862  25.342  23.457  1.00  0.00     0.034 C 
ENDBRANCH   8   9
BRANCH   8  13
ATOM     13  C   UNL A   1      32.493  28.622  23.001  1.00  0.00     0.318 C 
ATOM     14  O   UNL A   1      33.689  28.913  22.888  1.00  0.00    -0.249 OA
ATOM     15  N   UNL A   1      31.698  29.465  22.322  1.00  0.00    -0.338 N 
ATOM     16  H   UNL A   1      32.216  30.246  22.020  1.00  0.00     0.165 HD
BRANCH  15  17
ATOM     17  C   UNL A   1      30.314  29.593  21.891  1.00  0.00     0.123 C 
BRANCH  17  18
ATOM     18  C   UNL A   1      29.403  30.240  22.944  1.00  0.00     0.036 C 
ATOM     19  C   UNL A   1      28.904  31.612  22.526  1.00  0.00     0.036 C 
ATOM     20  C   UNL A   1      28.130  29.474  23.280  1.00  0.00     0.165 C 
ATOM     21  C   UNL A   1      27.551  31.718  23.189  1.00  0.00     0.160 C 
ATOM     22  O   UNL A   1      27.031  30.391  23.264  1.00  0.00    -0.381 OA
ENDBRANCH  17  18
ENDBRANCH  15  17
ENDBRANCH   8  13
ENDBRANCH   7   8
ENDBRANCH   4   7
ENDBRANCH   2   3
ENDBRANCH   1   2
BRANCH   1  23
ATOM     23  C   UNL A   1      34.774  30.903  27.546  1.00  0.00     0.023 C 
BRANCH  23  24
ATOM     24  C   UNL A   1      35.715  31.511  28.581  1.00  0.00     0.116 C 
BRANCH  24  25
ATOM     25  N   UNL A   1      35.527  30.994  29.930  1.00  0.00    -0.352 N 
ATOM     26  C   UNL A   1      36.459  30.435  30.774  1.00  0.00     0.251 C 
ATOM     27  H   UNL A   1      34.611  31.053  30.286  1.00  0.00     0.163 HD
ATOM     28  O   UNL A   1      36.122  30.010  31.875  1.00  0.00    -0.269 OA
BRANCH  26  29
ATOM     29  C   UNL A   1      37.857  30.303  30.315  1.00  0.00     0.039 A 
ATOM     30  C   UNL A   1      38.869  30.207  31.272  1.00  0.00     0.014 A 
ATOM     31  C   UNL A   1      38.154  30.198  28.954  1.00  0.00     0.014 A 
ATOM     32  C   UNL A   1      40.173  29.915  30.867  1.00  0.00     0.010 A 
ATOM     33  C   UNL A   1      39.436  29.833  28.559  1.00  0.00     0.010 A 
ATOM     34  C   UNL A   1      40.455  29.677  29.512  1.00  0.00    -0.014 A 
BRANCH  34  35
ATOM     35  C   UNL A   1      41.804  29.244  29.068  1.00  0.00     0.031 A 
ATOM     36  C   UNL A   1      42.920  30.245  28.970  1.00  0.00     0.074 A 
ATOM     37  C   UNL A   1      41.995  27.971  28.670  1.00  0.00     0.049 A 
ATOM     38  N   UNL A   1      44.135  30.085  28.514  1.00  0.00    -0.248 NA
ATOM     39  C   UNL A   1      42.621  31.617  29.413  1.00  0.00     0.031 C 
ATOM     40  C   UNL A   1      40.971  26.923  28.657  1.00  0.00     0.029 A 
ATOM     41  N   UNL A   1      43.115  27.344  28.183  1.00  0.00    -0.354 N 
ATOM     42  C   UNL A   1      44.735  31.337  28.591  1.00  0.00     0.074 A 
ATOM     43  C   UNL A   1      43.737  32.255  29.095  1.00  0.00     0.031 C 
ATOM     44  C   UNL A   1      41.514  25.781  28.204  1.00  0.00     0.029 A 
ATOM     45  C   UNL A   1      42.912  26.021  27.863  1.00  0.00     0.049 A 
ATOM     46  H   UNL A   1      43.981  27.798  28.073  1.00  0.00     0.167 HD
ATOM     47  C   UNL A   1      46.009  31.684  28.289  1.00  0.00     0.037 A 
ATOM     48  C   UNL A   1      43.759  25.108  27.348  1.00  0.00     0.037 A 
ATOM     49  C   UNL A   1      47.007  30.756  27.827  1.00  0.00     0.049 A 
ATOM     50  C   UNL A   1      45.178  25.507  27.056  1.00  0.00     0.074 A 
ATOM     51  C   UNL A   1      48.345  30.992  27.566  1.00  0.00     0.029 A 
ATOM     52  N   UNL A   1      46.778  29.414  27.562  1.00  0.00    -0.354 N 
ATOM     53  N   UNL A   1      45.749  26.681  27.199  1.00  0.00    -0.248 NA
ATOM     54  C   UNL A   1      46.072  24.462  26.542  1.00  0.00     0.031 C 
ATOM     55  C   UNL A   1      48.919  29.798  27.112  1.00  0.00     0.029 A 
ATOM     56  C   UNL A   1      47.946  28.811  27.128  1.00  0.00     0.049 A 
ATOM     57  H   UNL A   1      45.911  28.957  27.667  1.00  0.00     0.167 HD
ATOM     58  C   UNL A   1      47.073  26.508  26.813  1.00  0.00     0.074 A 
ATOM     59  C   UNL A   1      47.221  25.116  26.442  1.00  0.00     0.031 C 
ATOM     60  C   UNL A   1      48.075  27.420  26.769  1.00  0.00     0.037 A 
BRANCH  47  61
ATOM     61  C   UNL A   1      46.393  33.126  28.462  1.00  0.00     0.058 A 
ATOM     62  C   UNL A   1      46.278  34.048  27.408  1.00  0.00     0.135 A 
ATOM     63  C   UNL A   1      46.864  33.598  29.697  1.00  0.00     0.135 A 
ATOM     64  F   UNL A   1      45.848  33.646  26.202  1.00  0.00    -0.206 F 
ATOM     65  C   UNL A   1      46.649  35.379  27.564  1.00  0.00     0.059 A 
ATOM     66  C   UNL A   1      47.218  34.931  29.882  1.00  0.00     0.059 A 
ATOM     67  F   UNL A   1      46.995  32.759  30.736  1.00  0.00    -0.206 F 
ATOM     68  C   UNL A   1      47.122  35.810  28.804  1.00  0.00     0.060 A 
BRANCH  68  69
ATOM     69  S   UNL A   1      47.605  37.540  28.990  1.00  0.00     0.124 S 
ATOM     70  O   UNL A   1      46.950  38.150  27.838  1.00  0.00    -0.237 OA
ATOM     71  O   UNL A   1      47.044  37.884  30.293  1.00  0.00    -0.237 OA
ATOM     72  O   UNL A   1      49.063  37.494  28.933  1.00  0.00    -0.744 OA
ENDBRANCH  68  69
ENDBRANCH  47  61
BRANCH  48  73
ATOM     73  C   UNL A   1      43.289  23.719  27.103  1.00  0.00     0.058 A 
ATOM     74  C   UNL A   1      42.986  23.282  25.805  1.00  0.00     0.135 A 
ATOM     75  C   UNL A   1      43.152  22.797  28.151  1.00  0.00     0.135 A 
ATOM     76  F   UNL A   1      43.097  24.130  24.770  1.00  0.00    -0.206 F 
ATOM     77  C   UNL A   1      42.551  21.985  25.555  1.00  0.00     0.059 A 
ATOM     78  C   UNL A   1      42.740  21.488  27.924  1.00  0.00     0.059 A 
ATOM     79  F   UNL A   1      43.446  23.162  29.409  1.00  0.00    -0.206 F 
ATOM     80  C   UNL A   1      42.432  21.094  26.622  1.00  0.00     0.060 A 
BRANCH  80  81
ATOM     81  S   UNL A   1      41.917  19.396  26.281  1.00  0.00     0.124 S 
ATOM     82  O   UNL A   1      42.348  18.710  27.493  1.00  0.00    -0.237 OA
ATOM     83  O   UNL A   1      40.475  19.541  26.108  1.00  0.00    -0.237 OA
ATOM     84  O   UNL A   1      42.655  19.061  25.066  1.00  0.00    -0.744 OA
ENDBRANCH  80  81
ENDBRANCH  48  73
BRANCH  60  85
ATOM     85  C   UNL A   1      49.428  26.936  26.333  1.00  0.00     0.058 A 
ATOM     86  C   UNL A   1      50.307  26.308  27.228  1.00  0.00     0.135 A 
ATOM     87  C   UNL A   1      49.826  27.054  24.992  1.00  0.00     0.135 A 
ATOM     88  F   UNL A   1      49.975  26.178  28.522  1.00  0.00    -0.206 F 
ATOM     89  C   UNL A   1      51.544  25.828  26.812  1.00  0.00     0.059 A 
ATOM     90  C   UNL A   1      51.049  26.561  24.550  1.00  0.00     0.059 A 
ATOM     91  F   UNL A   1      49.017  27.639  24.095  1.00  0.00    -0.206 F 
ATOM     92  C   UNL A   1      51.906  25.959  25.470  1.00  0.00     0.060 A 
BRANCH  92  93
ATOM     93  S   UNL A   1      53.498  25.297  24.932  1.00  0.00     0.124 S 
ATOM     94  O   UNL A   1      53.384  25.402  23.482  1.00  0.00    -0.237 OA
ATOM     95  O   UNL A   1      54.448  26.208  25.561  1.00  0.00    -0.237 OA
ATOM     96  O   UNL A   1      53.497  23.938  25.466  1.00  0.00    -0.744 OA
ENDBRANCH  92  93
ENDBRANCH  60  85
ENDBRANCH  34  35
ENDBRANCH  26  29
ENDBRANCH  24  25
ENDBRANCH  23  24
ENDBRANCH   1  23
TORSDOF 19
ENDMDL
MODEL 3
REMARK VINA RESULT:     -11.0      6.353      9.020
REMARK SMILES CC(C)(C)N(CC(=O)NCCCCNC(=O)c1ccc(-c2c3nc(c(-c4c(F)cc(S(=O)(=O)[O-])cc4F)c4ccc([nH]4)c(-c4c(F)cc(S(=O)(=O)[O-])cc4F)c4nc(c(-c5c(F)cc(S(=O)(=O)[O-])cc5F)c5ccc2[nH]5)C=C4)C=C3)cc1)C(=O)NC[C@H]1CCOC1
REMARK SMILES IDX 11 1 10 2 9 3 7 4 8 5 6 7 5 8 2 9 1 10 3 11 4 12 83 13 84 14
REMARK SMILES IDX 85 15 86 17 87 18 88 19 91 20 89 21 90 22 12 23 13 24 14 25
REMARK SMILES IDX 15 26 16 28 17 29 18 30 82 31 19 32 81 33 20 34 21 35 22 36
REMARK SMILES IDX 75 37 23 38 80 39 74 40 76 41 24 42 79 43 73 44 72 45 25 47
REMARK SMILES IDX 59 48 38 49 58 50 39 51 42 52 57 53 77 54 40 55 41 56 56 58
REMARK SMILES IDX 78 59 43 60 26 61 27 62 36 63 28 64 29 65 35 66 37 67 30 68
REMARK SMILES IDX 31 69 32 70 33 71 34 72 60 73 61 74 70 75 62 76 63 77 69 78
REMARK SMILES IDX 71 79 64 80 65 81 66 82 67 83 68 84 44 85 45 86 54 87 46 88
REMARK SMILES IDX 47 89 53 90 55 91 48 92 49 93 50 94 51 95 52 96
REMARK H PARENT 9 6 85 16 14 27 76 46 42 57
REMARK Flexibility Score: inf
ROOT
ATOM      1  C   UNL A   1      37.302  21.772  25.120  1.00  0.00     0.023 C 
ENDROOT
BRANCH   1   2
ATOM      2  C   UNL A   1      35.821  21.444  25.285  1.00  0.00     0.116 C 
BRANCH   2   3
ATOM      3  N   UNL A   1      35.330  21.637  26.625  1.00  0.00    -0.355 N 
ATOM      4  C   UNL A   1      34.411  22.538  27.066  1.00  0.00     0.239 C 
ATOM      5  O   UNL A   1      33.840  22.286  28.133  1.00  0.00    -0.273 OA
ATOM      6  H   UNL A   1      35.709  21.041  27.310  1.00  0.00     0.163 HD
BRANCH   4   7
ATOM      7  C   UNL A   1      33.932  23.723  26.203  1.00  0.00     0.221 C 
BRANCH   7   8
ATOM      8  N   UNL A   1      32.531  23.789  25.756  1.00  0.00    -0.311 N 
BRANCH   8   9
ATOM      9  C   UNL A   1      32.125  23.031  24.490  1.00  0.00     0.037 C 
ATOM     10  C   UNL A   1      33.185  23.042  23.353  1.00  0.00     0.034 C 
ATOM     11  C   UNL A   1      30.836  23.598  23.841  1.00  0.00     0.034 C 
ATOM     12  C   UNL A   1      31.905  21.535  24.822  1.00  0.00     0.034 C 
ENDBRANCH   8   9
BRANCH   8  13
ATOM     13  C   UNL A   1      31.512  24.275  26.551  1.00  0.00     0.318 C 
ATOM     14  O   UNL A   1      30.845  23.544  27.292  1.00  0.00    -0.249 OA
ATOM     15  N   UNL A   1      31.132  25.561  26.630  1.00  0.00    -0.338 N 
ATOM     16  H   UNL A   1      30.286  25.632  27.127  1.00  0.00     0.165 HD
BRANCH  15  17
ATOM     17  C   UNL A   1      31.575  26.885  26.216  1.00  0.00     0.123 C 
BRANCH  17  18
ATOM     18  C   UNL A   1      31.376  27.153  24.717  1.00  0.00     0.036 C 
ATOM     19  C   UNL A   1      31.044  28.605  24.419  1.00  0.00     0.036 C 
ATOM     20  C   UNL A   1      32.578  26.863  23.827  1.00  0.00     0.165 C 
ATOM     21  C   UNL A   1      31.634  28.833  23.048  1.00  0.00     0.160 C 
ATOM     22  O   UNL A   1      32.771  27.975  22.949  1.00  0.00    -0.381 OA
ENDBRANCH  17  18
ENDBRANCH  15  17
ENDBRANCH   8  13
ENDBRANCH   7   8
ENDBRANCH   4   7
ENDBRANCH   2   3
ENDBRANCH   1   2
BRANCH   1  23
ATOM     23  C   UNL A   1      38.246  20.572  25.146  1.00  0.00     0.023 C 
BRANCH  23  24
ATOM     24  C   UNL A   1      39.462  20.711  26.055  1.00  0.00     0.116 C 
BRANCH  24  25
ATOM     25  N   UNL A   1      40.352  19.558  26.037  1.00  0.00    -0.352 N 
ATOM     26  C   UNL A   1      41.719  19.524  26.191  1.00  0.00     0.251 C 
ATOM     27  H   UNL A   1      39.918  18.685  25.897  1.00  0.00     0.163 HD
ATOM     28  O   UNL A   1      42.326  18.460  26.109  1.00  0.00    -0.269 OA
BRANCH  26  29
ATOM     29  C   UNL A   1      42.451  20.791  26.400  1.00  0.00     0.039 A 
ATOM     30  C   UNL A   1      42.840  21.531  25.281  1.00  0.00     0.014 A 
ATOM     31  C   UNL A   1      42.679  21.278  27.688  1.00  0.00     0.014 A 
ATOM     32  C   UNL A   1      43.380  22.806  25.455  1.00  0.00     0.010 A 
ATOM     33  C   UNL A   1      43.147  22.576  27.857  1.00  0.00     0.010 A 
ATOM     34  C   UNL A   1      43.492  23.357  26.742  1.00  0.00    -0.014 A 
BRANCH  34  35
ATOM     35  C   UNL A   1      43.947  24.755  26.948  1.00  0.00     0.031 A 
ATOM     36  C   UNL A   1      45.397  25.107  26.768  1.00  0.00     0.074 A 
ATOM     37  C   UNL A   1      43.070  25.682  27.381  1.00  0.00     0.049 A 
ATOM     38  N   UNL A   1      46.005  26.242  26.995  1.00  0.00    -0.248 NA
ATOM     39  C   UNL A   1      46.288  24.030  26.306  1.00  0.00     0.031 C 
ATOM     40  C   UNL A   1      41.650  25.445  27.653  1.00  0.00     0.029 A 
ATOM     41  N   UNL A   1      43.248  27.009  27.684  1.00  0.00    -0.354 N 
ATOM     42  C   UNL A   1      47.349  26.010  26.727  1.00  0.00     0.074 A 
ATOM     43  C   UNL A   1      47.475  24.615  26.366  1.00  0.00     0.031 C 
ATOM     44  C   UNL A   1      41.084  26.591  28.065  1.00  0.00     0.029 A 
ATOM     45  C   UNL A   1      42.102  27.634  28.119  1.00  0.00     0.049 A 
ATOM     46  H   UNL A   1      44.113  27.470  27.599  1.00  0.00     0.167 HD
ATOM     47  C   UNL A   1      48.381  26.887  26.759  1.00  0.00     0.037 A 
ATOM     48  C   UNL A   1      41.899  28.904  28.520  1.00  0.00     0.037 A 
ATOM     49  C   UNL A   1      48.241  28.283  27.079  1.00  0.00     0.049 A 
ATOM     50  C   UNL A   1      43.052  29.868  28.510  1.00  0.00     0.074 A 
ATOM     51  C   UNL A   1      49.210  29.270  27.067  1.00  0.00     0.029 A 
ATOM     52  N   UNL A   1      47.056  28.891  27.467  1.00  0.00    -0.354 N 
ATOM     53  N   UNL A   1      44.306  29.650  28.188  1.00  0.00    -0.248 NA
ATOM     54  C   UNL A   1      42.766  31.253  28.910  1.00  0.00     0.031 C 
ATOM     55  C   UNL A   1      48.617  30.470  27.476  1.00  0.00     0.029 A 
ATOM     56  C   UNL A   1      47.270  30.237  27.708  1.00  0.00     0.049 A 
ATOM     57  H   UNL A   1      46.189  28.432  27.557  1.00  0.00     0.167 HD
ATOM     58  C   UNL A   1      44.952  30.872  28.326  1.00  0.00     0.074 A 
ATOM     59  C   UNL A   1      43.949  31.829  28.748  1.00  0.00     0.031 C 
ATOM     60  C   UNL A   1      46.257  31.175  28.121  1.00  0.00     0.037 A 
BRANCH  47  61
ATOM     61  C   UNL A   1      49.748  26.359  26.427  1.00  0.00     0.058 A 
ATOM     62  C   UNL A   1      50.554  25.745  27.399  1.00  0.00     0.135 A 
ATOM     63  C   UNL A   1      50.253  26.453  25.120  1.00  0.00     0.135 A 
ATOM     64  F   UNL A   1      50.126  25.643  28.667  1.00  0.00    -0.206 F 
ATOM     65  C   UNL A   1      51.825  25.272  27.094  1.00  0.00     0.059 A 
ATOM     66  C   UNL A   1      51.513  25.963  24.788  1.00  0.00     0.059 A 
ATOM     67  F   UNL A   1      49.525  27.033  24.154  1.00  0.00    -0.206 F 
ATOM     68  C   UNL A   1      52.298  25.390  25.787  1.00  0.00     0.060 A 
BRANCH  68  69
ATOM     69  S   UNL A   1      53.953  24.775  25.407  1.00  0.00     0.124 S 
ATOM     70  O   UNL A   1      53.678  23.380  25.081  1.00  0.00    -0.237 OA
ATOM     71  O   UNL A   1      54.352  25.621  24.286  1.00  0.00    -0.237 OA
ATOM     72  O   UNL A   1      54.690  24.997  26.647  1.00  0.00    -0.744 OA
ENDBRANCH  68  69
ENDBRANCH  47  61
BRANCH  48  73
ATOM     73  C   UNL A   1      40.540  29.341  28.936  1.00  0.00     0.058 A 
ATOM     74  C   UNL A   1      39.531  29.550  27.984  1.00  0.00     0.135 A 
ATOM     75  C   UNL A   1      40.216  29.538  30.287  1.00  0.00     0.135 A 
ATOM     76  F   UNL A   1      39.795  29.380  26.679  1.00  0.00    -0.206 F 
ATOM     77  C   UNL A   1      38.253  29.954  28.354  1.00  0.00     0.059 A 
ATOM     78  C   UNL A   1      38.939  29.920  30.684  1.00  0.00     0.059 A 
ATOM     79  F   UNL A   1      41.143  29.334  31.236  1.00  0.00    -0.206 F 
ATOM     80  C   UNL A   1      37.965  30.135  29.708  1.00  0.00     0.060 A 
BRANCH  80  81
ATOM     81  S   UNL A   1      36.288  30.608  30.183  1.00  0.00     0.124 S 
ATOM     82  O   UNL A   1      35.585  30.514  28.910  1.00  0.00    -0.237 OA
ATOM     83  O   UNL A   1      35.950  29.591  31.175  1.00  0.00    -0.237 OA
ATOM     84  O   UNL A   1      36.459  31.957  30.715  1.00  0.00    -0.744 OA
ENDBRANCH  80  81
ENDBRANCH  48  73
BRANCH  60  85
ATOM     85  C   UNL A   1      46.672  32.604  28.322  1.00  0.00     0.058 A 
ATOM     86  C   UNL A   1      47.227  33.045  29.532  1.00  0.00     0.135 A 
ATOM     87  C   UNL A   1      46.564  33.530  27.271  1.00  0.00     0.135 A 
ATOM     88  F   UNL A   1      47.345  32.200  30.569  1.00  0.00    -0.206 F 
ATOM     89  C   UNL A   1      47.644  34.361  29.702  1.00  0.00     0.059 A 
ATOM     90  C   UNL A   1      46.995  34.844  27.411  1.00  0.00     0.059 A 
ATOM     91  F   UNL A   1      46.048  33.155  26.089  1.00  0.00    -0.206 F 
ATOM     92  C   UNL A   1      47.525  35.254  28.634  1.00  0.00     0.060 A 
BRANCH  92  93
ATOM     93  S   UNL A   1      48.107  36.949  28.852  1.00  0.00     0.124 S 
ATOM     94  O   UNL A   1      48.255  37.388  27.469  1.00  0.00    -0.237 OA
ATOM     95  O   UNL A   1      47.015  37.564  29.599  1.00  0.00    -0.237 OA
ATOM     96  O   UNL A   1      49.352  36.786  29.597  1.00  0.00    -0.744 OA
ENDBRANCH  92  93
ENDBRANCH  60  85
ENDBRANCH  34  35
ENDBRANCH  26  29
ENDBRANCH  24  25
ENDBRANCH  23  24
ENDBRANCH   1  23
TORSDOF 19
ENDMDL
