MODEL 1
REMARK VINA RESULT:     -12.6      0.000      0.000
REMARK SMILES O=C(NCCCCNC(=O)c1cc(/N=C/c2ccc([N+](=O)[O-])cc2)ccc1O)c1ccc(-c2c3nc(c(-c4c(F)cc(S(=O)(=O)[O-])cc4F)c4ccc([nH]4)c(-c4c(F)cc(S(=O)(=O)[O-])cc4F)c4nc(c(-c5c(F)cc(S(=O)(=O)[O-])cc5F)c5ccc2[nH]5)C=C4)C=C3)cc1
REMARK SMILES IDX 5 1 4 2 3 3 1 4 2 5 29 7 30 8 94 9 31 10 93 11 32 12 33 13
REMARK SMILES IDX 34 14 87 15 35 16 92 17 86 18 88 19 36 20 91 21 85 22 84 23
REMARK SMILES IDX 37 25 71 26 50 27 70 28 51 29 54 30 69 31 89 32 52 33 53 34
REMARK SMILES IDX 68 36 90 37 55 38 38 39 39 40 48 41 40 42 41 43 47 44 49 45
REMARK SMILES IDX 42 46 43 47 44 48 45 49 46 50 72 51 73 52 82 53 74 54 75 55
REMARK SMILES IDX 81 56 83 57 76 58 77 59 78 60 79 61 80 62 56 63 57 64 66 65
REMARK SMILES IDX 58 66 59 67 65 68 67 69 60 70 61 71 62 72 63 73 64 74 6 75
REMARK SMILES IDX 7 76 8 77 9 78 10 80 11 81 12 82 27 83 13 84 26 85 25 86
REMARK SMILES IDX 28 87 14 89 15 90 16 91 17 92 24 93 18 94 23 95 19 96 20 97
REMARK SMILES IDX 21 98 22 99
REMARK H PARENT 3 6 88 24 54 35 8 79 28 88
REMARK Flexibility Score: inf
ROOT
ATOM      1  C   UNL A   1      38.718  22.714  26.410  1.00  0.00     0.023 C 
ENDROOT
BRANCH   1   2
ATOM      2  C   UNL A   1      39.928  23.369  27.063  1.00  0.00     0.116 C 
BRANCH   2   3
ATOM      3  N   UNL A   1      40.837  23.983  26.106  1.00  0.00    -0.352 N 
ATOM      4  O   UNL A   1      42.001  25.647  25.120  1.00  0.00    -0.269 OA
ATOM      5  C   UNL A   1      41.333  25.267  26.077  1.00  0.00     0.251 C 
ATOM      6  H   UNL A   1      41.140  23.398  25.374  1.00  0.00     0.163 HD
BRANCH   5   7
ATOM      7  C   UNL A   1      41.028  26.194  27.190  1.00  0.00     0.039 A 
ATOM      8  C   UNL A   1      41.775  27.358  27.364  1.00  0.00     0.014 A 
ATOM      9  C   UNL A   1      40.001  25.879  28.085  1.00  0.00     0.014 A 
ATOM     10  C   UNL A   1      41.614  28.113  28.521  1.00  0.00     0.010 A 
ATOM     11  C   UNL A   1      39.776  26.694  29.201  1.00  0.00     0.010 A 
ATOM     12  C   UNL A   1      40.609  27.795  29.450  1.00  0.00    -0.014 A 
BRANCH  12  13
ATOM     13  C   UNL A   1      40.436  28.670  30.638  1.00  0.00     0.031 A 
ATOM     14  C   UNL A   1      41.342  28.561  31.835  1.00  0.00     0.074 A 
ATOM     15  C   UNL A   1      39.484  29.624  30.597  1.00  0.00     0.049 A 
ATOM     16  N   UNL A   1      41.365  29.297  32.918  1.00  0.00    -0.248 NA
ATOM     17  C   UNL A   1      42.347  27.486  31.824  1.00  0.00     0.031 C 
ATOM     18  C   UNL A   1      38.528  29.809  29.500  1.00  0.00     0.029 A 
ATOM     19  N   UNL A   1      39.181  30.634  31.473  1.00  0.00    -0.354 N 
ATOM     20  C   UNL A   1      42.373  28.774  33.719  1.00  0.00     0.074 A 
ATOM     21  C   UNL A   1      42.922  27.637  33.011  1.00  0.00     0.031 C 
ATOM     22  C   UNL A   1      37.786  30.899  29.741  1.00  0.00     0.029 A 
ATOM     23  C   UNL A   1      38.175  31.459  31.030  1.00  0.00     0.049 A 
ATOM     24  H   UNL A   1      39.639  30.756  32.334  1.00  0.00     0.167 HD
ATOM     25  C   UNL A   1      42.809  29.210  34.926  1.00  0.00     0.037 A 
ATOM     26  C   UNL A   1      37.617  32.545  31.599  1.00  0.00     0.037 A 
ATOM     27  C   UNL A   1      42.267  30.351  35.621  1.00  0.00     0.049 A 
ATOM     28  C   UNL A   1      38.133  33.017  32.926  1.00  0.00     0.074 A 
ATOM     29  C   UNL A   1      42.639  30.871  36.849  1.00  0.00     0.029 A 
ATOM     30  N   UNL A   1      41.242  31.157  35.143  1.00  0.00    -0.354 N 
ATOM     31  N   UNL A   1      39.092  32.509  33.663  1.00  0.00    -0.248 NA
ATOM     32  C   UNL A   1      37.494  34.207  33.499  1.00  0.00     0.031 C 
ATOM     33  C   UNL A   1      41.823  31.975  37.126  1.00  0.00     0.029 A 
ATOM     34  C   UNL A   1      40.968  32.165  36.054  1.00  0.00     0.049 A 
ATOM     35  H   UNL A   1      40.779  31.031  34.284  1.00  0.00     0.167 HD
ATOM     36  C   UNL A   1      39.170  33.317  34.790  1.00  0.00     0.074 A 
ATOM     37  C   UNL A   1      38.184  34.366  34.620  1.00  0.00     0.031 C 
ATOM     38  C   UNL A   1      39.976  33.195  35.872  1.00  0.00     0.037 A 
BRANCH  25  39
ATOM     39  C   UNL A   1      43.930  28.451  35.583  1.00  0.00     0.058 A 
ATOM     40  C   UNL A   1      45.275  28.767  35.334  1.00  0.00     0.135 A 
ATOM     41  C   UNL A   1      43.659  27.433  36.513  1.00  0.00     0.135 A 
ATOM     42  F   UNL A   1      45.591  29.721  34.444  1.00  0.00    -0.206 F 
ATOM     43  C   UNL A   1      46.312  28.092  35.971  1.00  0.00     0.059 A 
ATOM     44  C   UNL A   1      44.679  26.758  37.178  1.00  0.00     0.059 A 
ATOM     45  F   UNL A   1      42.391  27.090  36.789  1.00  0.00    -0.206 F 
ATOM     46  C   UNL A   1      46.004  27.088  36.891  1.00  0.00     0.060 A 
BRANCH  46  47
ATOM     47  S   UNL A   1      47.360  26.229  37.721  1.00  0.00     0.124 S 
ATOM     48  O   UNL A   1      46.930  26.289  39.115  1.00  0.00    -0.237 OA
ATOM     49  O   UNL A   1      47.320  24.908  37.102  1.00  0.00    -0.237 OA
ATOM     50  O   UNL A   1      48.528  27.038  37.389  1.00  0.00    -0.744 OA
ENDBRANCH  46  47
ENDBRANCH  25  39
BRANCH  26  51
ATOM     51  C   UNL A   1      36.504  33.245  30.909  1.00  0.00     0.058 A 
ATOM     52  C   UNL A   1      35.183  33.138  31.366  1.00  0.00     0.135 A 
ATOM     53  C   UNL A   1      36.749  34.058  29.793  1.00  0.00     0.135 A 
ATOM     54  F   UNL A   1      34.901  32.371  32.430  1.00  0.00    -0.206 F 
ATOM     55  C   UNL A   1      34.139  33.803  30.732  1.00  0.00     0.059 A 
ATOM     56  C   UNL A   1      35.726  34.753  29.157  1.00  0.00     0.059 A 
ATOM     57  F   UNL A   1      38.000  34.208  29.331  1.00  0.00    -0.206 F 
ATOM     58  C   UNL A   1      34.422  34.609  29.627  1.00  0.00     0.060 A 
BRANCH  58  59
ATOM     59  S   UNL A   1      33.075  35.513  28.835  1.00  0.00     0.124 S 
ATOM     60  O   UNL A   1      32.443  34.463  28.047  1.00  0.00    -0.237 OA
ATOM     61  O   UNL A   1      32.311  36.001  29.980  1.00  0.00    -0.237 OA
ATOM     62  O   UNL A   1      33.772  36.546  28.073  1.00  0.00    -0.744 OA
ENDBRANCH  58  59
ENDBRANCH  26  51
BRANCH  38  63
ATOM     63  C   UNL A   1      39.821  34.229  36.950  1.00  0.00     0.058 A 
ATOM     64  C   UNL A   1      39.027  33.989  38.083  1.00  0.00     0.135 A 
ATOM     65  C   UNL A   1      40.475  35.466  36.853  1.00  0.00     0.135 A 
ATOM     66  F   UNL A   1      38.375  32.823  38.217  1.00  0.00    -0.206 F 
ATOM     67  C   UNL A   1      38.860  34.956  39.068  1.00  0.00     0.059 A 
ATOM     68  C   UNL A   1      40.339  36.439  37.838  1.00  0.00     0.059 A 
ATOM     69  F   UNL A   1      41.252  35.740  35.793  1.00  0.00    -0.206 F 
ATOM     70  C   UNL A   1      39.515  36.180  38.933  1.00  0.00     0.060 A 
BRANCH  70  71
ATOM     71  S   UNL A   1      39.295  37.430  40.218  1.00  0.00     0.124 S 
ATOM     72  O   UNL A   1      38.853  36.615  41.345  1.00  0.00    -0.237 OA
ATOM     73  O   UNL A   1      40.632  38.002  40.335  1.00  0.00    -0.237 OA
ATOM     74  O   UNL A   1      38.286  38.322  39.652  1.00  0.00    -0.744 OA
ENDBRANCH  70  71
ENDBRANCH  38  63
ENDBRANCH  12  13
ENDBRANCH   5   7
ENDBRANCH   2   3
ENDBRANCH   1   2
BRANCH   1  75
ATOM     75  C   UNL A   1      37.633  23.674  25.934  1.00  0.00     0.023 C 
BRANCH  75  76
ATOM     76  C   UNL A   1      36.266  23.042  25.693  1.00  0.00     0.116 C 
BRANCH  76  77
ATOM     77  N   UNL A   1      35.527  22.806  26.923  1.00  0.00    -0.352 N 
ATOM     78  C   UNL A   1      34.249  22.319  27.057  1.00  0.00     0.255 C 
ATOM     79  H   UNL A   1      35.999  23.020  27.760  1.00  0.00     0.163 HD
ATOM     80  O   UNL A   1      33.728  22.194  28.161  1.00  0.00    -0.269 OA
BRANCH  78  81
ATOM     81  C   UNL A   1      33.467  22.026  25.845  1.00  0.00     0.083 A 
ATOM     82  C   UNL A   1      32.524  22.980  25.445  1.00  0.00     0.046 A 
ATOM     83  C   UNL A   1      33.690  20.882  25.073  1.00  0.00     0.128 A 
ATOM     84  C   UNL A   1      31.838  22.823  24.243  1.00  0.00     0.064 A 
ATOM     85  C   UNL A   1      33.019  20.723  23.864  1.00  0.00     0.049 A 
ATOM     86  C   UNL A   1      32.116  21.704  23.444  1.00  0.00     0.032 A 
BRANCH  83  87
ATOM     87  O   UNL A   1      34.596  19.943  25.477  1.00  0.00    -0.507 OA
ATOM     88  H   UNL A   1      35.263  20.172  26.094  1.00  0.00     0.293 HD
ENDBRANCH  83  87
BRANCH  84  89
ATOM     89  N   UNL A   1      30.954  23.839  23.844  1.00  0.00    -0.256 NA
ATOM     90  C   UNL A   1      31.295  25.066  24.063  1.00  0.00     0.119 C 
BRANCH  90  91
ATOM     91  C   UNL A   1      30.434  26.196  23.663  1.00  0.00    -0.007 A 
ATOM     92  C   UNL A   1      30.986  27.211  22.877  1.00  0.00     0.017 A 
ATOM     93  C   UNL A   1      29.089  26.245  24.047  1.00  0.00     0.017 A 
ATOM     94  C   UNL A   1      30.189  28.282  22.465  1.00  0.00     0.086 A 
ATOM     95  C   UNL A   1      28.283  27.310  23.632  1.00  0.00     0.086 A 
ATOM     96  C   UNL A   1      28.837  28.324  22.839  1.00  0.00     0.269 A 
BRANCH  96  97
ATOM     97  N   UNL A   1      27.997  29.440  22.388  1.00  0.00     0.062 N 
ATOM     98  O   UNL A   1      28.312  30.009  21.332  1.00  0.00    -0.258 OA
ATOM     99  O   UNL A   1      27.021  29.749  23.086  1.00  0.00    -0.258 OA
ENDBRANCH  96  97
ENDBRANCH  90  91
ENDBRANCH  84  89
ENDBRANCH  78  81
ENDBRANCH  76  77
ENDBRANCH  75  76
ENDBRANCH   1  75
TORSDOF 18
ENDMDL
MODEL 2
REMARK VINA RESULT:     -12.4      3.071      5.251
REMARK SMILES O=C(NCCCCNC(=O)c1cc(/N=C/c2ccc([N+](=O)[O-])cc2)ccc1O)c1ccc(-c2c3nc(c(-c4c(F)cc(S(=O)(=O)[O-])cc4F)c4ccc([nH]4)c(-c4c(F)cc(S(=O)(=O)[O-])cc4F)c4nc(c(-c5c(F)cc(S(=O)(=O)[O-])cc5F)c5ccc2[nH]5)C=C4)C=C3)cc1
REMARK SMILES IDX 5 1 4 2 3 3 1 4 2 5 29 7 30 8 94 9 31 10 93 11 32 12 33 13
REMARK SMILES IDX 34 14 87 15 35 16 92 17 86 18 88 19 36 20 91 21 85 22 84 23
REMARK SMILES IDX 37 25 71 26 50 27 70 28 51 29 54 30 69 31 89 32 52 33 53 34
REMARK SMILES IDX 68 36 90 37 55 38 38 39 39 40 48 41 40 42 41 43 47 44 49 45
REMARK SMILES IDX 42 46 43 47 44 48 45 49 46 50 72 51 73 52 82 53 74 54 75 55
REMARK SMILES IDX 81 56 83 57 76 58 77 59 78 60 79 61 80 62 56 63 57 64 66 65
REMARK SMILES IDX 58 66 59 67 65 68 67 69 60 70 61 71 62 72 63 73 64 74 6 75
REMARK SMILES IDX 7 76 8 77 9 78 10 80 11 81 12 82 27 83 13 84 26 85 25 86
REMARK SMILES IDX 28 87 14 89 15 90 16 91 17 92 24 93 18 94 23 95 19 96 20 97
REMARK SMILES IDX 21 98 22 99
REMARK H PARENT 3 6 88 24 54 35 8 79 28 88
REMARK Flexibility Score: inf
ROOT
ATOM      1  C   UNL A   1      44.696  23.401  27.136  1.00  0.00     0.023 C 
ENDROOT
BRANCH   1   2
ATOM      2  C   UNL A   1      43.455  24.231  27.433  1.00  0.00     0.116 C 
BRANCH   2   3
ATOM      3  N   UNL A   1      42.696  24.581  26.239  1.00  0.00    -0.352 N 
ATOM      4  O   UNL A   1      41.088  25.597  25.024  1.00  0.00    -0.269 OA
ATOM      5  C   UNL A   1      41.704  25.521  26.083  1.00  0.00     0.251 C 
ATOM      6  H   UNL A   1      42.925  24.072  25.429  1.00  0.00     0.163 HD
BRANCH   5   7
ATOM      7  C   UNL A   1      41.360  26.416  27.212  1.00  0.00     0.039 A 
ATOM      8  C   UNL A   1      42.019  27.634  27.374  1.00  0.00     0.014 A 
ATOM      9  C   UNL A   1      40.387  26.017  28.134  1.00  0.00     0.014 A 
ATOM     10  C   UNL A   1      41.834  28.367  28.540  1.00  0.00     0.010 A 
ATOM     11  C   UNL A   1      40.133  26.806  29.262  1.00  0.00     0.010 A 
ATOM     12  C   UNL A   1      40.884  27.967  29.495  1.00  0.00    -0.014 A 
BRANCH  12  13
ATOM     13  C   UNL A   1      40.679  28.819  30.696  1.00  0.00     0.031 A 
ATOM     14  C   UNL A   1      41.582  28.721  31.896  1.00  0.00     0.074 A 
ATOM     15  C   UNL A   1      39.698  29.744  30.662  1.00  0.00     0.049 A 
ATOM     16  N   UNL A   1      41.577  29.441  32.988  1.00  0.00    -0.248 NA
ATOM     17  C   UNL A   1      42.620  27.677  31.874  1.00  0.00     0.031 C 
ATOM     18  C   UNL A   1      38.743  29.915  29.563  1.00  0.00     0.029 A 
ATOM     19  N   UNL A   1      39.360  30.732  31.551  1.00  0.00    -0.354 N 
ATOM     20  C   UNL A   1      42.597  28.938  33.787  1.00  0.00     0.074 A 
ATOM     21  C   UNL A   1      43.184  27.828  33.066  1.00  0.00     0.031 C 
ATOM     22  C   UNL A   1      37.967  30.979  29.815  1.00  0.00     0.029 A 
ATOM     23  C   UNL A   1      38.331  31.531  31.114  1.00  0.00     0.049 A 
ATOM     24  H   UNL A   1      39.811  30.855  32.416  1.00  0.00     0.167 HD
ATOM     25  C   UNL A   1      43.014  29.370  35.003  1.00  0.00     0.037 A 
ATOM     26  C   UNL A   1      37.738  32.592  31.695  1.00  0.00     0.037 A 
ATOM     27  C   UNL A   1      42.433  30.484  35.710  1.00  0.00     0.049 A 
ATOM     28  C   UNL A   1      38.233  33.060  33.032  1.00  0.00     0.074 A 
ATOM     29  C   UNL A   1      42.784  30.997  36.948  1.00  0.00     0.029 A 
ATOM     30  N   UNL A   1      41.387  31.265  35.239  1.00  0.00    -0.354 N 
ATOM     31  N   UNL A   1      39.203  32.572  33.766  1.00  0.00    -0.248 NA
ATOM     32  C   UNL A   1      37.555  34.222  33.618  1.00  0.00     0.031 C 
ATOM     33  C   UNL A   1      41.933  32.072  37.236  1.00  0.00     0.029 A 
ATOM     34  C   UNL A   1      41.077  32.251  36.163  1.00  0.00     0.049 A 
ATOM     35  H   UNL A   1      40.932  31.138  34.376  1.00  0.00     0.167 HD
ATOM     36  C   UNL A   1      39.251  33.365  34.906  1.00  0.00     0.074 A 
ATOM     37  C   UNL A   1      38.234  34.386  34.745  1.00  0.00     0.031 C 
ATOM     38  C   UNL A   1      40.055  33.252  35.990  1.00  0.00     0.037 A 
BRANCH  25  39
ATOM     39  C   UNL A   1      44.154  28.637  35.654  1.00  0.00     0.058 A 
ATOM     40  C   UNL A   1      43.933  27.540  36.501  1.00  0.00     0.135 A 
ATOM     41  C   UNL A   1      45.486  28.998  35.386  1.00  0.00     0.135 A 
ATOM     42  F   UNL A   1      42.680  27.161  36.802  1.00  0.00    -0.206 F 
ATOM     43  C   UNL A   1      44.989  26.836  37.073  1.00  0.00     0.059 A 
ATOM     44  C   UNL A   1      46.558  28.296  35.931  1.00  0.00     0.059 A 
ATOM     45  F   UNL A   1      45.755  30.039  34.584  1.00  0.00    -0.206 F 
ATOM     46  C   UNL A   1      46.299  27.221  36.782  1.00  0.00     0.060 A 
BRANCH  46  47
ATOM     47  S   UNL A   1      47.659  26.291  37.520  1.00  0.00     0.124 S 
ATOM     48  O   UNL A   1      46.942  25.209  38.188  1.00  0.00    -0.237 OA
ATOM     49  O   UNL A   1      48.444  25.903  36.353  1.00  0.00    -0.237 OA
ATOM     50  O   UNL A   1      48.296  27.262  38.405  1.00  0.00    -0.744 OA
ENDBRANCH  46  47
ENDBRANCH  25  39
BRANCH  26  51
ATOM     51  C   UNL A   1      36.607  33.267  31.010  1.00  0.00     0.058 A 
ATOM     52  C   UNL A   1      35.288  33.115  31.460  1.00  0.00     0.135 A 
ATOM     53  C   UNL A   1      36.833  34.102  29.906  1.00  0.00     0.135 A 
ATOM     54  F   UNL A   1      35.025  32.325  32.512  1.00  0.00    -0.206 F 
ATOM     55  C   UNL A   1      34.228  33.756  30.829  1.00  0.00     0.059 A 
ATOM     56  C   UNL A   1      35.792  34.775  29.274  1.00  0.00     0.059 A 
ATOM     57  F   UNL A   1      38.080  34.296  29.451  1.00  0.00    -0.206 F 
ATOM     58  C   UNL A   1      34.491  34.585  29.737  1.00  0.00     0.060 A 
BRANCH  58  59
ATOM     59  S   UNL A   1      33.120  35.459  28.950  1.00  0.00     0.124 S 
ATOM     60  O   UNL A   1      32.511  34.396  28.160  1.00  0.00    -0.237 OA
ATOM     61  O   UNL A   1      32.348  35.925  30.098  1.00  0.00    -0.237 OA
ATOM     62  O   UNL A   1      33.790  36.510  28.190  1.00  0.00    -0.744 OA
ENDBRANCH  58  59
ENDBRANCH  26  51
BRANCH  38  63
ATOM     63  C   UNL A   1      39.863  34.266  37.081  1.00  0.00     0.058 A 
ATOM     64  C   UNL A   1      39.053  33.995  38.195  1.00  0.00     0.135 A 
ATOM     65  C   UNL A   1      40.499  35.515  37.017  1.00  0.00     0.135 A 
ATOM     66  F   UNL A   1      38.417  32.816  38.298  1.00  0.00    -0.206 F 
ATOM     67  C   UNL A   1      38.852  34.942  39.193  1.00  0.00     0.059 A 
ATOM     68  C   UNL A   1      40.329  36.469  38.015  1.00  0.00     0.059 A 
ATOM     69  F   UNL A   1      41.291  35.819  35.977  1.00  0.00    -0.206 F 
ATOM     70  C   UNL A   1      39.489  36.179  39.090  1.00  0.00     0.060 A 
BRANCH  70  71
ATOM     71  S   UNL A   1      39.225  37.403  40.391  1.00  0.00     0.124 S 
ATOM     72  O   UNL A   1      38.693  36.575  41.468  1.00  0.00    -0.237 OA
ATOM     73  O   UNL A   1      40.568  37.934  40.603  1.00  0.00    -0.237 OA
ATOM     74  O   UNL A   1      38.277  38.337  39.788  1.00  0.00    -0.744 OA
ENDBRANCH  70  71
ENDBRANCH  38  63
ENDBRANCH  12  13
ENDBRANCH   5   7
ENDBRANCH   2   3
ENDBRANCH   1   2
BRANCH   1  75
ATOM     75  C   UNL A   1      44.791  22.851  25.716  1.00  0.00     0.023 C 
BRANCH  75  76
ATOM     76  C   UNL A   1      45.802  21.727  25.520  1.00  0.00     0.116 C 
BRANCH  76  77
ATOM     77  N   UNL A   1      45.571  20.963  24.305  1.00  0.00    -0.352 N 
ATOM     78  C   UNL A   1      44.685  19.930  24.114  1.00  0.00     0.255 C 
ATOM     79  H   UNL A   1      46.114  21.218  23.524  1.00  0.00     0.163 HD
ATOM     80  O   UNL A   1      44.610  19.347  23.037  1.00  0.00    -0.269 OA
BRANCH  78  81
ATOM     81  C   UNL A   1      43.878  19.464  25.254  1.00  0.00     0.083 A 
ATOM     82  C   UNL A   1      42.669  20.127  25.496  1.00  0.00     0.046 A 
ATOM     83  C   UNL A   1      44.251  18.363  26.030  1.00  0.00     0.128 A 
ATOM     84  C   UNL A   1      41.801  19.660  26.480  1.00  0.00     0.064 A 
ATOM     85  C   UNL A   1      43.385  17.881  27.006  1.00  0.00     0.049 A 
ATOM     86  C   UNL A   1      42.155  18.516  27.210  1.00  0.00     0.032 A 
BRANCH  83  87
ATOM     87  O   UNL A   1      45.441  17.732  25.804  1.00  0.00    -0.507 OA
ATOM     88  H   UNL A   1      45.458  16.920  25.336  1.00  0.00     0.293 HD
ENDBRANCH  83  87
BRANCH  84  89
ATOM     89  N   UNL A   1      40.567  20.310  26.641  1.00  0.00    -0.256 NA
ATOM     90  C   UNL A   1      40.185  21.133  25.720  1.00  0.00     0.119 C 
BRANCH  90  91
ATOM     91  C   UNL A   1      38.897  21.847  25.801  1.00  0.00    -0.007 A 
ATOM     92  C   UNL A   1      37.740  21.190  25.375  1.00  0.00     0.017 A 
ATOM     93  C   UNL A   1      38.829  23.150  26.308  1.00  0.00     0.017 A 
ATOM     94  C   UNL A   1      36.502  21.834  25.461  1.00  0.00     0.086 A 
ATOM     95  C   UNL A   1      37.593  23.798  26.404  1.00  0.00     0.086 A 
ATOM     96  C   UNL A   1      36.433  23.135  25.982  1.00  0.00     0.269 A 
BRANCH  96  97
ATOM     97  N   UNL A   1      35.129  23.802  26.089  1.00  0.00     0.062 N 
ATOM     98  O   UNL A   1      34.257  23.254  26.779  1.00  0.00    -0.258 OA
ATOM     99  O   UNL A   1      34.976  24.874  25.488  1.00  0.00    -0.258 OA
ENDBRANCH  96  97
ENDBRANCH  90  91
ENDBRANCH  84  89
ENDBRANCH  78  81
ENDBRANCH  76  77
ENDBRANCH  75  76
ENDBRANCH   1  75
TORSDOF 18
ENDMDL
MODEL 3
REMARK VINA RESULT:     -12.3      5.080     10.372
REMARK SMILES O=C(NCCCCNC(=O)c1cc(/N=C/c2ccc([N+](=O)[O-])cc2)ccc1O)c1ccc(-c2c3nc(c(-c4c(F)cc(S(=O)(=O)[O-])cc4F)c4ccc([nH]4)c(-c4c(F)cc(S(=O)(=O)[O-])cc4F)c4nc(c(-c5c(F)cc(S(=O)(=O)[O-])cc5F)c5ccc2[nH]5)C=C4)C=C3)cc1
REMARK SMILES IDX 5 1 4 2 3 3 1 4 2 5 29 7 30 8 94 9 31 10 93 11 32 12 33 13
REMARK SMILES IDX 34 14 87 15 35 16 92 17 86 18 88 19 36 20 91 21 85 22 84 23
REMARK SMILES IDX 37 25 71 26 50 27 70 28 51 29 54 30 69 31 89 32 52 33 53 34
REMARK SMILES IDX 68 36 90 37 55 38 38 39 39 40 48 41 40 42 41 43 47 44 49 45
REMARK SMILES IDX 42 46 43 47 44 48 45 49 46 50 72 51 73 52 82 53 74 54 75 55
REMARK SMILES IDX 81 56 83 57 76 58 77 59 78 60 79 61 80 62 56 63 57 64 66 65
REMARK SMILES IDX 58 66 59 67 65 68 67 69 60 70 61 71 62 72 63 73 64 74 6 75
REMARK SMILES IDX 7 76 8 77 9 78 10 80 11 81 12 82 27 83 13 84 26 85 25 86
REMARK SMILES IDX 28 87 14 89 15 90 16 91 17 92 24 93 18 94 23 95 19 96 20 97
REMARK SMILES IDX 21 98 22 99
REMARK H PARENT 3 6 88 24 54 35 8 79 28 88
REMARK Flexibility Score: inf
ROOT
ATOM      1  C   UNL A   1      33.721  28.247  25.625  1.00  0.00     0.023 C 
ENDROOT
BRANCH   1   2
ATOM      2  C   UNL A   1      33.896  28.361  27.134  1.00  0.00     0.116 C 
BRANCH   2   3
ATOM      3  N   UNL A   1      33.752  29.723  27.630  1.00  0.00    -0.352 N 
ATOM      4  O   UNL A   1      34.335  31.605  28.731  1.00  0.00    -0.269 OA
ATOM      5  C   UNL A   1      34.672  30.516  28.276  1.00  0.00     0.251 C 
ATOM      6  H   UNL A   1      32.870  30.135  27.482  1.00  0.00     0.163 HD
BRANCH   5   7
ATOM      7  C   UNL A   1      36.061  30.032  28.449  1.00  0.00     0.039 A 
ATOM      8  C   UNL A   1      36.484  29.522  29.676  1.00  0.00     0.014 A 
ATOM      9  C   UNL A   1      36.957  30.118  27.378  1.00  0.00     0.014 A 
ATOM     10  C   UNL A   1      37.833  29.262  29.885  1.00  0.00     0.010 A 
ATOM     11  C   UNL A   1      38.299  29.764  27.564  1.00  0.00     0.010 A 
ATOM     12  C   UNL A   1      38.756  29.372  28.831  1.00  0.00    -0.014 A 
BRANCH  12  13
ATOM     13  C   UNL A   1      40.177  29.021  29.090  1.00  0.00     0.031 A 
ATOM     14  C   UNL A   1      40.737  27.676  28.713  1.00  0.00     0.074 A 
ATOM     15  C   UNL A   1      40.984  29.967  29.610  1.00  0.00     0.049 A 
ATOM     16  N   UNL A   1      41.969  27.243  28.808  1.00  0.00    -0.248 NA
ATOM     17  C   UNL A   1      39.797  26.683  28.168  1.00  0.00     0.031 C 
ATOM     18  C   UNL A   1      40.548  31.301  30.039  1.00  0.00     0.029 A 
ATOM     19  N   UNL A   1      42.336  29.973  29.838  1.00  0.00    -0.354 N 
ATOM     20  C   UNL A   1      41.954  25.932  28.346  1.00  0.00     0.074 A 
ATOM     21  C   UNL A   1      40.583  25.627  27.997  1.00  0.00     0.031 C 
ATOM     22  C   UNL A   1      41.618  32.012  30.421  1.00  0.00     0.029 A 
ATOM     23  C   UNL A   1      42.805  31.172  30.317  1.00  0.00     0.049 A 
ATOM     24  H   UNL A   1      42.914  29.194  29.674  1.00  0.00     0.167 HD
ATOM     25  C   UNL A   1      42.991  25.068  28.213  1.00  0.00     0.037 A 
ATOM     26  C   UNL A   1      44.053  31.558  30.645  1.00  0.00     0.037 A 
ATOM     27  C   UNL A   1      44.357  25.383  28.551  1.00  0.00     0.049 A 
ATOM     28  C   UNL A   1      45.184  30.588  30.469  1.00  0.00     0.074 A 
ATOM     29  C   UNL A   1      45.477  24.574  28.455  1.00  0.00     0.029 A 
ATOM     30  N   UNL A   1      44.791  26.606  29.042  1.00  0.00    -0.354 N 
ATOM     31  N   UNL A   1      45.147  29.354  30.025  1.00  0.00    -0.248 NA
ATOM     32  C   UNL A   1      46.524  31.059  30.837  1.00  0.00     0.031 C 
ATOM     33  C   UNL A   1      46.585  25.301  28.911  1.00  0.00     0.029 A 
ATOM     34  C   UNL A   1      46.160  26.572  29.257  1.00  0.00     0.049 A 
ATOM     35  H   UNL A   1      44.213  27.384  29.212  1.00  0.00     0.167 HD
ATOM     36  C   UNL A   1      46.459  28.900  30.063  1.00  0.00     0.074 A 
ATOM     37  C   UNL A   1      47.269  30.003  30.541  1.00  0.00     0.031 C 
ATOM     38  C   UNL A   1      46.948  27.678  29.742  1.00  0.00     0.037 A 
BRANCH  25  39
ATOM     39  C   UNL A   1      42.693  23.693  27.681  1.00  0.00     0.058 A 
ATOM     40  C   UNL A   1      42.633  23.437  26.302  1.00  0.00     0.135 A 
ATOM     41  C   UNL A   1      42.521  22.607  28.556  1.00  0.00     0.135 A 
ATOM     42  F   UNL A   1      42.777  24.441  25.422  1.00  0.00    -0.206 F 
ATOM     43  C   UNL A   1      42.397  22.158  25.809  1.00  0.00     0.059 A 
ATOM     44  C   UNL A   1      42.304  21.315  28.085  1.00  0.00     0.059 A 
ATOM     45  F   UNL A   1      42.568  22.795  29.884  1.00  0.00    -0.206 F 
ATOM     46  C   UNL A   1      42.233  21.102  26.708  1.00  0.00     0.060 A 
BRANCH  46  47
ATOM     47  S   UNL A   1      41.941  19.445  26.053  1.00  0.00     0.124 S 
ATOM     48  O   UNL A   1      42.413  18.610  27.154  1.00  0.00    -0.237 OA
ATOM     49  O   UNL A   1      40.499  19.443  25.831  1.00  0.00    -0.237 OA
ATOM     50  O   UNL A   1      42.758  19.408  24.843  1.00  0.00    -0.744 OA
ENDBRANCH  46  47
ENDBRANCH  25  39
BRANCH  26  51
ATOM     51  C   UNL A   1      44.283  32.924  31.180  1.00  0.00     0.058 A 
ATOM     52  C   UNL A   1      44.487  34.015  30.325  1.00  0.00     0.135 A 
ATOM     53  C   UNL A   1      44.275  33.164  32.562  1.00  0.00     0.135 A 
ATOM     54  F   UNL A   1      44.505  33.833  28.996  1.00  0.00    -0.206 F 
ATOM     55  C   UNL A   1      44.690  35.298  30.822  1.00  0.00     0.059 A 
ATOM     56  C   UNL A   1      44.449  34.442  33.082  1.00  0.00     0.059 A 
ATOM     57  F   UNL A   1      44.063  32.154  33.420  1.00  0.00    -0.206 F 
ATOM     58  C   UNL A   1      44.668  35.501  32.203  1.00  0.00     0.060 A 
BRANCH  58  59
ATOM     59  S   UNL A   1      44.879  37.175  32.846  1.00  0.00     0.124 S 
ATOM     60  O   UNL A   1      46.167  37.547  32.274  1.00  0.00    -0.237 OA
ATOM     61  O   UNL A   1      43.714  37.867  32.303  1.00  0.00    -0.237 OA
ATOM     62  O   UNL A   1      44.861  36.979  34.293  1.00  0.00    -0.744 OA
ENDBRANCH  58  59
ENDBRANCH  26  51
BRANCH  38  63
ATOM     63  C   UNL A   1      48.428  27.480  29.896  1.00  0.00     0.058 A 
ATOM     64  C   UNL A   1      49.315  27.752  28.842  1.00  0.00     0.135 A 
ATOM     65  C   UNL A   1      48.966  27.022  31.108  1.00  0.00     0.135 A 
ATOM     66  F   UNL A   1      48.847  28.185  27.660  1.00  0.00    -0.206 F 
ATOM     67  C   UNL A   1      50.683  27.544  28.973  1.00  0.00     0.059 A 
ATOM     68  C   UNL A   1      50.334  26.827  31.268  1.00  0.00     0.059 A 
ATOM     69  F   UNL A   1      48.161  26.756  32.148  1.00  0.00    -0.206 F 
ATOM     70  C   UNL A   1      51.183  27.074  30.189  1.00  0.00     0.060 A 
BRANCH  70  71
ATOM     71  S   UNL A   1      52.961  26.808  30.352  1.00  0.00     0.124 S 
ATOM     72  O   UNL A   1      53.329  26.445  28.988  1.00  0.00    -0.237 OA
ATOM     73  O   UNL A   1      53.434  28.109  30.812  1.00  0.00    -0.237 OA
ATOM     74  O   UNL A   1      53.052  25.732  31.336  1.00  0.00    -0.744 OA
ENDBRANCH  70  71
ENDBRANCH  38  63
ENDBRANCH  12  13
ENDBRANCH   5   7
ENDBRANCH   2   3
ENDBRANCH   1   2
BRANCH   1  75
ATOM     75  C   UNL A   1      33.161  29.488  24.937  1.00  0.00     0.023 C 
BRANCH  75  76
ATOM     76  C   UNL A   1      31.639  29.590  24.918  1.00  0.00     0.116 C 
BRANCH  76  77
ATOM     77  N   UNL A   1      31.114  29.978  23.620  1.00  0.00    -0.352 N 
ATOM     78  C   UNL A   1      30.413  29.202  22.728  1.00  0.00     0.255 C 
ATOM     79  H   UNL A   1      31.280  30.909  23.346  1.00  0.00     0.163 HD
ATOM     80  O   UNL A   1      30.049  29.648  21.645  1.00  0.00    -0.269 OA
BRANCH  78  81
ATOM     81  C   UNL A   1      30.173  27.786  23.051  1.00  0.00     0.083 A 
ATOM     82  C   UNL A   1      31.282  26.933  23.053  1.00  0.00     0.046 A 
ATOM     83  C   UNL A   1      28.909  27.308  23.411  1.00  0.00     0.128 A 
ATOM     84  C   UNL A   1      31.145  25.610  23.468  1.00  0.00     0.064 A 
ATOM     85  C   UNL A   1      28.765  25.992  23.840  1.00  0.00     0.049 A 
ATOM     86  C   UNL A   1      29.886  25.157  23.889  1.00  0.00     0.032 A 
BRANCH  83  87
ATOM     87  O   UNL A   1      27.825  28.138  23.388  1.00  0.00    -0.507 OA
ATOM     88  H   UNL A   1      26.965  27.789  23.517  1.00  0.00     0.293 HD
ENDBRANCH  83  87
BRANCH  84  89
ATOM     89  N   UNL A   1      32.297  24.808  23.524  1.00  0.00    -0.256 NA
ATOM     90  C   UNL A   1      32.965  24.775  24.630  1.00  0.00     0.119 C 
BRANCH  90  91
ATOM     91  C   UNL A   1      34.177  23.948  24.782  1.00  0.00    -0.007 A 
ATOM     92  C   UNL A   1      34.829  23.500  23.630  1.00  0.00     0.017 A 
ATOM     93  C   UNL A   1      34.676  23.630  26.050  1.00  0.00     0.017 A 
ATOM     94  C   UNL A   1      35.992  22.734  23.742  1.00  0.00     0.086 A 
ATOM     95  C   UNL A   1      35.844  22.870  26.171  1.00  0.00     0.086 A 
ATOM     96  C   UNL A   1      36.500  22.426  25.014  1.00  0.00     0.269 A 
BRANCH  96  97
ATOM     97  N   UNL A   1      37.732  21.638  25.130  1.00  0.00     0.062 N 
ATOM     98  O   UNL A   1      37.734  20.497  24.644  1.00  0.00    -0.258 OA
ATOM     99  O   UNL A   1      38.700  22.156  25.705  1.00  0.00    -0.258 OA
ENDBRANCH  96  97
ENDBRANCH  90  91
ENDBRANCH  84  89
ENDBRANCH  78  81
ENDBRANCH  76  77
ENDBRANCH  75  76
ENDBRANCH   1  75
TORSDOF 18
ENDMDL
