MODEL 1
REMARK VINA RESULT:     -12.2      0.000      0.000
REMARK SMILES CC[N@H+]1C[C@@H](C(=O)NCCCCNC(=O)c2ccc(-c3c4nc(c(-c5c(F)cc(S(=O)(=O)[O-])cc5F)c5ccc([nH]5)c(-c5c(F)cc(S(=O)(=O)[O-])cc5F)c5nc(c(-c6c(F)cc(S(=O)(=O)[O-])cc6F)c6ccc3[nH]6)C=C5)C=C4)cc2)C[C@@H](C(=O)Nc2ccc(F)cc2)C1
REMARK SMILES IDX 11 1 10 2 9 3 8 4 6 5 7 6 5 8 3 9 4 10 94 11 83 13 82 14
REMARK SMILES IDX 2 15 1 16 84 17 85 18 86 19 87 21 88 22 93 23 89 24 92 25
REMARK SMILES IDX 90 26 91 27 12 28 13 29 14 30 15 32 16 33 17 34 81 35 18 36
REMARK SMILES IDX 80 37 19 38 20 39 21 40 74 41 22 42 79 43 73 44 75 45 23 46
REMARK SMILES IDX 78 47 72 48 71 49 24 51 58 52 37 53 57 54 38 55 41 56 56 57
REMARK SMILES IDX 76 58 39 59 40 60 55 62 77 63 42 64 25 65 26 66 35 67 27 68
REMARK SMILES IDX 28 69 34 70 36 71 29 72 30 73 31 74 32 75 33 76 59 77 60 78
REMARK SMILES IDX 69 79 61 80 62 81 68 82 70 83 63 84 64 85 65 86 66 87 67 88
REMARK SMILES IDX 43 89 44 90 53 91 45 92 46 93 52 94 54 95 47 96 48 97 49 98
REMARK SMILES IDX 50 99 51 100
REMARK H PARENT 8 7 3 12 86 20 13 31 75 50 41 61
REMARK Flexibility Score: inf
ROOT
ATOM      1  C   UNL A   1      40.011  22.425  27.412  1.00  0.00     0.023 C 
ENDROOT
BRANCH   1   2
ATOM      2  C   UNL A   1      39.464  21.793  26.142  1.00  0.00     0.023 C 
BRANCH   2   3
ATOM      3  C   UNL A   1      37.984  22.043  25.869  1.00  0.00     0.116 C 
BRANCH   3   4
ATOM      4  N   UNL A   1      37.704  22.308  24.465  1.00  0.00    -0.356 N 
ATOM      5  C   UNL A   1      36.575  22.757  23.841  1.00  0.00     0.228 C 
ATOM      6  O   UNL A   1      36.635  22.970  22.627  1.00  0.00    -0.275 OA
ATOM      7  H   UNL A   1      38.461  22.134  23.859  1.00  0.00     0.163 HD
BRANCH   5   8
ATOM      8  C   UNL A   1      35.265  22.962  24.596  1.00  0.00     0.134 C 
ATOM      9  N   UNL A   1      33.063  21.892  25.079  1.00  0.00    -0.334 N 
ATOM     10  C   UNL A   1      34.440  21.683  24.613  1.00  0.00     0.275 C 
ATOM     11  C   UNL A   1      32.388  22.959  24.299  1.00  0.00     0.275 C 
ATOM     12  H   UNL A   1      33.121  22.184  26.055  1.00  0.00     0.348 HD
ATOM     13  C   UNL A   1      33.083  24.337  24.396  1.00  0.00     0.135 C 
ATOM     14  C   UNL A   1      34.556  24.199  24.061  1.00  0.00     0.038 C 
BRANCH   9  15
ATOM     15  C   UNL A   1      32.268  20.646  25.000  1.00  0.00     0.258 C 
ATOM     16  C   UNL A   1      32.536  19.784  23.766  1.00  0.00     0.071 C 
ENDBRANCH   9  15
BRANCH  13  17
ATOM     17  C   UNL A   1      32.301  25.375  23.537  1.00  0.00     0.233 C 
ATOM     18  O   UNL A   1      31.975  25.107  22.374  1.00  0.00    -0.274 OA
ATOM     19  N   UNL A   1      31.752  26.513  24.082  1.00  0.00    -0.326 N 
ATOM     20  H   UNL A   1      30.901  26.797  23.677  1.00  0.00     0.169 HD
BRANCH  19  21
ATOM     21  C   UNL A   1      32.212  27.332  25.122  1.00  0.00     0.041 A 
ATOM     22  C   UNL A   1      33.464  27.932  25.028  1.00  0.00     0.029 A 
ATOM     23  C   UNL A   1      31.456  27.507  26.282  1.00  0.00     0.029 A 
ATOM     24  C   UNL A   1      33.859  28.857  26.000  1.00  0.00     0.041 A 
ATOM     25  C   UNL A   1      31.827  28.453  27.238  1.00  0.00     0.041 A 
ATOM     26  C   UNL A   1      33.017  29.142  27.073  1.00  0.00     0.123 A 
ATOM     27  F   UNL A   1      33.366  30.083  27.959  1.00  0.00    -0.207 F 
ENDBRANCH  19  21
ENDBRANCH  13  17
ENDBRANCH   5   8
ENDBRANCH   3   4
ENDBRANCH   2   3
ENDBRANCH   1   2
BRANCH   1  28
ATOM     28  C   UNL A   1      41.399  23.024  27.267  1.00  0.00     0.116 C 
BRANCH  28  29
ATOM     29  N   UNL A   1      41.515  23.907  26.114  1.00  0.00    -0.352 N 
ATOM     30  C   UNL A   1      41.443  25.281  26.063  1.00  0.00     0.251 C 
ATOM     31  H   UNL A   1      41.667  23.458  25.250  1.00  0.00     0.163 HD
ATOM     32  O   UNL A   1      41.410  25.858  24.987  1.00  0.00    -0.269 OA
BRANCH  30  33
ATOM     33  C   UNL A   1      41.368  26.040  27.331  1.00  0.00     0.039 A 
ATOM     34  C   UNL A   1      42.478  26.775  27.750  1.00  0.00     0.014 A 
ATOM     35  C   UNL A   1      40.180  26.070  28.064  1.00  0.00     0.014 A 
ATOM     36  C   UNL A   1      42.365  27.612  28.862  1.00  0.00     0.010 A 
ATOM     37  C   UNL A   1      40.040  26.977  29.106  1.00  0.00     0.010 A 
ATOM     38  C   UNL A   1      41.132  27.755  29.519  1.00  0.00    -0.014 A 
BRANCH  38  39
ATOM     39  C   UNL A   1      40.953  28.706  30.645  1.00  0.00     0.031 A 
ATOM     40  C   UNL A   1      41.788  28.554  31.889  1.00  0.00     0.074 A 
ATOM     41  C   UNL A   1      39.982  29.640  30.586  1.00  0.00     0.049 A 
ATOM     42  N   UNL A   1      41.713  29.206  33.019  1.00  0.00    -0.248 NA
ATOM     43  C   UNL A   1      42.820  27.503  31.872  1.00  0.00     0.031 C 
ATOM     44  C   UNL A   1      39.064  29.843  29.462  1.00  0.00     0.029 A 
ATOM     45  N   UNL A   1      39.593  30.586  31.503  1.00  0.00    -0.354 N 
ATOM     46  C   UNL A   1      42.661  28.627  33.854  1.00  0.00     0.074 A 
ATOM     47  C   UNL A   1      43.265  27.538  33.120  1.00  0.00     0.031 C 
ATOM     48  C   UNL A   1      38.234  30.859  29.747  1.00  0.00     0.029 A 
ATOM     49  C   UNL A   1      38.531  31.355  31.087  1.00  0.00     0.049 A 
ATOM     50  H   UNL A   1      40.031  30.702  32.376  1.00  0.00     0.167 HD
ATOM     51  C   UNL A   1      43.013  28.987  35.111  1.00  0.00     0.037 A 
ATOM     52  C   UNL A   1      37.864  32.341  31.719  1.00  0.00     0.037 A 
ATOM     53  C   UNL A   1      42.442  30.103  35.814  1.00  0.00     0.049 A 
ATOM     54  C   UNL A   1      38.296  32.740  33.105  1.00  0.00     0.074 A 
ATOM     55  C   UNL A   1      42.794  30.609  37.053  1.00  0.00     0.029 A 
ATOM     56  N   UNL A   1      41.399  30.887  35.341  1.00  0.00    -0.354 N 
ATOM     57  N   UNL A   1      39.253  32.236  33.847  1.00  0.00    -0.248 NA
ATOM     58  C   UNL A   1      37.562  33.844  33.738  1.00  0.00     0.031 C 
ATOM     59  C   UNL A   1      41.935  31.672  37.349  1.00  0.00     0.029 A 
ATOM     60  C   UNL A   1      41.080  31.859  36.275  1.00  0.00     0.049 A 
ATOM     61  H   UNL A   1      40.954  30.770  34.472  1.00  0.00     0.167 HD
ATOM     62  C   UNL A   1      39.253  32.980  35.023  1.00  0.00     0.074 A 
ATOM     63  C   UNL A   1      38.211  33.975  34.887  1.00  0.00     0.031 C 
ATOM     64  C   UNL A   1      40.045  32.850  36.116  1.00  0.00     0.037 A 
BRANCH  51  65
ATOM     65  C   UNL A   1      44.072  28.173  35.803  1.00  0.00     0.058 A 
ATOM     66  C   UNL A   1      43.747  27.075  36.615  1.00  0.00     0.135 A 
ATOM     67  C   UNL A   1      45.432  28.468  35.614  1.00  0.00     0.135 A 
ATOM     68  F   UNL A   1      42.461  26.759  36.843  1.00  0.00    -0.206 F 
ATOM     69  C   UNL A   1      44.731  26.314  37.237  1.00  0.00     0.059 A 
ATOM     70  C   UNL A   1      46.433  27.702  36.204  1.00  0.00     0.059 A 
ATOM     71  F   UNL A   1      45.798  29.509  34.850  1.00  0.00    -0.206 F 
ATOM     72  C   UNL A   1      46.072  26.635  37.023  1.00  0.00     0.060 A 
BRANCH  72  73
ATOM     73  S   UNL A   1      47.336  25.624  37.822  1.00  0.00     0.124 S 
ATOM     74  O   UNL A   1      48.399  26.603  38.034  1.00  0.00    -0.237 OA
ATOM     75  O   UNL A   1      46.652  25.161  39.025  1.00  0.00    -0.237 OA
ATOM     76  O   UNL A   1      47.623  24.592  36.831  1.00  0.00    -0.744 OA
ENDBRANCH  72  73
ENDBRANCH  51  65
BRANCH  52  77
ATOM     77  C   UNL A   1      36.730  33.029  31.046  1.00  0.00     0.058 A 
ATOM     78  C   UNL A   1      35.406  32.800  31.448  1.00  0.00     0.135 A 
ATOM     79  C   UNL A   1      36.945  33.927  29.988  1.00  0.00     0.135 A 
ATOM     80  F   UNL A   1      35.148  31.948  32.452  1.00  0.00    -0.206 F 
ATOM     81  C   UNL A   1      34.332  33.414  30.810  1.00  0.00     0.059 A 
ATOM     82  C   UNL A   1      35.890  34.572  29.351  1.00  0.00     0.059 A 
ATOM     83  F   UNL A   1      38.194  34.196  29.577  1.00  0.00    -0.206 F 
ATOM     84  C   UNL A   1      34.585  34.299  29.760  1.00  0.00     0.060 A 
BRANCH  84  85
ATOM     85  S   UNL A   1      33.187  35.116  28.960  1.00  0.00     0.124 S 
ATOM     86  O   UNL A   1      32.763  34.101  28.002  1.00  0.00    -0.237 OA
ATOM     87  O   UNL A   1      32.285  35.352  30.082  1.00  0.00    -0.237 OA
ATOM     88  O   UNL A   1      33.787  36.317  28.385  1.00  0.00    -0.744 OA
ENDBRANCH  84  85
ENDBRANCH  52  77
BRANCH  64  89
ATOM     89  C   UNL A   1      39.840  33.827  37.239  1.00  0.00     0.058 A 
ATOM     90  C   UNL A   1      40.381  35.121  37.199  1.00  0.00     0.135 A 
ATOM     91  C   UNL A   1      39.044  33.482  38.343  1.00  0.00     0.135 A 
ATOM     92  F   UNL A   1      41.154  35.499  36.167  1.00  0.00    -0.206 F 
ATOM     93  C   UNL A   1      40.157  36.033  38.224  1.00  0.00     0.059 A 
ATOM     94  C   UNL A   1      38.785  34.387  39.366  1.00  0.00     0.059 A 
ATOM     95  F   UNL A   1      38.495  32.259  38.425  1.00  0.00    -0.206 F 
ATOM     96  C   UNL A   1      39.355  35.656  39.304  1.00  0.00     0.060 A 
BRANCH  96  97
ATOM     97  S   UNL A   1      39.042  36.862  40.611  1.00  0.00     0.124 S 
ATOM     98  O   UNL A   1      38.158  36.112  41.497  1.00  0.00    -0.237 OA
ATOM     99  O   UNL A   1      40.383  37.122  41.124  1.00  0.00    -0.237 OA
ATOM    100  O   UNL A   1      38.422  37.977  39.901  1.00  0.00    -0.744 OA
ENDBRANCH  96  97
ENDBRANCH  64  89
ENDBRANCH  38  39
ENDBRANCH  30  33
ENDBRANCH  28  29
ENDBRANCH   1  28
TORSDOF 17
ENDMDL
MODEL 2
REMARK VINA RESULT:     -12.1      1.195      2.037
REMARK SMILES CC[N@H+]1C[C@@H](C(=O)NCCCCNC(=O)c2ccc(-c3c4nc(c(-c5c(F)cc(S(=O)(=O)[O-])cc5F)c5ccc([nH]5)c(-c5c(F)cc(S(=O)(=O)[O-])cc5F)c5nc(c(-c6c(F)cc(S(=O)(=O)[O-])cc6F)c6ccc3[nH]6)C=C5)C=C4)cc2)C[C@@H](C(=O)Nc2ccc(F)cc2)C1
REMARK SMILES IDX 11 1 10 2 9 3 8 4 6 5 7 6 5 8 3 9 4 10 94 11 83 13 82 14
REMARK SMILES IDX 2 15 1 16 84 17 85 18 86 19 87 21 88 22 93 23 89 24 92 25
REMARK SMILES IDX 90 26 91 27 12 28 13 29 14 30 15 32 16 33 17 34 81 35 18 36
REMARK SMILES IDX 80 37 19 38 20 39 21 40 74 41 22 42 79 43 73 44 75 45 23 46
REMARK SMILES IDX 78 47 72 48 71 49 24 51 58 52 37 53 57 54 38 55 41 56 56 57
REMARK SMILES IDX 76 58 39 59 40 60 55 62 77 63 42 64 25 65 26 66 35 67 27 68
REMARK SMILES IDX 28 69 34 70 36 71 29 72 30 73 31 74 32 75 33 76 59 77 60 78
REMARK SMILES IDX 69 79 61 80 62 81 68 82 70 83 63 84 64 85 65 86 66 87 67 88
REMARK SMILES IDX 43 89 44 90 53 91 45 92 46 93 52 94 54 95 47 96 48 97 49 98
REMARK SMILES IDX 50 99 51 100
REMARK H PARENT 8 7 3 12 86 20 13 31 75 50 41 61
REMARK Flexibility Score: inf
ROOT
ATOM      1  C   UNL A   1      37.545  23.454  25.366  1.00  0.00     0.023 C 
ENDROOT
BRANCH   1   2
ATOM      2  C   UNL A   1      37.387  21.942  25.360  1.00  0.00     0.023 C 
BRANCH   2   3
ATOM      3  C   UNL A   1      36.007  21.426  25.753  1.00  0.00     0.116 C 
BRANCH   3   4
ATOM      4  N   UNL A   1      35.085  21.360  24.628  1.00  0.00    -0.356 N 
ATOM      5  C   UNL A   1      34.087  22.204  24.230  1.00  0.00     0.228 C 
ATOM      6  O   UNL A   1      33.500  21.944  23.178  1.00  0.00    -0.275 OA
ATOM      7  H   UNL A   1      35.201  20.569  24.053  1.00  0.00     0.163 HD
BRANCH   5   8
ATOM      8  C   UNL A   1      33.677  23.415  25.064  1.00  0.00     0.134 C 
ATOM      9  N   UNL A   1      31.704  24.529  26.110  1.00  0.00    -0.334 N 
ATOM     10  C   UNL A   1      32.239  23.283  25.545  1.00  0.00     0.275 C 
ATOM     11  C   UNL A   1      31.854  25.658  25.159  1.00  0.00     0.275 C 
ATOM     12  H   UNL A   1      32.248  24.731  26.950  1.00  0.00     0.348 HD
ATOM     13  C   UNL A   1      33.321  25.961  24.776  1.00  0.00     0.135 C 
ATOM     14  C   UNL A   1      34.005  24.692  24.303  1.00  0.00     0.038 C 
BRANCH   9  15
ATOM     15  C   UNL A   1      30.280  24.387  26.486  1.00  0.00     0.258 C 
ATOM     16  C   UNL A   1      29.851  22.973  26.877  1.00  0.00     0.071 C 
ENDBRANCH   9  15
BRANCH  13  17
ATOM     17  C   UNL A   1      33.362  27.152  23.773  1.00  0.00     0.233 C 
ATOM     18  O   UNL A   1      33.503  26.944  22.561  1.00  0.00    -0.274 OA
ATOM     19  N   UNL A   1      33.026  28.434  24.141  1.00  0.00    -0.326 N 
ATOM     20  H   UNL A   1      32.572  28.960  23.444  1.00  0.00     0.169 HD
BRANCH  19  21
ATOM     21  C   UNL A   1      33.226  29.110  25.352  1.00  0.00     0.041 A 
ATOM     22  C   UNL A   1      34.407  28.920  26.064  1.00  0.00     0.029 A 
ATOM     23  C   UNL A   1      32.230  29.926  25.890  1.00  0.00     0.029 A 
ATOM     24  C   UNL A   1      34.662  29.701  27.196  1.00  0.00     0.041 A 
ATOM     25  C   UNL A   1      32.490  30.732  26.998  1.00  0.00     0.041 A 
ATOM     26  C   UNL A   1      33.720  30.631  27.627  1.00  0.00     0.123 A 
ATOM     27  F   UNL A   1      34.000  31.428  28.666  1.00  0.00    -0.207 F 
ENDBRANCH  19  21
ENDBRANCH  13  17
ENDBRANCH   5   8
ENDBRANCH   3   4
ENDBRANCH   2   3
ENDBRANCH   1   2
BRANCH   1  28
ATOM     28  C   UNL A   1      38.405  23.990  26.497  1.00  0.00     0.116 C 
BRANCH  28  29
ATOM     29  N   UNL A   1      39.829  23.786  26.270  1.00  0.00    -0.352 N 
ATOM     30  C   UNL A   1      40.893  24.556  26.683  1.00  0.00     0.251 C 
ATOM     31  H   UNL A   1      40.064  22.983  25.749  1.00  0.00     0.163 HD
ATOM     32  O   UNL A   1      42.020  24.322  26.275  1.00  0.00    -0.269 OA
BRANCH  30  33
ATOM     33  C   UNL A   1      40.640  25.693  27.596  1.00  0.00     0.039 A 
ATOM     34  C   UNL A   1      39.623  25.589  28.546  1.00  0.00     0.014 A 
ATOM     35  C   UNL A   1      41.452  26.828  27.548  1.00  0.00     0.014 A 
ATOM     36  C   UNL A   1      39.478  26.592  29.507  1.00  0.00     0.010 A 
ATOM     37  C   UNL A   1      41.371  27.772  28.563  1.00  0.00     0.010 A 
ATOM     38  C   UNL A   1      40.382  27.667  29.550  1.00  0.00    -0.014 A 
BRANCH  38  39
ATOM     39  C   UNL A   1      40.314  28.701  30.615  1.00  0.00     0.031 A 
ATOM     40  C   UNL A   1      41.186  28.571  31.835  1.00  0.00     0.074 A 
ATOM     41  C   UNL A   1      39.410  29.697  30.526  1.00  0.00     0.049 A 
ATOM     42  N   UNL A   1      41.202  29.300  32.920  1.00  0.00    -0.248 NA
ATOM     43  C   UNL A   1      42.141  27.449  31.854  1.00  0.00     0.031 C 
ATOM     44  C   UNL A   1      38.464  29.891  29.424  1.00  0.00     0.029 A 
ATOM     45  N   UNL A   1      39.124  30.726  31.388  1.00  0.00    -0.354 N 
ATOM     46  C   UNL A   1      42.140  28.710  33.759  1.00  0.00     0.074 A 
ATOM     47  C   UNL A   1      42.637  27.534  33.080  1.00  0.00     0.031 C 
ATOM     48  C   UNL A   1      37.719  30.981  29.667  1.00  0.00     0.029 A 
ATOM     49  C   UNL A   1      38.103  31.541  30.959  1.00  0.00     0.049 A 
ATOM     50  H   UNL A   1      39.604  30.868  32.236  1.00  0.00     0.167 HD
ATOM     51  C   UNL A   1      42.566  29.125  34.975  1.00  0.00     0.037 A 
ATOM     52  C   UNL A   1      37.532  32.612  31.545  1.00  0.00     0.037 A 
ATOM     53  C   UNL A   1      42.103  30.324  35.620  1.00  0.00     0.049 A 
ATOM     54  C   UNL A   1      38.046  33.070  32.884  1.00  0.00     0.074 A 
ATOM     55  C   UNL A   1      42.538  30.884  36.808  1.00  0.00     0.029 A 
ATOM     56  N   UNL A   1      41.099  31.149  35.132  1.00  0.00    -0.354 N 
ATOM     57  N   UNL A   1      38.994  32.548  33.624  1.00  0.00    -0.248 NA
ATOM     58  C   UNL A   1      37.417  34.263  33.466  1.00  0.00     0.031 C 
ATOM     59  C   UNL A   1      41.768  32.023  37.061  1.00  0.00     0.029 A 
ATOM     60  C   UNL A   1      40.886  32.200  36.007  1.00  0.00     0.049 A 
ATOM     61  H   UNL A   1      40.612  31.007  34.288  1.00  0.00     0.167 HD
ATOM     62  C   UNL A   1      39.094  33.365  34.746  1.00  0.00     0.074 A 
ATOM     63  C   UNL A   1      38.119  34.422  34.579  1.00  0.00     0.031 C 
ATOM     64  C   UNL A   1      39.917  33.250  35.817  1.00  0.00     0.037 A 
BRANCH  51  65
ATOM     65  C   UNL A   1      43.592  28.284  35.683  1.00  0.00     0.058 A 
ATOM     66  C   UNL A   1      44.970  28.482  35.492  1.00  0.00     0.135 A 
ATOM     67  C   UNL A   1      43.193  27.297  36.598  1.00  0.00     0.135 A 
ATOM     68  F   UNL A   1      45.406  29.401  34.615  1.00  0.00    -0.206 F 
ATOM     69  C   UNL A   1      45.914  27.713  36.164  1.00  0.00     0.059 A 
ATOM     70  C   UNL A   1      44.122  26.536  37.303  1.00  0.00     0.059 A 
ATOM     71  F   UNL A   1      41.890  27.064  36.816  1.00  0.00    -0.206 F 
ATOM     72  C   UNL A   1      45.480  26.744  37.070  1.00  0.00     0.060 A 
BRANCH  72  73
ATOM     73  S   UNL A   1      46.720  25.770  37.948  1.00  0.00     0.124 S 
ATOM     74  O   UNL A   1      47.284  24.972  36.863  1.00  0.00    -0.237 OA
ATOM     75  O   UNL A   1      47.596  26.801  38.497  1.00  0.00    -0.237 OA
ATOM     76  O   UNL A   1      45.937  25.029  38.930  1.00  0.00    -0.744 OA
ENDBRANCH  72  73
ENDBRANCH  51  65
BRANCH  52  77
ATOM     77  C   UNL A   1      36.423  33.335  30.867  1.00  0.00     0.058 A 
ATOM     78  C   UNL A   1      35.099  33.202  31.308  1.00  0.00     0.135 A 
ATOM     79  C   UNL A   1      36.662  34.170  29.763  1.00  0.00     0.135 A 
ATOM     80  F   UNL A   1      34.818  32.412  32.357  1.00  0.00    -0.206 F 
ATOM     81  C   UNL A   1      34.046  33.849  30.668  1.00  0.00     0.059 A 
ATOM     82  C   UNL A   1      35.630  34.847  29.122  1.00  0.00     0.059 A 
ATOM     83  F   UNL A   1      37.914  34.346  29.312  1.00  0.00    -0.206 F 
ATOM     84  C   UNL A   1      34.323  34.670  29.573  1.00  0.00     0.060 A 
BRANCH  84  85
ATOM     85  S   UNL A   1      32.954  35.530  28.767  1.00  0.00     0.124 S 
ATOM     86  O   UNL A   1      32.349  34.455  27.989  1.00  0.00    -0.237 OA
ATOM     87  O   UNL A   1      32.178  36.008  29.907  1.00  0.00    -0.237 OA
ATOM     88  O   UNL A   1      33.624  36.572  27.994  1.00  0.00    -0.744 OA
ENDBRANCH  84  85
ENDBRANCH  52  77
BRANCH  64  89
ATOM     89  C   UNL A   1      39.826  34.311  36.877  1.00  0.00     0.058 A 
ATOM     90  C   UNL A   1      38.962  34.184  37.976  1.00  0.00     0.135 A 
ATOM     91  C   UNL A   1      40.656  35.443  36.822  1.00  0.00     0.135 A 
ATOM     92  F   UNL A   1      38.144  33.123  38.073  1.00  0.00    -0.206 F 
ATOM     93  C   UNL A   1      38.909  35.152  38.973  1.00  0.00     0.059 A 
ATOM     94  C   UNL A   1      40.639  36.409  37.821  1.00  0.00     0.059 A 
ATOM     95  F   UNL A   1      41.507  35.607  35.797  1.00  0.00    -0.206 F 
ATOM     96  C   UNL A   1      39.754  36.261  38.887  1.00  0.00     0.060 A 
BRANCH  96  97
ATOM     97  S   UNL A   1      39.701  37.493  40.206  1.00  0.00     0.124 S 
ATOM     98  O   UNL A   1      39.436  36.660  41.374  1.00  0.00    -0.237 OA
ATOM     99  O   UNL A   1      41.033  38.083  40.136  1.00  0.00    -0.237 OA
ATOM    100  O   UNL A   1      38.610  38.375  39.802  1.00  0.00    -0.744 OA
ENDBRANCH  96  97
ENDBRANCH  64  89
ENDBRANCH  38  39
ENDBRANCH  30  33
ENDBRANCH  28  29
ENDBRANCH   1  28
TORSDOF 17
ENDMDL
MODEL 3
REMARK VINA RESULT:     -11.9      6.460     12.150
REMARK SMILES CC[N@H+]1C[C@@H](C(=O)NCCCCNC(=O)c2ccc(-c3c4nc(c(-c5c(F)cc(S(=O)(=O)[O-])cc5F)c5ccc([nH]5)c(-c5c(F)cc(S(=O)(=O)[O-])cc5F)c5nc(c(-c6c(F)cc(S(=O)(=O)[O-])cc6F)c6ccc3[nH]6)C=C5)C=C4)cc2)C[C@@H](C(=O)Nc2ccc(F)cc2)C1
REMARK SMILES IDX 11 1 10 2 9 3 8 4 6 5 7 6 5 8 3 9 4 10 94 11 83 13 82 14
REMARK SMILES IDX 2 15 1 16 84 17 85 18 86 19 87 21 88 22 93 23 89 24 92 25
REMARK SMILES IDX 90 26 91 27 12 28 13 29 14 30 15 32 16 33 17 34 81 35 18 36
REMARK SMILES IDX 80 37 19 38 20 39 21 40 74 41 22 42 79 43 73 44 75 45 23 46
REMARK SMILES IDX 78 47 72 48 71 49 24 51 58 52 37 53 57 54 38 55 41 56 56 57
REMARK SMILES IDX 76 58 39 59 40 60 55 62 77 63 42 64 25 65 26 66 35 67 27 68
REMARK SMILES IDX 28 69 34 70 36 71 29 72 30 73 31 74 32 75 33 76 59 77 60 78
REMARK SMILES IDX 69 79 61 80 62 81 68 82 70 83 63 84 64 85 65 86 66 87 67 88
REMARK SMILES IDX 43 89 44 90 53 91 45 92 46 93 52 94 54 95 47 96 48 97 49 98
REMARK SMILES IDX 50 99 51 100
REMARK H PARENT 8 7 3 12 86 20 13 31 75 50 41 61
REMARK Flexibility Score: inf
ROOT
ATOM      1  C   UNL A   1      35.305  32.383  27.722  1.00  0.00     0.023 C 
ENDROOT
BRANCH   1   2
ATOM      2  C   UNL A   1      34.142  31.507  28.162  1.00  0.00     0.023 C 
BRANCH   2   3
ATOM      3  C   UNL A   1      33.596  30.559  27.100  1.00  0.00     0.116 C 
BRANCH   3   4
ATOM      4  N   UNL A   1      32.606  29.629  27.626  1.00  0.00    -0.356 N 
ATOM      5  C   UNL A   1      32.056  28.500  27.089  1.00  0.00     0.228 C 
ATOM      6  O   UNL A   1      31.283  27.846  27.793  1.00  0.00    -0.275 OA
ATOM      7  H   UNL A   1      32.278  29.852  28.527  1.00  0.00     0.163 HD
BRANCH   5   8
ATOM      8  C   UNL A   1      32.349  28.065  25.656  1.00  0.00     0.134 C 
ATOM      9  N   UNL A   1      31.461  28.177  23.326  1.00  0.00    -0.334 N 
ATOM     10  C   UNL A   1      31.413  28.757  24.674  1.00  0.00     0.275 C 
ATOM     11  C   UNL A   1      31.219  26.714  23.362  1.00  0.00     0.275 C 
ATOM     12  H   UNL A   1      32.400  28.347  22.963  1.00  0.00     0.348 HD
ATOM     13  C   UNL A   1      32.257  25.930  24.198  1.00  0.00     0.135 C 
ATOM     14  C   UNL A   1      32.379  26.545  25.580  1.00  0.00     0.038 C 
BRANCH   9  15
ATOM     15  C   UNL A   1      30.478  28.817  22.424  1.00  0.00     0.258 C 
ATOM     16  C   UNL A   1      29.249  29.405  23.118  1.00  0.00     0.071 C 
ENDBRANCH   9  15
BRANCH  13  17
ATOM     17  C   UNL A   1      31.904  24.413  24.176  1.00  0.00     0.233 C 
ATOM     18  O   UNL A   1      30.723  24.045  24.133  1.00  0.00    -0.274 OA
ATOM     19  N   UNL A   1      32.857  23.441  23.979  1.00  0.00    -0.326 N 
ATOM     20  H   UNL A   1      32.551  22.657  23.467  1.00  0.00     0.169 HD
BRANCH  19  21
ATOM     21  C   UNL A   1      34.196  23.389  24.389  1.00  0.00     0.041 A 
ATOM     22  C   UNL A   1      35.198  23.149  23.453  1.00  0.00     0.029 A 
ATOM     23  C   UNL A   1      34.537  23.513  25.737  1.00  0.00     0.029 A 
ATOM     24  C   UNL A   1      36.539  23.238  23.842  1.00  0.00     0.041 A 
ATOM     25  C   UNL A   1      35.871  23.635  26.127  1.00  0.00     0.041 A 
ATOM     26  C   UNL A   1      36.862  23.524  25.166  1.00  0.00     0.123 A 
ATOM     27  F   UNL A   1      38.145  23.681  25.517  1.00  0.00    -0.207 F 
ENDBRANCH  19  21
ENDBRANCH  13  17
ENDBRANCH   5   8
ENDBRANCH   3   4
ENDBRANCH   2   3
ENDBRANCH   1   2
BRANCH   1  28
ATOM     28  C   UNL A   1      36.453  32.446  28.714  1.00  0.00     0.116 C 
BRANCH  28  29
ATOM     29  N   UNL A   1      36.077  31.985  30.043  1.00  0.00    -0.352 N 
ATOM     30  C   UNL A   1      36.638  30.986  30.807  1.00  0.00     0.251 C 
ATOM     31  H   UNL A   1      35.315  32.455  30.455  1.00  0.00     0.163 HD
ATOM     32  O   UNL A   1      36.102  30.625  31.843  1.00  0.00    -0.269 OA
BRANCH  30  33
ATOM     33  C   UNL A   1      37.878  30.334  30.330  1.00  0.00     0.039 A 
ATOM     34  C   UNL A   1      38.087  30.191  28.958  1.00  0.00     0.014 A 
ATOM     35  C   UNL A   1      38.854  29.927  31.242  1.00  0.00     0.014 A 
ATOM     36  C   UNL A   1      39.317  29.716  28.499  1.00  0.00     0.010 A 
ATOM     37  C   UNL A   1      40.109  29.552  30.782  1.00  0.00     0.010 A 
ATOM     38  C   UNL A   1      40.353  29.438  29.406  1.00  0.00    -0.014 A 
BRANCH  38  39
ATOM     39  C   UNL A   1      41.703  29.022  28.946  1.00  0.00     0.031 A 
ATOM     40  C   UNL A   1      42.796  30.050  28.819  1.00  0.00     0.074 A 
ATOM     41  C   UNL A   1      41.917  27.748  28.560  1.00  0.00     0.049 A 
ATOM     42  N   UNL A   1      44.003  29.915  28.336  1.00  0.00    -0.248 NA
ATOM     43  C   UNL A   1      42.476  31.419  29.256  1.00  0.00     0.031 C 
ATOM     44  C   UNL A   1      40.918  26.676  28.575  1.00  0.00     0.029 A 
ATOM     45  N   UNL A   1      43.042  27.141  28.059  1.00  0.00    -0.354 N 
ATOM     46  C   UNL A   1      44.572  31.182  28.383  1.00  0.00     0.074 A 
ATOM     47  C   UNL A   1      43.564  32.083  28.893  1.00  0.00     0.031 C 
ATOM     48  C   UNL A   1      41.479  25.542  28.125  1.00  0.00     0.029 A 
ATOM     49  C   UNL A   1      42.864  25.812  27.752  1.00  0.00     0.049 A 
ATOM     50  H   UNL A   1      43.897  27.612  27.932  1.00  0.00     0.167 HD
ATOM     51  C   UNL A   1      45.832  31.555  28.053  1.00  0.00     0.037 A 
ATOM     52  C   UNL A   1      43.717  24.915  27.218  1.00  0.00     0.037 A 
ATOM     53  C   UNL A   1      46.844  30.643  27.594  1.00  0.00     0.049 A 
ATOM     54  C   UNL A   1      45.120  25.351  26.888  1.00  0.00     0.074 A 
ATOM     55  C   UNL A   1      48.176  30.903  27.323  1.00  0.00     0.029 A 
ATOM     56  N   UNL A   1      46.638  29.295  27.338  1.00  0.00    -0.354 N 
ATOM     57  N   UNL A   1      45.666  26.535  27.020  1.00  0.00    -0.248 NA
ATOM     58  C   UNL A   1      46.022  24.329  26.342  1.00  0.00     0.031 C 
ATOM     59  C   UNL A   1      48.764  29.722  26.861  1.00  0.00     0.029 A 
ATOM     60  C   UNL A   1      47.812  28.715  26.890  1.00  0.00     0.049 A 
ATOM     61  H   UNL A   1      45.783  28.822  27.458  1.00  0.00     0.167 HD
ATOM     62  C   UNL A   1      46.985  26.394  26.599  1.00  0.00     0.074 A 
ATOM     63  C   UNL A   1      47.155  25.007  26.222  1.00  0.00     0.031 C 
ATOM     64  C   UNL A   1      47.966  27.328  26.530  1.00  0.00     0.037 A 
BRANCH  51  65
ATOM     65  C   UNL A   1      46.189  33.010  28.187  1.00  0.00     0.058 A 
ATOM     66  C   UNL A   1      46.720  33.535  29.377  1.00  0.00     0.135 A 
ATOM     67  C   UNL A   1      46.040  33.882  27.097  1.00  0.00     0.135 A 
ATOM     68  F   UNL A   1      46.867  32.749  30.456  1.00  0.00    -0.206 F 
ATOM     69  C   UNL A   1      47.066  34.877  29.489  1.00  0.00     0.059 A 
ATOM     70  C   UNL A   1      46.407  35.222  27.178  1.00  0.00     0.059 A 
ATOM     71  F   UNL A   1      45.534  33.434  25.937  1.00  0.00    -0.206 F 
ATOM     72  C   UNL A   1      46.908  35.713  28.382  1.00  0.00     0.060 A 
BRANCH  72  73
ATOM     73  S   UNL A   1      47.381  37.447  28.539  1.00  0.00     0.124 S 
ATOM     74  O   UNL A   1      48.594  37.492  27.728  1.00  0.00    -0.237 OA
ATOM     75  O   UNL A   1      46.222  38.139  27.984  1.00  0.00    -0.237 OA
ATOM     76  O   UNL A   1      47.580  37.617  29.975  1.00  0.00    -0.744 OA
ENDBRANCH  72  73
ENDBRANCH  51  65
BRANCH  52  77
ATOM     77  C   UNL A   1      43.277  23.515  26.975  1.00  0.00     0.058 A 
ATOM     78  C   UNL A   1      43.042  23.048  25.674  1.00  0.00     0.135 A 
ATOM     79  C   UNL A   1      43.078  22.617  28.036  1.00  0.00     0.135 A 
ATOM     80  F   UNL A   1      43.213  23.869  24.626  1.00  0.00    -0.206 F 
ATOM     81  C   UNL A   1      42.602  21.750  25.431  1.00  0.00     0.059 A 
ATOM     82  C   UNL A   1      42.664  21.308  27.818  1.00  0.00     0.059 A 
ATOM     83  F   UNL A   1      43.306  23.009  29.300  1.00  0.00    -0.206 F 
ATOM     84  C   UNL A   1      42.415  20.886  26.512  1.00  0.00     0.060 A 
BRANCH  84  85
ATOM     85  S   UNL A   1      41.875  19.194  26.186  1.00  0.00     0.124 S 
ATOM     86  O   UNL A   1      40.443  19.378  25.978  1.00  0.00    -0.237 OA
ATOM     87  O   UNL A   1      42.653  18.846  25.001  1.00  0.00    -0.237 OA
ATOM     88  O   UNL A   1      42.252  18.482  27.404  1.00  0.00    -0.744 OA
ENDBRANCH  84  85
ENDBRANCH  52  77
BRANCH  64  89
ATOM     89  C   UNL A   1      49.320  26.877  26.062  1.00  0.00     0.058 A 
ATOM     90  C   UNL A   1      49.722  27.015  24.724  1.00  0.00     0.135 A 
ATOM     91  C   UNL A   1      50.248  26.351  26.976  1.00  0.00     0.135 A 
ATOM     92  F   UNL A   1      48.870  27.507  23.810  1.00  0.00    -0.206 F 
ATOM     93  C   UNL A   1      50.990  26.630  24.305  1.00  0.00     0.059 A 
ATOM     94  C   UNL A   1      51.530  25.985  26.583  1.00  0.00     0.059 A 
ATOM     95  F   UNL A   1      49.916  26.208  28.269  1.00  0.00    -0.206 F 
ATOM     96  C   UNL A   1      51.888  26.117  25.244  1.00  0.00     0.060 A 
BRANCH  96  97
ATOM     97  S   UNL A   1      53.544  25.653  24.693  1.00  0.00     0.124 S 
ATOM     98  O   UNL A   1      53.508  26.047  23.289  1.00  0.00    -0.237 OA
ATOM     99  O   UNL A   1      54.399  26.462  25.557  1.00  0.00    -0.237 OA
ATOM    100  O   UNL A   1      53.594  24.216  24.941  1.00  0.00    -0.744 OA
ENDBRANCH  96  97
ENDBRANCH  64  89
ENDBRANCH  38  39
ENDBRANCH  30  33
ENDBRANCH  28  29
ENDBRANCH   1  28
TORSDOF 17
ENDMDL
