MODEL 1
REMARK VINA RESULT:      -8.5      0.000      0.000
REMARK SMILES CC[C@@H](Oc1ccccc1)C(=O)NCCCCNC(=O)c1ccc(-c2c3nc(c(-c4c(F)cc(S(=O)(=O)[O-])cc4F)c4ccc([nH]4)c(-c4c(F)cc(S(=O)(=O)[O-])cc4F)c4nc(c(-c5c(F)cc(S(=O)(=O)[O-])cc5F)c5ccc2[nH]5)C=C4)C=C3)cc1
REMARK SMILES IDX 16 1 15 2 14 3 13 4 11 5 12 6 3 8 2 9 1 10 4 11 5 12 6 13
REMARK SMILES IDX 10 14 7 15 9 16 8 17 17 18 18 19 19 20 20 22 21 23 22 24
REMARK SMILES IDX 86 25 23 26 85 27 24 28 25 29 26 30 79 31 27 32 84 33 78 34
REMARK SMILES IDX 80 35 28 36 83 37 77 38 76 39 29 41 63 42 42 43 62 44 43 45
REMARK SMILES IDX 46 46 61 47 81 48 44 49 45 50 60 52 82 53 47 54 30 55 31 56
REMARK SMILES IDX 40 57 32 58 33 59 39 60 41 61 34 62 35 63 36 64 37 65 38 66
REMARK SMILES IDX 64 67 65 68 74 69 66 70 67 71 73 72 75 73 68 74 69 75 70 76
REMARK SMILES IDX 71 77 72 78 48 79 49 80 58 81 50 82 51 83 57 84 59 85 52 86
REMARK SMILES IDX 53 87 54 88 55 89 56 90
REMARK H PARENT 13 7 18 21 80 40 46 51
REMARK Flexibility Score: inf
ROOT
ATOM      1  C   UNL A   1      34.713  33.177  29.925  1.00  0.00     0.023 C 
ENDROOT
BRANCH   1   2
ATOM      2  C   UNL A   1      35.950  32.864  30.762  1.00  0.00     0.023 C 
BRANCH   2   3
ATOM      3  C   UNL A   1      35.723  31.842  31.869  1.00  0.00     0.116 C 
BRANCH   3   4
ATOM      4  N   UNL A   1      35.619  32.463  33.180  1.00  0.00    -0.353 N 
ATOM      5  C   UNL A   1      36.615  32.784  34.066  1.00  0.00     0.261 C 
ATOM      6  O   UNL A   1      36.304  33.344  35.120  1.00  0.00    -0.271 OA
ATOM      7  H   UNL A   1      34.706  32.684  33.472  1.00  0.00     0.163 HD
BRANCH   5   8
ATOM      8  C   UNL A   1      38.074  32.384  33.777  1.00  0.00     0.261 C 
BRANCH   8   9
ATOM      9  C   UNL A   1      38.976  33.572  34.162  1.00  0.00     0.052 C 
ATOM     10  C   UNL A   1      39.408  34.414  32.968  1.00  0.00     0.008 C 
ENDBRANCH   8   9
BRANCH   8  11
ATOM     11  O   UNL A   1      38.283  31.178  34.532  1.00  0.00    -0.481 OA
BRANCH  11  12
ATOM     12  C   UNL A   1      38.927  30.175  33.880  1.00  0.00     0.120 A 
ATOM     13  C   UNL A   1      38.177  29.244  33.168  1.00  0.00     0.046 A 
ATOM     14  C   UNL A   1      40.293  29.980  34.074  1.00  0.00     0.046 A 
ATOM     15  C   UNL A   1      38.815  28.148  32.586  1.00  0.00     0.004 A 
ATOM     16  C   UNL A   1      40.934  28.903  33.470  1.00  0.00     0.004 A 
ATOM     17  C   UNL A   1      40.195  27.987  32.723  1.00  0.00     0.000 A 
ENDBRANCH  11  12
ENDBRANCH   8  11
ENDBRANCH   5   8
ENDBRANCH   3   4
ENDBRANCH   2   3
ENDBRANCH   1   2
BRANCH   1  18
ATOM     18  C   UNL A   1      34.841  32.868  28.436  1.00  0.00     0.116 C 
BRANCH  18  19
ATOM     19  N   UNL A   1      34.030  31.737  28.014  1.00  0.00    -0.352 N 
ATOM     20  C   UNL A   1      34.403  30.434  27.798  1.00  0.00     0.251 C 
ATOM     21  H   UNL A   1      33.078  31.935  27.859  1.00  0.00     0.163 HD
ATOM     22  O   UNL A   1      33.594  29.645  27.308  1.00  0.00    -0.269 OA
BRANCH  20  23
ATOM     23  C   UNL A   1      35.775  29.987  28.122  1.00  0.00     0.039 A 
ATOM     24  C   UNL A   1      36.774  30.146  27.159  1.00  0.00     0.014 A 
ATOM     25  C   UNL A   1      36.082  29.419  29.362  1.00  0.00     0.014 A 
ATOM     26  C   UNL A   1      38.089  29.788  27.463  1.00  0.00     0.010 A 
ATOM     27  C   UNL A   1      37.408  29.143  29.691  1.00  0.00     0.010 A 
ATOM     28  C   UNL A   1      38.426  29.319  28.744  1.00  0.00    -0.014 A 
BRANCH  28  29
ATOM     29  C   UNL A   1      39.840  29.022  29.092  1.00  0.00     0.031 A 
ATOM     30  C   UNL A   1      40.687  30.044  29.804  1.00  0.00     0.074 A 
ATOM     31  C   UNL A   1      40.370  27.832  28.745  1.00  0.00     0.049 A 
ATOM     32  N   UNL A   1      41.931  29.952  30.200  1.00  0.00    -0.248 NA
ATOM     33  C   UNL A   1      40.066  31.348  30.088  1.00  0.00     0.031 C 
ATOM     34  C   UNL A   1      39.674  26.785  27.992  1.00  0.00     0.029 A 
ATOM     35  N   UNL A   1      41.613  27.298  28.978  1.00  0.00    -0.354 N 
ATOM     36  C   UNL A   1      42.236  31.175  30.786  1.00  0.00     0.074 A 
ATOM     37  C   UNL A   1      41.073  32.020  30.627  1.00  0.00     0.031 C 
ATOM     38  C   UNL A   1      40.487  25.726  27.853  1.00  0.00     0.029 A 
ATOM     39  C   UNL A   1      41.771  26.027  28.475  1.00  0.00     0.049 A 
ATOM     40  H   UNL A   1      42.323  27.779  29.461  1.00  0.00     0.167 HD
ATOM     41  C   UNL A   1      43.369  31.550  31.429  1.00  0.00     0.037 A 
ATOM     42  C   UNL A   1      42.832  25.197  28.511  1.00  0.00     0.037 A 
ATOM     43  C   UNL A   1      44.523  30.703  31.590  1.00  0.00     0.049 A 
ATOM     44  C   UNL A   1      44.079  25.637  29.231  1.00  0.00     0.074 A 
ATOM     45  C   UNL A   1      45.709  30.979  32.250  1.00  0.00     0.029 A 
ATOM     46  N   UNL A   1      44.639  29.415  31.085  1.00  0.00    -0.354 N 
ATOM     47  N   UNL A   1      44.323  26.774  29.839  1.00  0.00    -0.248 NA
ATOM     48  C   UNL A   1      45.187  24.674  29.287  1.00  0.00     0.031 C 
ATOM     49  C   UNL A   1      46.556  29.875  32.108  1.00  0.00     0.029 A 
ATOM     50  C   UNL A   1      45.880  28.890  31.408  1.00  0.00     0.049 A 
ATOM     51  H   UNL A   1      43.943  28.945  30.573  1.00  0.00     0.167 HD
ATOM     52  C   UNL A   1      45.604  26.654  30.367  1.00  0.00     0.074 A 
ATOM     53  C   UNL A   1      46.071  25.325  30.031  1.00  0.00     0.031 C 
ATOM     54  C   UNL A   1      46.332  27.563  31.065  1.00  0.00     0.037 A 
BRANCH  41  55
ATOM     55  C   UNL A   1      43.405  32.930  32.029  1.00  0.00     0.058 A 
ATOM     56  C   UNL A   1      43.758  34.053  31.262  1.00  0.00     0.135 A 
ATOM     57  C   UNL A   1      43.040  33.145  33.369  1.00  0.00     0.135 A 
ATOM     58  F   UNL A   1      44.131  33.907  29.980  1.00  0.00    -0.206 F 
ATOM     59  C   UNL A   1      43.773  35.333  31.806  1.00  0.00     0.059 A 
ATOM     60  C   UNL A   1      43.019  34.421  33.926  1.00  0.00     0.059 A 
ATOM     61  F   UNL A   1      42.696  32.110  34.149  1.00  0.00    -0.206 F 
ATOM     62  C   UNL A   1      43.399  35.508  33.138  1.00  0.00     0.060 A 
BRANCH  62  63
ATOM     63  S   UNL A   1      43.406  37.180  33.820  1.00  0.00     0.124 S 
ATOM     64  O   UNL A   1      44.540  37.115  34.737  1.00  0.00    -0.237 OA
ATOM     65  O   UNL A   1      43.601  38.000  32.630  1.00  0.00    -0.237 OA
ATOM     66  O   UNL A   1      42.096  37.297  34.451  1.00  0.00    -0.744 OA
ENDBRANCH  62  63
ENDBRANCH  41  55
BRANCH  42  67
ATOM     67  C   UNL A   1      42.759  23.863  27.853  1.00  0.00     0.058 A 
ATOM     68  C   UNL A   1      43.001  23.712  26.479  1.00  0.00     0.135 A 
ATOM     69  C   UNL A   1      42.439  22.712  28.590  1.00  0.00     0.135 A 
ATOM     70  F   UNL A   1      43.308  24.782  25.731  1.00  0.00    -0.206 F 
ATOM     71  C   UNL A   1      42.900  22.474  25.853  1.00  0.00     0.059 A 
ATOM     72  C   UNL A   1      42.362  21.459  27.992  1.00  0.00     0.059 A 
ATOM     73  F   UNL A   1      42.218  22.797  29.911  1.00  0.00    -0.206 F 
ATOM     74  C   UNL A   1      42.579  21.352  26.619  1.00  0.00     0.060 A 
BRANCH  74  75
ATOM     75  S   UNL A   1      42.477  19.745  25.803  1.00  0.00     0.124 S 
ATOM     76  O   UNL A   1      42.885  18.844  26.875  1.00  0.00    -0.237 OA
ATOM     77  O   UNL A   1      41.071  19.685  25.419  1.00  0.00    -0.237 OA
ATOM     78  O   UNL A   1      43.417  19.872  24.694  1.00  0.00    -0.744 OA
ENDBRANCH  74  75
ENDBRANCH  42  67
BRANCH  54  79
ATOM     79  C   UNL A   1      47.696  27.136  31.535  1.00  0.00     0.058 A 
ATOM     80  C   UNL A   1      47.886  26.492  32.769  1.00  0.00     0.135 A 
ATOM     81  C   UNL A   1      48.828  27.360  30.734  1.00  0.00     0.135 A 
ATOM     82  F   UNL A   1      46.839  26.255  33.576  1.00  0.00    -0.206 F 
ATOM     83  C   UNL A   1      49.153  26.126  33.210  1.00  0.00     0.059 A 
ATOM     84  C   UNL A   1      50.100  26.972  31.141  1.00  0.00     0.059 A 
ATOM     85  F   UNL A   1      48.703  27.958  29.538  1.00  0.00    -0.206 F 
ATOM     86  C   UNL A   1      50.255  26.374  32.390  1.00  0.00     0.060 A 
BRANCH  86  87
ATOM     87  S   UNL A   1      51.894  25.896  32.975  1.00  0.00     0.124 S 
ATOM     88  O   UNL A   1      52.601  27.172  32.947  1.00  0.00    -0.237 OA
ATOM     89  O   UNL A   1      51.609  25.357  34.301  1.00  0.00    -0.237 OA
ATOM     90  O   UNL A   1      52.335  24.914  31.988  1.00  0.00    -0.744 OA
ENDBRANCH  86  87
ENDBRANCH  54  79
ENDBRANCH  28  29
ENDBRANCH  20  23
ENDBRANCH  18  19
ENDBRANCH   1  18
TORSDOF 17
ENDMDL
MODEL 2
REMARK VINA RESULT:      -8.3      1.262      8.634
REMARK SMILES CC[C@@H](Oc1ccccc1)C(=O)NCCCCNC(=O)c1ccc(-c2c3nc(c(-c4c(F)cc(S(=O)(=O)[O-])cc4F)c4ccc([nH]4)c(-c4c(F)cc(S(=O)(=O)[O-])cc4F)c4nc(c(-c5c(F)cc(S(=O)(=O)[O-])cc5F)c5ccc2[nH]5)C=C4)C=C3)cc1
REMARK SMILES IDX 16 1 15 2 14 3 13 4 11 5 12 6 3 8 2 9 1 10 4 11 5 12 6 13
REMARK SMILES IDX 10 14 7 15 9 16 8 17 17 18 18 19 19 20 20 22 21 23 22 24
REMARK SMILES IDX 86 25 23 26 85 27 24 28 25 29 26 30 79 31 27 32 84 33 78 34
REMARK SMILES IDX 80 35 28 36 83 37 77 38 76 39 29 41 63 42 42 43 62 44 43 45
REMARK SMILES IDX 46 46 61 47 81 48 44 49 45 50 60 52 82 53 47 54 30 55 31 56
REMARK SMILES IDX 40 57 32 58 33 59 39 60 41 61 34 62 35 63 36 64 37 65 38 66
REMARK SMILES IDX 64 67 65 68 74 69 66 70 67 71 73 72 75 73 68 74 69 75 70 76
REMARK SMILES IDX 71 77 72 78 48 79 49 80 58 81 50 82 51 83 57 84 59 85 52 86
REMARK SMILES IDX 53 87 54 88 55 89 56 90
REMARK H PARENT 13 7 18 21 80 40 46 51
REMARK Flexibility Score: inf
ROOT
ATOM      1  C   UNL A   1      34.234  33.952  28.185  1.00  0.00     0.023 C 
ENDROOT
BRANCH   1   2
ATOM      2  C   UNL A   1      34.389  34.676  29.521  1.00  0.00     0.023 C 
BRANCH   2   3
ATOM      3  C   UNL A   1      34.519  33.754  30.727  1.00  0.00     0.116 C 
BRANCH   3   4
ATOM      4  N   UNL A   1      34.872  34.478  31.938  1.00  0.00    -0.353 N 
ATOM      5  C   UNL A   1      36.078  34.539  32.588  1.00  0.00     0.261 C 
ATOM      6  O   UNL A   1      36.168  35.250  33.593  1.00  0.00    -0.271 OA
ATOM      7  H   UNL A   1      34.144  34.997  32.348  1.00  0.00     0.163 HD
BRANCH   5   8
ATOM      8  C   UNL A   1      37.265  33.680  32.112  1.00  0.00     0.261 C 
BRANCH   8   9
ATOM      9  C   UNL A   1      38.096  34.524  31.128  1.00  0.00     0.052 C 
ATOM     10  C   UNL A   1      38.119  33.956  29.714  1.00  0.00     0.008 C 
ENDBRANCH   8   9
BRANCH   8  11
ATOM     11  O   UNL A   1      37.943  33.287  33.318  1.00  0.00    -0.481 OA
BRANCH  11  12
ATOM     12  C   UNL A   1      38.640  32.122  33.252  1.00  0.00     0.120 A 
ATOM     13  C   UNL A   1      37.974  30.959  32.879  1.00  0.00     0.046 A 
ATOM     14  C   UNL A   1      39.949  32.064  33.727  1.00  0.00     0.046 A 
ATOM     15  C   UNL A   1      38.650  29.738  32.914  1.00  0.00     0.004 A 
ATOM     16  C   UNL A   1      40.632  30.852  33.735  1.00  0.00     0.004 A 
ATOM     17  C   UNL A   1      39.983  29.689  33.326  1.00  0.00     0.000 A 
ENDBRANCH  11  12
ENDBRANCH   8  11
ENDBRANCH   5   8
ENDBRANCH   3   4
ENDBRANCH   2   3
ENDBRANCH   1   2
BRANCH   1  18
ATOM     18  C   UNL A   1      35.034  32.660  28.050  1.00  0.00     0.116 C 
BRANCH  18  19
ATOM     19  N   UNL A   1      34.196  31.483  27.877  1.00  0.00    -0.352 N 
ATOM     20  C   UNL A   1      34.557  30.160  27.837  1.00  0.00     0.251 C 
ATOM     21  H   UNL A   1      33.234  31.662  27.772  1.00  0.00     0.163 HD
ATOM     22  O   UNL A   1      33.714  29.311  27.545  1.00  0.00    -0.269 OA
BRANCH  20  23
ATOM     23  C   UNL A   1      35.953  29.758  28.113  1.00  0.00     0.039 A 
ATOM     24  C   UNL A   1      36.887  29.834  27.077  1.00  0.00     0.014 A 
ATOM     25  C   UNL A   1      36.346  29.312  29.378  1.00  0.00     0.014 A 
ATOM     26  C   UNL A   1      38.224  29.518  27.328  1.00  0.00     0.010 A 
ATOM     27  C   UNL A   1      37.694  29.080  29.646  1.00  0.00     0.010 A 
ATOM     28  C   UNL A   1      38.648  29.175  28.624  1.00  0.00    -0.014 A 
BRANCH  28  29
ATOM     29  C   UNL A   1      40.085  28.925  28.906  1.00  0.00     0.031 A 
ATOM     30  C   UNL A   1      40.708  27.589  28.597  1.00  0.00     0.074 A 
ATOM     31  C   UNL A   1      40.829  29.901  29.466  1.00  0.00     0.049 A 
ATOM     32  N   UNL A   1      41.946  27.198  28.761  1.00  0.00    -0.248 NA
ATOM     33  C   UNL A   1      39.821  26.547  28.054  1.00  0.00     0.031 C 
ATOM     34  C   UNL A   1      40.325  31.215  29.877  1.00  0.00     0.029 A 
ATOM     35  N   UNL A   1      42.162  29.945  29.785  1.00  0.00    -0.354 N 
ATOM     36  C   UNL A   1      41.989  25.876  28.334  1.00  0.00     0.074 A 
ATOM     37  C   UNL A   1      40.638  25.506  27.975  1.00  0.00     0.031 C 
ATOM     38  C   UNL A   1      41.342  31.945  30.363  1.00  0.00     0.029 A 
ATOM     39  C   UNL A   1      42.561  31.143  30.331  1.00  0.00     0.049 A 
ATOM     40  H   UNL A   1      42.777  29.190  29.636  1.00  0.00     0.167 HD
ATOM     41  C   UNL A   1      43.061  25.056  28.218  1.00  0.00     0.037 A 
ATOM     42  C   UNL A   1      43.771  31.551  30.759  1.00  0.00     0.037 A 
ATOM     43  C   UNL A   1      44.406  25.431  28.572  1.00  0.00     0.049 A 
ATOM     44  C   UNL A   1      44.947  30.621  30.620  1.00  0.00     0.074 A 
ATOM     45  C   UNL A   1      45.566  24.682  28.465  1.00  0.00     0.029 A 
ATOM     46  N   UNL A   1      44.774  26.659  29.103  1.00  0.00    -0.354 N 
ATOM     47  N   UNL A   1      44.978  29.396  30.150  1.00  0.00    -0.248 NA
ATOM     48  C   UNL A   1      46.253  31.134  31.052  1.00  0.00     0.031 C 
ATOM     49  C   UNL A   1      46.626  25.441  28.970  1.00  0.00     0.029 A 
ATOM     50  C   UNL A   1      46.139  26.684  29.340  1.00  0.00     0.049 A 
ATOM     51  H   UNL A   1      44.156  27.403  29.284  1.00  0.00     0.167 HD
ATOM     52  C   UNL A   1      46.310  29.001  30.210  1.00  0.00     0.074 A 
ATOM     53  C   UNL A   1      47.055  30.127  30.735  1.00  0.00     0.031 C 
ATOM     54  C   UNL A   1      46.868  27.813  29.865  1.00  0.00     0.037 A 
BRANCH  41  55
ATOM     55  C   UNL A   1      42.826  23.676  27.663  1.00  0.00     0.058 A 
ATOM     56  C   UNL A   1      43.002  23.396  26.298  1.00  0.00     0.135 A 
ATOM     57  C   UNL A   1      42.466  22.610  28.505  1.00  0.00     0.135 A 
ATOM     58  F   UNL A   1      43.331  24.378  25.443  1.00  0.00    -0.206 F 
ATOM     59  C   UNL A   1      42.807  22.120  25.783  1.00  0.00     0.059 A 
ATOM     60  C   UNL A   1      42.295  21.317  28.016  1.00  0.00     0.059 A 
ATOM     61  F   UNL A   1      42.281  22.819  29.817  1.00  0.00    -0.206 F 
ATOM     62  C   UNL A   1      42.457  21.085  26.650  1.00  0.00     0.060 A 
BRANCH  62  63
ATOM     63  S   UNL A   1      42.226  19.430  25.966  1.00  0.00     0.124 S 
ATOM     64  O   UNL A   1      43.043  19.498  24.758  1.00  0.00    -0.237 OA
ATOM     65  O   UNL A   1      42.742  18.578  27.032  1.00  0.00    -0.237 OA
ATOM     66  O   UNL A   1      40.786  19.350  25.744  1.00  0.00    -0.744 OA
ENDBRANCH  62  63
ENDBRANCH  41  55
BRANCH  42  67
ATOM     67  C   UNL A   1      43.936  32.908  31.349  1.00  0.00     0.058 A 
ATOM     68  C   UNL A   1      43.857  33.116  32.736  1.00  0.00     0.135 A 
ATOM     69  C   UNL A   1      44.172  34.026  30.535  1.00  0.00     0.135 A 
ATOM     70  F   UNL A   1      43.630  32.080  33.557  1.00  0.00    -0.206 F 
ATOM     71  C   UNL A   1      43.974  34.386  33.290  1.00  0.00     0.059 A 
ATOM     72  C   UNL A   1      44.325  35.302  31.069  1.00  0.00     0.059 A 
ATOM     73  F   UNL A   1      44.278  33.881  29.205  1.00  0.00    -0.206 F 
ATOM     74  C   UNL A   1      44.209  35.475  32.447  1.00  0.00     0.060 A 
BRANCH  74  75
ATOM     75  S   UNL A   1      44.389  37.115  33.178  1.00  0.00     0.124 S 
ATOM     76  O   UNL A   1      43.646  36.966  34.424  1.00  0.00    -0.237 OA
ATOM     77  O   UNL A   1      45.837  37.236  33.308  1.00  0.00    -0.237 OA
ATOM     78  O   UNL A   1      43.782  37.993  32.182  1.00  0.00    -0.744 OA
ENDBRANCH  74  75
ENDBRANCH  42  67
BRANCH  54  79
ATOM     79  C   UNL A   1      48.359  27.684  30.018  1.00  0.00     0.058 A 
ATOM     80  C   UNL A   1      48.942  27.157  31.182  1.00  0.00     0.135 A 
ATOM     81  C   UNL A   1      49.218  28.078  28.978  1.00  0.00     0.135 A 
ATOM     82  F   UNL A   1      48.169  26.767  32.207  1.00  0.00    -0.206 F 
ATOM     83  C   UNL A   1      50.323  27.067  31.327  1.00  0.00     0.059 A 
ATOM     84  C   UNL A   1      50.600  27.966  29.089  1.00  0.00     0.059 A 
ATOM     85  F   UNL A   1      48.715  28.575  27.836  1.00  0.00    -0.206 F 
ATOM     86  C   UNL A   1      51.144  27.479  30.276  1.00  0.00     0.060 A 
BRANCH  86  87
ATOM     87  S   UNL A   1      52.933  27.359  30.478  1.00  0.00     0.124 S 
ATOM     88  O   UNL A   1      53.260  26.270  29.563  1.00  0.00    -0.237 OA
ATOM     89  O   UNL A   1      53.384  28.686  30.071  1.00  0.00    -0.237 OA
ATOM     90  O   UNL A   1      53.095  27.055  31.897  1.00  0.00    -0.744 OA
ENDBRANCH  86  87
ENDBRANCH  54  79
ENDBRANCH  28  29
ENDBRANCH  20  23
ENDBRANCH  18  19
ENDBRANCH   1  18
TORSDOF 17
ENDMDL
MODEL 3
REMARK VINA RESULT:      -8.3      4.667     11.394
REMARK SMILES CC[C@@H](Oc1ccccc1)C(=O)NCCCCNC(=O)c1ccc(-c2c3nc(c(-c4c(F)cc(S(=O)(=O)[O-])cc4F)c4ccc([nH]4)c(-c4c(F)cc(S(=O)(=O)[O-])cc4F)c4nc(c(-c5c(F)cc(S(=O)(=O)[O-])cc5F)c5ccc2[nH]5)C=C4)C=C3)cc1
REMARK SMILES IDX 16 1 15 2 14 3 13 4 11 5 12 6 3 8 2 9 1 10 4 11 5 12 6 13
REMARK SMILES IDX 10 14 7 15 9 16 8 17 17 18 18 19 19 20 20 22 21 23 22 24
REMARK SMILES IDX 86 25 23 26 85 27 24 28 25 29 26 30 79 31 27 32 84 33 78 34
REMARK SMILES IDX 80 35 28 36 83 37 77 38 76 39 29 41 63 42 42 43 62 44 43 45
REMARK SMILES IDX 46 46 61 47 81 48 44 49 45 50 60 52 82 53 47 54 30 55 31 56
REMARK SMILES IDX 40 57 32 58 33 59 39 60 41 61 34 62 35 63 36 64 37 65 38 66
REMARK SMILES IDX 64 67 65 68 74 69 66 70 67 71 73 72 75 73 68 74 69 75 70 76
REMARK SMILES IDX 71 77 72 78 48 79 49 80 58 81 50 82 51 83 57 84 59 85 52 86
REMARK SMILES IDX 53 87 54 88 55 89 56 90
REMARK H PARENT 13 7 18 21 80 40 46 51
REMARK Flexibility Score: inf
ROOT
ATOM      1  C   UNL A   1      39.482  22.613  26.598  1.00  0.00     0.023 C 
ENDROOT
BRANCH   1   2
ATOM      2  C   UNL A   1      38.327  23.599  26.435  1.00  0.00     0.023 C 
BRANCH   2   3
ATOM      3  C   UNL A   1      37.137  23.055  25.655  1.00  0.00     0.116 C 
BRANCH   3   4
ATOM      4  N   UNL A   1      36.198  22.344  26.507  1.00  0.00    -0.353 N 
ATOM      5  C   UNL A   1      34.844  22.185  26.357  1.00  0.00     0.261 C 
ATOM      6  O   UNL A   1      34.237  21.504  27.189  1.00  0.00    -0.271 OA
ATOM      7  H   UNL A   1      36.588  21.916  27.303  1.00  0.00     0.163 HD
BRANCH   5   8
ATOM      8  C   UNL A   1      34.096  22.902  25.217  1.00  0.00     0.261 C 
BRANCH   8   9
ATOM      9  C   UNL A   1      33.852  21.877  24.093  1.00  0.00     0.052 C 
ATOM     10  C   UNL A   1      32.605  22.172  23.268  1.00  0.00     0.008 C 
ENDBRANCH   8   9
BRANCH   8  11
ATOM     11  O   UNL A   1      32.913  23.440  25.833  1.00  0.00    -0.481 OA
BRANCH  11  12
ATOM     12  C   UNL A   1      32.845  24.795  25.901  1.00  0.00     0.120 A 
ATOM     13  C   UNL A   1      31.738  25.384  26.504  1.00  0.00     0.046 A 
ATOM     14  C   UNL A   1      33.777  25.576  25.219  1.00  0.00     0.046 A 
ATOM     15  C   UNL A   1      31.602  26.773  26.483  1.00  0.00     0.004 A 
ATOM     16  C   UNL A   1      33.656  26.963  25.223  1.00  0.00     0.004 A 
ATOM     17  C   UNL A   1      32.570  27.562  25.858  1.00  0.00     0.000 A 
ENDBRANCH  11  12
ENDBRANCH   8  11
ENDBRANCH   5   8
ENDBRANCH   3   4
ENDBRANCH   2   3
ENDBRANCH   1   2
BRANCH   1  18
ATOM     18  C   UNL A   1      40.813  23.235  27.007  1.00  0.00     0.116 C 
BRANCH  18  19
ATOM     19  N   UNL A   1      41.399  24.069  25.969  1.00  0.00    -0.352 N 
ATOM     20  C   UNL A   1      41.677  25.413  25.989  1.00  0.00     0.251 C 
ATOM     21  H   UNL A   1      41.628  23.603  25.133  1.00  0.00     0.163 HD
ATOM     22  O   UNL A   1      42.050  25.971  24.956  1.00  0.00    -0.269 OA
BRANCH  20  23
ATOM     23  C   UNL A   1      41.498  26.194  27.232  1.00  0.00     0.039 A 
ATOM     24  C   UNL A   1      42.420  27.200  27.528  1.00  0.00     0.014 A 
ATOM     25  C   UNL A   1      40.433  25.944  28.102  1.00  0.00     0.014 A 
ATOM     26  C   UNL A   1      42.239  27.991  28.664  1.00  0.00     0.010 A 
ATOM     27  C   UNL A   1      40.208  26.789  29.187  1.00  0.00     0.010 A 
ATOM     28  C   UNL A   1      41.111  27.819  29.484  1.00  0.00    -0.014 A 
BRANCH  28  29
ATOM     29  C   UNL A   1      40.875  28.719  30.643  1.00  0.00     0.031 A 
ATOM     30  C   UNL A   1      41.691  28.580  31.902  1.00  0.00     0.074 A 
ATOM     31  C   UNL A   1      39.905  29.652  30.569  1.00  0.00     0.049 A 
ATOM     32  N   UNL A   1      41.635  29.286  33.003  1.00  0.00    -0.248 NA
ATOM     33  C   UNL A   1      42.684  27.494  31.940  1.00  0.00     0.031 C 
ATOM     34  C   UNL A   1      39.000  29.840  29.431  1.00  0.00     0.029 A 
ATOM     35  N   UNL A   1      39.516  30.618  31.462  1.00  0.00    -0.354 N 
ATOM     36  C   UNL A   1      42.586  28.739  33.856  1.00  0.00     0.074 A 
ATOM     37  C   UNL A   1      43.153  27.595  33.175  1.00  0.00     0.031 C 
ATOM     38  C   UNL A   1      38.185  30.877  29.683  1.00  0.00     0.029 A 
ATOM     39  C   UNL A   1      38.483  31.406  31.009  1.00  0.00     0.049 A 
ATOM     40  H   UNL A   1      39.938  30.737  32.344  1.00  0.00     0.167 HD
ATOM     41  C   UNL A   1      42.978  29.169  35.079  1.00  0.00     0.037 A 
ATOM     42  C   UNL A   1      37.846  32.439  31.595  1.00  0.00     0.037 A 
ATOM     43  C   UNL A   1      42.414  30.313  35.750  1.00  0.00     0.049 A 
ATOM     44  C   UNL A   1      38.300  32.899  32.955  1.00  0.00     0.074 A 
ATOM     45  C   UNL A   1      42.761  30.848  36.979  1.00  0.00     0.029 A 
ATOM     46  N   UNL A   1      41.384  31.098  35.252  1.00  0.00    -0.354 N 
ATOM     47  N   UNL A   1      39.249  32.408  33.717  1.00  0.00    -0.248 NA
ATOM     48  C   UNL A   1      37.609  34.062  33.527  1.00  0.00     0.031 C 
ATOM     49  C   UNL A   1      41.914  31.930  37.242  1.00  0.00     0.029 A 
ATOM     50  C   UNL A   1      41.076  32.104  36.153  1.00  0.00     0.049 A 
ATOM     51  H   UNL A   1      40.939  30.960  34.385  1.00  0.00     0.167 HD
ATOM     52  C   UNL A   1      39.283  33.217  34.848  1.00  0.00     0.074 A 
ATOM     53  C   UNL A   1      38.279  34.243  34.657  1.00  0.00     0.031 C 
ATOM     54  C   UNL A   1      40.071  33.119  35.949  1.00  0.00     0.037 A 
BRANCH  41  55
ATOM     55  C   UNL A   1      44.087  28.414  35.762  1.00  0.00     0.058 A 
ATOM     56  C   UNL A   1      43.816  27.360  36.650  1.00  0.00     0.135 A 
ATOM     57  C   UNL A   1      45.434  28.711  35.495  1.00  0.00     0.135 A 
ATOM     58  F   UNL A   1      42.547  27.041  36.955  1.00  0.00    -0.206 F 
ATOM     59  C   UNL A   1      44.836  26.645  37.268  1.00  0.00     0.059 A 
ATOM     60  C   UNL A   1      46.472  27.988  36.079  1.00  0.00     0.059 A 
ATOM     61  F   UNL A   1      45.753  29.708  34.657  1.00  0.00    -0.206 F 
ATOM     62  C   UNL A   1      46.162  26.964  36.974  1.00  0.00     0.060 A 
BRANCH  62  63
ATOM     63  S   UNL A   1      47.472  26.011  37.770  1.00  0.00     0.124 S 
ATOM     64  O   UNL A   1      48.665  26.711  37.306  1.00  0.00    -0.237 OA
ATOM     65  O   UNL A   1      47.155  26.170  39.186  1.00  0.00    -0.237 OA
ATOM     66  O   UNL A   1      47.288  24.665  37.237  1.00  0.00    -0.744 OA
ENDBRANCH  62  63
ENDBRANCH  41  55
BRANCH  42  67
ATOM     67  C   UNL A   1      36.720  33.116  30.895  1.00  0.00     0.058 A 
ATOM     68  C   UNL A   1      36.951  34.033  29.858  1.00  0.00     0.135 A 
ATOM     69  C   UNL A   1      35.388  32.859  31.255  1.00  0.00     0.135 A 
ATOM     70  F   UNL A   1      38.207  34.314  29.479  1.00  0.00    -0.206 F 
ATOM     71  C   UNL A   1      35.905  34.695  29.224  1.00  0.00     0.059 A 
ATOM     72  C   UNL A   1      34.324  33.485  30.614  1.00  0.00     0.059 A 
ATOM     73  F   UNL A   1      35.110  31.975  32.225  1.00  0.00    -0.206 F 
ATOM     74  C   UNL A   1      34.592  34.414  29.609  1.00  0.00     0.060 A 
BRANCH  74  75
ATOM     75  S   UNL A   1      33.240  35.256  28.762  1.00  0.00     0.124 S 
ATOM     76  O   UNL A   1      33.964  36.191  27.909  1.00  0.00    -0.237 OA
ATOM     77  O   UNL A   1      32.572  34.153  28.078  1.00  0.00    -0.237 OA
ATOM     78  O   UNL A   1      32.481  35.856  29.855  1.00  0.00    -0.744 OA
ENDBRANCH  74  75
ENDBRANCH  42  67
BRANCH  54  79
ATOM     79  C   UNL A   1      39.897  34.167  37.014  1.00  0.00     0.058 A 
ATOM     80  C   UNL A   1      39.107  33.941  38.153  1.00  0.00     0.135 A 
ATOM     81  C   UNL A   1      40.541  35.411  36.902  1.00  0.00     0.135 A 
ATOM     82  F   UNL A   1      38.466  32.772  38.311  1.00  0.00    -0.206 F 
ATOM     83  C   UNL A   1      38.927  34.926  39.121  1.00  0.00     0.059 A 
ATOM     84  C   UNL A   1      40.402  36.397  37.873  1.00  0.00     0.059 A 
ATOM     85  F   UNL A   1      41.320  35.676  35.841  1.00  0.00    -0.206 F 
ATOM     86  C   UNL A   1      39.577  36.152  38.969  1.00  0.00     0.060 A 
BRANCH  86  87
ATOM     87  S   UNL A   1      39.334  37.421  40.230  1.00  0.00     0.124 S 
ATOM     88  O   UNL A   1      40.708  37.821  40.512  1.00  0.00    -0.237 OA
ATOM     89  O   UNL A   1      38.517  38.407  39.528  1.00  0.00    -0.237 OA
ATOM     90  O   UNL A   1      38.655  36.705  41.306  1.00  0.00    -0.744 OA
ENDBRANCH  86  87
ENDBRANCH  54  79
ENDBRANCH  28  29
ENDBRANCH  20  23
ENDBRANCH  18  19
ENDBRANCH   1  18
TORSDOF 17
ENDMDL
