MODEL 1
REMARK VINA RESULT:     -11.8      0.000      0.000
REMARK SMILES CCN(Cc1cn(CC)nc1C)C(=O)c1ccn([C@@H](C)C(=O)NCCCCNC(=O)c2ccc(-c3c4nc(c(-c5c(F)cc(S(=O)(=O)[O-])cc5F)c5ccc([nH]5)c(-c5c(F)cc(S(=O)(=O)[O-])cc5F)c5nc(c(-c6c(F)cc(S(=O)(=O)[O-])cc6F)c6ccc3[nH]6)C=C5)C=C4)cc2)n1
REMARK SMILES IDX 24 1 23 2 21 3 22 4 19 6 20 7 18 8 15 9 16 10 97 11 17 12
REMARK SMILES IDX 13 13 14 14 3 15 2 16 1 17 4 18 5 19 6 20 11 21 7 22 10 23
REMARK SMILES IDX 12 24 8 25 9 26 25 27 26 28 27 29 28 30 29 31 30 33 31 34
REMARK SMILES IDX 32 35 96 36 33 37 95 38 34 39 35 40 36 41 89 42 37 43 94 44
REMARK SMILES IDX 88 45 90 46 38 47 93 48 87 49 86 50 39 52 73 53 52 54 72 55
REMARK SMILES IDX 53 56 56 57 71 58 91 59 54 60 55 61 70 63 92 64 57 65 40 66
REMARK SMILES IDX 41 67 50 68 42 69 43 70 49 71 51 72 44 73 45 74 46 75 47 76
REMARK SMILES IDX 48 77 74 78 75 79 84 80 76 81 77 82 83 83 85 84 78 85 79 86
REMARK SMILES IDX 80 87 81 88 82 89 58 90 59 91 68 92 60 93 61 94 67 95 69 96
REMARK SMILES IDX 62 97 63 98 64 99 65 100 66 101
REMARK H PARENT 23 5 28 32 90 51 56 62
REMARK Flexibility Score: inf
ROOT
ATOM      1  C   UNL A   1      36.062  22.743  25.182  1.00  0.00     0.116 C 
ENDROOT
BRANCH   1   2
ATOM      2  N   UNL A   1      35.337  22.322  26.377  1.00  0.00    -0.354 N 
ATOM      3  C   UNL A   1      34.285  21.488  26.631  1.00  0.00     0.244 C 
ATOM      4  O   UNL A   1      33.943  21.444  27.823  1.00  0.00    -0.273 OA
ATOM      5  H   UNL A   1      35.692  22.738  27.195  1.00  0.00     0.163 HD
BRANCH   3   6
ATOM      6  C   UNL A   1      33.526  20.620  25.609  1.00  0.00     0.193 C 
ATOM      7  C   UNL A   1      34.335  19.478  25.009  1.00  0.00     0.044 C 
BRANCH   6   8
ATOM      8  N   UNL A   1      32.824  21.422  24.616  1.00  0.00    -0.260 N 
ATOM      9  C   UNL A   1      32.003  23.123  23.649  1.00  0.00     0.150 A 
ATOM     10  C   UNL A   1      32.403  22.210  22.652  1.00  0.00     0.056 A 
ATOM     11  N   UNL A   1      32.308  22.651  24.882  1.00  0.00    -0.167 NA
ATOM     12  C   UNL A   1      32.528  21.045  23.349  1.00  0.00     0.110 A 
BRANCH   9  13
ATOM     13  C   UNL A   1      31.233  24.341  23.381  1.00  0.00     0.274 C 
ATOM     14  O   UNL A   1      30.028  24.303  23.132  1.00  0.00    -0.267 OA
BRANCH  13  15
ATOM     15  N   UNL A   1      31.937  25.564  23.491  1.00  0.00    -0.333 N 
BRANCH  15  16
ATOM     16  C   UNL A   1      33.155  25.710  22.705  1.00  0.00     0.117 C 
ATOM     17  C   UNL A   1      32.861  25.854  21.217  1.00  0.00     0.027 C 
ENDBRANCH  15  16
BRANCH  15  18
ATOM     18  C   UNL A   1      31.655  26.598  24.505  1.00  0.00     0.159 C 
BRANCH  18  19
ATOM     19  C   UNL A   1      30.861  27.754  23.965  1.00  0.00     0.012 A 
ATOM     20  C   UNL A   1      29.834  27.765  23.032  1.00  0.00     0.114 A 
ATOM     21  C   UNL A   1      30.959  29.127  24.367  1.00  0.00     0.064 A 
ATOM     22  N   UNL A   1      29.337  29.038  23.010  1.00  0.00    -0.272 N 
ATOM     23  N   UNL A   1      30.031  29.889  23.777  1.00  0.00    -0.178 NA
ATOM     24  C   UNL A   1      31.864  29.761  25.363  1.00  0.00     0.069 C 
BRANCH  22  25
ATOM     25  C   UNL A   1      28.163  29.519  22.305  1.00  0.00     0.141 C 
ATOM     26  C   UNL A   1      28.434  30.784  21.502  1.00  0.00     0.029 C 
ENDBRANCH  22  25
ENDBRANCH  18  19
ENDBRANCH  15  18
ENDBRANCH  13  15
ENDBRANCH   9  13
ENDBRANCH   6   8
ENDBRANCH   3   6
ENDBRANCH   1   2
BRANCH   1  27
ATOM     27  C   UNL A   1      36.906  21.611  24.560  1.00  0.00     0.023 C 
BRANCH  27  28
ATOM     28  C   UNL A   1      38.085  21.065  25.362  1.00  0.00     0.023 C 
BRANCH  28  29
ATOM     29  C   UNL A   1      38.924  22.116  26.070  1.00  0.00     0.116 C 
BRANCH  29  30
ATOM     30  N   UNL A   1      40.357  21.975  25.828  1.00  0.00    -0.352 N 
ATOM     31  C   UNL A   1      41.336  22.948  25.991  1.00  0.00     0.251 C 
ATOM     32  H   UNL A   1      40.665  21.094  25.514  1.00  0.00     0.163 HD
ATOM     33  O   UNL A   1      42.414  22.870  25.444  1.00  0.00    -0.269 OA
BRANCH  31  34
ATOM     34  C   UNL A   1      40.996  24.092  26.859  1.00  0.00     0.039 A 
ATOM     35  C   UNL A   1      41.425  24.129  28.185  1.00  0.00     0.014 A 
ATOM     36  C   UNL A   1      40.384  25.191  26.262  1.00  0.00     0.014 A 
ATOM     37  C   UNL A   1      41.340  25.334  28.879  1.00  0.00     0.010 A 
ATOM     38  C   UNL A   1      40.410  26.406  26.913  1.00  0.00     0.010 A 
ATOM     39  C   UNL A   1      40.873  26.489  28.227  1.00  0.00    -0.014 A 
BRANCH  39  40
ATOM     40  C   UNL A   1      41.004  27.797  28.884  1.00  0.00     0.031 A 
ATOM     41  C   UNL A   1      42.113  28.666  28.385  1.00  0.00     0.074 A 
ATOM     42  C   UNL A   1      40.082  28.326  29.718  1.00  0.00     0.049 A 
ATOM     43  N   UNL A   1      43.170  29.053  29.019  1.00  0.00    -0.248 NA
ATOM     44  C   UNL A   1      42.081  29.093  26.976  1.00  0.00     0.031 C 
ATOM     45  C   UNL A   1      38.756  27.787  30.041  1.00  0.00     0.029 A 
ATOM     46  N   UNL A   1      40.088  29.527  30.371  1.00  0.00    -0.354 N 
ATOM     47  C   UNL A   1      43.818  29.958  28.175  1.00  0.00     0.074 A 
ATOM     48  C   UNL A   1      43.207  29.806  26.882  1.00  0.00     0.031 C 
ATOM     49  C   UNL A   1      38.003  28.751  30.609  1.00  0.00     0.029 A 
ATOM     50  C   UNL A   1      38.852  29.894  30.884  1.00  0.00     0.049 A 
ATOM     51  H   UNL A   1      40.896  30.081  30.469  1.00  0.00     0.167 HD
ATOM     52  C   UNL A   1      44.624  30.939  28.674  1.00  0.00     0.037 A 
ATOM     53  C   UNL A   1      38.522  31.042  31.515  1.00  0.00     0.037 A 
ATOM     54  C   UNL A   1      44.900  30.724  30.070  1.00  0.00     0.049 A 
ATOM     55  C   UNL A   1      39.753  31.617  32.100  1.00  0.00     0.074 A 
ATOM     56  C   UNL A   1      45.751  29.954  30.830  1.00  0.00     0.029 A 
ATOM     57  N   UNL A   1      43.934  31.213  30.905  1.00  0.00    -0.354 N 
ATOM     58  N   UNL A   1      40.459  31.022  33.024  1.00  0.00    -0.248 NA
ATOM     59  C   UNL A   1      40.400  32.755  31.455  1.00  0.00     0.031 C 
ATOM     60  C   UNL A   1      45.161  29.865  32.127  1.00  0.00     0.029 A 
ATOM     61  C   UNL A   1      43.977  30.597  32.128  1.00  0.00     0.049 A 
ATOM     62  H   UNL A   1      43.291  31.917  30.659  1.00  0.00     0.167 HD
ATOM     63  C   UNL A   1      41.753  31.434  32.782  1.00  0.00     0.074 A 
ATOM     64  C   UNL A   1      41.636  32.617  31.942  1.00  0.00     0.031 C 
ATOM     65  C   UNL A   1      42.810  30.599  32.983  1.00  0.00     0.037 A 
BRANCH  52  66
ATOM     66  C   UNL A   1      44.813  32.322  28.078  1.00  0.00     0.058 A 
ATOM     67  C   UNL A   1      46.085  32.692  27.583  1.00  0.00     0.135 A 
ATOM     68  C   UNL A   1      43.904  33.387  28.256  1.00  0.00     0.135 A 
ATOM     69  F   UNL A   1      47.035  31.765  27.375  1.00  0.00    -0.206 F 
ATOM     70  C   UNL A   1      46.448  34.023  27.354  1.00  0.00     0.059 A 
ATOM     71  C   UNL A   1      44.228  34.716  27.983  1.00  0.00     0.059 A 
ATOM     72  F   UNL A   1      42.695  33.205  28.798  1.00  0.00    -0.206 F 
ATOM     73  C   UNL A   1      45.515  35.030  27.575  1.00  0.00     0.060 A 
BRANCH  73  74
ATOM     74  S   UNL A   1      46.004  36.754  27.382  1.00  0.00     0.124 S 
ATOM     75  O   UNL A   1      46.657  36.729  26.079  1.00  0.00    -0.237 OA
ATOM     76  O   UNL A   1      44.719  37.445  27.440  1.00  0.00    -0.237 OA
ATOM     77  O   UNL A   1      46.881  36.983  28.527  1.00  0.00    -0.744 OA
ENDBRANCH  73  74
ENDBRANCH  52  66
BRANCH  53  78
ATOM     78  C   UNL A   1      37.231  31.767  31.473  1.00  0.00     0.058 A 
ATOM     79  C   UNL A   1      36.424  31.879  32.616  1.00  0.00     0.135 A 
ATOM     80  C   UNL A   1      36.904  32.601  30.386  1.00  0.00     0.135 A 
ATOM     81  F   UNL A   1      36.674  31.125  33.697  1.00  0.00    -0.206 F 
ATOM     82  C   UNL A   1      35.390  32.814  32.702  1.00  0.00     0.059 A 
ATOM     83  C   UNL A   1      35.873  33.535  30.444  1.00  0.00     0.059 A 
ATOM     84  F   UNL A   1      37.644  32.595  29.265  1.00  0.00    -0.206 F 
ATOM     85  C   UNL A   1      35.140  33.656  31.620  1.00  0.00     0.060 A 
BRANCH  85  86
ATOM     86  S   UNL A   1      33.944  34.999  31.808  1.00  0.00     0.124 S 
ATOM     87  O   UNL A   1      34.753  36.033  32.442  1.00  0.00    -0.237 OA
ATOM     88  O   UNL A   1      33.549  35.253  30.426  1.00  0.00    -0.237 OA
ATOM     89  O   UNL A   1      32.907  34.411  32.652  1.00  0.00    -0.744 OA
ENDBRANCH  85  86
ENDBRANCH  53  78
BRANCH  65  90
ATOM     90  C   UNL A   1      42.680  29.526  34.020  1.00  0.00     0.058 A 
ATOM     91  C   UNL A   1      42.801  29.721  35.405  1.00  0.00     0.135 A 
ATOM     92  C   UNL A   1      42.326  28.241  33.577  1.00  0.00     0.135 A 
ATOM     93  F   UNL A   1      43.068  30.934  35.909  1.00  0.00    -0.206 F 
ATOM     94  C   UNL A   1      42.601  28.675  36.308  1.00  0.00     0.059 A 
ATOM     95  C   UNL A   1      42.095  27.193  34.460  1.00  0.00     0.059 A 
ATOM     96  F   UNL A   1      42.157  28.006  32.265  1.00  0.00    -0.206 F 
ATOM     97  C   UNL A   1      42.244  27.415  35.826  1.00  0.00     0.060 A 
BRANCH  97  98
ATOM     98  S   UNL A   1      41.901  26.083  36.997  1.00  0.00     0.124 S 
ATOM     99  O   UNL A   1      42.020  24.897  36.157  1.00  0.00    -0.237 OA
ATOM    100  O   UNL A   1      42.950  26.261  37.997  1.00  0.00    -0.237 OA
ATOM    101  O   UNL A   1      40.550  26.382  37.467  1.00  0.00    -0.744 OA
ENDBRANCH  97  98
ENDBRANCH  65  90
ENDBRANCH  39  40
ENDBRANCH  31  34
ENDBRANCH  29  30
ENDBRANCH  28  29
ENDBRANCH  27  28
ENDBRANCH   1  27
TORSDOF 21
ENDMDL
MODEL 2
REMARK VINA RESULT:     -11.8      2.620      3.647
REMARK SMILES CCN(Cc1cn(CC)nc1C)C(=O)c1ccn([C@@H](C)C(=O)NCCCCNC(=O)c2ccc(-c3c4nc(c(-c5c(F)cc(S(=O)(=O)[O-])cc5F)c5ccc([nH]5)c(-c5c(F)cc(S(=O)(=O)[O-])cc5F)c5nc(c(-c6c(F)cc(S(=O)(=O)[O-])cc6F)c6ccc3[nH]6)C=C5)C=C4)cc2)n1
REMARK SMILES IDX 24 1 23 2 21 3 22 4 19 6 20 7 18 8 15 9 16 10 97 11 17 12
REMARK SMILES IDX 13 13 14 14 3 15 2 16 1 17 4 18 5 19 6 20 11 21 7 22 10 23
REMARK SMILES IDX 12 24 8 25 9 26 25 27 26 28 27 29 28 30 29 31 30 33 31 34
REMARK SMILES IDX 32 35 96 36 33 37 95 38 34 39 35 40 36 41 89 42 37 43 94 44
REMARK SMILES IDX 88 45 90 46 38 47 93 48 87 49 86 50 39 52 73 53 52 54 72 55
REMARK SMILES IDX 53 56 56 57 71 58 91 59 54 60 55 61 70 63 92 64 57 65 40 66
REMARK SMILES IDX 41 67 50 68 42 69 43 70 49 71 51 72 44 73 45 74 46 75 47 76
REMARK SMILES IDX 48 77 74 78 75 79 84 80 76 81 77 82 83 83 85 84 78 85 79 86
REMARK SMILES IDX 80 87 81 88 82 89 58 90 59 91 68 92 60 93 61 94 67 95 69 96
REMARK SMILES IDX 62 97 63 98 64 99 65 100 66 101
REMARK H PARENT 23 5 28 32 90 51 56 62
REMARK Flexibility Score: inf
ROOT
ATOM      1  C   UNL A   1      38.834  22.108  25.865  1.00  0.00     0.116 C 
ENDROOT
BRANCH   1   2
ATOM      2  N   UNL A   1      37.992  20.974  25.494  1.00  0.00    -0.354 N 
ATOM      3  C   UNL A   1      36.794  20.823  24.856  1.00  0.00     0.244 C 
ATOM      4  O   UNL A   1      36.396  19.650  24.782  1.00  0.00    -0.273 OA
ATOM      5  H   UNL A   1      38.381  20.113  25.769  1.00  0.00     0.163 HD
BRANCH   3   6
ATOM      6  C   UNL A   1      35.932  21.938  24.230  1.00  0.00     0.193 C 
ATOM      7  C   UNL A   1      36.677  22.874  23.289  1.00  0.00     0.044 C 
BRANCH   6   8
ATOM      8  N   UNL A   1      35.121  22.632  25.222  1.00  0.00    -0.260 N 
ATOM      9  C   UNL A   1      33.446  23.146  26.418  1.00  0.00     0.150 A 
ATOM     10  C   UNL A   1      34.608  23.385  27.178  1.00  0.00     0.056 A 
ATOM     11  N   UNL A   1      33.762  22.629  25.206  1.00  0.00    -0.167 NA
ATOM     12  C   UNL A   1      35.585  23.414  26.226  1.00  0.00     0.110 A 
BRANCH   9  13
ATOM     13  C   UNL A   1      32.098  23.543  26.838  1.00  0.00     0.274 C 
ATOM     14  O   UNL A   1      31.395  22.808  27.530  1.00  0.00    -0.267 OA
BRANCH  13  15
ATOM     15  N   UNL A   1      31.682  24.841  26.459  1.00  0.00    -0.333 N 
BRANCH  15  16
ATOM     16  C   UNL A   1      30.411  24.961  25.757  1.00  0.00     0.117 C 
ATOM     17  C   UNL A   1      30.441  24.271  24.399  1.00  0.00     0.027 C 
ENDBRANCH  15  16
BRANCH  15  18
ATOM     18  C   UNL A   1      32.539  26.041  26.520  1.00  0.00     0.159 C 
BRANCH  18  19
ATOM     19  C   UNL A   1      32.778  26.665  25.174  1.00  0.00     0.012 A 
ATOM     20  C   UNL A   1      33.379  26.131  24.044  1.00  0.00     0.114 A 
ATOM     21  C   UNL A   1      32.357  27.966  24.744  1.00  0.00     0.064 A 
ATOM     22  N   UNL A   1      33.200  27.039  23.038  1.00  0.00    -0.272 N 
ATOM     23  N   UNL A   1      32.623  28.176  23.449  1.00  0.00    -0.178 NA
ATOM     24  C   UNL A   1      31.631  29.026  25.495  1.00  0.00     0.069 C 
BRANCH  22  25
ATOM     25  C   UNL A   1      33.518  26.878  21.631  1.00  0.00     0.141 C 
ATOM     26  C   UNL A   1      32.706  25.777  20.964  1.00  0.00     0.029 C 
ENDBRANCH  22  25
ENDBRANCH  18  19
ENDBRANCH  15  18
ENDBRANCH  13  15
ENDBRANCH   9  13
ENDBRANCH   6   8
ENDBRANCH   3   6
ENDBRANCH   1   2
BRANCH   1  27
ATOM     27  C   UNL A   1      40.051  21.698  26.719  1.00  0.00     0.023 C 
BRANCH  27  28
ATOM     28  C   UNL A   1      40.681  20.329  26.471  1.00  0.00     0.023 C 
BRANCH  28  29
ATOM     29  C   UNL A   1      42.047  20.125  27.104  1.00  0.00     0.116 C 
BRANCH  29  30
ATOM     30  N   UNL A   1      43.048  19.609  26.173  1.00  0.00    -0.352 N 
ATOM     31  C   UNL A   1      43.817  20.341  25.276  1.00  0.00     0.251 C 
ATOM     32  H   UNL A   1      43.194  18.636  26.181  1.00  0.00     0.163 HD
ATOM     33  O   UNL A   1      44.346  19.825  24.317  1.00  0.00    -0.269 OA
BRANCH  31  34
ATOM     34  C   UNL A   1      43.951  21.786  25.543  1.00  0.00     0.039 A 
ATOM     35  C   UNL A   1      43.121  22.706  24.905  1.00  0.00     0.014 A 
ATOM     36  C   UNL A   1      44.812  22.172  26.568  1.00  0.00     0.014 A 
ATOM     37  C   UNL A   1      43.077  24.011  25.390  1.00  0.00     0.010 A 
ATOM     38  C   UNL A   1      44.678  23.430  27.116  1.00  0.00     0.010 A 
ATOM     39  C   UNL A   1      43.823  24.364  26.528  1.00  0.00    -0.014 A 
BRANCH  39  40
ATOM     40  C   UNL A   1      43.594  25.665  27.172  1.00  0.00     0.031 A 
ATOM     41  C   UNL A   1      44.606  26.724  26.875  1.00  0.00     0.074 A 
ATOM     42  C   UNL A   1      42.452  26.012  27.805  1.00  0.00     0.049 A 
ATOM     43  N   UNL A   1      45.439  27.283  27.691  1.00  0.00    -0.248 NA
ATOM     44  C   UNL A   1      44.769  27.159  25.477  1.00  0.00     0.031 C 
ATOM     45  C   UNL A   1      41.205  25.242  27.882  1.00  0.00     0.029 A 
ATOM     46  N   UNL A   1      42.122  27.185  28.424  1.00  0.00    -0.354 N 
ATOM     47  C   UNL A   1      46.066  28.299  26.967  1.00  0.00     0.074 A 
ATOM     48  C   UNL A   1      45.748  28.061  25.584  1.00  0.00     0.031 C 
ATOM     49  C   UNL A   1      40.199  26.049  28.277  1.00  0.00     0.029 A 
ATOM     50  C   UNL A   1      40.766  27.320  28.685  1.00  0.00     0.049 A 
ATOM     51  H   UNL A   1      42.786  27.871  28.662  1.00  0.00     0.167 HD
ATOM     52  C   UNL A   1      46.576  29.401  27.590  1.00  0.00     0.037 A 
ATOM     53  C   UNL A   1      40.124  28.383  29.220  1.00  0.00     0.037 A 
ATOM     54  C   UNL A   1      46.616  29.218  29.017  1.00  0.00     0.049 A 
ATOM     55  C   UNL A   1      41.101  29.158  30.016  1.00  0.00     0.074 A 
ATOM     56  C   UNL A   1      47.429  28.599  29.940  1.00  0.00     0.029 A 
ATOM     57  N   UNL A   1      45.438  29.516  29.644  1.00  0.00    -0.354 N 
ATOM     58  N   UNL A   1      41.713  28.684  31.068  1.00  0.00    -0.248 NA
ATOM     59  C   UNL A   1      41.648  30.401  29.483  1.00  0.00     0.031 C 
ATOM     60  C   UNL A   1      46.628  28.389  31.103  1.00  0.00     0.029 A 
ATOM     61  C   UNL A   1      45.355  28.900  30.864  1.00  0.00     0.049 A 
ATOM     62  H   UNL A   1      44.739  30.099  29.266  1.00  0.00     0.167 HD
ATOM     63  C   UNL A   1      42.935  29.321  31.068  1.00  0.00     0.074 A 
ATOM     64  C   UNL A   1      42.774  30.477  30.198  1.00  0.00     0.031 C 
ATOM     65  C   UNL A   1      44.065  28.684  31.483  1.00  0.00     0.037 A 
BRANCH  52  66
ATOM     66  C   UNL A   1      46.629  30.804  27.013  1.00  0.00     0.058 A 
ATOM     67  C   UNL A   1      47.860  31.499  27.000  1.00  0.00     0.135 A 
ATOM     68  C   UNL A   1      45.488  31.598  26.769  1.00  0.00     0.135 A 
ATOM     69  F   UNL A   1      49.016  30.850  27.222  1.00  0.00    -0.206 F 
ATOM     70  C   UNL A   1      47.943  32.885  26.831  1.00  0.00     0.059 A 
ATOM     71  C   UNL A   1      45.552  32.972  26.546  1.00  0.00     0.059 A 
ATOM     72  F   UNL A   1      44.249  31.099  26.837  1.00  0.00    -0.206 F 
ATOM     73  C   UNL A   1      46.778  33.615  26.622  1.00  0.00     0.060 A 
BRANCH  73  74
ATOM     74  S   UNL A   1      46.863  35.411  26.507  1.00  0.00     0.124 S 
ATOM     75  O   UNL A   1      47.870  35.591  25.467  1.00  0.00    -0.237 OA
ATOM     76  O   UNL A   1      45.494  35.760  26.138  1.00  0.00    -0.237 OA
ATOM     77  O   UNL A   1      47.263  35.814  27.852  1.00  0.00    -0.744 OA
ENDBRANCH  73  74
ENDBRANCH  52  66
BRANCH  53  78
ATOM     78  C   UNL A   1      38.758  28.868  28.919  1.00  0.00     0.058 A 
ATOM     79  C   UNL A   1      37.791  28.988  29.930  1.00  0.00     0.135 A 
ATOM     80  C   UNL A   1      38.465  29.491  27.689  1.00  0.00     0.135 A 
ATOM     81  F   UNL A   1      37.998  28.430  31.132  1.00  0.00    -0.206 F 
ATOM     82  C   UNL A   1      36.627  29.738  29.754  1.00  0.00     0.059 A 
ATOM     83  C   UNL A   1      37.307  30.238  27.487  1.00  0.00     0.059 A 
ATOM     84  F   UNL A   1      39.347  29.467  26.677  1.00  0.00    -0.206 F 
ATOM     85  C   UNL A   1      36.407  30.382  28.537  1.00  0.00     0.060 A 
BRANCH  85  86
ATOM     86  S   UNL A   1      35.008  31.517  28.383  1.00  0.00     0.124 S 
ATOM     87  O   UNL A   1      34.003  30.669  27.753  1.00  0.00    -0.237 OA
ATOM     88  O   UNL A   1      34.757  31.882  29.773  1.00  0.00    -0.237 OA
ATOM     89  O   UNL A   1      35.535  32.590  27.545  1.00  0.00    -0.744 OA
ENDBRANCH  85  86
ENDBRANCH  53  78
BRANCH  65  90
ATOM     90  C   UNL A   1      43.931  27.590  32.497  1.00  0.00     0.058 A 
ATOM     91  C   UNL A   1      43.609  27.777  33.850  1.00  0.00     0.135 A 
ATOM     92  C   UNL A   1      44.055  26.268  32.040  1.00  0.00     0.135 A 
ATOM     93  F   UNL A   1      43.405  29.006  34.346  1.00  0.00    -0.206 F 
ATOM     94  C   UNL A   1      43.440  26.695  34.716  1.00  0.00     0.059 A 
ATOM     95  C   UNL A   1      43.865  25.175  32.878  1.00  0.00     0.059 A 
ATOM     96  F   UNL A   1      44.324  26.028  30.746  1.00  0.00    -0.206 F 
ATOM     97  C   UNL A   1      43.566  25.396  34.219  1.00  0.00     0.060 A 
BRANCH  97  98
ATOM     98  S   UNL A   1      43.264  23.994  35.317  1.00  0.00     0.124 S 
ATOM     99  O   UNL A   1      44.237  24.222  36.380  1.00  0.00    -0.237 OA
ATOM    100  O   UNL A   1      41.864  24.177  35.688  1.00  0.00    -0.237 OA
ATOM    101  O   UNL A   1      43.527  22.834  34.468  1.00  0.00    -0.744 OA
ENDBRANCH  97  98
ENDBRANCH  65  90
ENDBRANCH  39  40
ENDBRANCH  31  34
ENDBRANCH  29  30
ENDBRANCH  28  29
ENDBRANCH  27  28
ENDBRANCH   1  27
TORSDOF 21
ENDMDL
MODEL 3
REMARK VINA RESULT:     -11.8      2.879      9.758
REMARK SMILES CCN(Cc1cn(CC)nc1C)C(=O)c1ccn([C@@H](C)C(=O)NCCCCNC(=O)c2ccc(-c3c4nc(c(-c5c(F)cc(S(=O)(=O)[O-])cc5F)c5ccc([nH]5)c(-c5c(F)cc(S(=O)(=O)[O-])cc5F)c5nc(c(-c6c(F)cc(S(=O)(=O)[O-])cc6F)c6ccc3[nH]6)C=C5)C=C4)cc2)n1
REMARK SMILES IDX 24 1 23 2 21 3 22 4 19 6 20 7 18 8 15 9 16 10 97 11 17 12
REMARK SMILES IDX 13 13 14 14 3 15 2 16 1 17 4 18 5 19 6 20 11 21 7 22 10 23
REMARK SMILES IDX 12 24 8 25 9 26 25 27 26 28 27 29 28 30 29 31 30 33 31 34
REMARK SMILES IDX 32 35 96 36 33 37 95 38 34 39 35 40 36 41 89 42 37 43 94 44
REMARK SMILES IDX 88 45 90 46 38 47 93 48 87 49 86 50 39 52 73 53 52 54 72 55
REMARK SMILES IDX 53 56 56 57 71 58 91 59 54 60 55 61 70 63 92 64 57 65 40 66
REMARK SMILES IDX 41 67 50 68 42 69 43 70 49 71 51 72 44 73 45 74 46 75 47 76
REMARK SMILES IDX 48 77 74 78 75 79 84 80 76 81 77 82 83 83 85 84 78 85 79 86
REMARK SMILES IDX 80 87 81 88 82 89 58 90 59 91 68 92 60 93 61 94 67 95 69 96
REMARK SMILES IDX 62 97 63 98 64 99 65 100 66 101
REMARK H PARENT 23 5 28 32 90 51 56 62
REMARK Flexibility Score: inf
ROOT
ATOM      1  C   UNL A   1      33.652  28.341  26.043  1.00  0.00     0.116 C 
ENDROOT
BRANCH   1   2
ATOM      2  N   UNL A   1      32.517  27.583  26.561  1.00  0.00    -0.354 N 
ATOM      3  C   UNL A   1      31.427  26.970  26.012  1.00  0.00     0.244 C 
ATOM      4  O   UNL A   1      30.656  26.458  26.838  1.00  0.00    -0.273 OA
ATOM      5  H   UNL A   1      32.544  27.492  27.540  1.00  0.00     0.163 HD
BRANCH   3   6
ATOM      6  C   UNL A   1      31.090  26.850  24.512  1.00  0.00     0.193 C 
ATOM      7  C   UNL A   1      29.635  26.521  24.205  1.00  0.00     0.044 C 
BRANCH   6   8
ATOM      8  N   UNL A   1      32.042  26.010  23.798  1.00  0.00    -0.260 N 
ATOM      9  C   UNL A   1      33.358  24.397  23.388  1.00  0.00     0.150 A 
ATOM     10  C   UNL A   1      32.775  24.799  22.170  1.00  0.00     0.056 A 
ATOM     11  N   UNL A   1      32.866  25.125  24.419  1.00  0.00    -0.167 NA
ATOM     12  C   UNL A   1      32.290  26.039  22.467  1.00  0.00     0.110 A 
BRANCH   9  13
ATOM     13  C   UNL A   1      34.452  23.426  23.490  1.00  0.00     0.274 C 
ATOM     14  O   UNL A   1      35.352  23.376  22.653  1.00  0.00    -0.267 OA
BRANCH  13  15
ATOM     15  N   UNL A   1      34.448  22.598  24.638  1.00  0.00    -0.333 N 
BRANCH  15  16
ATOM     16  C   UNL A   1      35.737  22.261  25.227  1.00  0.00     0.117 C 
ATOM     17  C   UNL A   1      36.318  23.417  26.032  1.00  0.00     0.027 C 
ENDBRANCH  15  16
BRANCH  15  18
ATOM     18  C   UNL A   1      33.263  21.874  25.137  1.00  0.00     0.159 C 
BRANCH  18  19
ATOM     19  C   UNL A   1      33.108  20.507  24.533  1.00  0.00     0.012 A 
ATOM     20  C   UNL A   1      33.463  19.267  25.043  1.00  0.00     0.114 A 
ATOM     21  C   UNL A   1      32.474  20.185  23.288  1.00  0.00     0.064 A 
ATOM     22  N   UNL A   1      32.961  18.330  24.184  1.00  0.00    -0.272 N 
ATOM     23  N   UNL A   1      32.397  18.863  23.092  1.00  0.00    -0.178 NA
ATOM     24  C   UNL A   1      31.857  21.085  22.277  1.00  0.00     0.069 C 
BRANCH  22  25
ATOM     25  C   UNL A   1      32.942  16.889  24.356  1.00  0.00     0.141 C 
ATOM     26  C   UNL A   1      34.335  16.293  24.499  1.00  0.00     0.029 C 
ENDBRANCH  22  25
ENDBRANCH  18  19
ENDBRANCH  15  18
ENDBRANCH  13  15
ENDBRANCH   9  13
ENDBRANCH   6   8
ENDBRANCH   3   6
ENDBRANCH   1   2
BRANCH   1  27
ATOM     27  C   UNL A   1      34.240  29.325  27.075  1.00  0.00     0.023 C 
BRANCH  27  28
ATOM     28  C   UNL A   1      33.401  30.534  27.481  1.00  0.00     0.023 C 
BRANCH  28  29
ATOM     29  C   UNL A   1      34.170  31.838  27.611  1.00  0.00     0.116 C 
BRANCH  29  30
ATOM     30  N   UNL A   1      34.193  32.367  28.973  1.00  0.00    -0.352 N 
ATOM     31  C   UNL A   1      35.035  31.982  30.010  1.00  0.00     0.251 C 
ATOM     32  H   UNL A   1      33.540  33.074  29.179  1.00  0.00     0.163 HD
ATOM     33  O   UNL A   1      34.762  32.201  31.169  1.00  0.00    -0.269 OA
BRANCH  31  34
ATOM     34  C   UNL A   1      36.276  31.281  29.630  1.00  0.00     0.039 A 
ATOM     35  C   UNL A   1      37.409  32.000  29.252  1.00  0.00     0.014 A 
ATOM     36  C   UNL A   1      36.321  29.903  29.826  1.00  0.00     0.014 A 
ATOM     37  C   UNL A   1      38.630  31.332  29.185  1.00  0.00     0.010 A 
ATOM     38  C   UNL A   1      37.547  29.274  29.872  1.00  0.00     0.010 A 
ATOM     39  C   UNL A   1      38.709  29.974  29.540  1.00  0.00    -0.014 A 
BRANCH  39  40
ATOM     40  C   UNL A   1      40.024  29.338  29.695  1.00  0.00     0.031 A 
ATOM     41  C   UNL A   1      40.474  29.107  31.101  1.00  0.00     0.074 A 
ATOM     42  C   UNL A   1      40.719  28.770  28.684  1.00  0.00     0.049 A 
ATOM     43  N   UNL A   1      41.471  29.650  31.720  1.00  0.00    -0.248 NA
ATOM     44  C   UNL A   1      39.664  28.220  31.953  1.00  0.00     0.031 C 
ATOM     45  C   UNL A   1      40.277  28.569  27.299  1.00  0.00     0.029 A 
ATOM     46  N   UNL A   1      41.934  28.143  28.708  1.00  0.00    -0.354 N 
ATOM     47  C   UNL A   1      41.557  29.005  32.955  1.00  0.00     0.074 A 
ATOM     48  C   UNL A   1      40.328  28.273  33.111  1.00  0.00     0.031 C 
ATOM     49  C   UNL A   1      41.078  27.668  26.695  1.00  0.00     0.029 A 
ATOM     50  C   UNL A   1      42.203  27.397  27.570  1.00  0.00     0.049 A 
ATOM     51  H   UNL A   1      42.560  28.215  29.464  1.00  0.00     0.167 HD
ATOM     52  C   UNL A   1      42.741  28.918  33.627  1.00  0.00     0.037 A 
ATOM     53  C   UNL A   1      43.279  26.617  27.323  1.00  0.00     0.037 A 
ATOM     54  C   UNL A   1      43.735  29.777  33.040  1.00  0.00     0.049 A 
ATOM     55  C   UNL A   1      44.399  27.096  28.163  1.00  0.00     0.074 A 
ATOM     56  C   UNL A   1      44.074  31.111  33.076  1.00  0.00     0.029 A 
ATOM     57  N   UNL A   1      44.394  29.216  31.982  1.00  0.00    -0.354 N 
ATOM     58  N   UNL A   1      44.926  28.286  28.051  1.00  0.00    -0.248 NA
ATOM     59  C   UNL A   1      44.774  26.357  29.363  1.00  0.00     0.031 C 
ATOM     60  C   UNL A   1      44.834  31.363  31.894  1.00  0.00     0.029 A 
ATOM     61  C   UNL A   1      44.953  30.175  31.180  1.00  0.00     0.049 A 
ATOM     62  H   UNL A   1      44.458  28.246  31.818  1.00  0.00     0.167 HD
ATOM     63  C   UNL A   1      45.344  28.596  29.328  1.00  0.00     0.074 A 
ATOM     64  C   UNL A   1      45.393  27.328  30.041  1.00  0.00     0.031 C 
ATOM     65  C   UNL A   1      45.280  29.870  29.803  1.00  0.00     0.037 A 
BRANCH  52  66
ATOM     66  C   UNL A   1      43.176  27.765  34.515  1.00  0.00     0.058 A 
ATOM     67  C   UNL A   1      43.403  28.001  35.890  1.00  0.00     0.135 A 
ATOM     68  C   UNL A   1      43.677  26.540  34.024  1.00  0.00     0.135 A 
ATOM     69  F   UNL A   1      42.975  29.135  36.470  1.00  0.00    -0.206 F 
ATOM     70  C   UNL A   1      44.133  27.122  36.696  1.00  0.00     0.059 A 
ATOM     71  C   UNL A   1      44.361  25.625  34.823  1.00  0.00     0.059 A 
ATOM     72  F   UNL A   1      43.616  26.217  32.728  1.00  0.00    -0.206 F 
ATOM     73  C   UNL A   1      44.623  25.943  36.146  1.00  0.00     0.060 A 
BRANCH  73  74
ATOM     74  S   UNL A   1      45.652  24.854  37.149  1.00  0.00     0.124 S 
ATOM     75  O   UNL A   1      46.962  25.476  37.006  1.00  0.00    -0.237 OA
ATOM     76  O   UNL A   1      45.029  24.969  38.464  1.00  0.00    -0.237 OA
ATOM     77  O   UNL A   1      45.493  23.555  36.501  1.00  0.00    -0.744 OA
ENDBRANCH  73  74
ENDBRANCH  52  66
BRANCH  53  78
ATOM     78  C   UNL A   1      43.332  25.358  26.545  1.00  0.00     0.058 A 
ATOM     79  C   UNL A   1      44.149  25.241  25.409  1.00  0.00     0.135 A 
ATOM     80  C   UNL A   1      42.801  24.161  27.067  1.00  0.00     0.135 A 
ATOM     81  F   UNL A   1      44.699  26.333  24.857  1.00  0.00    -0.206 F 
ATOM     82  C   UNL A   1      44.476  24.000  24.858  1.00  0.00     0.059 A 
ATOM     83  C   UNL A   1      43.106  22.913  26.530  1.00  0.00     0.059 A 
ATOM     84  F   UNL A   1      42.043  24.168  28.175  1.00  0.00    -0.206 F 
ATOM     85  C   UNL A   1      43.970  22.840  25.443  1.00  0.00     0.060 A 
BRANCH  85  86
ATOM     86  S   UNL A   1      44.558  21.233  24.858  1.00  0.00     0.124 S 
ATOM     87  O   UNL A   1      43.510  20.339  25.336  1.00  0.00    -0.237 OA
ATOM     88  O   UNL A   1      44.615  21.436  23.414  1.00  0.00    -0.237 OA
ATOM     89  O   UNL A   1      45.853  21.088  25.516  1.00  0.00    -0.744 OA
ENDBRANCH  85  86
ENDBRANCH  53  78
BRANCH  65  90
ATOM     90  C   UNL A   1      45.378  30.999  28.824  1.00  0.00     0.058 A 
ATOM     91  C   UNL A   1      46.566  31.455  28.233  1.00  0.00     0.135 A 
ATOM     92  C   UNL A   1      44.177  31.591  28.401  1.00  0.00     0.135 A 
ATOM     93  F   UNL A   1      47.745  30.893  28.533  1.00  0.00    -0.206 F 
ATOM     94  C   UNL A   1      46.561  32.474  27.278  1.00  0.00     0.059 A 
ATOM     95  C   UNL A   1      44.146  32.587  27.432  1.00  0.00     0.059 A 
ATOM     96  F   UNL A   1      43.006  31.166  28.903  1.00  0.00    -0.206 F 
ATOM     97  C   UNL A   1      45.344  33.032  26.880  1.00  0.00     0.060 A 
BRANCH  97  98
ATOM     98  S   UNL A   1      45.327  34.289  25.584  1.00  0.00     0.124 S 
ATOM     99  O   UNL A   1      44.655  33.594  24.491  1.00  0.00    -0.237 OA
ATOM    100  O   UNL A   1      44.574  35.375  26.205  1.00  0.00    -0.237 OA
ATOM    101  O   UNL A   1      46.745  34.572  25.366  1.00  0.00    -0.744 OA
ENDBRANCH  97  98
ENDBRANCH  65  90
ENDBRANCH  39  40
ENDBRANCH  31  34
ENDBRANCH  29  30
ENDBRANCH  28  29
ENDBRANCH  27  28
ENDBRANCH   1  27
TORSDOF 21
ENDMDL
