MODEL 1
REMARK VINA RESULT:     -12.4      0.000      0.000
REMARK SMILES O=C(NCCCCNC(=O)c1ccc(S(=O)(=O)NCCCn2cccn2)cc1)c1ccc(-c2c3nc(c(-c4c(F)cc(S(=O)(=O)[O-])cc4F)c4ccc([nH]4)c(-c4c(F)cc(S(=O)(=O)[O-])cc4F)c4nc(c(-c5c(F)cc(S(=O)(=O)[O-])cc5F)c5ccc2[nH]5)C=C4)C=C3)cc1
REMARK SMILES IDX 7 1 6 2 5 3 4 4 3 5 1 6 2 7 29 9 30 10 94 11 31 12 93 13
REMARK SMILES IDX 32 14 33 15 34 16 87 17 35 18 92 19 86 20 88 21 36 22 91 23
REMARK SMILES IDX 85 24 84 25 37 27 71 28 50 29 70 30 51 31 54 32 69 33 89 34
REMARK SMILES IDX 52 35 53 36 68 38 90 39 55 40 38 41 39 42 48 43 40 44 41 45
REMARK SMILES IDX 47 46 49 47 42 48 43 49 44 50 45 51 46 52 72 53 73 54 82 55
REMARK SMILES IDX 74 56 75 57 81 58 83 59 76 60 77 61 78 62 79 63 80 64 56 65
REMARK SMILES IDX 57 66 66 67 58 68 59 69 65 70 67 71 60 72 61 73 62 74 63 75
REMARK SMILES IDX 64 76 8 77 9 78 10 80 11 81 12 82 28 83 13 84 27 85 14 86
REMARK SMILES IDX 15 87 16 88 17 89 18 90 19 92 20 93 21 94 22 95 23 96 26 97
REMARK SMILES IDX 24 98 25 99
REMARK H PARENT 3 8 88 26 54 37 8 79 18 91
REMARK Flexibility Score: inf
ROOT
ATOM      1  C   UNL A   1      37.873  23.526  26.146  1.00  0.00     0.116 C 
ENDROOT
BRANCH   1   2
ATOM      2  C   UNL A   1      39.234  23.118  26.695  1.00  0.00     0.023 C 
BRANCH   2   3
ATOM      3  C   UNL A   1      39.834  21.830  26.130  1.00  0.00     0.023 C 
BRANCH   3   4
ATOM      4  C   UNL A   1      41.331  21.635  26.366  1.00  0.00     0.116 C 
BRANCH   4   5
ATOM      5  N   UNL A   1      42.184  22.256  25.375  1.00  0.00    -0.352 N 
ATOM      6  O   UNL A   1      43.669  23.506  24.345  1.00  0.00    -0.269 OA
ATOM      7  C   UNL A   1      42.867  23.437  25.282  1.00  0.00     0.251 C 
ATOM      8  H   UNL A   1      42.301  21.693  24.575  1.00  0.00     0.163 HD
BRANCH   7   9
ATOM      9  C   UNL A   1      42.686  24.631  26.159  1.00  0.00     0.039 A 
ATOM     10  C   UNL A   1      43.181  24.787  27.453  1.00  0.00     0.014 A 
ATOM     11  C   UNL A   1      41.897  25.668  25.621  1.00  0.00     0.014 A 
ATOM     12  C   UNL A   1      42.841  25.916  28.207  1.00  0.00     0.010 A 
ATOM     13  C   UNL A   1      41.557  26.795  26.367  1.00  0.00     0.010 A 
ATOM     14  C   UNL A   1      42.002  26.907  27.678  1.00  0.00    -0.014 A 
BRANCH  14  15
ATOM     15  C   UNL A   1      41.742  28.109  28.476  1.00  0.00     0.031 A 
ATOM     16  C   UNL A   1      42.835  29.128  28.437  1.00  0.00     0.074 A 
ATOM     17  C   UNL A   1      40.573  28.397  29.089  1.00  0.00     0.049 A 
ATOM     18  N   UNL A   1      43.583  29.541  29.409  1.00  0.00    -0.248 NA
ATOM     19  C   UNL A   1      43.213  29.674  27.124  1.00  0.00     0.031 C 
ATOM     20  C   UNL A   1      39.295  27.687  28.991  1.00  0.00     0.029 A 
ATOM     21  N   UNL A   1      40.263  29.462  29.888  1.00  0.00    -0.354 N 
ATOM     22  C   UNL A   1      44.395  30.542  28.877  1.00  0.00     0.074 A 
ATOM     23  C   UNL A   1      44.224  30.481  27.448  1.00  0.00     0.031 C 
ATOM     24  C   UNL A   1      38.311  28.453  29.521  1.00  0.00     0.029 A 
ATOM     25  C   UNL A   1      38.903  29.635  30.126  1.00  0.00     0.049 A 
ATOM     26  H   UNL A   1      40.948  30.061  30.263  1.00  0.00     0.167 HD
ATOM     27  C   UNL A   1      45.006  31.473  29.663  1.00  0.00     0.037 A 
ATOM     28  C   UNL A   1      38.305  30.689  30.744  1.00  0.00     0.037 A 
ATOM     29  C   UNL A   1      45.053  31.051  31.038  1.00  0.00     0.049 A 
ATOM     30  C   UNL A   1      39.343  31.365  31.562  1.00  0.00     0.074 A 
ATOM     31  C   UNL A   1      45.610  29.978  31.705  1.00  0.00     0.029 A 
ATOM     32  N   UNL A   1      44.149  31.601  31.913  1.00  0.00    -0.354 N 
ATOM     33  N   UNL A   1      39.915  30.834  32.607  1.00  0.00    -0.248 NA
ATOM     34  C   UNL A   1      40.056  32.477  30.956  1.00  0.00     0.031 C 
ATOM     35  C   UNL A   1      44.662  29.641  32.712  1.00  0.00     0.029 A 
ATOM     36  C   UNL A   1      43.620  30.567  32.640  1.00  0.00     0.049 A 
ATOM     37  H   UNL A   1      43.924  32.556  32.001  1.00  0.00     0.167 HD
ATOM     38  C   UNL A   1      41.236  31.248  32.534  1.00  0.00     0.074 A 
ATOM     39  C   UNL A   1      41.245  32.321  31.543  1.00  0.00     0.031 C 
ATOM     40  C   UNL A   1      42.244  30.508  33.081  1.00  0.00     0.037 A 
BRANCH  27  41
ATOM     41  C   UNL A   1      45.273  32.904  29.254  1.00  0.00     0.058 A 
ATOM     42  C   UNL A   1      44.191  33.784  29.039  1.00  0.00     0.135 A 
ATOM     43  C   UNL A   1      46.527  33.360  28.791  1.00  0.00     0.135 A 
ATOM     44  F   UNL A   1      42.951  33.453  29.429  1.00  0.00    -0.206 F 
ATOM     45  C   UNL A   1      44.333  34.992  28.353  1.00  0.00     0.059 A 
ATOM     46  C   UNL A   1      46.701  34.582  28.151  1.00  0.00     0.059 A 
ATOM     47  F   UNL A   1      47.626  32.598  28.849  1.00  0.00    -0.206 F 
ATOM     48  C   UNL A   1      45.592  35.374  27.898  1.00  0.00     0.060 A 
BRANCH  48  49
ATOM     49  S   UNL A   1      45.763  36.878  26.922  1.00  0.00     0.124 S 
ATOM     50  O   UNL A   1      46.421  37.768  27.871  1.00  0.00    -0.237 OA
ATOM     51  O   UNL A   1      46.581  36.421  25.802  1.00  0.00    -0.237 OA
ATOM     52  O   UNL A   1      44.385  37.220  26.584  1.00  0.00    -0.744 OA
ENDBRANCH  48  49
ENDBRANCH  27  41
BRANCH  28  53
ATOM     53  C   UNL A   1      37.012  31.355  30.415  1.00  0.00     0.058 A 
ATOM     54  C   UNL A   1      36.129  31.790  31.423  1.00  0.00     0.135 A 
ATOM     55  C   UNL A   1      36.762  31.853  29.121  1.00  0.00     0.135 A 
ATOM     56  F   UNL A   1      36.303  31.388  32.691  1.00  0.00    -0.206 F 
ATOM     57  C   UNL A   1      35.094  32.701  31.172  1.00  0.00     0.059 A 
ATOM     58  C   UNL A   1      35.734  32.756  28.846  1.00  0.00     0.059 A 
ATOM     59  F   UNL A   1      37.574  31.549  28.098  1.00  0.00    -0.206 F 
ATOM     60  C   UNL A   1      34.918  33.197  29.881  1.00  0.00     0.060 A 
BRANCH  60  61
ATOM     61  S   UNL A   1      33.701  34.505  29.584  1.00  0.00     0.124 S 
ATOM     62  O   UNL A   1      33.301  34.860  30.942  1.00  0.00    -0.237 OA
ATOM     63  O   UNL A   1      34.487  35.504  28.869  1.00  0.00    -0.237 OA
ATOM     64  O   UNL A   1      32.675  33.837  28.786  1.00  0.00    -0.744 OA
ENDBRANCH  60  61
ENDBRANCH  28  53
BRANCH  40  65
ATOM     65  C   UNL A   1      41.896  29.395  34.035  1.00  0.00     0.058 A 
ATOM     66  C   UNL A   1      41.520  28.098  33.645  1.00  0.00     0.135 A 
ATOM     67  C   UNL A   1      42.149  29.608  35.399  1.00  0.00     0.135 A 
ATOM     68  F   UNL A   1      41.347  27.787  32.352  1.00  0.00    -0.206 F 
ATOM     69  C   UNL A   1      41.389  27.063  34.575  1.00  0.00     0.059 A 
ATOM     70  C   UNL A   1      42.055  28.587  36.338  1.00  0.00     0.059 A 
ATOM     71  F   UNL A   1      42.563  30.813  35.825  1.00  0.00    -0.206 F 
ATOM     72  C   UNL A   1      41.671  27.314  35.918  1.00  0.00     0.060 A 
BRANCH  72  73
ATOM     73  S   UNL A   1      41.628  25.949  37.101  1.00  0.00     0.124 S 
ATOM     74  O   UNL A   1      42.729  26.284  37.998  1.00  0.00    -0.237 OA
ATOM     75  O   UNL A   1      40.289  26.064  37.669  1.00  0.00    -0.237 OA
ATOM     76  O   UNL A   1      41.840  24.767  36.267  1.00  0.00    -0.744 OA
ENDBRANCH  72  73
ENDBRANCH  40  65
ENDBRANCH  14  15
ENDBRANCH   7   9
ENDBRANCH   4   5
ENDBRANCH   3   4
ENDBRANCH   2   3
ENDBRANCH   1   2
BRANCH   1  77
ATOM     77  N   UNL A   1      37.707  23.267  24.723  1.00  0.00    -0.352 N 
ATOM     78  C   UNL A   1      36.567  23.252  23.951  1.00  0.00     0.251 C 
ATOM     79  H   UNL A   1      38.540  23.072  24.236  1.00  0.00     0.163 HD
ATOM     80  O   UNL A   1      36.628  22.936  22.766  1.00  0.00    -0.269 OA
BRANCH  78  81
ATOM     81  C   UNL A   1      35.254  23.604  24.537  1.00  0.00     0.039 A 
ATOM     82  C   UNL A   1      34.336  22.585  24.820  1.00  0.00     0.015 A 
ATOM     83  C   UNL A   1      34.916  24.934  24.796  1.00  0.00     0.015 A 
ATOM     84  C   UNL A   1      33.103  22.896  25.402  1.00  0.00     0.022 A 
ATOM     85  C   UNL A   1      33.734  25.237  25.465  1.00  0.00     0.022 A 
ATOM     86  C   UNL A   1      32.811  24.226  25.733  1.00  0.00     0.082 A 
BRANCH  86  87
ATOM     87  S   UNL A   1      31.206  24.591  26.397  1.00  0.00     0.240 S 
ATOM     88  O   UNL A   1      30.844  23.510  27.282  1.00  0.00    -0.207 OA
ATOM     89  O   UNL A   1      31.232  25.969  26.839  1.00  0.00    -0.207 OA
BRANCH  87  90
ATOM     90  N   UNL A   1      30.147  24.554  25.103  1.00  0.00    -0.211 NA
ATOM     91  H   UNL A   1      29.249  24.866  25.472  1.00  0.00     0.141 HD
BRANCH  90  92
ATOM     92  C   UNL A   1      30.342  25.295  23.863  1.00  0.00     0.101 C 
BRANCH  92  93
ATOM     93  C   UNL A   1      29.680  26.661  23.847  1.00  0.00     0.040 C 
BRANCH  93  94
ATOM     94  C   UNL A   1      30.195  27.601  22.764  1.00  0.00     0.145 C 
BRANCH  94  95
ATOM     95  N   UNL A   1      29.365  28.749  22.442  1.00  0.00    -0.273 N 
ATOM     96  C   UNL A   1      28.126  29.089  22.907  1.00  0.00     0.108 A 
ATOM     97  N   UNL A   1      29.860  29.662  21.579  1.00  0.00    -0.182 NA
ATOM     98  C   UNL A   1      27.774  30.251  22.265  1.00  0.00     0.042 A 
ATOM     99  C   UNL A   1      28.888  30.568  21.472  1.00  0.00     0.135 A 
ENDBRANCH  94  95
ENDBRANCH  93  94
ENDBRANCH  92  93
ENDBRANCH  90  92
ENDBRANCH  87  90
ENDBRANCH  86  87
ENDBRANCH  78  81
ENDBRANCH   1  77
TORSDOF 20
ENDMDL
MODEL 2
REMARK VINA RESULT:     -12.1      2.393      3.748
REMARK SMILES O=C(NCCCCNC(=O)c1ccc(S(=O)(=O)NCCCn2cccn2)cc1)c1ccc(-c2c3nc(c(-c4c(F)cc(S(=O)(=O)[O-])cc4F)c4ccc([nH]4)c(-c4c(F)cc(S(=O)(=O)[O-])cc4F)c4nc(c(-c5c(F)cc(S(=O)(=O)[O-])cc5F)c5ccc2[nH]5)C=C4)C=C3)cc1
REMARK SMILES IDX 7 1 6 2 5 3 4 4 3 5 1 6 2 7 29 9 30 10 94 11 31 12 93 13
REMARK SMILES IDX 32 14 33 15 34 16 87 17 35 18 92 19 86 20 88 21 36 22 91 23
REMARK SMILES IDX 85 24 84 25 37 27 71 28 50 29 70 30 51 31 54 32 69 33 89 34
REMARK SMILES IDX 52 35 53 36 68 38 90 39 55 40 38 41 39 42 48 43 40 44 41 45
REMARK SMILES IDX 47 46 49 47 42 48 43 49 44 50 45 51 46 52 72 53 73 54 82 55
REMARK SMILES IDX 74 56 75 57 81 58 83 59 76 60 77 61 78 62 79 63 80 64 56 65
REMARK SMILES IDX 57 66 66 67 58 68 59 69 65 70 67 71 60 72 61 73 62 74 63 75
REMARK SMILES IDX 64 76 8 77 9 78 10 80 11 81 12 82 28 83 13 84 27 85 14 86
REMARK SMILES IDX 15 87 16 88 17 89 18 90 19 92 20 93 21 94 22 95 23 96 26 97
REMARK SMILES IDX 24 98 25 99
REMARK H PARENT 3 8 88 26 54 37 8 79 18 91
REMARK Flexibility Score: inf
ROOT
ATOM      1  C   UNL A   1      35.399  20.375  25.033  1.00  0.00     0.116 C 
ENDROOT
BRANCH   1   2
ATOM      2  C   UNL A   1      35.710  21.482  26.033  1.00  0.00     0.023 C 
BRANCH   2   3
ATOM      3  C   UNL A   1      36.135  22.828  25.443  1.00  0.00     0.023 C 
BRANCH   3   4
ATOM      4  C   UNL A   1      37.509  22.855  24.775  1.00  0.00     0.116 C 
BRANCH   4   5
ATOM      5  N   UNL A   1      38.527  22.084  25.458  1.00  0.00    -0.352 N 
ATOM      6  O   UNL A   1      39.951  21.299  26.935  1.00  0.00    -0.269 OA
ATOM      7  C   UNL A   1      39.366  22.303  26.516  1.00  0.00     0.251 C 
ATOM      8  H   UNL A   1      38.644  21.188  25.067  1.00  0.00     0.163 HD
BRANCH   7   9
ATOM      9  C   UNL A   1      39.663  23.623  27.147  1.00  0.00     0.039 A 
ATOM     10  C   UNL A   1      38.869  24.767  27.081  1.00  0.00     0.014 A 
ATOM     11  C   UNL A   1      40.893  23.706  27.833  1.00  0.00     0.014 A 
ATOM     12  C   UNL A   1      39.323  25.973  27.626  1.00  0.00     0.010 A 
ATOM     13  C   UNL A   1      41.348  24.904  28.380  1.00  0.00     0.010 A 
ATOM     14  C   UNL A   1      40.577  26.052  28.249  1.00  0.00    -0.014 A 
BRANCH  14  15
ATOM     15  C   UNL A   1      40.973  27.317  28.877  1.00  0.00     0.031 A 
ATOM     16  C   UNL A   1      42.167  27.969  28.258  1.00  0.00     0.074 A 
ATOM     17  C   UNL A   1      40.271  27.963  29.833  1.00  0.00     0.049 A 
ATOM     18  N   UNL A   1      43.325  28.194  28.790  1.00  0.00    -0.248 NA
ATOM     19  C   UNL A   1      42.092  28.315  26.830  1.00  0.00     0.031 C 
ATOM     20  C   UNL A   1      38.934  27.652  30.347  1.00  0.00     0.029 A 
ATOM     21  N   UNL A   1      40.590  29.111  30.503  1.00  0.00    -0.354 N 
ATOM     22  C   UNL A   1      44.065  28.887  27.831  1.00  0.00     0.074 A 
ATOM     23  C   UNL A   1      43.312  28.807  26.607  1.00  0.00     0.031 C 
ATOM     24  C   UNL A   1      38.478  28.698  31.079  1.00  0.00     0.029 A 
ATOM     25  C   UNL A   1      39.537  29.684  31.210  1.00  0.00     0.049 A 
ATOM     26  H   UNL A   1      41.493  29.502  30.485  1.00  0.00     0.167 HD
ATOM     27  C   UNL A   1      45.154  29.637  28.161  1.00  0.00     0.037 A 
ATOM     28  C   UNL A   1      39.527  30.897  31.827  1.00  0.00     0.037 A 
ATOM     29  C   UNL A   1      45.657  29.290  29.464  1.00  0.00     0.049 A 
ATOM     30  C   UNL A   1      40.941  31.281  32.065  1.00  0.00     0.074 A 
ATOM     31  C   UNL A   1      46.157  28.136  30.034  1.00  0.00     0.029 A 
ATOM     32  N   UNL A   1      45.360  30.123  30.514  1.00  0.00    -0.354 N 
ATOM     33  N   UNL A   1      41.742  30.660  32.885  1.00  0.00    -0.248 NA
ATOM     34  C   UNL A   1      41.591  32.105  31.059  1.00  0.00     0.031 C 
ATOM     35  C   UNL A   1      45.657  28.141  31.368  1.00  0.00     0.029 A 
ATOM     36  C   UNL A   1      44.941  29.325  31.547  1.00  0.00     0.049 A 
ATOM     37  H   UNL A   1      45.434  31.105  30.523  1.00  0.00     0.167 HD
ATOM     38  C   UNL A   1      42.973  30.666  32.247  1.00  0.00     0.074 A 
ATOM     39  C   UNL A   1      42.837  31.638  31.166  1.00  0.00     0.031 C 
ATOM     40  C   UNL A   1      43.900  29.693  32.482  1.00  0.00     0.037 A 
BRANCH  27  41
ATOM     41  C   UNL A   1      45.572  30.906  27.452  1.00  0.00     0.058 A 
ATOM     42  C   UNL A   1      46.897  31.043  26.987  1.00  0.00     0.135 A 
ATOM     43  C   UNL A   1      44.808  32.094  27.467  1.00  0.00     0.135 A 
ATOM     44  F   UNL A   1      47.719  29.984  26.937  1.00  0.00    -0.206 F 
ATOM     45  C   UNL A   1      47.442  32.278  26.631  1.00  0.00     0.059 A 
ATOM     46  C   UNL A   1      45.314  33.326  27.068  1.00  0.00     0.059 A 
ATOM     47  F   UNL A   1      43.565  32.134  27.961  1.00  0.00    -0.206 F 
ATOM     48  C   UNL A   1      46.645  33.418  26.691  1.00  0.00     0.060 A 
BRANCH  48  49
ATOM     49  S   UNL A   1      47.371  35.027  26.335  1.00  0.00     0.124 S 
ATOM     50  O   UNL A   1      48.149  35.269  27.544  1.00  0.00    -0.237 OA
ATOM     51  O   UNL A   1      48.140  34.752  25.125  1.00  0.00    -0.237 OA
ATOM     52  O   UNL A   1      46.208  35.888  26.148  1.00  0.00    -0.744 OA
ENDBRANCH  48  49
ENDBRANCH  27  41
BRANCH  28  53
ATOM     53  C   UNL A   1      38.421  31.894  31.911  1.00  0.00     0.058 A 
ATOM     54  C   UNL A   1      37.852  32.464  30.756  1.00  0.00     0.135 A 
ATOM     55  C   UNL A   1      37.697  32.073  33.107  1.00  0.00     0.135 A 
ATOM     56  F   UNL A   1      38.458  32.324  29.566  1.00  0.00    -0.206 F 
ATOM     57  C   UNL A   1      36.617  33.126  30.775  1.00  0.00     0.059 A 
ATOM     58  C   UNL A   1      36.469  32.734  33.152  1.00  0.00     0.059 A 
ATOM     59  F   UNL A   1      38.118  31.524  34.255  1.00  0.00    -0.206 F 
ATOM     60  C   UNL A   1      35.920  33.237  31.978  1.00  0.00     0.060 A 
BRANCH  60  61
ATOM     61  S   UNL A   1      34.248  33.932  31.981  1.00  0.00     0.124 S 
ATOM     62  O   UNL A   1      34.467  35.243  32.583  1.00  0.00    -0.237 OA
ATOM     63  O   UNL A   1      33.908  33.931  30.563  1.00  0.00    -0.237 OA
ATOM     64  O   UNL A   1      33.492  32.988  32.800  1.00  0.00    -0.744 OA
ENDBRANCH  60  61
ENDBRANCH  28  53
BRANCH  40  65
ATOM     65  C   UNL A   1      43.714  28.779  33.665  1.00  0.00     0.058 A 
ATOM     66  C   UNL A   1      44.146  29.066  34.972  1.00  0.00     0.135 A 
ATOM     67  C   UNL A   1      42.889  27.657  33.494  1.00  0.00     0.135 A 
ATOM     68  F   UNL A   1      44.862  30.169  35.237  1.00  0.00    -0.206 F 
ATOM     69  C   UNL A   1      43.782  28.264  36.056  1.00  0.00     0.059 A 
ATOM     70  C   UNL A   1      42.490  26.862  34.562  1.00  0.00     0.059 A 
ATOM     71  F   UNL A   1      42.402  27.361  32.277  1.00  0.00    -0.206 F 
ATOM     72  C   UNL A   1      42.943  27.170  35.843  1.00  0.00     0.060 A 
BRANCH  72  73
ATOM     73  S   UNL A   1      42.367  26.209  37.261  1.00  0.00     0.124 S 
ATOM     74  O   UNL A   1      41.012  26.715  37.446  1.00  0.00    -0.237 OA
ATOM     75  O   UNL A   1      42.472  24.836  36.776  1.00  0.00    -0.237 OA
ATOM     76  O   UNL A   1      43.314  26.559  38.318  1.00  0.00    -0.744 OA
ENDBRANCH  72  73
ENDBRANCH  40  65
ENDBRANCH  14  15
ENDBRANCH   7   9
ENDBRANCH   4   5
ENDBRANCH   3   4
ENDBRANCH   2   3
ENDBRANCH   1   2
BRANCH   1  77
ATOM     77  N   UNL A   1      34.043  19.853  25.132  1.00  0.00    -0.352 N 
ATOM     78  C   UNL A   1      32.840  20.446  24.825  1.00  0.00     0.251 C 
ATOM     79  H   UNL A   1      33.976  18.931  25.471  1.00  0.00     0.163 HD
ATOM     80  O   UNL A   1      31.786  19.856  25.050  1.00  0.00    -0.269 OA
BRANCH  78  81
ATOM     81  C   UNL A   1      32.795  21.802  24.232  1.00  0.00     0.039 A 
ATOM     82  C   UNL A   1      32.437  22.889  25.038  1.00  0.00     0.015 A 
ATOM     83  C   UNL A   1      33.091  22.006  22.882  1.00  0.00     0.015 A 
ATOM     84  C   UNL A   1      32.420  24.181  24.503  1.00  0.00     0.022 A 
ATOM     85  C   UNL A   1      33.171  23.299  22.373  1.00  0.00     0.022 A 
ATOM     86  C   UNL A   1      32.800  24.381  23.170  1.00  0.00     0.082 A 
BRANCH  86  87
ATOM     87  S   UNL A   1      32.690  26.023  22.504  1.00  0.00     0.240 S 
ATOM     88  O   UNL A   1      33.802  26.203  21.601  1.00  0.00    -0.207 OA
ATOM     89  O   UNL A   1      31.319  26.222  22.084  1.00  0.00    -0.207 OA
BRANCH  87  90
ATOM     90  N   UNL A   1      32.920  27.065  23.793  1.00  0.00    -0.211 NA
ATOM     91  H   UNL A   1      33.724  26.699  24.303  1.00  0.00     0.141 HD
BRANCH  90  92
ATOM     92  C   UNL A   1      33.158  28.496  23.657  1.00  0.00     0.101 C 
BRANCH  92  93
ATOM     93  C   UNL A   1      32.934  29.286  24.934  1.00  0.00     0.040 C 
BRANCH  93  94
ATOM     94  C   UNL A   1      33.611  28.701  26.168  1.00  0.00     0.145 C 
BRANCH  94  95
ATOM     95  N   UNL A   1      34.397  29.612  26.980  1.00  0.00    -0.273 N 
ATOM     96  C   UNL A   1      35.587  29.406  27.621  1.00  0.00     0.108 A 
ATOM     97  N   UNL A   1      33.940  30.873  27.134  1.00  0.00    -0.182 NA
ATOM     98  C   UNL A   1      35.884  30.578  28.275  1.00  0.00     0.042 A 
ATOM     99  C   UNL A   1      34.845  31.452  27.924  1.00  0.00     0.135 A 
ENDBRANCH  94  95
ENDBRANCH  93  94
ENDBRANCH  92  93
ENDBRANCH  90  92
ENDBRANCH  87  90
ENDBRANCH  86  87
ENDBRANCH  78  81
ENDBRANCH   1  77
TORSDOF 20
ENDMDL
MODEL 3
REMARK VINA RESULT:     -12.1      1.936      2.850
REMARK SMILES O=C(NCCCCNC(=O)c1ccc(S(=O)(=O)NCCCn2cccn2)cc1)c1ccc(-c2c3nc(c(-c4c(F)cc(S(=O)(=O)[O-])cc4F)c4ccc([nH]4)c(-c4c(F)cc(S(=O)(=O)[O-])cc4F)c4nc(c(-c5c(F)cc(S(=O)(=O)[O-])cc5F)c5ccc2[nH]5)C=C4)C=C3)cc1
REMARK SMILES IDX 7 1 6 2 5 3 4 4 3 5 1 6 2 7 29 9 30 10 94 11 31 12 93 13
REMARK SMILES IDX 32 14 33 15 34 16 87 17 35 18 92 19 86 20 88 21 36 22 91 23
REMARK SMILES IDX 85 24 84 25 37 27 71 28 50 29 70 30 51 31 54 32 69 33 89 34
REMARK SMILES IDX 52 35 53 36 68 38 90 39 55 40 38 41 39 42 48 43 40 44 41 45
REMARK SMILES IDX 47 46 49 47 42 48 43 49 44 50 45 51 46 52 72 53 73 54 82 55
REMARK SMILES IDX 74 56 75 57 81 58 83 59 76 60 77 61 78 62 79 63 80 64 56 65
REMARK SMILES IDX 57 66 66 67 58 68 59 69 65 70 67 71 60 72 61 73 62 74 63 75
REMARK SMILES IDX 64 76 8 77 9 78 10 80 11 81 12 82 28 83 13 84 27 85 14 86
REMARK SMILES IDX 15 87 16 88 17 89 18 90 19 92 20 93 21 94 22 95 23 96 26 97
REMARK SMILES IDX 24 98 25 99
REMARK H PARENT 3 8 88 26 54 37 8 79 18 91
REMARK Flexibility Score: inf
ROOT
ATOM      1  C   UNL A   1      34.953  21.403  26.016  1.00  0.00     0.116 C 
ENDROOT
BRANCH   1   2
ATOM      2  C   UNL A   1      35.925  20.861  24.975  1.00  0.00     0.023 C 
BRANCH   2   3
ATOM      3  C   UNL A   1      37.049  21.803  24.543  1.00  0.00     0.023 C 
BRANCH   3   4
ATOM      4  C   UNL A   1      37.943  22.329  25.667  1.00  0.00     0.116 C 
BRANCH   4   5
ATOM      5  N   UNL A   1      39.316  21.873  25.608  1.00  0.00    -0.352 N 
ATOM      6  O   UNL A   1      41.431  21.469  26.042  1.00  0.00    -0.269 OA
ATOM      7  C   UNL A   1      40.494  22.262  26.183  1.00  0.00     0.251 C 
ATOM      8  H   UNL A   1      39.428  21.097  25.012  1.00  0.00     0.163 HD
BRANCH   7   9
ATOM      9  C   UNL A   1      40.746  23.550  26.893  1.00  0.00     0.039 A 
ATOM     10  C   UNL A   1      41.793  23.814  27.776  1.00  0.00     0.014 A 
ATOM     11  C   UNL A   1      39.794  24.566  26.668  1.00  0.00     0.014 A 
ATOM     12  C   UNL A   1      41.846  25.033  28.461  1.00  0.00     0.010 A 
ATOM     13  C   UNL A   1      39.844  25.782  27.346  1.00  0.00     0.010 A 
ATOM     14  C   UNL A   1      40.856  26.007  28.272  1.00  0.00    -0.014 A 
BRANCH  14  15
ATOM     15  C   UNL A   1      41.000  27.299  28.950  1.00  0.00     0.031 A 
ATOM     16  C   UNL A   1      42.088  28.167  28.406  1.00  0.00     0.074 A 
ATOM     17  C   UNL A   1      40.157  27.784  29.888  1.00  0.00     0.049 A 
ATOM     18  N   UNL A   1      43.166  28.570  28.997  1.00  0.00    -0.248 NA
ATOM     19  C   UNL A   1      42.015  28.542  26.985  1.00  0.00     0.031 C 
ATOM     20  C   UNL A   1      38.874  27.231  30.330  1.00  0.00     0.029 A 
ATOM     21  N   UNL A   1      40.244  28.946  30.601  1.00  0.00    -0.354 N 
ATOM     22  C   UNL A   1      43.815  29.411  28.092  1.00  0.00     0.074 A 
ATOM     23  C   UNL A   1      43.140  29.243  26.832  1.00  0.00     0.031 C 
ATOM     24  C   UNL A   1      38.213  28.158  31.066  1.00  0.00     0.029 A 
ATOM     25  C   UNL A   1      39.079  29.307  31.272  1.00  0.00     0.049 A 
ATOM     26  H   UNL A   1      41.066  29.487  30.636  1.00  0.00     0.167 HD
ATOM     27  C   UNL A   1      44.743  30.325  28.493  1.00  0.00     0.037 A 
ATOM     28  C   UNL A   1      38.833  30.479  31.918  1.00  0.00     0.037 A 
ATOM     29  C   UNL A   1      45.243  30.027  29.808  1.00  0.00     0.049 A 
ATOM     30  C   UNL A   1      40.148  31.092  32.232  1.00  0.00     0.074 A 
ATOM     31  C   UNL A   1      45.911  28.957  30.372  1.00  0.00     0.029 A 
ATOM     32  N   UNL A   1      44.762  30.761  30.864  1.00  0.00    -0.354 N 
ATOM     33  N   UNL A   1      41.009  30.590  33.073  1.00  0.00    -0.248 NA
ATOM     34  C   UNL A   1      40.688  32.048  31.279  1.00  0.00     0.031 C 
ATOM     35  C   UNL A   1      45.361  28.832  31.680  1.00  0.00     0.029 A 
ATOM     36  C   UNL A   1      44.444  29.870  31.856  1.00  0.00     0.049 A 
ATOM     37  H   UNL A   1      44.665  31.740  30.901  1.00  0.00     0.167 HD
ATOM     38  C   UNL A   1      42.246  30.829  32.495  1.00  0.00     0.074 A 
ATOM     39  C   UNL A   1      41.990  31.799  31.434  1.00  0.00     0.031 C 
ATOM     40  C   UNL A   1      43.317  30.022  32.749  1.00  0.00     0.037 A 
BRANCH  27  41
ATOM     41  C   UNL A   1      44.965  31.669  27.836  1.00  0.00     0.058 A 
ATOM     42  C   UNL A   1      46.172  31.923  27.151  1.00  0.00     0.135 A 
ATOM     43  C   UNL A   1      44.166  32.805  28.097  1.00  0.00     0.135 A 
ATOM     44  F   UNL A   1      47.017  30.922  26.857  1.00  0.00    -0.206 F 
ATOM     45  C   UNL A   1      46.586  33.213  26.815  1.00  0.00     0.059 A 
ATOM     46  C   UNL A   1      44.534  34.093  27.725  1.00  0.00     0.059 A 
ATOM     47  F   UNL A   1      43.036  32.730  28.811  1.00  0.00    -0.206 F 
ATOM     48  C   UNL A   1      45.766  34.294  27.122  1.00  0.00     0.060 A 
BRANCH  48  49
ATOM     49  S   UNL A   1      46.341  35.968  26.786  1.00  0.00     0.124 S 
ATOM     50  O   UNL A   1      47.162  35.761  25.599  1.00  0.00    -0.237 OA
ATOM     51  O   UNL A   1      45.086  36.684  26.578  1.00  0.00    -0.237 OA
ATOM     52  O   UNL A   1      47.065  36.325  28.002  1.00  0.00    -0.744 OA
ENDBRANCH  48  49
ENDBRANCH  27  41
BRANCH  28  53
ATOM     53  C   UNL A   1      37.569  31.268  31.975  1.00  0.00     0.058 A 
ATOM     54  C   UNL A   1      37.002  31.666  33.201  1.00  0.00     0.135 A 
ATOM     55  C   UNL A   1      37.061  31.906  30.826  1.00  0.00     0.135 A 
ATOM     56  F   UNL A   1      37.439  31.130  34.351  1.00  0.00    -0.206 F 
ATOM     57  C   UNL A   1      36.029  32.671  33.288  1.00  0.00     0.059 A 
ATOM     58  C   UNL A   1      36.089  32.905  30.886  1.00  0.00     0.059 A 
ATOM     59  F   UNL A   1      37.568  31.644  29.612  1.00  0.00    -0.206 F 
ATOM     60  C   UNL A   1      35.594  33.302  32.123  1.00  0.00     0.060 A 
BRANCH  60  61
ATOM     61  S   UNL A   1      34.472  34.719  32.240  1.00  0.00     0.124 S 
ATOM     62  O   UNL A   1      34.227  35.027  30.835  1.00  0.00    -0.237 OA
ATOM     63  O   UNL A   1      33.344  34.163  32.978  1.00  0.00    -0.237 OA
ATOM     64  O   UNL A   1      35.259  35.713  32.968  1.00  0.00    -0.744 OA
ENDBRANCH  60  61
ENDBRANCH  28  53
BRANCH  40  65
ATOM     65  C   UNL A   1      43.242  29.051  33.898  1.00  0.00     0.058 A 
ATOM     66  C   UNL A   1      43.536  29.372  35.235  1.00  0.00     0.135 A 
ATOM     67  C   UNL A   1      42.657  27.799  33.653  1.00  0.00     0.135 A 
ATOM     68  F   UNL A   1      44.013  30.581  35.567  1.00  0.00    -0.206 F 
ATOM     69  C   UNL A   1      43.271  28.480  36.278  1.00  0.00     0.059 A 
ATOM     70  C   UNL A   1      42.356  26.908  34.677  1.00  0.00     0.059 A 
ATOM     71  F   UNL A   1      42.305  27.456  32.402  1.00  0.00    -0.206 F 
ATOM     72  C   UNL A   1      42.669  27.255  35.990  1.00  0.00     0.060 A 
BRANCH  72  73
ATOM     73  S   UNL A   1      42.208  26.156  37.348  1.00  0.00     0.124 S 
ATOM     74  O   UNL A   1      43.148  26.547  38.393  1.00  0.00    -0.237 OA
ATOM     75  O   UNL A   1      40.812  26.511  37.583  1.00  0.00    -0.237 OA
ATOM     76  O   UNL A   1      42.414  24.820  36.791  1.00  0.00    -0.744 OA
ENDBRANCH  72  73
ENDBRANCH  40  65
ENDBRANCH  14  15
ENDBRANCH   7   9
ENDBRANCH   4   5
ENDBRANCH   3   4
ENDBRANCH   2   3
ENDBRANCH   1   2
BRANCH   1  77
ATOM     77  N   UNL A   1      33.617  20.828  25.934  1.00  0.00    -0.352 N 
ATOM     78  C   UNL A   1      32.517  21.239  25.217  1.00  0.00     0.251 C 
ATOM     79  H   UNL A   1      33.479  20.017  26.476  1.00  0.00     0.163 HD
ATOM     80  O   UNL A   1      31.446  20.652  25.339  1.00  0.00    -0.269 OA
BRANCH  78  81
ATOM     81  C   UNL A   1      32.605  22.398  24.298  1.00  0.00     0.039 A 
ATOM     82  C   UNL A   1      32.841  22.174  22.936  1.00  0.00     0.015 A 
ATOM     83  C   UNL A   1      32.468  23.704  24.774  1.00  0.00     0.015 A 
ATOM     84  C   UNL A   1      32.895  23.254  22.050  1.00  0.00     0.022 A 
ATOM     85  C   UNL A   1      32.423  24.771  23.882  1.00  0.00     0.022 A 
ATOM     86  C   UNL A   1      32.674  24.552  22.528  1.00  0.00     0.082 A 
BRANCH  86  87
ATOM     87  S   UNL A   1      32.829  25.904  21.387  1.00  0.00     0.240 S 
ATOM     88  O   UNL A   1      33.754  26.853  21.959  1.00  0.00    -0.207 OA
ATOM     89  O   UNL A   1      33.030  25.331  20.074  1.00  0.00    -0.207 OA
BRANCH  87  90
ATOM     90  N   UNL A   1      31.328  26.641  21.332  1.00  0.00    -0.211 NA
ATOM     91  H   UNL A   1      30.672  25.909  21.060  1.00  0.00     0.141 HD
BRANCH  90  92
ATOM     92  C   UNL A   1      30.710  27.325  22.460  1.00  0.00     0.101 C 
BRANCH  92  93
ATOM     93  C   UNL A   1      30.838  28.837  22.414  1.00  0.00     0.040 C 
BRANCH  93  94
ATOM     94  C   UNL A   1      29.896  29.582  23.352  1.00  0.00     0.145 C 
BRANCH  94  95
ATOM     95  N   UNL A   1      29.241  30.765  22.821  1.00  0.00    -0.273 N 
ATOM     96  C   UNL A   1      28.765  31.009  21.564  1.00  0.00     0.108 A 
ATOM     97  N   UNL A   1      29.022  31.795  23.665  1.00  0.00    -0.182 NA
ATOM     98  C   UNL A   1      28.266  32.290  21.579  1.00  0.00     0.042 A 
ATOM     99  C   UNL A   1      28.434  32.719  22.904  1.00  0.00     0.135 A 
ENDBRANCH  94  95
ENDBRANCH  93  94
ENDBRANCH  92  93
ENDBRANCH  90  92
ENDBRANCH  87  90
ENDBRANCH  86  87
ENDBRANCH  78  81
ENDBRANCH   1  77
TORSDOF 20
ENDMDL
