MODEL 1
REMARK VINA RESULT:     -11.6      0.000      0.000
REMARK SMILES O=C(NCCCCNC(=O)C1(NC(=O)c2ccncc2Cl)CCCCC1)c1ccc(-c2c3nc(c(-c4c(F)cc(S(=O)(=O)[O-])cc4F)c4ccc([nH]4)c(-c4c(F)cc(S(=O)(=O)[O-])cc4F)c4nc(c(-c5c(F)cc(S(=O)(=O)[O-])cc5F)c5ccc2[nH]5)C=C4)C=C3)cc1
REMARK SMILES IDX 5 1 4 2 3 3 1 4 2 5 27 7 28 8 92 9 29 10 91 11 30 12 31 13
REMARK SMILES IDX 32 14 85 15 33 16 90 17 84 18 86 19 34 20 89 21 83 22 82 23
REMARK SMILES IDX 35 25 69 26 48 27 68 28 49 29 52 30 67 31 87 32 50 33 51 34
REMARK SMILES IDX 66 36 88 37 53 38 36 39 37 40 46 41 38 42 39 43 45 44 47 45
REMARK SMILES IDX 40 46 41 47 42 48 43 49 44 50 70 51 71 52 80 53 72 54 73 55
REMARK SMILES IDX 79 56 81 57 74 58 75 59 76 60 77 61 78 62 54 63 55 64 64 65
REMARK SMILES IDX 56 66 57 67 63 68 65 69 58 70 59 71 60 72 61 73 62 74 6 75
REMARK SMILES IDX 7 76 8 77 9 78 10 80 11 81 22 82 26 83 23 84 25 85 24 86
REMARK SMILES IDX 12 87 13 88 14 90 15 91 16 92 20 93 17 94 19 95 21 96 18 97
REMARK H PARENT 3 6 86 24 52 35 8 79 12 89
REMARK Flexibility Score: inf
ROOT
ATOM      1  C   UNL A   1      39.048  22.040  26.211  1.00  0.00     0.023 C 
ENDROOT
BRANCH   1   2
ATOM      2  C   UNL A   1      39.804  23.145  26.929  1.00  0.00     0.116 C 
BRANCH   2   3
ATOM      3  N   UNL A   1      40.580  23.951  26.009  1.00  0.00    -0.352 N 
ATOM      4  O   UNL A   1      41.458  25.796  25.108  1.00  0.00    -0.269 OA
ATOM      5  C   UNL A   1      41.037  25.243  26.123  1.00  0.00     0.251 C 
ATOM      6  H   UNL A   1      40.818  23.501  25.166  1.00  0.00     0.163 HD
BRANCH   5   7
ATOM      7  C   UNL A   1      41.054  25.984  27.419  1.00  0.00     0.039 A 
ATOM      8  C   UNL A   1      42.119  26.803  27.806  1.00  0.00     0.014 A 
ATOM      9  C   UNL A   1      39.897  25.963  28.212  1.00  0.00     0.014 A 
ATOM     10  C   UNL A   1      42.049  27.547  28.988  1.00  0.00     0.010 A 
ATOM     11  C   UNL A   1      39.799  26.762  29.361  1.00  0.00     0.010 A 
ATOM     12  C   UNL A   1      40.873  27.570  29.757  1.00  0.00    -0.014 A 
BRANCH  12  13
ATOM     13  C   UNL A   1      40.736  28.546  30.875  1.00  0.00     0.031 A 
ATOM     14  C   UNL A   1      41.619  28.489  32.091  1.00  0.00     0.074 A 
ATOM     15  C   UNL A   1      39.784  29.499  30.786  1.00  0.00     0.049 A 
ATOM     16  N   UNL A   1      41.623  29.268  33.144  1.00  0.00    -0.248 NA
ATOM     17  C   UNL A   1      42.622  27.415  32.137  1.00  0.00     0.031 C 
ATOM     18  C   UNL A   1      38.842  29.643  29.671  1.00  0.00     0.029 A 
ATOM     19  N   UNL A   1      39.451  30.527  31.630  1.00  0.00    -0.354 N 
ATOM     20  C   UNL A   1      42.620  28.781  33.980  1.00  0.00     0.074 A 
ATOM     21  C   UNL A   1      43.182  27.618  33.323  1.00  0.00     0.031 C 
ATOM     22  C   UNL A   1      38.072  30.719  29.879  1.00  0.00     0.029 A 
ATOM     23  C   UNL A   1      38.422  31.313  31.164  1.00  0.00     0.049 A 
ATOM     24  H   UNL A   1      39.906  30.689  32.488  1.00  0.00     0.167 HD
ATOM     25  C   UNL A   1      43.036  29.266  35.177  1.00  0.00     0.037 A 
ATOM     26  C   UNL A   1      37.814  32.385  31.711  1.00  0.00     0.037 A 
ATOM     27  C   UNL A   1      42.473  30.426  35.825  1.00  0.00     0.049 A 
ATOM     28  C   UNL A   1      38.278  32.887  33.049  1.00  0.00     0.074 A 
ATOM     29  C   UNL A   1      42.844  31.005  37.028  1.00  0.00     0.029 A 
ATOM     30  N   UNL A   1      41.419  31.181  35.330  1.00  0.00    -0.354 N 
ATOM     31  N   UNL A   1      39.245  32.430  33.808  1.00  0.00    -0.248 NA
ATOM     32  C   UNL A   1      37.567  34.044  33.607  1.00  0.00     0.031 C 
ATOM     33  C   UNL A   1      41.989  32.086  37.278  1.00  0.00     0.029 A 
ATOM     34  C   UNL A   1      41.115  32.208  36.211  1.00  0.00     0.049 A 
ATOM     35  H   UNL A   1      40.955  31.013  34.479  1.00  0.00     0.167 HD
ATOM     36  C   UNL A   1      39.269  33.254  34.926  1.00  0.00     0.074 A 
ATOM     37  C   UNL A   1      38.232  34.248  34.736  1.00  0.00     0.031 C 
ATOM     38  C   UNL A   1      40.078  33.191  36.012  1.00  0.00     0.037 A 
BRANCH  25  39
ATOM     39  C   UNL A   1      44.153  28.538  35.877  1.00  0.00     0.058 A 
ATOM     40  C   UNL A   1      45.498  28.889  35.680  1.00  0.00     0.135 A 
ATOM     41  C   UNL A   1      43.874  27.512  36.796  1.00  0.00     0.135 A 
ATOM     42  F   UNL A   1      45.822  29.857  34.808  1.00  0.00    -0.206 F 
ATOM     43  C   UNL A   1      46.528  28.232  36.346  1.00  0.00     0.059 A 
ATOM     44  C   UNL A   1      44.888  26.857  37.492  1.00  0.00     0.059 A 
ATOM     45  F   UNL A   1      42.606  27.139  37.029  1.00  0.00    -0.206 F 
ATOM     46  C   UNL A   1      46.213  27.213  37.249  1.00  0.00     0.060 A 
BRANCH  46  47
ATOM     47  S   UNL A   1      47.566  26.376  38.104  1.00  0.00     0.124 S 
ATOM     48  O   UNL A   1      46.907  25.150  38.557  1.00  0.00    -0.237 OA
ATOM     49  O   UNL A   1      48.555  26.216  37.057  1.00  0.00    -0.237 OA
ATOM     50  O   UNL A   1      47.924  27.317  39.170  1.00  0.00    -0.744 OA
ENDBRANCH  46  47
ENDBRANCH  25  39
BRANCH  26  51
ATOM     51  C   UNL A   1      36.704  33.055  30.983  1.00  0.00     0.058 A 
ATOM     52  C   UNL A   1      35.371  32.888  31.388  1.00  0.00     0.135 A 
ATOM     53  C   UNL A   1      36.955  33.899  29.890  1.00  0.00     0.135 A 
ATOM     54  F   UNL A   1      35.080  32.086  32.423  1.00  0.00    -0.206 F 
ATOM     55  C   UNL A   1      34.325  33.527  30.730  1.00  0.00     0.059 A 
ATOM     56  C   UNL A   1      35.928  34.570  29.233  1.00  0.00     0.059 A 
ATOM     57  F   UNL A   1      38.214  34.104  29.474  1.00  0.00    -0.206 F 
ATOM     58  C   UNL A   1      34.615  34.370  29.656  1.00  0.00     0.060 A 
BRANCH  58  59
ATOM     59  S   UNL A   1      33.256  35.245  28.847  1.00  0.00     0.124 S 
ATOM     60  O   UNL A   1      33.973  36.269  28.097  1.00  0.00    -0.237 OA
ATOM     61  O   UNL A   1      32.638  34.188  28.054  1.00  0.00    -0.237 OA
ATOM     62  O   UNL A   1      32.454  35.726  29.969  1.00  0.00    -0.744 OA
ENDBRANCH  58  59
ENDBRANCH  26  51
BRANCH  38  63
ATOM     63  C   UNL A   1      39.889  34.242  37.070  1.00  0.00     0.058 A 
ATOM     64  C   UNL A   1      40.427  35.531  36.932  1.00  0.00     0.135 A 
ATOM     65  C   UNL A   1      39.129  33.968  38.218  1.00  0.00     0.135 A 
ATOM     66  F   UNL A   1      41.169  35.843  35.858  1.00  0.00    -0.206 F 
ATOM     67  C   UNL A   1      40.236  36.506  37.906  1.00  0.00     0.059 A 
ATOM     68  C   UNL A   1      38.906  34.935  39.194  1.00  0.00     0.059 A 
ATOM     69  F   UNL A   1      38.587  32.753  38.396  1.00  0.00    -0.206 F 
ATOM     70  C   UNL A   1      39.473  36.198  39.034  1.00  0.00     0.060 A 
BRANCH  70  71
ATOM     71  S   UNL A   1      39.208  37.480  40.278  1.00  0.00     0.124 S 
ATOM     72  O   UNL A   1      38.628  36.711  41.374  1.00  0.00    -0.237 OA
ATOM     73  O   UNL A   1      40.559  37.984  40.502  1.00  0.00    -0.237 OA
ATOM     74  O   UNL A   1      38.300  38.412  39.616  1.00  0.00    -0.744 OA
ENDBRANCH  70  71
ENDBRANCH  38  63
ENDBRANCH  12  13
ENDBRANCH   5   7
ENDBRANCH   2   3
ENDBRANCH   1   2
BRANCH   1  75
ATOM     75  C   UNL A   1      37.772  22.399  25.442  1.00  0.00     0.023 C 
BRANCH  75  76
ATOM     76  C   UNL A   1      36.421  21.691  25.702  1.00  0.00     0.116 C 
BRANCH  76  77
ATOM     77  N   UNL A   1      35.498  22.027  26.802  1.00  0.00    -0.354 N 
ATOM     78  C   UNL A   1      34.242  22.583  26.984  1.00  0.00     0.245 C 
ATOM     79  H   UNL A   1      35.894  21.781  27.670  1.00  0.00     0.163 HD
ATOM     80  O   UNL A   1      33.701  22.480  28.089  1.00  0.00    -0.272 OA
BRANCH  78  81
ATOM     81  C   UNL A   1      33.484  23.179  25.806  1.00  0.00     0.119 C 
ATOM     82  C   UNL A   1      34.262  24.538  25.649  1.00  0.00     0.038 C 
ATOM     83  C   UNL A   1      33.484  22.462  24.440  1.00  0.00     0.038 C 
ATOM     84  C   UNL A   1      34.118  25.374  24.385  1.00  0.00     0.003 C 
ATOM     85  C   UNL A   1      33.032  23.416  23.309  1.00  0.00     0.003 C 
ATOM     86  C   UNL A   1      34.035  24.543  23.122  1.00  0.00     0.000 C 
BRANCH  81  87
ATOM     87  N   UNL A   1      32.103  23.198  26.296  1.00  0.00    -0.338 N 
ATOM     88  C   UNL A   1      31.118  24.179  26.386  1.00  0.00     0.253 C 
ATOM     89  H   UNL A   1      31.805  22.325  26.639  1.00  0.00     0.164 HD
ATOM     90  O   UNL A   1      30.228  23.838  27.184  1.00  0.00    -0.269 OA
BRANCH  88  91
ATOM     91  C   UNL A   1      30.902  25.557  25.722  1.00  0.00     0.061 A 
ATOM     92  C   UNL A   1      30.434  25.376  24.394  1.00  0.00     0.035 A 
ATOM     93  C   UNL A   1      31.327  26.884  25.991  1.00  0.00     0.072 A 
ATOM     94  C   UNL A   1      30.398  26.414  23.466  1.00  0.00     0.112 A 
ATOM     95  C   UNL A   1      31.166  27.879  25.006  1.00  0.00     0.132 A 
ATOM     96  Cl  UNL A   1      32.297  27.540  27.246  1.00  0.00    -0.082 Cl
ATOM     97  N   UNL A   1      30.720  27.675  23.758  1.00  0.00    -0.263 NA
ENDBRANCH  88  91
ENDBRANCH  81  87
ENDBRANCH  78  81
ENDBRANCH  76  77
ENDBRANCH  75  76
ENDBRANCH   1  75
TORSDOF 16
ENDMDL
MODEL 2
REMARK VINA RESULT:     -11.6      5.156     10.024
REMARK SMILES O=C(NCCCCNC(=O)C1(NC(=O)c2ccncc2Cl)CCCCC1)c1ccc(-c2c3nc(c(-c4c(F)cc(S(=O)(=O)[O-])cc4F)c4ccc([nH]4)c(-c4c(F)cc(S(=O)(=O)[O-])cc4F)c4nc(c(-c5c(F)cc(S(=O)(=O)[O-])cc5F)c5ccc2[nH]5)C=C4)C=C3)cc1
REMARK SMILES IDX 5 1 4 2 3 3 1 4 2 5 27 7 28 8 92 9 29 10 91 11 30 12 31 13
REMARK SMILES IDX 32 14 85 15 33 16 90 17 84 18 86 19 34 20 89 21 83 22 82 23
REMARK SMILES IDX 35 25 69 26 48 27 68 28 49 29 52 30 67 31 87 32 50 33 51 34
REMARK SMILES IDX 66 36 88 37 53 38 36 39 37 40 46 41 38 42 39 43 45 44 47 45
REMARK SMILES IDX 40 46 41 47 42 48 43 49 44 50 70 51 71 52 80 53 72 54 73 55
REMARK SMILES IDX 79 56 81 57 74 58 75 59 76 60 77 61 78 62 54 63 55 64 64 65
REMARK SMILES IDX 56 66 57 67 63 68 65 69 58 70 59 71 60 72 61 73 62 74 6 75
REMARK SMILES IDX 7 76 8 77 9 78 10 80 11 81 22 82 26 83 23 84 25 85 24 86
REMARK SMILES IDX 12 87 13 88 14 90 15 91 16 92 20 93 17 94 19 95 21 96 18 97
REMARK H PARENT 3 6 86 24 52 35 8 79 12 89
REMARK Flexibility Score: inf
ROOT
ATOM      1  C   UNL A   1      32.102  28.481  26.500  1.00  0.00     0.023 C 
ENDROOT
BRANCH   1   2
ATOM      2  C   UNL A   1      33.432  28.717  27.196  1.00  0.00     0.116 C 
BRANCH   2   3
ATOM      3  N   UNL A   1      33.544  30.072  27.696  1.00  0.00    -0.352 N 
ATOM      4  O   UNL A   1      34.336  31.771  28.910  1.00  0.00    -0.269 OA
ATOM      5  C   UNL A   1      34.571  30.691  28.368  1.00  0.00     0.251 C 
ATOM      6  H   UNL A   1      32.758  30.640  27.527  1.00  0.00     0.163 HD
BRANCH   5   7
ATOM      7  C   UNL A   1      35.947  30.118  28.452  1.00  0.00     0.039 A 
ATOM      8  C   UNL A   1      36.843  30.147  27.381  1.00  0.00     0.014 A 
ATOM      9  C   UNL A   1      36.400  29.657  29.697  1.00  0.00     0.014 A 
ATOM     10  C   UNL A   1      38.151  29.677  27.536  1.00  0.00     0.010 A 
ATOM     11  C   UNL A   1      37.731  29.250  29.872  1.00  0.00     0.010 A 
ATOM     12  C   UNL A   1      38.625  29.265  28.793  1.00  0.00    -0.014 A 
BRANCH  12  13
ATOM     13  C   UNL A   1      40.078  28.995  28.988  1.00  0.00     0.031 A 
ATOM     14  C   UNL A   1      40.691  27.667  28.639  1.00  0.00     0.074 A 
ATOM     15  C   UNL A   1      40.851  29.975  29.499  1.00  0.00     0.049 A 
ATOM     16  N   UNL A   1      41.938  27.282  28.750  1.00  0.00    -0.248 NA
ATOM     17  C   UNL A   1      39.791  26.635  28.106  1.00  0.00     0.031 C 
ATOM     18  C   UNL A   1      40.370  31.299  29.907  1.00  0.00     0.029 A 
ATOM     19  N   UNL A   1      42.198  30.023  29.758  1.00  0.00    -0.354 N 
ATOM     20  C   UNL A   1      41.976  25.966  28.306  1.00  0.00     0.074 A 
ATOM     21  C   UNL A   1      40.618  25.608  27.951  1.00  0.00     0.031 C 
ATOM     22  C   UNL A   1      41.408  32.039  30.320  1.00  0.00     0.029 A 
ATOM     23  C   UNL A   1      42.621  31.231  30.262  1.00  0.00     0.049 A 
ATOM     24  H   UNL A   1      42.805  29.265  29.597  1.00  0.00     0.167 HD
ATOM     25  C   UNL A   1      43.046  25.139  28.194  1.00  0.00     0.037 A 
ATOM     26  C   UNL A   1      43.844  31.646  30.648  1.00  0.00     0.037 A 
ATOM     27  C   UNL A   1      44.396  25.502  28.547  1.00  0.00     0.049 A 
ATOM     28  C   UNL A   1      45.007  30.701  30.536  1.00  0.00     0.074 A 
ATOM     29  C   UNL A   1      45.548  24.738  28.447  1.00  0.00     0.029 A 
ATOM     30  N   UNL A   1      44.779  26.728  29.073  1.00  0.00    -0.354 N 
ATOM     31  N   UNL A   1      45.026  29.470  30.083  1.00  0.00    -0.248 NA
ATOM     32  C   UNL A   1      46.312  31.198  30.990  1.00  0.00     0.031 C 
ATOM     33  C   UNL A   1      46.619  25.487  28.948  1.00  0.00     0.029 A 
ATOM     34  C   UNL A   1      46.144  26.734  29.318  1.00  0.00     0.049 A 
ATOM     35  H   UNL A   1      44.172  27.482  29.246  1.00  0.00     0.167 HD
ATOM     36  C   UNL A   1      46.346  29.050  30.183  1.00  0.00     0.074 A 
ATOM     37  C   UNL A   1      47.099  30.164  30.723  1.00  0.00     0.031 C 
ATOM     38  C   UNL A   1      46.884  27.849  29.858  1.00  0.00     0.037 A 
BRANCH  25  39
ATOM     39  C   UNL A   1      42.802  23.746  27.674  1.00  0.00     0.058 A 
ATOM     40  C   UNL A   1      42.532  22.674  28.539  1.00  0.00     0.135 A 
ATOM     41  C   UNL A   1      42.785  23.490  26.292  1.00  0.00     0.135 A 
ATOM     42  F   UNL A   1      42.544  22.859  29.868  1.00  0.00    -0.206 F 
ATOM     43  C   UNL A   1      42.282  21.393  28.056  1.00  0.00     0.059 A 
ATOM     44  C   UNL A   1      42.514  22.221  25.786  1.00  0.00     0.059 A 
ATOM     45  F   UNL A   1      43.029  24.479  25.418  1.00  0.00    -0.206 F 
ATOM     46  C   UNL A   1      42.279  21.175  26.675  1.00  0.00     0.060 A 
BRANCH  46  47
ATOM     47  S   UNL A   1      41.951  19.505  26.071  1.00  0.00     0.124 S 
ATOM     48  O   UNL A   1      42.364  18.696  27.218  1.00  0.00    -0.237 OA
ATOM     49  O   UNL A   1      40.528  19.538  25.797  1.00  0.00    -0.237 OA
ATOM     50  O   UNL A   1      42.817  19.397  24.893  1.00  0.00    -0.744 OA
ENDBRANCH  46  47
ENDBRANCH  25  39
BRANCH  26  51
ATOM     51  C   UNL A   1      44.025  33.026  31.171  1.00  0.00     0.058 A 
ATOM     52  C   UNL A   1      44.329  34.091  30.309  1.00  0.00     0.135 A 
ATOM     53  C   UNL A   1      43.868  33.314  32.536  1.00  0.00     0.135 A 
ATOM     54  F   UNL A   1      44.496  33.865  28.997  1.00  0.00    -0.206 F 
ATOM     55  C   UNL A   1      44.479  35.390  30.782  1.00  0.00     0.059 A 
ATOM     56  C   UNL A   1      43.986  34.610  33.028  1.00  0.00     0.059 A 
ATOM     57  F   UNL A   1      43.561  32.333  33.399  1.00  0.00    -0.206 F 
ATOM     58  C   UNL A   1      44.300  35.641  32.144  1.00  0.00     0.060 A 
BRANCH  58  59
ATOM     59  S   UNL A   1      44.434  37.341  32.739  1.00  0.00     0.124 S 
ATOM     60  O   UNL A   1      43.369  37.387  33.734  1.00  0.00    -0.237 OA
ATOM     61  O   UNL A   1      45.797  37.379  33.260  1.00  0.00    -0.237 OA
ATOM     62  O   UNL A   1      44.211  38.135  31.535  1.00  0.00    -0.744 OA
ENDBRANCH  58  59
ENDBRANCH  26  51
BRANCH  38  63
ATOM     63  C   UNL A   1      48.365  27.685  30.054  1.00  0.00     0.058 A 
ATOM     64  C   UNL A   1      48.896  27.141  31.234  1.00  0.00     0.135 A 
ATOM     65  C   UNL A   1      49.263  28.041  29.034  1.00  0.00     0.135 A 
ATOM     66  F   UNL A   1      48.082  26.793  32.244  1.00  0.00    -0.206 F 
ATOM     67  C   UNL A   1      50.266  26.975  31.406  1.00  0.00     0.059 A 
ATOM     68  C   UNL A   1      50.635  27.862  29.176  1.00  0.00     0.059 A 
ATOM     69  F   UNL A   1      48.807  28.559  27.884  1.00  0.00    -0.206 F 
ATOM     70  C   UNL A   1      51.128  27.339  30.370  1.00  0.00     0.060 A 
BRANCH  70  71
ATOM     71  S   UNL A   1      52.904  27.092  30.593  1.00  0.00     0.124 S 
ATOM     72  O   UNL A   1      53.251  26.349  29.386  1.00  0.00    -0.237 OA
ATOM     73  O   UNL A   1      53.404  28.461  30.660  1.00  0.00    -0.237 OA
ATOM     74  O   UNL A   1      52.987  26.339  31.841  1.00  0.00    -0.744 OA
ENDBRANCH  70  71
ENDBRANCH  38  63
ENDBRANCH  12  13
ENDBRANCH   5   7
ENDBRANCH   2   3
ENDBRANCH   1   2
BRANCH   1  75
ATOM     75  C   UNL A   1      31.685  29.424  25.367  1.00  0.00     0.023 C 
BRANCH  75  76
ATOM     76  C   UNL A   1      31.471  28.933  23.917  1.00  0.00     0.116 C 
BRANCH  76  77
ATOM     77  N   UNL A   1      32.535  28.388  23.052  1.00  0.00    -0.354 N 
ATOM     78  C   UNL A   1      33.086  27.162  22.715  1.00  0.00     0.245 C 
ATOM     79  H   UNL A   1      32.990  29.115  22.568  1.00  0.00     0.163 HD
ATOM     80  O   UNL A   1      33.842  27.099  21.742  1.00  0.00    -0.272 OA
BRANCH  78  81
ATOM     81  C   UNL A   1      32.654  25.896  23.441  1.00  0.00     0.119 C 
ATOM     82  C   UNL A   1      33.710  25.883  24.607  1.00  0.00     0.038 C 
ATOM     83  C   UNL A   1      31.246  25.800  24.064  1.00  0.00     0.038 C 
ATOM     84  C   UNL A   1      33.509  24.996  25.828  1.00  0.00     0.003 C 
ATOM     85  C   UNL A   1      31.165  24.642  25.086  1.00  0.00     0.003 C 
ATOM     86  C   UNL A   1      32.066  24.915  26.280  1.00  0.00     0.000 C 
BRANCH  81  87
ATOM     87  N   UNL A   1      32.742  24.882  22.387  1.00  0.00    -0.338 N 
ATOM     88  C   UNL A   1      33.346  23.631  22.290  1.00  0.00     0.253 C 
ATOM     89  H   UNL A   1      32.269  25.143  21.563  1.00  0.00     0.164 HD
ATOM     90  O   UNL A   1      33.458  23.285  21.101  1.00  0.00    -0.269 OA
BRANCH  88  91
ATOM     91  C   UNL A   1      33.890  22.611  23.316  1.00  0.00     0.061 A 
ATOM     92  C   UNL A   1      32.809  21.877  23.873  1.00  0.00     0.035 A 
ATOM     93  C   UNL A   1      35.105  22.449  24.030  1.00  0.00     0.072 A 
ATOM     94  C   UNL A   1      32.953  21.077  25.003  1.00  0.00     0.112 A 
ATOM     95  C   UNL A   1      35.161  21.545  25.110  1.00  0.00     0.132 A 
ATOM     96  Cl  UNL A   1      36.559  23.360  24.031  1.00  0.00    -0.082 Cl
ATOM     97  N   UNL A   1      34.121  20.865  25.613  1.00  0.00    -0.263 NA
ENDBRANCH  88  91
ENDBRANCH  81  87
ENDBRANCH  78  81
ENDBRANCH  76  77
ENDBRANCH  75  76
ENDBRANCH   1  75
TORSDOF 16
ENDMDL
MODEL 3
REMARK VINA RESULT:     -11.6      6.655     12.048
REMARK SMILES O=C(NCCCCNC(=O)C1(NC(=O)c2ccncc2Cl)CCCCC1)c1ccc(-c2c3nc(c(-c4c(F)cc(S(=O)(=O)[O-])cc4F)c4ccc([nH]4)c(-c4c(F)cc(S(=O)(=O)[O-])cc4F)c4nc(c(-c5c(F)cc(S(=O)(=O)[O-])cc5F)c5ccc2[nH]5)C=C4)C=C3)cc1
REMARK SMILES IDX 5 1 4 2 3 3 1 4 2 5 27 7 28 8 92 9 29 10 91 11 30 12 31 13
REMARK SMILES IDX 32 14 85 15 33 16 90 17 84 18 86 19 34 20 89 21 83 22 82 23
REMARK SMILES IDX 35 25 69 26 48 27 68 28 49 29 52 30 67 31 87 32 50 33 51 34
REMARK SMILES IDX 66 36 88 37 53 38 36 39 37 40 46 41 38 42 39 43 45 44 47 45
REMARK SMILES IDX 40 46 41 47 42 48 43 49 44 50 70 51 71 52 80 53 72 54 73 55
REMARK SMILES IDX 79 56 81 57 74 58 75 59 76 60 77 61 78 62 54 63 55 64 64 65
REMARK SMILES IDX 56 66 57 67 63 68 65 69 58 70 59 71 60 72 61 73 62 74 6 75
REMARK SMILES IDX 7 76 8 77 9 78 10 80 11 81 22 82 26 83 23 84 25 85 24 86
REMARK SMILES IDX 12 87 13 88 14 90 15 91 16 92 20 93 17 94 19 95 21 96 18 97
REMARK H PARENT 3 6 86 24 52 35 8 79 12 89
REMARK Flexibility Score: inf
ROOT
ATOM      1  C   UNL A   1      34.422  29.389  27.791  1.00  0.00     0.023 C 
ENDROOT
BRANCH   1   2
ATOM      2  C   UNL A   1      35.121  30.731  27.932  1.00  0.00     0.116 C 
BRANCH   2   3
ATOM      3  N   UNL A   1      35.343  31.078  29.321  1.00  0.00    -0.352 N 
ATOM      4  O   UNL A   1      36.187  30.925  31.383  1.00  0.00    -0.269 OA
ATOM      5  C   UNL A   1      36.347  30.706  30.183  1.00  0.00     0.251 C 
ATOM      6  H   UNL A   1      34.664  31.676  29.711  1.00  0.00     0.163 HD
BRANCH   5   7
ATOM      7  C   UNL A   1      37.616  30.069  29.721  1.00  0.00     0.039 A 
ATOM      8  C   UNL A   1      38.021  30.075  28.384  1.00  0.00     0.014 A 
ATOM      9  C   UNL A   1      38.498  29.567  30.690  1.00  0.00     0.014 A 
ATOM     10  C   UNL A   1      39.261  29.544  28.015  1.00  0.00     0.010 A 
ATOM     11  C   UNL A   1      39.770  29.097  30.329  1.00  0.00     0.010 A 
ATOM     12  C   UNL A   1      40.168  29.088  28.986  1.00  0.00    -0.014 A 
BRANCH  12  13
ATOM     13  C   UNL A   1      41.566  28.750  28.596  1.00  0.00     0.031 A 
ATOM     14  C   UNL A   1      42.662  29.779  28.602  1.00  0.00     0.074 A 
ATOM     15  C   UNL A   1      41.842  27.483  28.222  1.00  0.00     0.049 A 
ATOM     16  N   UNL A   1      43.927  29.638  28.292  1.00  0.00    -0.248 NA
ATOM     17  C   UNL A   1      42.292  31.145  28.999  1.00  0.00     0.031 C 
ATOM     18  C   UNL A   1      40.859  26.397  28.144  1.00  0.00     0.029 A 
ATOM     19  N   UNL A   1      43.019  26.886  27.846  1.00  0.00    -0.354 N 
ATOM     20  C   UNL A   1      44.505  30.891  28.450  1.00  0.00     0.074 A 
ATOM     21  C   UNL A   1      43.445  31.790  28.857  1.00  0.00     0.031 C 
ATOM     22  C   UNL A   1      41.480  25.263  27.790  1.00  0.00     0.029 A 
ATOM     23  C   UNL A   1      42.892  25.546  27.560  1.00  0.00     0.049 A 
ATOM     24  H   UNL A   1      43.874  27.371  27.786  1.00  0.00     0.167 HD
ATOM     25  C   UNL A   1      45.802  31.255  28.283  1.00  0.00     0.037 A 
ATOM     26  C   UNL A   1      43.803  24.643  27.147  1.00  0.00     0.037 A 
ATOM     27  C   UNL A   1      46.854  30.354  27.879  1.00  0.00     0.049 A 
ATOM     28  C   UNL A   1      45.227  25.077  26.947  1.00  0.00     0.074 A 
ATOM     29  C   UNL A   1      48.202  30.627  27.706  1.00  0.00     0.029 A 
ATOM     30  N   UNL A   1      46.680  29.010  27.580  1.00  0.00    -0.354 N 
ATOM     31  N   UNL A   1      45.759  26.262  27.134  1.00  0.00    -0.248 NA
ATOM     32  C   UNL A   1      46.173  24.057  26.476  1.00  0.00     0.031 C 
ATOM     33  C   UNL A   1      48.834  29.458  27.265  1.00  0.00     0.029 A 
ATOM     34  C   UNL A   1      47.891  28.446  27.207  1.00  0.00     0.049 A 
ATOM     35  H   UNL A   1      45.824  28.528  27.627  1.00  0.00     0.167 HD
ATOM     36  C   UNL A   1      47.105  26.126  26.819  1.00  0.00     0.074 A 
ATOM     37  C   UNL A   1      47.310  24.740  26.447  1.00  0.00     0.031 C 
ATOM     38  C   UNL A   1      48.082  27.065  26.836  1.00  0.00     0.037 A 
BRANCH  25  39
ATOM     39  C   UNL A   1      46.162  32.697  28.529  1.00  0.00     0.058 A 
ATOM     40  C   UNL A   1      46.489  33.166  29.811  1.00  0.00     0.135 A 
ATOM     41  C   UNL A   1      46.230  33.609  27.463  1.00  0.00     0.135 A 
ATOM     42  F   UNL A   1      46.433  32.340  30.867  1.00  0.00    -0.206 F 
ATOM     43  C   UNL A   1      46.845  34.493  30.033  1.00  0.00     0.059 A 
ATOM     44  C   UNL A   1      46.607  34.936  27.658  1.00  0.00     0.059 A 
ATOM     45  F   UNL A   1      45.933  33.215  26.214  1.00  0.00    -0.206 F 
ATOM     46  C   UNL A   1      46.897  35.373  28.948  1.00  0.00     0.060 A 
BRANCH  46  47
ATOM     47  S   UNL A   1      47.364  37.090  29.259  1.00  0.00     0.124 S 
ATOM     48  O   UNL A   1      46.856  37.286  30.617  1.00  0.00    -0.237 OA
ATOM     49  O   UNL A   1      48.805  37.060  29.118  1.00  0.00    -0.237 OA
ATOM     50  O   UNL A   1      46.645  37.828  28.216  1.00  0.00    -0.744 OA
ENDBRANCH  46  47
ENDBRANCH  25  39
BRANCH  26  51
ATOM     51  C   UNL A   1      43.389  23.235  26.903  1.00  0.00     0.058 A 
ATOM     52  C   UNL A   1      43.266  22.735  25.598  1.00  0.00     0.135 A 
ATOM     53  C   UNL A   1      43.139  22.355  27.968  1.00  0.00     0.135 A 
ATOM     54  F   UNL A   1      43.488  23.540  24.548  1.00  0.00    -0.206 F 
ATOM     55  C   UNL A   1      42.902  21.415  25.356  1.00  0.00     0.059 A 
ATOM     56  C   UNL A   1      42.800  21.023  27.751  1.00  0.00     0.059 A 
ATOM     57  F   UNL A   1      43.259  22.781  29.235  1.00  0.00    -0.206 F 
ATOM     58  C   UNL A   1      42.676  20.565  26.440  1.00  0.00     0.060 A 
BRANCH  58  59
ATOM     59  S   UNL A   1      42.265  18.835  26.117  1.00  0.00     0.124 S 
ATOM     60  O   UNL A   1      42.508  18.228  27.420  1.00  0.00    -0.237 OA
ATOM     61  O   UNL A   1      40.868  18.923  25.703  1.00  0.00    -0.237 OA
ATOM     62  O   UNL A   1      43.200  18.462  25.060  1.00  0.00    -0.744 OA
ENDBRANCH  58  59
ENDBRANCH  26  51
BRANCH  38  63
ATOM     63  C   UNL A   1      49.469  26.620  26.463  1.00  0.00     0.058 A 
ATOM     64  C   UNL A   1      50.311  25.983  27.387  1.00  0.00     0.135 A 
ATOM     65  C   UNL A   1      49.946  26.799  25.154  1.00  0.00     0.135 A 
ATOM     66  F   UNL A   1      49.907  25.795  28.653  1.00  0.00    -0.206 F 
ATOM     67  C   UNL A   1      51.588  25.558  27.033  1.00  0.00     0.059 A 
ATOM     68  C   UNL A   1      51.211  26.360  24.773  1.00  0.00     0.059 A 
ATOM     69  F   UNL A   1      49.178  27.396  24.231  1.00  0.00    -0.206 F 
ATOM     70  C   UNL A   1      52.029  25.750  25.723  1.00  0.00     0.060 A 
BRANCH  70  71
ATOM     71  S   UNL A   1      53.677  25.168  25.268  1.00  0.00     0.124 S 
ATOM     72  O   UNL A   1      53.813  25.701  23.916  1.00  0.00    -0.237 OA
ATOM     73  O   UNL A   1      54.521  25.791  26.283  1.00  0.00    -0.237 OA
ATOM     74  O   UNL A   1      53.561  23.716  25.363  1.00  0.00    -0.744 OA
ENDBRANCH  70  71
ENDBRANCH  38  63
ENDBRANCH  12  13
ENDBRANCH   5   7
ENDBRANCH   2   3
ENDBRANCH   1   2
BRANCH   1  75
ATOM     75  C   UNL A   1      33.054  29.339  27.103  1.00  0.00     0.023 C 
BRANCH  75  76
ATOM     76  C   UNL A   1      32.818  29.907  25.684  1.00  0.00     0.116 C 
BRANCH  76  77
ATOM     77  N   UNL A   1      33.555  29.482  24.479  1.00  0.00    -0.354 N 
ATOM     78  C   UNL A   1      33.597  28.411  23.601  1.00  0.00     0.245 C 
ATOM     79  H   UNL A   1      34.214  30.165  24.221  1.00  0.00     0.163 HD
ATOM     80  O   UNL A   1      34.218  28.537  22.541  1.00  0.00    -0.272 OA
BRANCH  78  81
ATOM     81  C   UNL A   1      32.776  27.158  23.869  1.00  0.00     0.119 C 
ATOM     82  C   UNL A   1      33.637  26.515  25.017  1.00  0.00     0.038 C 
ATOM     83  C   UNL A   1      31.320  27.276  24.366  1.00  0.00     0.038 C 
ATOM     84  C   UNL A   1      33.069  25.401  25.885  1.00  0.00     0.003 C 
ATOM     85  C   UNL A   1      30.824  25.940  24.966  1.00  0.00     0.003 C 
ATOM     86  C   UNL A   1      31.605  25.592  26.224  1.00  0.00     0.000 C 
BRANCH  81  87
ATOM     87  N   UNL A   1      32.743  26.514  22.553  1.00  0.00    -0.338 N 
ATOM     88  C   UNL A   1      33.078  25.247  22.084  1.00  0.00     0.253 C 
ATOM     89  H   UNL A   1      32.410  27.109  21.843  1.00  0.00     0.164 HD
ATOM     90  O   UNL A   1      33.220  25.256  20.849  1.00  0.00    -0.269 OA
BRANCH  88  91
ATOM     91  C   UNL A   1      33.303  23.871  22.752  1.00  0.00     0.061 A 
ATOM     92  C   UNL A   1      32.049  23.299  23.093  1.00  0.00     0.035 A 
ATOM     93  C   UNL A   1      34.404  23.212  23.359  1.00  0.00     0.072 A 
ATOM     94  C   UNL A   1      31.935  22.195  23.934  1.00  0.00     0.112 A 
ATOM     95  C   UNL A   1      34.182  22.050  24.124  1.00  0.00     0.132 A 
ATOM     96  Cl  UNL A   1      36.034  23.694  23.595  1.00  0.00    -0.082 Cl
ATOM     97  N   UNL A   1      32.982  21.533  24.428  1.00  0.00    -0.263 NA
ENDBRANCH  88  91
ENDBRANCH  81  87
ENDBRANCH  78  81
ENDBRANCH  76  77
ENDBRANCH  75  76
ENDBRANCH   1  75
TORSDOF 16
ENDMDL
