MODEL 1
REMARK VINA RESULT:     -11.5      0.000      0.000
REMARK SMILES CCCCCCNC(=O)Oc1cccc(-c2ccc([C@@H](C)C(=O)NCCCCNC(=O)c3ccc(-c4c5nc(c(-c6c(F)cc(S(=O)(=O)[O-])cc6F)c6ccc([nH]6)c(-c6c(F)cc(S(=O)(=O)[O-])cc6F)c6nc(c(-c7c(F)cc(S(=O)(=O)[O-])cc7F)c7ccc4[nH]7)C=C6)C=C5)cc3)cc2)c1
REMARK SMILES IDX 20 1 21 2 19 3 16 4 17 5 99 6 18 7 98 8 15 9 11 10 12 11
REMARK SMILES IDX 100 12 13 13 14 14 10 15 8 16 7 17 9 19 6 20 5 21 4 22 3 23
REMARK SMILES IDX 2 24 1 25 22 26 23 27 24 28 25 30 26 31 27 32 28 33 29 34
REMARK SMILES IDX 30 35 31 37 32 38 33 39 97 40 34 41 96 42 35 43 36 44 37 45
REMARK SMILES IDX 90 46 38 47 95 48 89 49 91 50 39 51 94 52 88 53 87 54 40 56
REMARK SMILES IDX 74 57 53 58 73 59 54 60 57 61 72 62 92 63 55 64 56 65 71 67
REMARK SMILES IDX 93 68 58 69 41 70 42 71 51 72 43 73 44 74 50 75 52 76 45 77
REMARK SMILES IDX 46 78 47 79 48 80 49 81 75 82 76 83 85 84 77 85 78 86 84 87
REMARK SMILES IDX 86 88 79 89 80 90 81 91 82 92 83 93 59 94 60 95 69 96 61 97
REMARK SMILES IDX 62 98 68 99 70 100 63 101 64 102 65 103 66 104 67 105
REMARK H PARENT 7 18 24 29 29 36 91 55 57 66
REMARK Flexibility Score: inf
ROOT
ATOM      1  C   UNL A   1      33.520  19.451  25.547  1.00  0.00     0.105 C 
ATOM      2  C   UNL A   1      32.546  18.281  25.409  1.00  0.00     0.023 C 
ENDROOT
BRANCH   1   3
ATOM      3  C   UNL A   1      32.945  20.825  25.243  1.00  0.00    -0.036 A 
ATOM      4  C   UNL A   1      31.682  23.316  24.621  1.00  0.00    -0.018 A 
ATOM      5  C   UNL A   1      32.013  22.962  25.937  1.00  0.00     0.009 A 
ATOM      6  C   UNL A   1      32.034  22.402  23.616  1.00  0.00     0.009 A 
ATOM      7  C   UNL A   1      32.672  21.765  26.236  1.00  0.00     0.005 A 
ATOM      8  C   UNL A   1      32.632  21.170  23.921  1.00  0.00     0.005 A 
BRANCH   4   9
ATOM      9  C   UNL A   1      30.991  24.594  24.328  1.00  0.00    -0.015 A 
ATOM     10  C   UNL A   1      30.574  26.520  22.902  1.00  0.00     0.133 A 
ATOM     11  C   UNL A   1      29.633  27.027  23.792  1.00  0.00     0.047 A 
ATOM     12  C   UNL A   1      31.249  25.323  23.156  1.00  0.00     0.056 A 
ATOM     13  C   UNL A   1      29.356  26.320  24.955  1.00  0.00     0.004 A 
ATOM     14  C   UNL A   1      30.037  25.128  25.221  1.00  0.00     0.009 A 
BRANCH  10  15
ATOM     15  O   UNL A   1      30.917  27.342  21.818  1.00  0.00    -0.410 OA
BRANCH  15  16
ATOM     16  C   UNL A   1      30.932  28.717  21.991  1.00  0.00     0.412 C 
ATOM     17  N   UNL A   1      32.172  29.190  22.327  1.00  0.00    -0.321 N 
ATOM     18  H   UNL A   1      32.245  30.156  22.502  1.00  0.00     0.167 HD
ATOM     19  O   UNL A   1      29.976  29.470  21.875  1.00  0.00    -0.224 OA
BRANCH  17  20
ATOM     20  C   UNL A   1      33.387  28.411  22.448  1.00  0.00     0.119 C 
BRANCH  20  21
ATOM     21  C   UNL A   1      34.103  28.677  23.771  1.00  0.00     0.021 C 
BRANCH  21  22
ATOM     22  C   UNL A   1      33.209  28.577  25.012  1.00  0.00     0.002 C 
BRANCH  22  23
ATOM     23  C   UNL A   1      33.231  27.222  25.728  1.00  0.00    -0.000 C 
BRANCH  23  24
ATOM     24  C   UNL A   1      32.280  27.096  26.921  1.00  0.00    -0.003 C 
ATOM     25  C   UNL A   1      31.702  28.429  27.369  1.00  0.00     0.004 C 
ENDBRANCH  23  24
ENDBRANCH  22  23
ENDBRANCH  21  22
ENDBRANCH  20  21
ENDBRANCH  17  20
ENDBRANCH  15  16
ENDBRANCH  10  15
ENDBRANCH   4   9
ENDBRANCH   1   3
BRANCH   1  26
ATOM     26  C   UNL A   1      34.894  19.195  24.909  1.00  0.00     0.227 C 
ATOM     27  O   UNL A   1      35.080  18.163  24.252  1.00  0.00    -0.274 OA
ATOM     28  N   UNL A   1      35.945  20.056  24.996  1.00  0.00    -0.356 N 
ATOM     29  H   UNL A   1      36.735  19.783  24.476  1.00  0.00     0.163 HD
BRANCH  28  30
ATOM     30  C   UNL A   1      36.112  21.301  25.716  1.00  0.00     0.116 C 
BRANCH  30  31
ATOM     31  C   UNL A   1      37.435  21.990  25.379  1.00  0.00     0.023 C 
BRANCH  31  32
ATOM     32  C   UNL A   1      37.407  23.514  25.467  1.00  0.00     0.023 C 
BRANCH  32  33
ATOM     33  C   UNL A   1      38.322  24.121  26.524  1.00  0.00     0.116 C 
BRANCH  33  34
ATOM     34  N   UNL A   1      39.742  23.924  26.264  1.00  0.00    -0.352 N 
ATOM     35  C   UNL A   1      40.802  24.666  26.736  1.00  0.00     0.251 C 
ATOM     36  H   UNL A   1      39.972  23.168  25.679  1.00  0.00     0.163 HD
ATOM     37  O   UNL A   1      41.944  24.425  26.359  1.00  0.00    -0.269 OA
BRANCH  35  38
ATOM     38  C   UNL A   1      40.537  25.784  27.665  1.00  0.00     0.039 A 
ATOM     39  C   UNL A   1      39.498  25.664  28.589  1.00  0.00     0.014 A 
ATOM     40  C   UNL A   1      41.365  26.911  27.673  1.00  0.00     0.014 A 
ATOM     41  C   UNL A   1      39.341  26.640  29.575  1.00  0.00     0.010 A 
ATOM     42  C   UNL A   1      41.260  27.834  28.707  1.00  0.00     0.010 A 
ATOM     43  C   UNL A   1      40.249  27.708  29.671  1.00  0.00    -0.014 A 
BRANCH  43  44
ATOM     44  C   UNL A   1      40.165  28.689  30.783  1.00  0.00     0.031 A 
ATOM     45  C   UNL A   1      41.042  28.537  31.996  1.00  0.00     0.074 A 
ATOM     46  C   UNL A   1      39.252  29.680  30.726  1.00  0.00     0.049 A 
ATOM     47  N   UNL A   1      41.090  29.273  33.076  1.00  0.00    -0.248 NA
ATOM     48  C   UNL A   1      41.964  27.389  32.012  1.00  0.00     0.031 C 
ATOM     49  C   UNL A   1      38.296  29.889  29.635  1.00  0.00     0.029 A 
ATOM     50  N   UNL A   1      38.974  30.696  31.606  1.00  0.00    -0.354 N 
ATOM     51  C   UNL A   1      42.036  28.675  33.900  1.00  0.00     0.074 A 
ATOM     52  C   UNL A   1      42.489  27.479  33.225  1.00  0.00     0.031 C 
ATOM     53  C   UNL A   1      37.563  30.982  29.895  1.00  0.00     0.029 A 
ATOM     54  C   UNL A   1      37.968  31.533  31.184  1.00  0.00     0.049 A 
ATOM     55  H   UNL A   1      39.450  30.814  32.460  1.00  0.00     0.167 HD
ATOM     56  C   UNL A   1      42.506  29.099  35.099  1.00  0.00     0.037 A 
ATOM     57  C   UNL A   1      37.433  32.623  31.769  1.00  0.00     0.037 A 
ATOM     58  C   UNL A   1      42.065  30.303  35.753  1.00  0.00     0.049 A 
ATOM     59  C   UNL A   1      37.980  33.082  33.093  1.00  0.00     0.074 A 
ATOM     60  C   UNL A   1      42.524  30.857  36.935  1.00  0.00     0.029 A 
ATOM     61  N   UNL A   1      41.059  31.137  35.285  1.00  0.00    -0.354 N 
ATOM     62  N   UNL A   1      38.934  32.550  33.820  1.00  0.00    -0.248 NA
ATOM     63  C   UNL A   1      37.385  34.294  33.673  1.00  0.00     0.031 C 
ATOM     64  C   UNL A   1      41.765  32.000  37.205  1.00  0.00     0.029 A 
ATOM     65  C   UNL A   1      40.867  32.189  36.167  1.00  0.00     0.049 A 
ATOM     66  H   UNL A   1      40.556  31.001  34.450  1.00  0.00     0.167 HD
ATOM     67  C   UNL A   1      39.068  33.374  34.933  1.00  0.00     0.074 A 
ATOM     68  C   UNL A   1      38.111  34.449  34.772  1.00  0.00     0.031 C 
ATOM     69  C   UNL A   1      39.906  33.250  35.993  1.00  0.00     0.037 A 
BRANCH  56  70
ATOM     70  C   UNL A   1      43.555  28.256  35.772  1.00  0.00     0.058 A 
ATOM     71  C   UNL A   1      44.925  28.456  35.535  1.00  0.00     0.135 A 
ATOM     72  C   UNL A   1      43.190  27.252  36.683  1.00  0.00     0.135 A 
ATOM     73  F   UNL A   1      45.332  29.391  34.662  1.00  0.00    -0.206 F 
ATOM     74  C   UNL A   1      45.894  27.669  36.150  1.00  0.00     0.059 A 
ATOM     75  C   UNL A   1      44.143  26.473  37.333  1.00  0.00     0.059 A 
ATOM     76  F   UNL A   1      41.896  27.015  36.947  1.00  0.00    -0.206 F 
ATOM     77  C   UNL A   1      45.492  26.679  37.047  1.00  0.00     0.060 A 
BRANCH  77  78
ATOM     78  S   UNL A   1      46.762  25.667  37.836  1.00  0.00     0.124 S 
ATOM     79  O   UNL A   1      47.764  25.579  36.777  1.00  0.00    -0.237 OA
ATOM     80  O   UNL A   1      47.132  26.475  38.993  1.00  0.00    -0.237 OA
ATOM     81  O   UNL A   1      46.064  24.423  38.142  1.00  0.00    -0.744 OA
ENDBRANCH  77  78
ENDBRANCH  56  70
BRANCH  57  82
ATOM     82  C   UNL A   1      36.341  33.371  31.090  1.00  0.00     0.058 A 
ATOM     83  C   UNL A   1      36.595  34.131  29.938  1.00  0.00     0.135 A 
ATOM     84  C   UNL A   1      35.021  33.326  31.563  1.00  0.00     0.135 A 
ATOM     85  F   UNL A   1      37.842  34.211  29.449  1.00  0.00    -0.206 F 
ATOM     86  C   UNL A   1      35.584  34.832  29.289  1.00  0.00     0.059 A 
ATOM     87  C   UNL A   1      33.988  33.997  30.916  1.00  0.00     0.059 A 
ATOM     88  F   UNL A   1      34.721  32.599  32.652  1.00  0.00    -0.206 F 
ATOM     89  C   UNL A   1      34.281  34.755  29.784  1.00  0.00     0.060 A 
BRANCH  89  90
ATOM     90  S   UNL A   1      32.968  35.628  28.903  1.00  0.00     0.124 S 
ATOM     91  O   UNL A   1      33.724  36.636  28.170  1.00  0.00    -0.237 OA
ATOM     92  O   UNL A   1      32.378  34.562  28.098  1.00  0.00    -0.237 OA
ATOM     93  O   UNL A   1      32.120  36.132  29.979  1.00  0.00    -0.744 OA
ENDBRANCH  89  90
ENDBRANCH  57  82
BRANCH  69  94
ATOM     94  C   UNL A   1      39.841  34.318  37.050  1.00  0.00     0.058 A 
ATOM     95  C   UNL A   1      39.149  34.120  38.256  1.00  0.00     0.135 A 
ATOM     96  C   UNL A   1      40.511  35.539  36.871  1.00  0.00     0.135 A 
ATOM     97  F   UNL A   1      38.488  32.973  38.475  1.00  0.00    -0.206 F 
ATOM     98  C   UNL A   1      39.097  35.108  39.234  1.00  0.00     0.059 A 
ATOM     99  C   UNL A   1      40.498  36.529  37.848  1.00  0.00     0.059 A 
ATOM    100  F   UNL A   1      41.198  35.775  35.742  1.00  0.00    -0.206 F 
ATOM    101  C   UNL A   1      39.776  36.310  39.020  1.00  0.00     0.060 A 
BRANCH 101 102
ATOM    102  S   UNL A   1      39.717  37.575  40.306  1.00  0.00     0.124 S 
ATOM    103  O   UNL A   1      38.995  38.648  39.630  1.00  0.00    -0.237 OA
ATOM    104  O   UNL A   1      38.993  36.900  41.378  1.00  0.00    -0.237 OA
ATOM    105  O   UNL A   1      41.125  37.844  40.583  1.00  0.00    -0.744 OA
ENDBRANCH 101 102
ENDBRANCH  69  94
ENDBRANCH  43  44
ENDBRANCH  35  38
ENDBRANCH  33  34
ENDBRANCH  32  33
ENDBRANCH  31  32
ENDBRANCH  30  31
ENDBRANCH  28  30
ENDBRANCH   1  26
TORSDOF 23
ENDMDL
MODEL 2
REMARK VINA RESULT:     -11.2      1.148      2.256
REMARK SMILES CCCCCCNC(=O)Oc1cccc(-c2ccc([C@@H](C)C(=O)NCCCCNC(=O)c3ccc(-c4c5nc(c(-c6c(F)cc(S(=O)(=O)[O-])cc6F)c6ccc([nH]6)c(-c6c(F)cc(S(=O)(=O)[O-])cc6F)c6nc(c(-c7c(F)cc(S(=O)(=O)[O-])cc7F)c7ccc4[nH]7)C=C6)C=C5)cc3)cc2)c1
REMARK SMILES IDX 20 1 21 2 19 3 16 4 17 5 99 6 18 7 98 8 15 9 11 10 12 11
REMARK SMILES IDX 100 12 13 13 14 14 10 15 8 16 7 17 9 19 6 20 5 21 4 22 3 23
REMARK SMILES IDX 2 24 1 25 22 26 23 27 24 28 25 30 26 31 27 32 28 33 29 34
REMARK SMILES IDX 30 35 31 37 32 38 33 39 97 40 34 41 96 42 35 43 36 44 37 45
REMARK SMILES IDX 90 46 38 47 95 48 89 49 91 50 39 51 94 52 88 53 87 54 40 56
REMARK SMILES IDX 74 57 53 58 73 59 54 60 57 61 72 62 92 63 55 64 56 65 71 67
REMARK SMILES IDX 93 68 58 69 41 70 42 71 51 72 43 73 44 74 50 75 52 76 45 77
REMARK SMILES IDX 46 78 47 79 48 80 49 81 75 82 76 83 85 84 77 85 78 86 84 87
REMARK SMILES IDX 86 88 79 89 80 90 81 91 82 92 83 93 59 94 60 95 69 96 61 97
REMARK SMILES IDX 62 98 68 99 70 100 63 101 64 102 65 103 66 104 67 105
REMARK H PARENT 7 18 24 29 29 36 91 55 57 66
REMARK Flexibility Score: inf
ROOT
ATOM      1  C   UNL A   1      34.855  21.497  25.939  1.00  0.00     0.105 C 
ATOM      2  C   UNL A   1      33.704  20.829  26.691  1.00  0.00     0.023 C 
ENDROOT
BRANCH   1   3
ATOM      3  C   UNL A   1      34.530  22.833  25.293  1.00  0.00    -0.036 A 
ATOM      4  C   UNL A   1      33.715  25.313  24.119  1.00  0.00    -0.018 A 
ATOM      5  C   UNL A   1      34.434  25.264  25.321  1.00  0.00     0.009 A 
ATOM      6  C   UNL A   1      33.444  24.083  23.498  1.00  0.00     0.009 A 
ATOM      7  C   UNL A   1      34.873  24.056  25.871  1.00  0.00     0.005 A 
ATOM      8  C   UNL A   1      33.822  22.866  24.083  1.00  0.00     0.005 A 
BRANCH   4   9
ATOM      9  C   UNL A   1      33.268  26.606  23.551  1.00  0.00    -0.015 A 
ATOM     10  C   UNL A   1      31.565  28.027  22.551  1.00  0.00     0.133 A 
ATOM     11  C   UNL A   1      32.442  29.105  22.488  1.00  0.00     0.047 A 
ATOM     12  C   UNL A   1      31.960  26.793  23.072  1.00  0.00     0.056 A 
ATOM     13  C   UNL A   1      33.738  28.947  22.962  1.00  0.00     0.004 A 
ATOM     14  C   UNL A   1      34.144  27.710  23.473  1.00  0.00     0.009 A 
BRANCH  10  15
ATOM     15  O   UNL A   1      30.318  28.198  21.931  1.00  0.00    -0.410 OA
BRANCH  15  16
ATOM     16  C   UNL A   1      29.318  28.884  22.602  1.00  0.00     0.412 C 
ATOM     17  N   UNL A   1      28.527  28.055  23.352  1.00  0.00    -0.321 N 
ATOM     18  H   UNL A   1      27.773  28.473  23.826  1.00  0.00     0.167 HD
ATOM     19  O   UNL A   1      29.117  30.089  22.564  1.00  0.00    -0.224 OA
BRANCH  17  20
ATOM     20  C   UNL A   1      28.691  26.625  23.517  1.00  0.00     0.119 C 
BRANCH  20  21
ATOM     21  C   UNL A   1      29.048  26.257  24.956  1.00  0.00     0.021 C 
BRANCH  21  22
ATOM     22  C   UNL A   1      30.036  25.093  25.090  1.00  0.00     0.002 C 
BRANCH  22  23
ATOM     23  C   UNL A   1      30.873  25.087  26.375  1.00  0.00    -0.000 C 
BRANCH  23  24
ATOM     24  C   UNL A   1      31.298  23.704  26.873  1.00  0.00    -0.003 C 
ATOM     25  C   UNL A   1      30.573  22.565  26.173  1.00  0.00     0.004 C 
ENDBRANCH  23  24
ENDBRANCH  22  23
ENDBRANCH  21  22
ENDBRANCH  20  21
ENDBRANCH  17  20
ENDBRANCH  15  16
ENDBRANCH  10  15
ENDBRANCH   4   9
ENDBRANCH   1   3
BRANCH   1  26
ATOM     26  C   UNL A   1      35.644  20.541  25.032  1.00  0.00     0.227 C 
ATOM     27  O   UNL A   1      35.153  19.448  24.723  1.00  0.00    -0.274 OA
ATOM     28  N   UNL A   1      36.868  20.826  24.508  1.00  0.00    -0.356 N 
ATOM     29  H   UNL A   1      37.212  20.141  23.890  1.00  0.00     0.163 HD
BRANCH  28  30
ATOM     30  C   UNL A   1      37.756  21.953  24.696  1.00  0.00     0.116 C 
BRANCH  30  31
ATOM     31  C   UNL A   1      38.573  21.836  25.983  1.00  0.00     0.023 C 
BRANCH  31  32
ATOM     32  C   UNL A   1      38.841  23.159  26.697  1.00  0.00     0.023 C 
BRANCH  32  33
ATOM     33  C   UNL A   1      40.309  23.460  26.977  1.00  0.00     0.116 C 
BRANCH  33  34
ATOM     34  N   UNL A   1      40.971  24.219  25.923  1.00  0.00    -0.352 N 
ATOM     35  C   UNL A   1      41.479  25.497  25.988  1.00  0.00     0.251 C 
ATOM     36  H   UNL A   1      41.067  23.760  25.058  1.00  0.00     0.163 HD
ATOM     37  O   UNL A   1      41.937  26.034  24.985  1.00  0.00    -0.269 OA
BRANCH  35  38
ATOM     38  C   UNL A   1      41.420  26.227  27.272  1.00  0.00     0.039 A 
ATOM     39  C   UNL A   1      42.380  27.205  27.537  1.00  0.00     0.014 A 
ATOM     40  C   UNL A   1      40.373  26.000  28.170  1.00  0.00     0.014 A 
ATOM     41  C   UNL A   1      42.241  28.012  28.669  1.00  0.00     0.010 A 
ATOM     42  C   UNL A   1      40.192  26.860  29.247  1.00  0.00     0.010 A 
ATOM     43  C   UNL A   1      41.121  27.877  29.507  1.00  0.00    -0.014 A 
BRANCH  43  44
ATOM     44  C   UNL A   1      40.901  28.804  30.646  1.00  0.00     0.031 A 
ATOM     45  C   UNL A   1      41.729  28.681  31.896  1.00  0.00     0.074 A 
ATOM     46  C   UNL A   1      39.909  29.716  30.578  1.00  0.00     0.049 A 
ATOM     47  N   UNL A   1      41.663  29.376  33.001  1.00  0.00    -0.248 NA
ATOM     48  C   UNL A   1      42.745  27.615  31.919  1.00  0.00     0.031 C 
ATOM     49  C   UNL A   1      38.991  29.884  29.447  1.00  0.00     0.029 A 
ATOM     50  N   UNL A   1      39.504  30.670  31.477  1.00  0.00    -0.354 N 
ATOM     51  C   UNL A   1      42.616  28.829  33.851  1.00  0.00     0.074 A 
ATOM     52  C   UNL A   1      43.203  27.703  33.159  1.00  0.00     0.031 C 
ATOM     53  C   UNL A   1      38.155  30.901  29.708  1.00  0.00     0.029 A 
ATOM     54  C   UNL A   1      38.450  31.434  31.033  1.00  0.00     0.049 A 
ATOM     55  H   UNL A   1      39.927  30.795  32.357  1.00  0.00     0.167 HD
ATOM     56  C   UNL A   1      42.991  29.244  35.086  1.00  0.00     0.037 A 
ATOM     57  C   UNL A   1      37.795  32.452  31.628  1.00  0.00     0.037 A 
ATOM     58  C   UNL A   1      42.418  30.381  35.758  1.00  0.00     0.049 A 
ATOM     59  C   UNL A   1      38.237  32.904  32.992  1.00  0.00     0.074 A 
ATOM     60  C   UNL A   1      42.771  30.926  36.979  1.00  0.00     0.029 A 
ATOM     61  N   UNL A   1      41.366  31.144  35.269  1.00  0.00    -0.354 N 
ATOM     62  N   UNL A   1      39.198  32.427  33.748  1.00  0.00    -0.248 NA
ATOM     63  C   UNL A   1      37.514  34.038  33.583  1.00  0.00     0.031 C 
ATOM     64  C   UNL A   1      41.904  31.990  37.251  1.00  0.00     0.029 A 
ATOM     65  C   UNL A   1      41.043  32.141  36.175  1.00  0.00     0.049 A 
ATOM     66  H   UNL A   1      40.917  30.999  34.405  1.00  0.00     0.167 HD
ATOM     67  C   UNL A   1      39.208  33.216  34.894  1.00  0.00     0.074 A 
ATOM     68  C   UNL A   1      38.171  34.212  34.721  1.00  0.00     0.031 C 
ATOM     69  C   UNL A   1      40.003  33.123  35.989  1.00  0.00     0.037 A 
BRANCH  56  70
ATOM     70  C   UNL A   1      44.076  28.468  35.781  1.00  0.00     0.058 A 
ATOM     71  C   UNL A   1      45.435  28.775  35.599  1.00  0.00     0.135 A 
ATOM     72  C   UNL A   1      43.756  27.421  36.660  1.00  0.00     0.135 A 
ATOM     73  F   UNL A   1      45.800  29.755  34.759  1.00  0.00    -0.206 F 
ATOM     74  C   UNL A   1      46.438  28.050  36.235  1.00  0.00     0.059 A 
ATOM     75  C   UNL A   1      44.741  26.701  37.330  1.00  0.00     0.059 A 
ATOM     76  F   UNL A   1      42.474  27.083  36.872  1.00  0.00    -0.206 F 
ATOM     77  C   UNL A   1      46.080  27.013  37.099  1.00  0.00     0.060 A 
BRANCH  77  78
ATOM     78  S   UNL A   1      47.394  26.082  37.915  1.00  0.00     0.124 S 
ATOM     79  O   UNL A   1      47.216  26.487  39.307  1.00  0.00    -0.237 OA
ATOM     80  O   UNL A   1      47.037  24.702  37.606  1.00  0.00    -0.237 OA
ATOM     81  O   UNL A   1      48.608  26.572  37.270  1.00  0.00    -0.744 OA
ENDBRANCH  77  78
ENDBRANCH  56  70
BRANCH  57  82
ATOM     82  C   UNL A   1      36.676  33.130  30.920  1.00  0.00     0.058 A 
ATOM     83  C   UNL A   1      35.341  32.862  31.258  1.00  0.00     0.135 A 
ATOM     84  C   UNL A   1      36.916  34.073  29.909  1.00  0.00     0.135 A 
ATOM     85  F   UNL A   1      35.059  31.963  32.214  1.00  0.00    -0.206 F 
ATOM     86  C   UNL A   1      34.284  33.491  30.608  1.00  0.00     0.059 A 
ATOM     87  C   UNL A   1      35.877  34.736  29.264  1.00  0.00     0.059 A 
ATOM     88  F   UNL A   1      38.176  34.380  29.560  1.00  0.00    -0.206 F 
ATOM     89  C   UNL A   1      34.563  34.431  29.614  1.00  0.00     0.060 A 
BRANCH  89  90
ATOM     90  S   UNL A   1      33.183  35.279  28.814  1.00  0.00     0.124 S 
ATOM     91  O   UNL A   1      32.445  35.789  29.963  1.00  0.00    -0.237 OA
ATOM     92  O   UNL A   1      33.868  36.278  28.000  1.00  0.00    -0.237 OA
ATOM     93  O   UNL A   1      32.526  34.214  28.062  1.00  0.00    -0.744 OA
ENDBRANCH  89  90
ENDBRANCH  57  82
BRANCH  69  94
ATOM     94  C   UNL A   1      39.796  34.140  37.078  1.00  0.00     0.058 A 
ATOM     95  C   UNL A   1      39.019  33.857  38.213  1.00  0.00     0.135 A 
ATOM     96  C   UNL A   1      40.414  35.399  37.003  1.00  0.00     0.135 A 
ATOM     97  F   UNL A   1      38.402  32.671  38.331  1.00  0.00    -0.206 F 
ATOM     98  C   UNL A   1      38.836  34.799  39.220  1.00  0.00     0.059 A 
ATOM     99  C   UNL A   1      40.270  36.344  38.014  1.00  0.00     0.059 A 
ATOM    100  F   UNL A   1      41.178  35.716  35.946  1.00  0.00    -0.206 F 
ATOM    101  C   UNL A   1      39.466  36.040  39.111  1.00  0.00     0.060 A 
BRANCH 101 102
ATOM    102  S   UNL A   1      39.237  37.245  40.436  1.00  0.00     0.124 S 
ATOM    103  O   UNL A   1      40.601  37.720  40.640  1.00  0.00    -0.237 OA
ATOM    104  O   UNL A   1      38.316  38.203  39.832  1.00  0.00    -0.237 OA
ATOM    105  O   UNL A   1      38.678  36.450  41.525  1.00  0.00    -0.744 OA
ENDBRANCH 101 102
ENDBRANCH  69  94
ENDBRANCH  43  44
ENDBRANCH  35  38
ENDBRANCH  33  34
ENDBRANCH  32  33
ENDBRANCH  31  32
ENDBRANCH  30  31
ENDBRANCH  28  30
ENDBRANCH   1  26
TORSDOF 23
ENDMDL
MODEL 3
REMARK VINA RESULT:     -11.2      4.647     10.635
REMARK SMILES CCCCCCNC(=O)Oc1cccc(-c2ccc([C@@H](C)C(=O)NCCCCNC(=O)c3ccc(-c4c5nc(c(-c6c(F)cc(S(=O)(=O)[O-])cc6F)c6ccc([nH]6)c(-c6c(F)cc(S(=O)(=O)[O-])cc6F)c6nc(c(-c7c(F)cc(S(=O)(=O)[O-])cc7F)c7ccc4[nH]7)C=C6)C=C5)cc3)cc2)c1
REMARK SMILES IDX 20 1 21 2 19 3 16 4 17 5 99 6 18 7 98 8 15 9 11 10 12 11
REMARK SMILES IDX 100 12 13 13 14 14 10 15 8 16 7 17 9 19 6 20 5 21 4 22 3 23
REMARK SMILES IDX 2 24 1 25 22 26 23 27 24 28 25 30 26 31 27 32 28 33 29 34
REMARK SMILES IDX 30 35 31 37 32 38 33 39 97 40 34 41 96 42 35 43 36 44 37 45
REMARK SMILES IDX 90 46 38 47 95 48 89 49 91 50 39 51 94 52 88 53 87 54 40 56
REMARK SMILES IDX 74 57 53 58 73 59 54 60 57 61 72 62 92 63 55 64 56 65 71 67
REMARK SMILES IDX 93 68 58 69 41 70 42 71 51 72 43 73 44 74 50 75 52 76 45 77
REMARK SMILES IDX 46 78 47 79 48 80 49 81 75 82 76 83 85 84 77 85 78 86 84 87
REMARK SMILES IDX 86 88 79 89 80 90 81 91 82 92 83 93 59 94 60 95 69 96 61 97
REMARK SMILES IDX 62 98 68 99 70 100 63 101 64 102 65 103 66 104 67 105
REMARK H PARENT 7 18 24 29 29 36 91 55 57 66
REMARK Flexibility Score: inf
ROOT
ATOM      1  C   UNL A   1      33.050  26.813  23.481  1.00  0.00     0.105 C 
ATOM      2  C   UNL A   1      33.726  27.852  22.586  1.00  0.00     0.023 C 
ENDROOT
BRANCH   1   3
ATOM      3  C   UNL A   1      33.805  25.505  23.657  1.00  0.00    -0.036 A 
ATOM      4  C   UNL A   1      35.106  23.006  24.155  1.00  0.00    -0.018 A 
ATOM      5  C   UNL A   1      34.264  23.195  23.050  1.00  0.00     0.009 A 
ATOM      6  C   UNL A   1      35.310  24.117  24.988  1.00  0.00     0.009 A 
ATOM      7  C   UNL A   1      33.665  24.429  22.780  1.00  0.00     0.005 A 
ATOM      8  C   UNL A   1      34.654  25.335  24.759  1.00  0.00     0.005 A 
BRANCH   4   9
ATOM      9  C   UNL A   1      35.737  21.690  24.415  1.00  0.00    -0.015 A 
ATOM     10  C   UNL A   1      35.612  19.275  24.676  1.00  0.00     0.133 A 
ATOM     11  C   UNL A   1      36.982  19.187  24.899  1.00  0.00     0.047 A 
ATOM     12  C   UNL A   1      34.988  20.501  24.438  1.00  0.00     0.056 A 
ATOM     13  C   UNL A   1      37.744  20.348  24.875  1.00  0.00     0.004 A 
ATOM     14  C   UNL A   1      37.124  21.581  24.649  1.00  0.00     0.009 A 
BRANCH  10  15
ATOM     15  O   UNL A   1      34.872  18.095  24.852  1.00  0.00    -0.410 OA
BRANCH  15  16
ATOM     16  C   UNL A   1      34.095  17.624  23.806  1.00  0.00     0.412 C 
ATOM     17  N   UNL A   1      32.774  17.953  23.945  1.00  0.00    -0.321 N 
ATOM     18  H   UNL A   1      32.159  17.617  23.254  1.00  0.00     0.167 HD
ATOM     19  O   UNL A   1      34.491  16.980  22.845  1.00  0.00    -0.224 OA
BRANCH  17  20
ATOM     20  C   UNL A   1      32.192  18.749  25.007  1.00  0.00     0.119 C 
BRANCH  20  21
ATOM     21  C   UNL A   1      32.040  20.213  24.601  1.00  0.00     0.021 C 
BRANCH  21  22
ATOM     22  C   UNL A   1      31.797  21.177  25.767  1.00  0.00     0.002 C 
BRANCH  22  23
ATOM     23  C   UNL A   1      31.432  22.612  25.368  1.00  0.00    -0.000 C 
BRANCH  23  24
ATOM     24  C   UNL A   1      31.914  23.702  26.329  1.00  0.00    -0.003 C 
ATOM     25  C   UNL A   1      32.793  23.167  27.449  1.00  0.00     0.004 C 
ENDBRANCH  23  24
ENDBRANCH  22  23
ENDBRANCH  21  22
ENDBRANCH  20  21
ENDBRANCH  17  20
ENDBRANCH  15  16
ENDBRANCH  10  15
ENDBRANCH   4   9
ENDBRANCH   1   3
BRANCH   1  26
ATOM     26  C   UNL A   1      31.550  26.633  23.205  1.00  0.00     0.227 C 
ATOM     27  O   UNL A   1      31.149  26.560  22.036  1.00  0.00    -0.274 OA
ATOM     28  N   UNL A   1      30.604  26.521  24.178  1.00  0.00    -0.356 N 
ATOM     29  H   UNL A   1      29.697  26.341  23.841  1.00  0.00     0.163 HD
BRANCH  28  30
ATOM     30  C   UNL A   1      30.692  26.620  25.619  1.00  0.00     0.116 C 
BRANCH  30  31
ATOM     31  C   UNL A   1      31.372  27.914  26.069  1.00  0.00     0.023 C 
BRANCH  31  32
ATOM     32  C   UNL A   1      32.326  27.762  27.251  1.00  0.00     0.023 C 
BRANCH  32  33
ATOM     33  C   UNL A   1      33.637  28.531  27.131  1.00  0.00     0.116 C 
BRANCH  33  34
ATOM     34  N   UNL A   1      33.567  29.903  27.616  1.00  0.00    -0.352 N 
ATOM     35  C   UNL A   1      34.559  30.642  28.220  1.00  0.00     0.251 C 
ATOM     36  H   UNL A   1      32.702  30.358  27.496  1.00  0.00     0.163 HD
ATOM     37  O   UNL A   1      34.321  31.766  28.650  1.00  0.00    -0.269 OA
BRANCH  35  38
ATOM     38  C   UNL A   1      35.900  30.043  28.384  1.00  0.00     0.039 A 
ATOM     39  C   UNL A   1      36.806  30.114  27.324  1.00  0.00     0.014 A 
ATOM     40  C   UNL A   1      36.284  29.485  29.607  1.00  0.00     0.014 A 
ATOM     41  C   UNL A   1      38.124  29.698  27.520  1.00  0.00     0.010 A 
ATOM     42  C   UNL A   1      37.616  29.154  29.824  1.00  0.00     0.010 A 
ATOM     43  C   UNL A   1      38.552  29.258  28.785  1.00  0.00    -0.014 A 
BRANCH  43  44
ATOM     44  C   UNL A   1      39.976  28.924  29.039  1.00  0.00     0.031 A 
ATOM     45  C   UNL A   1      40.904  29.953  29.626  1.00  0.00     0.074 A 
ATOM     46  C   UNL A   1      40.447  27.712  28.682  1.00  0.00     0.049 A 
ATOM     47  N   UNL A   1      42.181  29.856  29.891  1.00  0.00    -0.248 NA
ATOM     48  C   UNL A   1      40.329  31.275  29.924  1.00  0.00     0.031 C 
ATOM     49  C   UNL A   1      39.662  26.654  28.039  1.00  0.00     0.029 A 
ATOM     50  N   UNL A   1      41.699  27.163  28.805  1.00  0.00    -0.354 N 
ATOM     51  C   UNL A   1      42.562  31.101  30.376  1.00  0.00     0.074 A 
ATOM     52  C   UNL A   1      41.398  31.956  30.308  1.00  0.00     0.031 C 
ATOM     53  C   UNL A   1      40.441  25.577  27.855  1.00  0.00     0.029 A 
ATOM     54  C   UNL A   1      41.787  25.875  28.332  1.00  0.00     0.049 A 
ATOM     55  H   UNL A   1      42.463  27.647  29.193  1.00  0.00     0.167 HD
ATOM     56  C   UNL A   1      43.767  31.489  30.862  1.00  0.00     0.037 A 
ATOM     57  C   UNL A   1      42.835  25.028  28.289  1.00  0.00     0.037 A 
ATOM     58  C   UNL A   1      44.914  30.624  30.948  1.00  0.00     0.049 A 
ATOM     59  C   UNL A   1      44.158  25.476  28.847  1.00  0.00     0.074 A 
ATOM     60  C   UNL A   1      46.159  30.898  31.485  1.00  0.00     0.029 A 
ATOM     61  N   UNL A   1      44.959  29.319  30.479  1.00  0.00    -0.354 N 
ATOM     62  N   UNL A   1      44.479  26.631  29.379  1.00  0.00    -0.248 NA
ATOM     63  C   UNL A   1      45.259  24.504  28.807  1.00  0.00     0.031 C 
ATOM     64  C   UNL A   1      46.972  29.775  31.299  1.00  0.00     0.029 A 
ATOM     65  C   UNL A   1      46.219  28.781  30.693  1.00  0.00     0.049 A 
ATOM     66  H   UNL A   1      44.208  28.844  30.056  1.00  0.00     0.167 HD
ATOM     67  C   UNL A   1      45.814  26.519  29.756  1.00  0.00     0.074 A 
ATOM     68  C   UNL A   1      46.231  25.176  29.409  1.00  0.00     0.031 C 
ATOM     69  C   UNL A   1      46.619  27.443  30.337  1.00  0.00     0.037 A 
BRANCH  56  70
ATOM     70  C   UNL A   1      43.897  32.909  31.345  1.00  0.00     0.058 A 
ATOM     71  C   UNL A   1      44.384  33.929  30.511  1.00  0.00     0.135 A 
ATOM     72  C   UNL A   1      43.507  33.260  32.647  1.00  0.00     0.135 A 
ATOM     73  F   UNL A   1      44.786  33.648  29.262  1.00  0.00    -0.206 F 
ATOM     74  C   UNL A   1      44.514  35.239  30.961  1.00  0.00     0.059 A 
ATOM     75  C   UNL A   1      43.600  34.570  33.109  1.00  0.00     0.059 A 
ATOM     76  F   UNL A   1      43.036  32.327  33.488  1.00  0.00    -0.206 F 
ATOM     77  C   UNL A   1      44.119  35.549  32.263  1.00  0.00     0.060 A 
BRANCH  77  78
ATOM     78  S   UNL A   1      44.294  37.254  32.832  1.00  0.00     0.124 S 
ATOM     79  O   UNL A   1      43.825  37.999  31.667  1.00  0.00    -0.237 OA
ATOM     80  O   UNL A   1      43.420  37.286  33.999  1.00  0.00    -0.237 OA
ATOM     81  O   UNL A   1      45.721  37.372  33.118  1.00  0.00    -0.744 OA
ENDBRANCH  77  78
ENDBRANCH  56  70
BRANCH  57  82
ATOM     82  C   UNL A   1      42.663  23.661  27.727  1.00  0.00     0.058 A 
ATOM     83  C   UNL A   1      42.774  23.430  26.347  1.00  0.00     0.135 A 
ATOM     84  C   UNL A   1      42.406  22.558  28.555  1.00  0.00     0.135 A 
ATOM     85  F   UNL A   1      43.013  24.453  25.513  1.00  0.00    -0.206 F 
ATOM     86  C   UNL A   1      42.620  22.157  25.807  1.00  0.00     0.059 A 
ATOM     87  C   UNL A   1      42.275  21.271  28.040  1.00  0.00     0.059 A 
ATOM     88  F   UNL A   1      42.308  22.722  29.884  1.00  0.00    -0.206 F 
ATOM     89  C   UNL A   1      42.375  21.083  26.663  1.00  0.00     0.060 A 
BRANCH  89  90
ATOM     90  S   UNL A   1      42.229  19.428  25.955  1.00  0.00     0.124 S 
ATOM     91  O   UNL A   1      43.039  19.550  24.750  1.00  0.00    -0.237 OA
ATOM     92  O   UNL A   1      42.783  18.590  27.015  1.00  0.00    -0.237 OA
ATOM     93  O   UNL A   1      40.792  19.281  25.738  1.00  0.00    -0.744 OA
ENDBRANCH  89  90
ENDBRANCH  57  82
BRANCH  69  94
ATOM     94  C   UNL A   1      48.029  27.025  30.652  1.00  0.00     0.058 A 
ATOM     95  C   UNL A   1      49.068  27.171  29.720  1.00  0.00     0.135 A 
ATOM     96  C   UNL A   1      48.352  26.508  31.918  1.00  0.00     0.135 A 
ATOM     97  F   UNL A   1      48.813  27.654  28.494  1.00  0.00    -0.206 F 
ATOM     98  C   UNL A   1      50.372  26.789  30.019  1.00  0.00     0.059 A 
ATOM     99  C   UNL A   1      49.655  26.149  32.250  1.00  0.00     0.059 A 
ATOM    100  F   UNL A   1      47.399  26.360  32.852  1.00  0.00    -0.206 F 
ATOM    101  C   UNL A   1      50.655  26.279  31.287  1.00  0.00     0.060 A 
BRANCH 101 102
ATOM    102  S   UNL A   1      52.355  25.807  31.670  1.00  0.00     0.124 S 
ATOM    103  O   UNL A   1      52.685  26.740  32.741  1.00  0.00    -0.237 OA
ATOM    104  O   UNL A   1      52.211  24.410  32.068  1.00  0.00    -0.237 OA
ATOM    105  O   UNL A   1      53.059  26.022  30.409  1.00  0.00    -0.744 OA
ENDBRANCH 101 102
ENDBRANCH  69  94
ENDBRANCH  43  44
ENDBRANCH  35  38
ENDBRANCH  33  34
ENDBRANCH  32  33
ENDBRANCH  31  32
ENDBRANCH  30  31
ENDBRANCH  28  30
ENDBRANCH   1  26
TORSDOF 23
ENDMDL
