MODEL 1
REMARK VINA RESULT:      -9.4      0.000      0.000
REMARK SMILES COc1ccc2cc([C@@H](C)C(=O)NCCCCNC(=O)c3ccc(-c4c5nc(c(-c6c(F)cc(S(=O)(=O)[O-])cc6F)c6ccc([nH]6)c(-c6c(F)cc(S(=O)(=O)[O-])cc6F)c6nc(c(-c7c(F)cc(S(=O)(=O)[O-])cc7F)c7ccc4[nH]7)C=C6)C=C5)cc3)ccc2c1
REMARK SMILES IDX 16 1 15 2 14 3 13 4 11 5 12 6 9 8 10 9 8 10 3 11 4 12 90 13
REMARK SMILES IDX 5 14 89 15 6 16 88 17 7 18 87 19 2 20 1 21 17 22 18 23 19 24
REMARK SMILES IDX 20 26 21 27 22 28 86 29 23 30 85 31 24 32 25 33 26 34 79 35
REMARK SMILES IDX 27 36 84 37 78 38 80 39 28 40 83 41 77 42 76 43 29 45 63 46
REMARK SMILES IDX 42 47 62 48 43 49 46 50 61 51 81 52 44 53 45 54 60 56 82 57
REMARK SMILES IDX 47 58 30 59 31 60 40 61 32 62 33 63 39 64 41 65 34 66 35 67
REMARK SMILES IDX 36 68 37 69 38 70 64 71 65 72 74 73 66 74 67 75 73 76 75 77
REMARK SMILES IDX 68 78 69 79 70 80 71 81 72 82 48 83 49 84 58 85 50 86 51 87
REMARK SMILES IDX 57 88 59 89 52 90 53 91 54 92 55 93 56 94
REMARK H PARENT 13 7 18 25 80 44 46 55
REMARK Flexibility Score: inf
ROOT
ATOM      1  C   UNL A   1      34.552  32.707  29.786  1.00  0.00     0.023 C 
ENDROOT
BRANCH   1   2
ATOM      2  C   UNL A   1      34.174  34.118  30.227  1.00  0.00     0.023 C 
BRANCH   2   3
ATOM      3  C   UNL A   1      34.670  34.523  31.616  1.00  0.00     0.116 C 
BRANCH   3   4
ATOM      4  N   UNL A   1      36.077  34.872  31.611  1.00  0.00    -0.356 N 
ATOM      5  C   UNL A   1      37.121  34.446  32.376  1.00  0.00     0.227 C 
ATOM      6  O   UNL A   1      38.210  35.001  32.175  1.00  0.00    -0.274 OA
ATOM      7  H   UNL A   1      36.323  35.540  30.932  1.00  0.00     0.163 HD
BRANCH   5   8
ATOM      8  C   UNL A   1      37.021  33.333  33.433  1.00  0.00     0.105 C 
ATOM      9  C   UNL A   1      36.543  33.810  34.803  1.00  0.00     0.023 C 
BRANCH   8  10
ATOM     10  C   UNL A   1      38.214  32.387  33.436  1.00  0.00    -0.035 A 
ATOM     11  C   UNL A   1      41.291  28.333  33.479  1.00  0.00     0.119 A 
ATOM     12  C   UNL A   1      40.070  27.899  32.968  1.00  0.00     0.047 A 
ATOM     13  C   UNL A   1      41.443  29.669  33.859  1.00  0.00     0.055 A 
ATOM     14  C   UNL A   1      39.032  28.812  32.772  1.00  0.00     0.012 A 
ATOM     15  C   UNL A   1      40.396  30.592  33.700  1.00  0.00    -0.015 A 
ATOM     16  C   UNL A   1      39.187  30.162  33.120  1.00  0.00    -0.018 A 
ATOM     17  C   UNL A   1      40.509  31.926  34.117  1.00  0.00     0.009 A 
ATOM     18  C   UNL A   1      38.140  31.081  32.940  1.00  0.00     0.013 A 
ATOM     19  C   UNL A   1      39.423  32.802  34.013  1.00  0.00     0.005 A 
BRANCH  11  20
ATOM     20  O   UNL A   1      42.387  27.537  33.676  1.00  0.00    -0.497 OA
ATOM     21  C   UNL A   1      43.232  27.368  32.541  1.00  0.00     0.278 C 
ENDBRANCH  11  20
ENDBRANCH   8  10
ENDBRANCH   5   8
ENDBRANCH   3   4
ENDBRANCH   2   3
ENDBRANCH   1   2
BRANCH   1  22
ATOM     22  C   UNL A   1      34.460  32.450  28.287  1.00  0.00     0.116 C 
BRANCH  22  23
ATOM     23  N   UNL A   1      33.873  31.164  27.939  1.00  0.00    -0.352 N 
ATOM     24  C   UNL A   1      34.492  29.933  27.872  1.00  0.00     0.251 C 
ATOM     25  H   UNL A   1      32.913  31.174  27.722  1.00  0.00     0.163 HD
ATOM     26  O   UNL A   1      33.874  28.951  27.489  1.00  0.00    -0.269 OA
BRANCH  24  27
ATOM     27  C   UNL A   1      35.925  29.834  28.225  1.00  0.00     0.039 A 
ATOM     28  C   UNL A   1      36.277  29.418  29.511  1.00  0.00     0.014 A 
ATOM     29  C   UNL A   1      36.912  30.080  27.268  1.00  0.00     0.014 A 
ATOM     30  C   UNL A   1      37.617  29.168  29.811  1.00  0.00     0.010 A 
ATOM     31  C   UNL A   1      38.236  29.755  27.544  1.00  0.00     0.010 A 
ATOM     32  C   UNL A   1      38.601  29.292  28.816  1.00  0.00    -0.014 A 
BRANCH  32  33
ATOM     33  C   UNL A   1      40.020  28.944  29.081  1.00  0.00     0.031 A 
ATOM     34  C   UNL A   1      40.945  29.972  29.672  1.00  0.00     0.074 A 
ATOM     35  C   UNL A   1      40.491  27.734  28.717  1.00  0.00     0.049 A 
ATOM     36  N   UNL A   1      42.232  29.898  29.888  1.00  0.00    -0.248 NA
ATOM     37  C   UNL A   1      40.348  31.266  30.039  1.00  0.00     0.031 C 
ATOM     38  C   UNL A   1      39.706  26.672  28.082  1.00  0.00     0.029 A 
ATOM     39  N   UNL A   1      41.749  27.196  28.821  1.00  0.00    -0.354 N 
ATOM     40  C   UNL A   1      42.601  31.138  30.397  1.00  0.00     0.074 A 
ATOM     41  C   UNL A   1      41.413  31.962  30.405  1.00  0.00     0.031 C 
ATOM     42  C   UNL A   1      40.494  25.603  27.878  1.00  0.00     0.029 A 
ATOM     43  C   UNL A   1      41.843  25.912  28.336  1.00  0.00     0.049 A 
ATOM     44  H   UNL A   1      42.512  27.683  29.207  1.00  0.00     0.167 HD
ATOM     45  C   UNL A   1      43.814  31.543  30.844  1.00  0.00     0.037 A 
ATOM     46  C   UNL A   1      42.902  25.080  28.270  1.00  0.00     0.037 A 
ATOM     47  C   UNL A   1      44.984  30.707  30.869  1.00  0.00     0.049 A 
ATOM     48  C   UNL A   1      44.231  25.545  28.797  1.00  0.00     0.074 A 
ATOM     49  C   UNL A   1      46.248  31.006  31.343  1.00  0.00     0.029 A 
ATOM     50  N   UNL A   1      45.028  29.398  30.409  1.00  0.00    -0.354 N 
ATOM     51  N   UNL A   1      44.552  26.707  29.316  1.00  0.00    -0.248 NA
ATOM     52  C   UNL A   1      45.342  24.585  28.735  1.00  0.00     0.031 C 
ATOM     53  C   UNL A   1      47.064  29.885  31.150  1.00  0.00     0.029 A 
ATOM     54  C   UNL A   1      46.298  28.878  30.587  1.00  0.00     0.049 A 
ATOM     55  H   UNL A   1      44.268  28.912  30.015  1.00  0.00     0.167 HD
ATOM     56  C   UNL A   1      45.893  26.606  29.670  1.00  0.00     0.074 A 
ATOM     57  C   UNL A   1      46.321  25.269  29.313  1.00  0.00     0.031 C 
ATOM     58  C   UNL A   1      46.698  27.537  30.240  1.00  0.00     0.037 A 
BRANCH  45  59
ATOM     59  C   UNL A   1      43.923  32.951  31.360  1.00  0.00     0.058 A 
ATOM     60  C   UNL A   1      43.811  33.239  32.729  1.00  0.00     0.135 A 
ATOM     61  C   UNL A   1      44.153  34.022  30.482  1.00  0.00     0.135 A 
ATOM     62  F   UNL A   1      43.572  32.254  33.610  1.00  0.00    -0.206 F 
ATOM     63  C   UNL A   1      43.888  34.542  33.208  1.00  0.00     0.059 A 
ATOM     64  C   UNL A   1      44.261  35.331  30.941  1.00  0.00     0.059 A 
ATOM     65  F   UNL A   1      44.267  33.803  29.162  1.00  0.00    -0.206 F 
ATOM     66  C   UNL A   1      44.109  35.583  32.304  1.00  0.00     0.060 A 
BRANCH  66  67
ATOM     67  S   UNL A   1      44.200  37.270  32.939  1.00  0.00     0.124 S 
ATOM     68  O   UNL A   1      45.387  37.198  33.786  1.00  0.00    -0.237 OA
ATOM     69  O   UNL A   1      44.339  38.059  31.720  1.00  0.00    -0.237 OA
ATOM     70  O   UNL A   1      42.933  37.434  33.647  1.00  0.00    -0.744 OA
ENDBRANCH  66  67
ENDBRANCH  45  59
BRANCH  46  71
ATOM     71  C   UNL A   1      42.740  23.709  27.720  1.00  0.00     0.058 A 
ATOM     72  C   UNL A   1      42.802  23.480  26.338  1.00  0.00     0.135 A 
ATOM     73  C   UNL A   1      42.520  22.604  28.557  1.00  0.00     0.135 A 
ATOM     74  F   UNL A   1      43.006  24.506  25.497  1.00  0.00    -0.206 F 
ATOM     75  C   UNL A   1      42.632  22.209  25.800  1.00  0.00     0.059 A 
ATOM     76  C   UNL A   1      42.369  21.319  28.045  1.00  0.00     0.059 A 
ATOM     77  F   UNL A   1      42.471  22.769  29.888  1.00  0.00    -0.206 F 
ATOM     78  C   UNL A   1      42.415  21.134  26.663  1.00  0.00     0.060 A 
BRANCH  78  79
ATOM     79  S   UNL A   1      42.232  19.480  25.959  1.00  0.00     0.124 S 
ATOM     80  O   UNL A   1      43.126  19.550  24.810  1.00  0.00    -0.237 OA
ATOM     81  O   UNL A   1      42.669  18.626  27.058  1.00  0.00    -0.237 OA
ATOM     82  O   UNL A   1      40.807  19.406  25.648  1.00  0.00    -0.744 OA
ENDBRANCH  78  79
ENDBRANCH  46  71
BRANCH  58  83
ATOM     83  C   UNL A   1      48.109  27.129  30.550  1.00  0.00     0.058 A 
ATOM     84  C   UNL A   1      49.157  27.361  29.647  1.00  0.00     0.135 A 
ATOM     85  C   UNL A   1      48.421  26.542  31.786  1.00  0.00     0.135 A 
ATOM     86  F   UNL A   1      48.908  27.913  28.449  1.00  0.00    -0.206 F 
ATOM     87  C   UNL A   1      50.467  27.005  29.950  1.00  0.00     0.059 A 
ATOM     88  C   UNL A   1      49.728  26.199  32.120  1.00  0.00     0.059 A 
ATOM     89  F   UNL A   1      47.455  26.310  32.687  1.00  0.00    -0.206 F 
ATOM     90  C   UNL A   1      50.742  26.424  31.190  1.00  0.00     0.060 A 
BRANCH  90  91
ATOM     91  S   UNL A   1      52.450  25.997  31.589  1.00  0.00     0.124 S 
ATOM     92  O   UNL A   1      52.773  26.998  32.600  1.00  0.00    -0.237 OA
ATOM     93  O   UNL A   1      52.327  24.624  32.072  1.00  0.00    -0.237 OA
ATOM     94  O   UNL A   1      53.142  26.144  30.312  1.00  0.00    -0.744 OA
ENDBRANCH  90  91
ENDBRANCH  58  83
ENDBRANCH  32  33
ENDBRANCH  24  27
ENDBRANCH  22  23
ENDBRANCH   1  22
TORSDOF 16
ENDMDL
MODEL 2
REMARK VINA RESULT:      -9.3      3.954     10.743
REMARK SMILES COc1ccc2cc([C@@H](C)C(=O)NCCCCNC(=O)c3ccc(-c4c5nc(c(-c6c(F)cc(S(=O)(=O)[O-])cc6F)c6ccc([nH]6)c(-c6c(F)cc(S(=O)(=O)[O-])cc6F)c6nc(c(-c7c(F)cc(S(=O)(=O)[O-])cc7F)c7ccc4[nH]7)C=C6)C=C5)cc3)ccc2c1
REMARK SMILES IDX 16 1 15 2 14 3 13 4 11 5 12 6 9 8 10 9 8 10 3 11 4 12 90 13
REMARK SMILES IDX 5 14 89 15 6 16 88 17 7 18 87 19 2 20 1 21 17 22 18 23 19 24
REMARK SMILES IDX 20 26 21 27 22 28 86 29 23 30 85 31 24 32 25 33 26 34 79 35
REMARK SMILES IDX 27 36 84 37 78 38 80 39 28 40 83 41 77 42 76 43 29 45 63 46
REMARK SMILES IDX 42 47 62 48 43 49 46 50 61 51 81 52 44 53 45 54 60 56 82 57
REMARK SMILES IDX 47 58 30 59 31 60 40 61 32 62 33 63 39 64 41 65 34 66 35 67
REMARK SMILES IDX 36 68 37 69 38 70 64 71 65 72 74 73 66 74 67 75 73 76 75 77
REMARK SMILES IDX 68 78 69 79 70 80 71 81 72 82 48 83 49 84 58 85 50 86 51 87
REMARK SMILES IDX 57 88 59 89 52 90 53 91 54 92 55 93 56 94
REMARK H PARENT 13 7 18 25 80 44 46 55
REMARK Flexibility Score: inf
ROOT
ATOM      1  C   UNL A   1      35.664  23.421  26.113  1.00  0.00     0.023 C 
ENDROOT
BRANCH   1   2
ATOM      2  C   UNL A   1      35.277  21.948  26.205  1.00  0.00     0.023 C 
BRANCH   2   3
ATOM      3  C   UNL A   1      34.394  21.433  25.068  1.00  0.00     0.116 C 
BRANCH   3   4
ATOM      4  N   UNL A   1      32.997  21.368  25.449  1.00  0.00    -0.356 N 
ATOM      5  C   UNL A   1      31.927  22.142  25.115  1.00  0.00     0.227 C 
ATOM      6  O   UNL A   1      30.858  21.872  25.677  1.00  0.00    -0.274 OA
ATOM      7  H   UNL A   1      32.782  20.630  26.063  1.00  0.00     0.163 HD
BRANCH   5   8
ATOM      8  C   UNL A   1      31.977  23.291  24.093  1.00  0.00     0.105 C 
ATOM      9  C   UNL A   1      32.600  22.910  22.750  1.00  0.00     0.023 C 
BRANCH   8  10
ATOM     10  C   UNL A   1      32.434  24.616  24.686  1.00  0.00    -0.035 A 
ATOM     11  C   UNL A   1      32.735  29.137  27.006  1.00  0.00     0.119 A 
ATOM     12  C   UNL A   1      31.624  28.489  27.540  1.00  0.00     0.047 A 
ATOM     13  C   UNL A   1      33.494  28.500  26.019  1.00  0.00     0.055 A 
ATOM     14  C   UNL A   1      31.318  27.186  27.145  1.00  0.00     0.012 A 
ATOM     15  C   UNL A   1      33.177  27.202  25.585  1.00  0.00    -0.015 A 
ATOM     16  C   UNL A   1      32.094  26.527  26.179  1.00  0.00    -0.018 A 
ATOM     17  C   UNL A   1      33.895  26.563  24.564  1.00  0.00     0.009 A 
ATOM     18  C   UNL A   1      31.780  25.223  25.764  1.00  0.00     0.013 A 
ATOM     19  C   UNL A   1      33.509  25.300  24.102  1.00  0.00     0.005 A 
BRANCH  11  20
ATOM     20  O   UNL A   1      33.151  30.394  27.348  1.00  0.00    -0.497 OA
ATOM     21  C   UNL A   1      34.553  30.540  27.552  1.00  0.00     0.278 C 
ENDBRANCH  11  20
ENDBRANCH   8  10
ENDBRANCH   5   8
ENDBRANCH   3   4
ENDBRANCH   2   3
ENDBRANCH   1   2
BRANCH   1  22
ATOM     22  C   UNL A   1      36.872  23.720  25.233  1.00  0.00     0.116 C 
BRANCH  22  23
ATOM     23  N   UNL A   1      37.978  22.789  25.406  1.00  0.00    -0.352 N 
ATOM     24  C   UNL A   1      39.162  22.986  26.086  1.00  0.00     0.251 C 
ATOM     25  H   UNL A   1      37.867  21.906  24.984  1.00  0.00     0.163 HD
ATOM     26  O   UNL A   1      40.030  22.125  26.077  1.00  0.00    -0.269 OA
BRANCH  24  27
ATOM     27  C   UNL A   1      39.381  24.273  26.782  1.00  0.00     0.039 A 
ATOM     28  C   UNL A   1      38.879  24.434  28.075  1.00  0.00     0.014 A 
ATOM     29  C   UNL A   1      40.138  25.284  26.186  1.00  0.00     0.014 A 
ATOM     30  C   UNL A   1      39.211  25.579  28.804  1.00  0.00     0.010 A 
ATOM     31  C   UNL A   1      40.532  26.384  26.940  1.00  0.00     0.010 A 
ATOM     32  C   UNL A   1      40.076  26.541  28.257  1.00  0.00    -0.014 A 
BRANCH  32  33
ATOM     33  C   UNL A   1      40.520  27.721  29.041  1.00  0.00     0.031 A 
ATOM     34  C   UNL A   1      41.863  27.707  29.719  1.00  0.00     0.074 A 
ATOM     35  C   UNL A   1      39.685  28.767  29.207  1.00  0.00     0.049 A 
ATOM     36  N   UNL A   1      42.391  28.592  30.523  1.00  0.00    -0.248 NA
ATOM     37  C   UNL A   1      42.710  26.526  29.485  1.00  0.00     0.031 C 
ATOM     38  C   UNL A   1      38.335  28.874  28.647  1.00  0.00     0.029 A 
ATOM     39  N   UNL A   1      39.847  29.938  29.903  1.00  0.00    -0.354 N 
ATOM     40  C   UNL A   1      43.620  28.066  30.907  1.00  0.00     0.074 A 
ATOM     41  C   UNL A   1      43.734  26.763  30.290  1.00  0.00     0.031 C 
ATOM     42  C   UNL A   1      37.804  30.055  29.001  1.00  0.00     0.029 A 
ATOM     43  C   UNL A   1      38.758  30.776  29.836  1.00  0.00     0.049 A 
ATOM     44  H   UNL A   1      40.665  30.158  30.404  1.00  0.00     0.167 HD
ATOM     45  C   UNL A   1      44.579  28.631  31.678  1.00  0.00     0.037 A 
ATOM     46  C   UNL A   1      38.556  31.989  30.388  1.00  0.00     0.037 A 
ATOM     47  C   UNL A   1      44.477  29.944  32.258  1.00  0.00     0.049 A 
ATOM     48  C   UNL A   1      39.646  32.606  31.219  1.00  0.00     0.074 A 
ATOM     49  C   UNL A   1      45.411  30.626  33.017  1.00  0.00     0.029 A 
ATOM     50  N   UNL A   1      43.376  30.779  32.130  1.00  0.00    -0.354 N 
ATOM     51  N   UNL A   1      40.821  32.114  31.534  1.00  0.00    -0.248 NA
ATOM     52  C   UNL A   1      39.388  33.945  31.765  1.00  0.00     0.031 C 
ATOM     53  C   UNL A   1      44.866  31.867  33.368  1.00  0.00     0.029 A 
ATOM     54  C   UNL A   1      43.606  31.969  32.798  1.00  0.00     0.049 A 
ATOM     55  H   UNL A   1      42.553  30.557  31.638  1.00  0.00     0.167 HD
ATOM     56  C   UNL A   1      41.453  33.095  32.289  1.00  0.00     0.074 A 
ATOM     57  C   UNL A   1      40.534  34.212  32.377  1.00  0.00     0.031 C 
ATOM     58  C   UNL A   1      42.684  33.075  32.859  1.00  0.00     0.037 A 
BRANCH  45  59
ATOM     59  C   UNL A   1      45.830  27.832  31.919  1.00  0.00     0.058 A 
ATOM     60  C   UNL A   1      45.938  26.954  33.008  1.00  0.00     0.135 A 
ATOM     61  C   UNL A   1      46.926  27.934  31.047  1.00  0.00     0.135 A 
ATOM     62  F   UNL A   1      44.926  26.834  33.883  1.00  0.00    -0.206 F 
ATOM     63  C   UNL A   1      47.101  26.230  33.248  1.00  0.00     0.059 A 
ATOM     64  C   UNL A   1      48.090  27.199  31.252  1.00  0.00     0.059 A 
ATOM     65  F   UNL A   1      46.877  28.759  29.990  1.00  0.00    -0.206 F 
ATOM     66  C   UNL A   1      48.174  26.363  32.365  1.00  0.00     0.060 A 
BRANCH  66  67
ATOM     67  S   UNL A   1      49.680  25.423  32.692  1.00  0.00     0.124 S 
ATOM     68  O   UNL A   1      50.541  26.449  33.273  1.00  0.00    -0.237 OA
ATOM     69  O   UNL A   1      49.214  24.392  33.613  1.00  0.00    -0.237 OA
ATOM     70  O   UNL A   1      50.076  24.946  31.370  1.00  0.00    -0.744 OA
ENDBRANCH  66  67
ENDBRANCH  45  59
BRANCH  46  71
ATOM     71  C   UNL A   1      37.285  32.718  30.139  1.00  0.00     0.058 A 
ATOM     72  C   UNL A   1      36.183  32.549  30.991  1.00  0.00     0.135 A 
ATOM     73  C   UNL A   1      37.142  33.596  29.053  1.00  0.00     0.135 A 
ATOM     74  F   UNL A   1      36.270  31.717  32.041  1.00  0.00    -0.206 F 
ATOM     75  C   UNL A   1      34.978  33.205  30.766  1.00  0.00     0.059 A 
ATOM     76  C   UNL A   1      35.954  34.281  28.819  1.00  0.00     0.059 A 
ATOM     77  F   UNL A   1      38.173  33.806  28.220  1.00  0.00    -0.206 F 
ATOM     78  C   UNL A   1      34.873  34.069  29.675  1.00  0.00     0.060 A 
BRANCH  78  79
ATOM     79  S   UNL A   1      33.316  34.946  29.410  1.00  0.00     0.124 S 
ATOM     80  O   UNL A   1      33.787  36.245  28.947  1.00  0.00    -0.237 OA
ATOM     81  O   UNL A   1      32.657  34.111  28.411  1.00  0.00    -0.237 OA
ATOM     82  O   UNL A   1      32.697  34.932  30.733  1.00  0.00    -0.744 OA
ENDBRANCH  78  79
ENDBRANCH  46  71
BRANCH  58  83
ATOM     83  C   UNL A   1      43.123  34.310  33.591  1.00  0.00     0.058 A 
ATOM     84  C   UNL A   1      43.644  35.421  32.911  1.00  0.00     0.135 A 
ATOM     85  C   UNL A   1      42.977  34.397  34.984  1.00  0.00     0.135 A 
ATOM     86  F   UNL A   1      43.810  35.383  31.580  1.00  0.00    -0.206 F 
ATOM     87  C   UNL A   1      44.025  36.572  33.592  1.00  0.00     0.059 A 
ATOM     88  C   UNL A   1      43.329  35.548  35.682  1.00  0.00     0.059 A 
ATOM     89  F   UNL A   1      42.473  33.364  35.677  1.00  0.00    -0.206 F 
ATOM     90  C   UNL A   1      43.864  36.626  34.978  1.00  0.00     0.060 A 
BRANCH  90  91
ATOM     91  S   UNL A   1      44.328  38.137  35.849  1.00  0.00     0.124 S 
ATOM     92  O   UNL A   1      43.929  39.162  34.890  1.00  0.00    -0.237 OA
ATOM     93  O   UNL A   1      43.525  38.060  37.066  1.00  0.00    -0.237 OA
ATOM     94  O   UNL A   1      45.767  37.985  36.046  1.00  0.00    -0.744 OA
ENDBRANCH  90  91
ENDBRANCH  58  83
ENDBRANCH  32  33
ENDBRANCH  24  27
ENDBRANCH  22  23
ENDBRANCH   1  22
TORSDOF 16
ENDMDL
MODEL 3
REMARK VINA RESULT:      -9.3      3.983     10.595
REMARK SMILES COc1ccc2cc([C@@H](C)C(=O)NCCCCNC(=O)c3ccc(-c4c5nc(c(-c6c(F)cc(S(=O)(=O)[O-])cc6F)c6ccc([nH]6)c(-c6c(F)cc(S(=O)(=O)[O-])cc6F)c6nc(c(-c7c(F)cc(S(=O)(=O)[O-])cc7F)c7ccc4[nH]7)C=C6)C=C5)cc3)ccc2c1
REMARK SMILES IDX 16 1 15 2 14 3 13 4 11 5 12 6 9 8 10 9 8 10 3 11 4 12 90 13
REMARK SMILES IDX 5 14 89 15 6 16 88 17 7 18 87 19 2 20 1 21 17 22 18 23 19 24
REMARK SMILES IDX 20 26 21 27 22 28 86 29 23 30 85 31 24 32 25 33 26 34 79 35
REMARK SMILES IDX 27 36 84 37 78 38 80 39 28 40 83 41 77 42 76 43 29 45 63 46
REMARK SMILES IDX 42 47 62 48 43 49 46 50 61 51 81 52 44 53 45 54 60 56 82 57
REMARK SMILES IDX 47 58 30 59 31 60 40 61 32 62 33 63 39 64 41 65 34 66 35 67
REMARK SMILES IDX 36 68 37 69 38 70 64 71 65 72 74 73 66 74 67 75 73 76 75 77
REMARK SMILES IDX 68 78 69 79 70 80 71 81 72 82 48 83 49 84 58 85 50 86 51 87
REMARK SMILES IDX 57 88 59 89 52 90 53 91 54 92 55 93 56 94
REMARK H PARENT 13 7 18 25 80 44 46 55
REMARK Flexibility Score: inf
ROOT
ATOM      1  C   UNL A   1      35.184  23.085  26.620  1.00  0.00     0.023 C 
ENDROOT
BRANCH   1   2
ATOM      2  C   UNL A   1      34.737  21.627  26.579  1.00  0.00     0.023 C 
BRANCH   2   3
ATOM      3  C   UNL A   1      33.739  21.280  25.473  1.00  0.00     0.116 C 
BRANCH   3   4
ATOM      4  N   UNL A   1      32.367  21.358  25.933  1.00  0.00    -0.356 N 
ATOM      5  C   UNL A   1      31.348  22.204  25.614  1.00  0.00     0.227 C 
ATOM      6  O   UNL A   1      30.295  22.057  26.248  1.00  0.00    -0.274 OA
ATOM      7  H   UNL A   1      32.128  20.674  26.599  1.00  0.00     0.163 HD
BRANCH   5   8
ATOM      8  C   UNL A   1      31.433  23.289  24.527  1.00  0.00     0.105 C 
ATOM      9  C   UNL A   1      31.832  22.766  23.148  1.00  0.00     0.023 C 
BRANCH   8  10
ATOM     10  C   UNL A   1      32.137  24.558  24.987  1.00  0.00    -0.035 A 
ATOM     11  C   UNL A   1      33.306  29.156  26.831  1.00  0.00     0.119 A 
ATOM     12  C   UNL A   1      32.095  28.790  27.414  1.00  0.00     0.047 A 
ATOM     13  C   UNL A   1      33.924  28.288  25.926  1.00  0.00     0.055 A 
ATOM     14  C   UNL A   1      31.545  27.535  27.151  1.00  0.00     0.012 A 
ATOM     15  C   UNL A   1      33.364  27.036  25.624  1.00  0.00    -0.015 A 
ATOM     16  C   UNL A   1      32.176  26.644  26.270  1.00  0.00    -0.018 A 
ATOM     17  C   UNL A   1      33.941  26.169  24.684  1.00  0.00     0.009 A 
ATOM     18  C   UNL A   1      31.617  25.386  25.988  1.00  0.00     0.013 A 
ATOM     19  C   UNL A   1      33.320  24.961  24.350  1.00  0.00     0.005 A 
BRANCH  11  20
ATOM     20  O   UNL A   1      33.956  30.341  27.047  1.00  0.00    -0.497 OA
ATOM     21  C   UNL A   1      35.283  30.227  27.550  1.00  0.00     0.278 C 
ENDBRANCH  11  20
ENDBRANCH   8  10
ENDBRANCH   5   8
ENDBRANCH   3   4
ENDBRANCH   2   3
ENDBRANCH   1   2
BRANCH   1  22
ATOM     22  C   UNL A   1      36.441  23.400  25.819  1.00  0.00     0.116 C 
BRANCH  22  23
ATOM     23  N   UNL A   1      37.500  22.411  25.963  1.00  0.00    -0.352 N 
ATOM     24  C   UNL A   1      38.801  22.607  26.377  1.00  0.00     0.251 C 
ATOM     25  H   UNL A   1      37.257  21.484  25.734  1.00  0.00     0.163 HD
ATOM     26  O   UNL A   1      39.597  21.679  26.374  1.00  0.00    -0.269 OA
BRANCH  24  27
ATOM     27  C   UNL A   1      39.227  23.966  26.777  1.00  0.00     0.039 A 
ATOM     28  C   UNL A   1      39.117  24.340  28.119  1.00  0.00     0.014 A 
ATOM     29  C   UNL A   1      39.797  24.836  25.846  1.00  0.00     0.014 A 
ATOM     30  C   UNL A   1      39.658  25.556  28.540  1.00  0.00     0.010 A 
ATOM     31  C   UNL A   1      40.404  26.009  26.280  1.00  0.00     0.010 A 
ATOM     32  C   UNL A   1      40.345  26.379  27.632  1.00  0.00    -0.014 A 
BRANCH  32  33
ATOM     33  C   UNL A   1      41.010  27.632  28.069  1.00  0.00     0.031 A 
ATOM     34  C   UNL A   1      42.504  27.765  27.956  1.00  0.00     0.074 A 
ATOM     35  C   UNL A   1      40.281  28.613  28.638  1.00  0.00     0.049 A 
ATOM     36  N   UNL A   1      43.281  28.733  28.368  1.00  0.00    -0.248 NA
ATOM     37  C   UNL A   1      43.222  26.647  27.323  1.00  0.00     0.031 C 
ATOM     38  C   UNL A   1      38.832  28.579  28.856  1.00  0.00     0.029 A 
ATOM     39  N   UNL A   1      40.661  29.830  29.146  1.00  0.00    -0.354 N 
ATOM     40  C   UNL A   1      44.576  28.332  28.064  1.00  0.00     0.074 A 
ATOM     41  C   UNL A   1      44.485  27.011  27.483  1.00  0.00     0.031 C 
ATOM     42  C   UNL A   1      38.444  29.730  29.428  1.00  0.00     0.029 A 
ATOM     43  C   UNL A   1      39.616  30.571  29.647  1.00  0.00     0.049 A 
ATOM     44  H   UNL A   1      41.594  30.143  29.151  1.00  0.00     0.167 HD
ATOM     45  C   UNL A   1      45.735  29.015  28.226  1.00  0.00     0.037 A 
ATOM     46  C   UNL A   1      39.607  31.791  30.219  1.00  0.00     0.037 A 
ATOM     47  C   UNL A   1      45.817  30.344  28.770  1.00  0.00     0.049 A 
ATOM     48  C   UNL A   1      40.903  32.540  30.365  1.00  0.00     0.074 A 
ATOM     49  C   UNL A   1      46.935  31.141  28.936  1.00  0.00     0.029 A 
ATOM     50  N   UNL A   1      44.730  31.078  29.227  1.00  0.00    -0.354 N 
ATOM     51  N   UNL A   1      42.115  32.164  30.030  1.00  0.00    -0.248 NA
ATOM     52  C   UNL A   1      40.832  33.881  30.961  1.00  0.00     0.031 C 
ATOM     53  C   UNL A   1      46.528  32.350  29.513  1.00  0.00     0.029 A 
ATOM     54  C   UNL A   1      45.152  32.317  29.675  1.00  0.00     0.049 A 
ATOM     55  H   UNL A   1      43.798  30.763  29.231  1.00  0.00     0.167 HD
ATOM     56  C   UNL A   1      42.945  33.233  30.347  1.00  0.00     0.074 A 
ATOM     57  C   UNL A   1      42.097  34.274  30.892  1.00  0.00     0.031 C 
ATOM     58  C   UNL A   1      44.288  33.345  30.199  1.00  0.00     0.037 A 
BRANCH  45  59
ATOM     59  C   UNL A   1      47.003  28.335  27.790  1.00  0.00     0.058 A 
ATOM     60  C   UNL A   1      47.502  28.486  26.487  1.00  0.00     0.135 A 
ATOM     61  C   UNL A   1      47.734  27.537  28.684  1.00  0.00     0.135 A 
ATOM     62  F   UNL A   1      46.831  29.223  25.586  1.00  0.00    -0.206 F 
ATOM     63  C   UNL A   1      48.661  27.841  26.072  1.00  0.00     0.059 A 
ATOM     64  C   UNL A   1      48.912  26.903  28.299  1.00  0.00     0.059 A 
ATOM     65  F   UNL A   1      47.302  27.358  29.942  1.00  0.00    -0.206 F 
ATOM     66  C   UNL A   1      49.358  27.047  26.985  1.00  0.00     0.060 A 
BRANCH  66  67
ATOM     67  S   UNL A   1      50.858  26.209  26.431  1.00  0.00     0.124 S 
ATOM     68  O   UNL A   1      50.636  26.141  24.990  1.00  0.00    -0.237 OA
ATOM     69  O   UNL A   1      51.908  27.123  26.867  1.00  0.00    -0.237 OA
ATOM     70  O   UNL A   1      50.812  24.931  27.135  1.00  0.00    -0.744 OA
ENDBRANCH  66  67
ENDBRANCH  45  59
BRANCH  46  71
ATOM     71  C   UNL A   1      38.325  32.399  30.660  1.00  0.00     0.058 A 
ATOM     72  C   UNL A   1      37.505  33.081  29.749  1.00  0.00     0.135 A 
ATOM     73  C   UNL A   1      37.891  32.314  31.992  1.00  0.00     0.135 A 
ATOM     74  F   UNL A   1      37.879  33.193  28.465  1.00  0.00    -0.206 F 
ATOM     75  C   UNL A   1      36.311  33.676  30.143  1.00  0.00     0.059 A 
ATOM     76  C   UNL A   1      36.691  32.881  32.407  1.00  0.00     0.059 A 
ATOM     77  F   UNL A   1      38.631  31.655  32.898  1.00  0.00    -0.206 F 
ATOM     78  C   UNL A   1      35.913  33.571  31.477  1.00  0.00     0.060 A 
BRANCH  78  79
ATOM     79  S   UNL A   1      34.343  34.315  31.974  1.00  0.00     0.124 S 
ATOM     80  O   UNL A   1      33.751  33.245  32.767  1.00  0.00    -0.237 OA
ATOM     81  O   UNL A   1      34.781  35.493  32.714  1.00  0.00    -0.237 OA
ATOM     82  O   UNL A   1      33.689  34.594  30.699  1.00  0.00    -0.744 OA
ENDBRANCH  78  79
ENDBRANCH  46  71
BRANCH  58  83
ATOM     83  C   UNL A   1      44.917  34.650  30.594  1.00  0.00     0.058 A 
ATOM     84  C   UNL A   1      45.424  34.861  31.885  1.00  0.00     0.135 A 
ATOM     85  C   UNL A   1      45.057  35.682  29.653  1.00  0.00     0.135 A 
ATOM     86  F   UNL A   1      45.309  33.906  32.821  1.00  0.00    -0.206 F 
ATOM     87  C   UNL A   1      46.030  36.062  32.237  1.00  0.00     0.059 A 
ATOM     88  C   UNL A   1      45.680  36.883  29.977  1.00  0.00     0.059 A 
ATOM     89  F   UNL A   1      44.597  35.524  28.402  1.00  0.00    -0.206 F 
ATOM     90  C   UNL A   1      46.153  37.068  31.276  1.00  0.00     0.060 A 
BRANCH  90  91
ATOM     91  S   UNL A   1      46.972  38.610  31.733  1.00  0.00     0.124 S 
ATOM     92  O   UNL A   1      45.948  39.255  32.548  1.00  0.00    -0.237 OA
ATOM     93  O   UNL A   1      48.152  38.140  32.452  1.00  0.00    -0.237 OA
ATOM     94  O   UNL A   1      47.243  39.243  30.445  1.00  0.00    -0.744 OA
ENDBRANCH  90  91
ENDBRANCH  58  83
ENDBRANCH  32  33
ENDBRANCH  24  27
ENDBRANCH  22  23
ENDBRANCH   1  22
TORSDOF 16
ENDMDL
