MODEL 1
REMARK VINA RESULT:     -12.4      0.000      0.000
REMARK SMILES Cc1noc(C[N@H+]2CCC[C@@H](c3ccc(C(=O)NCCCCNC(=O)c4ccc(-c5c6nc(c(-c7c(F)cc(S(=O)(=O)[O-])cc7F)c7ccc([nH]7)c(-c7c(F)cc(S(=O)(=O)[O-])cc7F)c7nc(c(-c8c(F)cc(S(=O)(=O)[O-])cc8F)c8ccc5[nH]8)C=C7)C=C6)cc4)cc3)C2)n1
REMARK SMILES IDX 20 1 19 2 18 3 16 4 17 5 15 7 12 8 13 9 93 10 14 11 92 12
REMARK SMILES IDX 11 13 7 14 8 15 94 16 9 18 10 19 6 20 5 21 1 22 2 23 3 24
REMARK SMILES IDX 95 25 4 26 21 27 22 28 23 29 24 30 25 32 26 33 27 34 91 35
REMARK SMILES IDX 28 36 90 37 29 38 30 39 31 40 84 41 32 42 89 43 83 44 85 45
REMARK SMILES IDX 33 46 88 47 82 48 81 49 34 51 68 52 47 53 67 54 48 55 51 56
REMARK SMILES IDX 66 57 86 58 49 59 50 60 65 62 87 63 52 64 35 65 36 66 45 67
REMARK SMILES IDX 37 68 38 69 44 70 46 71 39 72 40 73 41 74 42 75 43 76 69 77
REMARK SMILES IDX 70 78 79 79 71 80 72 81 78 82 80 83 73 84 74 85 75 86 76 87
REMARK SMILES IDX 77 88 53 89 54 90 63 91 55 92 56 93 62 94 64 95 57 96 58 97
REMARK SMILES IDX 59 98 60 99 61 100
REMARK H PARENT 18 6 7 17 23 31 85 50 51 61
REMARK Flexibility Score: inf
ROOT
ATOM      1  C   UNL A   1      32.960  29.581  25.003  1.00  0.00     0.023 C 
ENDROOT
BRANCH   1   2
ATOM      2  C   UNL A   1      31.443  29.746  25.106  1.00  0.00     0.116 C 
BRANCH   2   3
ATOM      3  N   UNL A   1      30.818  29.515  23.820  1.00  0.00    -0.352 N 
ATOM      4  C   UNL A   1      30.545  28.357  23.140  1.00  0.00     0.251 C 
ATOM      5  O   UNL A   1      29.959  28.445  22.060  1.00  0.00    -0.269 OA
ATOM      6  H   UNL A   1      30.539  30.334  23.351  1.00  0.00     0.163 HD
BRANCH   4   7
ATOM      7  C   UNL A   1      30.869  27.004  23.674  1.00  0.00     0.039 A 
ATOM      8  C   UNL A   1      31.380  24.487  24.866  1.00  0.00    -0.039 A 
ATOM      9  C   UNL A   1      30.329  25.301  25.319  1.00  0.00     0.005 A 
ATOM     10  C   UNL A   1      32.124  24.921  23.766  1.00  0.00     0.005 A 
ATOM     11  C   UNL A   1      30.087  26.547  24.740  1.00  0.00     0.014 A 
ATOM     12  C   UNL A   1      31.855  26.155  23.165  1.00  0.00     0.014 A 
BRANCH   8  13
ATOM     13  C   UNL A   1      31.709  23.155  25.523  1.00  0.00     0.074 C 
ATOM     14  N   UNL A   1      32.343  20.749  25.030  1.00  0.00    -0.327 N 
ATOM     15  C   UNL A   1      33.568  20.915  25.826  1.00  0.00     0.262 C 
ATOM     16  C   UNL A   1      31.881  22.035  24.475  1.00  0.00     0.270 C 
ATOM     17  H   UNL A   1      31.621  20.401  25.662  1.00  0.00     0.348 HD
ATOM     18  C   UNL A   1      33.365  21.925  26.955  1.00  0.00     0.062 C 
ATOM     19  C   UNL A   1      32.957  23.286  26.405  1.00  0.00     0.020 C 
BRANCH  14  20
ATOM     20  C   UNL A   1      32.529  19.742  23.945  1.00  0.00     0.364 C 
BRANCH  20  21
ATOM     21  C   UNL A   1      32.955  18.378  24.400  1.00  0.00     0.281 A 
ATOM     22  C   UNL A   1      35.137  15.783  25.282  1.00  0.00     0.093 C 
ATOM     23  C   UNL A   1      33.998  16.688  25.046  1.00  0.00     0.169 A 
ATOM     24  N   UNL A   1      32.847  16.610  25.728  1.00  0.00    -0.063 NA
ATOM     25  N   UNL A   1      34.084  17.740  24.176  1.00  0.00    -0.191 NA
ATOM     26  O   UNL A   1      32.144  17.740  25.296  1.00  0.00    -0.333 OA
ENDBRANCH  20  21
ENDBRANCH  14  20
ENDBRANCH   8  13
ENDBRANCH   4   7
ENDBRANCH   2   3
ENDBRANCH   1   2
BRANCH   1  27
ATOM     27  C   UNL A   1      33.515  28.366  25.744  1.00  0.00     0.023 C 
BRANCH  27  28
ATOM     28  C   UNL A   1      33.737  28.573  27.236  1.00  0.00     0.116 C 
BRANCH  28  29
ATOM     29  N   UNL A   1      33.646  29.969  27.640  1.00  0.00    -0.352 N 
ATOM     30  C   UNL A   1      34.612  30.746  28.237  1.00  0.00     0.251 C 
ATOM     31  H   UNL A   1      32.785  30.412  27.463  1.00  0.00     0.163 HD
ATOM     32  O   UNL A   1      34.348  31.877  28.615  1.00  0.00    -0.269 OA
BRANCH  30  33
ATOM     33  C   UNL A   1      35.955  30.168  28.452  1.00  0.00     0.039 A 
ATOM     34  C   UNL A   1      36.871  30.191  27.399  1.00  0.00     0.014 A 
ATOM     35  C   UNL A   1      36.317  29.657  29.701  1.00  0.00     0.014 A 
ATOM     36  C   UNL A   1      38.180  29.760  27.620  1.00  0.00     0.010 A 
ATOM     37  C   UNL A   1      37.637  29.289  29.936  1.00  0.00     0.010 A 
ATOM     38  C   UNL A   1      38.582  29.341  28.899  1.00  0.00    -0.014 A 
BRANCH  38  39
ATOM     39  C   UNL A   1      39.986  28.949  29.173  1.00  0.00     0.031 A 
ATOM     40  C   UNL A   1      40.929  29.937  29.803  1.00  0.00     0.074 A 
ATOM     41  C   UNL A   1      40.422  27.728  28.805  1.00  0.00     0.049 A 
ATOM     42  N   UNL A   1      42.208  29.816  30.045  1.00  0.00    -0.248 NA
ATOM     43  C   UNL A   1      40.365  31.240  30.190  1.00  0.00     0.031 C 
ATOM     44  C   UNL A   1      39.610  26.699  28.148  1.00  0.00     0.029 A 
ATOM     45  N   UNL A   1      41.659  27.146  28.920  1.00  0.00    -0.354 N 
ATOM     46  C   UNL A   1      42.602  31.025  30.608  1.00  0.00     0.074 A 
ATOM     47  C   UNL A   1      41.439  31.885  30.619  1.00  0.00     0.031 C 
ATOM     48  C   UNL A   1      40.365  25.608  27.939  1.00  0.00     0.029 A 
ATOM     49  C   UNL A   1      41.720  25.870  28.413  1.00  0.00     0.049 A 
ATOM     50  H   UNL A   1      42.431  27.601  29.327  1.00  0.00     0.167 HD
ATOM     51  C   UNL A   1      43.814  31.374  31.097  1.00  0.00     0.037 A 
ATOM     52  C   UNL A   1      42.755  25.011  28.336  1.00  0.00     0.037 A 
ATOM     53  C   UNL A   1      44.962  30.505  31.106  1.00  0.00     0.049 A 
ATOM     54  C   UNL A   1      44.096  25.431  28.877  1.00  0.00     0.074 A 
ATOM     55  C   UNL A   1      46.229  30.757  31.600  1.00  0.00     0.029 A 
ATOM     56  N   UNL A   1      44.977  29.211  30.606  1.00  0.00    -0.354 N 
ATOM     57  N   UNL A   1      44.440  26.566  29.439  1.00  0.00    -0.248 NA
ATOM     58  C   UNL A   1      45.189  24.453  28.779  1.00  0.00     0.031 C 
ATOM     59  C   UNL A   1      47.020  29.624  31.377  1.00  0.00     0.029 A 
ATOM     60  C   UNL A   1      46.232  28.654  30.778  1.00  0.00     0.049 A 
ATOM     61  H   UNL A   1      44.208  28.757  30.192  1.00  0.00     0.167 HD
ATOM     62  C   UNL A   1      45.778  26.424  29.790  1.00  0.00     0.074 A 
ATOM     63  C   UNL A   1      46.178  25.092  29.387  1.00  0.00     0.031 C 
ATOM     64  C   UNL A   1      46.602  27.316  30.391  1.00  0.00     0.037 A 
BRANCH  51  65
ATOM     65  C   UNL A   1      43.957  32.747  31.692  1.00  0.00     0.058 A 
ATOM     66  C   UNL A   1      44.364  33.839  30.910  1.00  0.00     0.135 A 
ATOM     67  C   UNL A   1      43.638  32.986  33.038  1.00  0.00     0.135 A 
ATOM     68  F   UNL A   1      44.699  33.661  29.622  1.00  0.00    -0.206 F 
ATOM     69  C   UNL A   1      44.467  35.118  31.446  1.00  0.00     0.059 A 
ATOM     70  C   UNL A   1      43.711  34.262  33.589  1.00  0.00     0.059 A 
ATOM     71  F   UNL A   1      43.248  31.975  33.831  1.00  0.00    -0.206 F 
ATOM     72  C   UNL A   1      44.136  35.320  32.785  1.00  0.00     0.060 A 
BRANCH  72  73
ATOM     73  S   UNL A   1      44.251  36.992  33.458  1.00  0.00     0.124 S 
ATOM     74  O   UNL A   1      43.398  37.735  32.536  1.00  0.00    -0.237 OA
ATOM     75  O   UNL A   1      43.726  36.822  34.809  1.00  0.00    -0.237 OA
ATOM     76  O   UNL A   1      45.676  37.294  33.375  1.00  0.00    -0.744 OA
ENDBRANCH  72  73
ENDBRANCH  51  65
BRANCH  52  77
ATOM     77  C   UNL A   1      42.573  23.661  27.740  1.00  0.00     0.058 A 
ATOM     78  C   UNL A   1      42.380  22.535  28.554  1.00  0.00     0.135 A 
ATOM     79  C   UNL A   1      42.622  23.463  26.351  1.00  0.00     0.135 A 
ATOM     80  F   UNL A   1      42.330  22.674  29.888  1.00  0.00    -0.206 F 
ATOM     81  C   UNL A   1      42.279  21.255  28.019  1.00  0.00     0.059 A 
ATOM     82  C   UNL A   1      42.498  22.195  25.790  1.00  0.00     0.059 A 
ATOM     83  F   UNL A   1      42.785  24.509  25.526  1.00  0.00    -0.206 F 
ATOM     84  C   UNL A   1      42.347  21.095  26.635  1.00  0.00     0.060 A 
BRANCH  84  85
ATOM     85  S   UNL A   1      42.212  19.431  25.945  1.00  0.00     0.124 S 
ATOM     86  O   UNL A   1      42.741  18.620  27.035  1.00  0.00    -0.237 OA
ATOM     87  O   UNL A   1      40.779  19.314  25.696  1.00  0.00    -0.237 OA
ATOM     88  O   UNL A   1      43.043  19.499  24.746  1.00  0.00    -0.744 OA
ENDBRANCH  84  85
ENDBRANCH  52  77
BRANCH  64  89
ATOM     89  C   UNL A   1      48.004  26.866  30.691  1.00  0.00     0.058 A 
ATOM     90  C   UNL A   1      49.064  27.121  29.808  1.00  0.00     0.135 A 
ATOM     91  C   UNL A   1      48.295  26.216  31.901  1.00  0.00     0.135 A 
ATOM     92  F   UNL A   1      48.836  27.733  28.636  1.00  0.00    -0.206 F 
ATOM     93  C   UNL A   1      50.364  26.726  30.105  1.00  0.00     0.059 A 
ATOM     94  C   UNL A   1      49.591  25.835  32.229  1.00  0.00     0.059 A 
ATOM     95  F   UNL A   1      47.316  25.959  32.783  1.00  0.00    -0.206 F 
ATOM     96  C   UNL A   1      50.618  26.083  31.319  1.00  0.00     0.060 A 
BRANCH  96  97
ATOM     97  S   UNL A   1      52.315  25.608  31.711  1.00  0.00     0.124 S 
ATOM     98  O   UNL A   1      52.136  24.234  32.169  1.00  0.00    -0.237 OA
ATOM     99  O   UNL A   1      52.989  25.765  30.425  1.00  0.00    -0.237 OA
ATOM    100  O   UNL A   1      52.708  26.568  32.738  1.00  0.00    -0.744 OA
ENDBRANCH  96  97
ENDBRANCH  64  89
ENDBRANCH  38  39
ENDBRANCH  30  33
ENDBRANCH  28  29
ENDBRANCH  27  28
ENDBRANCH   1  27
TORSDOF 17
ENDMDL
MODEL 2
REMARK VINA RESULT:     -12.3      2.863      9.992
REMARK SMILES Cc1noc(C[N@H+]2CCC[C@@H](c3ccc(C(=O)NCCCCNC(=O)c4ccc(-c5c6nc(c(-c7c(F)cc(S(=O)(=O)[O-])cc7F)c7ccc([nH]7)c(-c7c(F)cc(S(=O)(=O)[O-])cc7F)c7nc(c(-c8c(F)cc(S(=O)(=O)[O-])cc8F)c8ccc5[nH]8)C=C7)C=C6)cc4)cc3)C2)n1
REMARK SMILES IDX 20 1 19 2 18 3 16 4 17 5 15 7 12 8 13 9 93 10 14 11 92 12
REMARK SMILES IDX 11 13 7 14 8 15 94 16 9 18 10 19 6 20 5 21 1 22 2 23 3 24
REMARK SMILES IDX 95 25 4 26 21 27 22 28 23 29 24 30 25 32 26 33 27 34 91 35
REMARK SMILES IDX 28 36 90 37 29 38 30 39 31 40 84 41 32 42 89 43 83 44 85 45
REMARK SMILES IDX 33 46 88 47 82 48 81 49 34 51 68 52 47 53 67 54 48 55 51 56
REMARK SMILES IDX 66 57 86 58 49 59 50 60 65 62 87 63 52 64 35 65 36 66 45 67
REMARK SMILES IDX 37 68 38 69 44 70 46 71 39 72 40 73 41 74 42 75 43 76 69 77
REMARK SMILES IDX 70 78 79 79 71 80 72 81 78 82 80 83 73 84 74 85 75 86 76 87
REMARK SMILES IDX 77 88 53 89 54 90 63 91 55 92 56 93 62 94 64 95 57 96 58 97
REMARK SMILES IDX 59 98 60 99 61 100
REMARK H PARENT 18 6 7 17 23 31 85 50 51 61
REMARK Flexibility Score: inf
ROOT
ATOM      1  C   UNL A   1      35.420  21.800  26.446  1.00  0.00     0.023 C 
ENDROOT
BRANCH   1   2
ATOM      2  C   UNL A   1      34.169  21.381  27.221  1.00  0.00     0.116 C 
BRANCH   2   3
ATOM      3  N   UNL A   1      33.398  20.419  26.460  1.00  0.00    -0.352 N 
ATOM      4  C   UNL A   1      32.599  20.568  25.357  1.00  0.00     0.251 C 
ATOM      5  O   UNL A   1      32.081  19.558  24.878  1.00  0.00    -0.269 OA
ATOM      6  H   UNL A   1      33.459  19.496  26.794  1.00  0.00     0.163 HD
BRANCH   4   7
ATOM      7  C   UNL A   1      32.379  21.878  24.681  1.00  0.00     0.039 A 
ATOM      8  C   UNL A   1      32.145  24.335  23.294  1.00  0.00    -0.039 A 
ATOM      9  C   UNL A   1      32.966  23.306  22.806  1.00  0.00     0.005 A 
ATOM     10  C   UNL A   1      31.392  24.090  24.445  1.00  0.00     0.005 A 
ATOM     11  C   UNL A   1      33.092  22.101  23.499  1.00  0.00     0.014 A 
ATOM     12  C   UNL A   1      31.493  22.867  25.116  1.00  0.00     0.014 A 
BRANCH   8  13
ATOM     13  C   UNL A   1      32.041  25.683  22.597  1.00  0.00     0.074 C 
ATOM     14  N   UNL A   1      30.638  27.790  22.446  1.00  0.00    -0.327 N 
ATOM     15  C   UNL A   1      31.814  28.592  22.813  1.00  0.00     0.262 C 
ATOM     16  C   UNL A   1      30.736  26.416  22.973  1.00  0.00     0.270 C 
ATOM     17  H   UNL A   1      30.617  27.737  21.428  1.00  0.00     0.348 HD
ATOM     18  C   UNL A   1      33.107  27.940  22.322  1.00  0.00     0.062 C 
ATOM     19  C   UNL A   1      33.271  26.544  22.909  1.00  0.00     0.020 C 
BRANCH  14  20
ATOM     20  C   UNL A   1      29.373  28.439  22.898  1.00  0.00     0.364 C 
BRANCH  20  21
ATOM     21  C   UNL A   1      29.157  29.838  22.406  1.00  0.00     0.281 A 
ATOM     22  C   UNL A   1      27.866  32.420  20.419  1.00  0.00     0.093 C 
ATOM     23  C   UNL A   1      28.503  31.574  21.443  1.00  0.00     0.169 A 
ATOM     24  N   UNL A   1      28.761  31.999  22.687  1.00  0.00    -0.063 NA
ATOM     25  N   UNL A   1      28.783  30.254  21.214  1.00  0.00    -0.191 NA
ATOM     26  O   UNL A   1      29.202  30.839  23.335  1.00  0.00    -0.333 OA
ENDBRANCH  20  21
ENDBRANCH  14  20
ENDBRANCH   8  13
ENDBRANCH   4   7
ENDBRANCH   2   3
ENDBRANCH   1   2
BRANCH   1  27
ATOM     27  C   UNL A   1      35.460  23.279  26.064  1.00  0.00     0.023 C 
BRANCH  27  28
ATOM     28  C   UNL A   1      36.751  23.732  25.395  1.00  0.00     0.116 C 
BRANCH  28  29
ATOM     29  N   UNL A   1      37.836  22.772  25.536  1.00  0.00    -0.352 N 
ATOM     30  C   UNL A   1      39.059  22.955  26.138  1.00  0.00     0.251 C 
ATOM     31  H   UNL A   1      37.674  21.880  25.152  1.00  0.00     0.163 HD
ATOM     32  O   UNL A   1      39.912  22.082  26.083  1.00  0.00    -0.269 OA
BRANCH  30  33
ATOM     33  C   UNL A   1      39.335  24.242  26.810  1.00  0.00     0.039 A 
ATOM     34  C   UNL A   1      38.907  24.416  28.127  1.00  0.00     0.014 A 
ATOM     35  C   UNL A   1      40.055  25.245  26.156  1.00  0.00     0.014 A 
ATOM     36  C   UNL A   1      39.263  25.577  28.815  1.00  0.00     0.010 A 
ATOM     37  C   UNL A   1      40.463  26.370  26.864  1.00  0.00     0.010 A 
ATOM     38  C   UNL A   1      40.074  26.545  28.201  1.00  0.00    -0.014 A 
BRANCH  38  39
ATOM     39  C   UNL A   1      40.524  27.750  28.939  1.00  0.00     0.031 A 
ATOM     40  C   UNL A   1      41.896  27.782  29.554  1.00  0.00     0.074 A 
ATOM     41  C   UNL A   1      39.679  28.788  29.100  1.00  0.00     0.049 A 
ATOM     42  N   UNL A   1      42.442  28.702  30.304  1.00  0.00    -0.248 NA
ATOM     43  C   UNL A   1      42.759  26.614  29.312  1.00  0.00     0.031 C 
ATOM     44  C   UNL A   1      38.309  28.855  28.585  1.00  0.00     0.029 A 
ATOM     45  N   UNL A   1      39.844  29.983  29.754  1.00  0.00    -0.354 N 
ATOM     46  C   UNL A   1      43.707  28.226  30.627  1.00  0.00     0.074 A 
ATOM     47  C   UNL A   1      43.827  26.910  30.039  1.00  0.00     0.031 C 
ATOM     48  C   UNL A   1      37.768  30.037  28.923  1.00  0.00     0.029 A 
ATOM     49  C   UNL A   1      38.736  30.796  29.708  1.00  0.00     0.049 A 
ATOM     50  H   UNL A   1      40.677  30.235  30.213  1.00  0.00     0.167 HD
ATOM     51  C   UNL A   1      44.690  28.842  31.325  1.00  0.00     0.037 A 
ATOM     52  C   UNL A   1      38.525  32.014  30.244  1.00  0.00     0.037 A 
ATOM     53  C   UNL A   1      44.575  30.161  31.888  1.00  0.00     0.049 A 
ATOM     54  C   UNL A   1      39.632  32.670  31.026  1.00  0.00     0.074 A 
ATOM     55  C   UNL A   1      45.521  30.882  32.594  1.00  0.00     0.029 A 
ATOM     56  N   UNL A   1      43.445  30.962  31.799  1.00  0.00    -0.354 N 
ATOM     57  N   UNL A   1      40.836  32.219  31.290  1.00  0.00    -0.248 NA
ATOM     58  C   UNL A   1      39.356  34.003  31.580  1.00  0.00     0.031 C 
ATOM     59  C   UNL A   1      44.957  32.111  32.953  1.00  0.00     0.029 A 
ATOM     60  C   UNL A   1      43.672  32.169  32.439  1.00  0.00     0.049 A 
ATOM     61  H   UNL A   1      42.608  30.710  31.347  1.00  0.00     0.167 HD
ATOM     62  C   UNL A   1      41.468  33.225  32.011  1.00  0.00     0.074 A 
ATOM     63  C   UNL A   1      40.520  34.312  32.133  1.00  0.00     0.031 C 
ATOM     64  C   UNL A   1      42.721  33.248  32.527  1.00  0.00     0.037 A 
BRANCH  51  65
ATOM     65  C   UNL A   1      45.989  28.106  31.497  1.00  0.00     0.058 A 
ATOM     66  C   UNL A   1      46.208  27.263  32.598  1.00  0.00     0.135 A 
ATOM     67  C   UNL A   1      47.005  28.202  30.532  1.00  0.00     0.135 A 
ATOM     68  F   UNL A   1      45.277  27.151  33.559  1.00  0.00    -0.206 F 
ATOM     69  C   UNL A   1      47.395  26.555  32.746  1.00  0.00     0.059 A 
ATOM     70  C   UNL A   1      48.191  27.483  30.648  1.00  0.00     0.059 A 
ATOM     71  F   UNL A   1      46.848  28.998  29.462  1.00  0.00    -0.206 F 
ATOM     72  C   UNL A   1      48.379  26.669  31.765  1.00  0.00     0.060 A 
BRANCH  72  73
ATOM     73  S   UNL A   1      49.904  25.722  31.961  1.00  0.00     0.124 S 
ATOM     74  O   UNL A   1      49.527  24.777  33.007  1.00  0.00    -0.237 OA
ATOM     75  O   UNL A   1      50.091  25.152  30.630  1.00  0.00    -0.237 OA
ATOM     76  O   UNL A   1      50.883  26.731  32.351  1.00  0.00    -0.744 OA
ENDBRANCH  72  73
ENDBRANCH  51  65
BRANCH  52  77
ATOM     77  C   UNL A   1      37.225  32.709  30.052  1.00  0.00     0.058 A 
ATOM     78  C   UNL A   1      37.039  33.607  28.990  1.00  0.00     0.135 A 
ATOM     79  C   UNL A   1      36.156  32.518  30.940  1.00  0.00     0.135 A 
ATOM     80  F   UNL A   1      38.034  33.826  28.116  1.00  0.00    -0.206 F 
ATOM     81  C   UNL A   1      35.855  34.320  28.835  1.00  0.00     0.059 A 
ATOM     82  C   UNL A   1      34.952  33.200  30.792  1.00  0.00     0.059 A 
ATOM     83  F   UNL A   1      36.275  31.655  31.961  1.00  0.00    -0.206 F 
ATOM     84  C   UNL A   1      34.819  34.115  29.747  1.00  0.00     0.060 A 
BRANCH  84  85
ATOM     85  S   UNL A   1      33.282  35.041  29.539  1.00  0.00     0.124 S 
ATOM     86  O   UNL A   1      32.644  34.305  28.454  1.00  0.00    -0.237 OA
ATOM     87  O   UNL A   1      32.662  34.910  30.853  1.00  0.00    -0.237 OA
ATOM     88  O   UNL A   1      33.746  36.385  29.206  1.00  0.00    -0.744 OA
ENDBRANCH  84  85
ENDBRANCH  52  77
BRANCH  64  89
ATOM     89  C   UNL A   1      43.155  34.503  33.229  1.00  0.00     0.058 A 
ATOM     90  C   UNL A   1      43.759  35.563  32.535  1.00  0.00     0.135 A 
ATOM     91  C   UNL A   1      42.918  34.665  34.603  1.00  0.00     0.135 A 
ATOM     92  F   UNL A   1      44.013  35.455  31.222  1.00  0.00    -0.206 F 
ATOM     93  C   UNL A   1      44.134  36.734  33.186  1.00  0.00     0.059 A 
ATOM     94  C   UNL A   1      43.262  35.836  35.268  1.00  0.00     0.059 A 
ATOM     95  F   UNL A   1      42.334  33.683  35.309  1.00  0.00    -0.206 F 
ATOM     96  C   UNL A   1      43.880  36.861  34.554  1.00  0.00     0.060 A 
BRANCH  96  97
ATOM     97  S   UNL A   1      44.337  38.400  35.381  1.00  0.00     0.124 S 
ATOM     98  O   UNL A   1      43.569  39.380  34.621  1.00  0.00    -0.237 OA
ATOM     99  O   UNL A   1      43.889  38.165  36.750  1.00  0.00    -0.237 OA
ATOM    100  O   UNL A   1      45.785  38.462  35.205  1.00  0.00    -0.744 OA
ENDBRANCH  96  97
ENDBRANCH  64  89
ENDBRANCH  38  39
ENDBRANCH  30  33
ENDBRANCH  28  29
ENDBRANCH  27  28
ENDBRANCH   1  27
TORSDOF 17
ENDMDL
MODEL 3
REMARK VINA RESULT:     -12.2      2.743      3.490
REMARK SMILES Cc1noc(C[N@H+]2CCC[C@@H](c3ccc(C(=O)NCCCCNC(=O)c4ccc(-c5c6nc(c(-c7c(F)cc(S(=O)(=O)[O-])cc7F)c7ccc([nH]7)c(-c7c(F)cc(S(=O)(=O)[O-])cc7F)c7nc(c(-c8c(F)cc(S(=O)(=O)[O-])cc8F)c8ccc5[nH]8)C=C7)C=C6)cc4)cc3)C2)n1
REMARK SMILES IDX 20 1 19 2 18 3 16 4 17 5 15 7 12 8 13 9 93 10 14 11 92 12
REMARK SMILES IDX 11 13 7 14 8 15 94 16 9 18 10 19 6 20 5 21 1 22 2 23 3 24
REMARK SMILES IDX 95 25 4 26 21 27 22 28 23 29 24 30 25 32 26 33 27 34 91 35
REMARK SMILES IDX 28 36 90 37 29 38 30 39 31 40 84 41 32 42 89 43 83 44 85 45
REMARK SMILES IDX 33 46 88 47 82 48 81 49 34 51 68 52 47 53 67 54 48 55 51 56
REMARK SMILES IDX 66 57 86 58 49 59 50 60 65 62 87 63 52 64 35 65 36 66 45 67
REMARK SMILES IDX 37 68 38 69 44 70 46 71 39 72 40 73 41 74 42 75 43 76 69 77
REMARK SMILES IDX 70 78 79 79 71 80 72 81 78 82 80 83 73 84 74 85 75 86 76 87
REMARK SMILES IDX 77 88 53 89 54 90 63 91 55 92 56 93 62 94 64 95 57 96 58 97
REMARK SMILES IDX 59 98 60 99 61 100
REMARK H PARENT 18 6 7 17 23 31 85 50 51 61
REMARK Flexibility Score: inf
ROOT
ATOM      1  C   UNL A   1      33.559  30.314  26.516  1.00  0.00     0.023 C 
ENDROOT
BRANCH   1   2
ATOM      2  C   UNL A   1      32.030  30.268  26.508  1.00  0.00     0.116 C 
BRANCH   2   3
ATOM      3  N   UNL A   1      31.536  30.042  25.165  1.00  0.00    -0.352 N 
ATOM      4  C   UNL A   1      31.458  28.903  24.408  1.00  0.00     0.251 C 
ATOM      5  O   UNL A   1      30.948  28.986  23.290  1.00  0.00    -0.269 OA
ATOM      6  H   UNL A   1      31.195  30.850  24.718  1.00  0.00     0.163 HD
BRANCH   4   7
ATOM      7  C   UNL A   1      31.905  27.568  24.897  1.00  0.00     0.039 A 
ATOM      8  C   UNL A   1      32.889  25.025  25.661  1.00  0.00    -0.039 A 
ATOM      9  C   UNL A   1      33.635  25.865  24.819  1.00  0.00     0.005 A 
ATOM     10  C   UNL A   1      31.679  25.505  26.169  1.00  0.00     0.005 A 
ATOM     11  C   UNL A   1      33.143  27.112  24.432  1.00  0.00     0.014 A 
ATOM     12  C   UNL A   1      31.206  26.771  25.806  1.00  0.00     0.014 A 
BRANCH   8  13
ATOM     13  C   UNL A   1      33.370  23.634  26.045  1.00  0.00     0.074 C 
ATOM     14  N   UNL A   1      33.178  21.179  25.438  1.00  0.00    -0.327 N 
ATOM     15  C   UNL A   1      34.633  21.121  25.238  1.00  0.00     0.262 C 
ATOM     16  C   UNL A   1      32.656  22.542  25.220  1.00  0.00     0.270 C 
ATOM     17  H   UNL A   1      32.998  20.924  26.409  1.00  0.00     0.348 HD
ATOM     18  C   UNL A   1      35.359  22.106  26.154  1.00  0.00     0.062 C 
ATOM     19  C   UNL A   1      34.893  23.534  25.899  1.00  0.00     0.020 C 
BRANCH  14  20
ATOM     20  C   UNL A   1      32.468  20.197  24.567  1.00  0.00     0.364 C 
BRANCH  20  21
ATOM     21  C   UNL A   1      32.838  18.761  24.784  1.00  0.00     0.281 A 
ATOM     22  C   UNL A   1      32.418  15.397  25.672  1.00  0.00     0.093 C 
ATOM     23  C   UNL A   1      32.865  16.707  25.165  1.00  0.00     0.169 A 
ATOM     24  N   UNL A   1      33.771  16.844  24.188  1.00  0.00    -0.063 NA
ATOM     25  N   UNL A   1      32.301  17.876  25.598  1.00  0.00    -0.191 NA
ATOM     26  O   UNL A   1      33.757  18.220  23.931  1.00  0.00    -0.333 OA
ENDBRANCH  20  21
ENDBRANCH  14  20
ENDBRANCH   8  13
ENDBRANCH   4   7
ENDBRANCH   2   3
ENDBRANCH   1   2
BRANCH   1  27
ATOM     27  C   UNL A   1      34.220  29.208  27.339  1.00  0.00     0.023 C 
BRANCH  27  28
ATOM     28  C   UNL A   1      35.543  29.596  27.986  1.00  0.00     0.116 C 
BRANCH  28  29
ATOM     29  N   UNL A   1      35.385  30.153  29.321  1.00  0.00    -0.352 N 
ATOM     30  C   UNL A   1      36.361  30.401  30.259  1.00  0.00     0.251 C 
ATOM     31  H   UNL A   1      34.465  30.380  29.587  1.00  0.00     0.163 HD
ATOM     32  O   UNL A   1      36.059  30.774  31.382  1.00  0.00    -0.269 OA
BRANCH  30  33
ATOM     33  C   UNL A   1      37.773  30.163  29.894  1.00  0.00     0.039 A 
ATOM     34  C   UNL A   1      38.653  29.710  30.879  1.00  0.00     0.014 A 
ATOM     35  C   UNL A   1      38.207  30.339  28.577  1.00  0.00     0.014 A 
ATOM     36  C   UNL A   1      39.959  29.367  30.526  1.00  0.00     0.010 A 
ATOM     37  C   UNL A   1      39.488  29.935  28.217  1.00  0.00     0.010 A 
ATOM     38  C   UNL A   1      40.374  29.442  29.187  1.00  0.00    -0.014 A 
BRANCH  38  39
ATOM     39  C   UNL A   1      41.734  29.012  28.780  1.00  0.00     0.031 A 
ATOM     40  C   UNL A   1      42.854  30.014  28.737  1.00  0.00     0.074 A 
ATOM     41  C   UNL A   1      41.944  27.737  28.397  1.00  0.00     0.049 A 
ATOM     42  N   UNL A   1      44.087  29.857  28.330  1.00  0.00    -0.248 NA
ATOM     43  C   UNL A   1      42.541  31.380  29.188  1.00  0.00     0.031 C 
ATOM     44  C   UNL A   1      40.925  26.683  28.357  1.00  0.00     0.029 A 
ATOM     45  N   UNL A   1      43.083  27.109  27.958  1.00  0.00    -0.354 N 
ATOM     46  C   UNL A   1      44.694  31.099  28.473  1.00  0.00     0.074 A 
ATOM     47  C   UNL A   1      43.680  32.013  28.949  1.00  0.00     0.031 C 
ATOM     48  C   UNL A   1      41.490  25.539  27.940  1.00  0.00     0.029 A 
ATOM     49  C   UNL A   1      42.899  25.782  27.649  1.00  0.00     0.049 A 
ATOM     50  H   UNL A   1      43.950  27.567  27.874  1.00  0.00     0.167 HD
ATOM     51  C   UNL A   1      45.986  31.438  28.255  1.00  0.00     0.037 A 
ATOM     52  C   UNL A   1      43.769  24.868  27.178  1.00  0.00     0.037 A 
ATOM     53  C   UNL A   1      46.997  30.518  27.804  1.00  0.00     0.049 A 
ATOM     54  C   UNL A   1      45.197  25.277  26.932  1.00  0.00     0.074 A 
ATOM     55  C   UNL A   1      48.340  30.759  27.574  1.00  0.00     0.029 A 
ATOM     56  N   UNL A   1      46.777  29.177  27.524  1.00  0.00    -0.354 N 
ATOM     57  N   UNL A   1      45.762  26.448  27.108  1.00  0.00    -0.248 NA
ATOM     58  C   UNL A   1      46.109  24.240  26.430  1.00  0.00     0.031 C 
ATOM     59  C   UNL A   1      48.929  29.569  27.132  1.00  0.00     0.029 A 
ATOM     60  C   UNL A   1      47.959  28.579  27.122  1.00  0.00     0.049 A 
ATOM     61  H   UNL A   1      45.909  28.719  27.601  1.00  0.00     0.167 HD
ATOM     62  C   UNL A   1      47.100  26.279  26.769  1.00  0.00     0.074 A 
ATOM     63  C   UNL A   1      47.263  24.891  26.388  1.00  0.00     0.031 C 
ATOM     64  C   UNL A   1      48.104  27.189  26.771  1.00  0.00     0.037 A 
BRANCH  51  65
ATOM     65  C   UNL A   1      46.389  32.860  28.528  1.00  0.00     0.058 A 
ATOM     66  C   UNL A   1      46.296  33.846  27.534  1.00  0.00     0.135 A 
ATOM     67  C   UNL A   1      46.824  33.253  29.804  1.00  0.00     0.135 A 
ATOM     68  F   UNL A   1      45.904  33.519  26.292  1.00  0.00    -0.206 F 
ATOM     69  C   UNL A   1      46.637  35.170  27.789  1.00  0.00     0.059 A 
ATOM     70  C   UNL A   1      47.147  34.577  30.088  1.00  0.00     0.059 A 
ATOM     71  F   UNL A   1      46.935  32.348  30.789  1.00  0.00    -0.206 F 
ATOM     72  C   UNL A   1      47.058  35.526  29.070  1.00  0.00     0.060 A 
BRANCH  72  73
ATOM     73  S   UNL A   1      47.472  37.254  29.390  1.00  0.00     0.124 S 
ATOM     74  O   UNL A   1      48.863  37.305  28.954  1.00  0.00    -0.237 OA
ATOM     75  O   UNL A   1      46.517  37.966  28.546  1.00  0.00    -0.237 OA
ATOM     76  O   UNL A   1      47.260  37.393  30.827  1.00  0.00    -0.744 OA
ENDBRANCH  72  73
ENDBRANCH  51  65
BRANCH  52  77
ATOM     77  C   UNL A   1      43.331  23.471  26.919  1.00  0.00     0.058 A 
ATOM     78  C   UNL A   1      43.092  22.584  27.980  1.00  0.00     0.135 A 
ATOM     79  C   UNL A   1      43.176  22.984  25.613  1.00  0.00     0.135 A 
ATOM     80  F   UNL A   1      43.231  23.003  29.248  1.00  0.00    -0.206 F 
ATOM     81  C   UNL A   1      42.750  21.254  27.757  1.00  0.00     0.059 A 
ATOM     82  C   UNL A   1      42.810  21.664  25.364  1.00  0.00     0.059 A 
ATOM     83  F   UNL A   1      43.373  23.796  24.563  1.00  0.00    -0.206 F 
ATOM     84  C   UNL A   1      42.620  20.802  26.444  1.00  0.00     0.060 A 
BRANCH  84  85
ATOM     85  S   UNL A   1      42.173  19.075  26.161  1.00  0.00     0.124 S 
ATOM     86  O   UNL A   1      43.065  18.719  25.064  1.00  0.00    -0.237 OA
ATOM     87  O   UNL A   1      42.469  18.463  27.451  1.00  0.00    -0.237 OA
ATOM     88  O   UNL A   1      40.753  19.149  25.824  1.00  0.00    -0.744 OA
ENDBRANCH  84  85
ENDBRANCH  52  77
BRANCH  64  89
ATOM     89  C   UNL A   1      49.475  26.705  26.395  1.00  0.00     0.058 A 
ATOM     90  C   UNL A   1      50.286  26.012  27.307  1.00  0.00     0.135 A 
ATOM     91  C   UNL A   1      49.961  26.894  25.091  1.00  0.00     0.135 A 
ATOM     92  F   UNL A   1      49.871  25.812  28.567  1.00  0.00    -0.206 F 
ATOM     93  C   UNL A   1      51.545  25.542  26.944  1.00  0.00     0.059 A 
ATOM     94  C   UNL A   1      51.204  26.411  24.700  1.00  0.00     0.059 A 
ATOM     95  F   UNL A   1      49.217  27.541  24.180  1.00  0.00    -0.206 F 
ATOM     96  C   UNL A   1      51.995  25.746  25.637  1.00  0.00     0.060 A 
BRANCH  96  97
ATOM     97  S   UNL A   1      53.613  25.100  25.167  1.00  0.00     0.124 S 
ATOM     98  O   UNL A   1      54.488  25.782  26.114  1.00  0.00    -0.237 OA
ATOM     99  O   UNL A   1      53.450  23.664  25.376  1.00  0.00    -0.237 OA
ATOM    100  O   UNL A   1      53.751  25.512  23.774  1.00  0.00    -0.744 OA
ENDBRANCH  96  97
ENDBRANCH  64  89
ENDBRANCH  38  39
ENDBRANCH  30  33
ENDBRANCH  28  29
ENDBRANCH  27  28
ENDBRANCH   1  27
TORSDOF 17
ENDMDL
