MODEL 1
REMARK VINA RESULT:     -12.0      0.000      0.000
REMARK SMILES CC1(C)[C@H](C(=O)Nc2ccccc2C(N)=O)[C@@H]1C(=O)NCCCCNC(=O)c1ccc(-c2c3nc(c(-c4c(F)cc(S(=O)(=O)[O-])cc4F)c4ccc([nH]4)c(-c4c(F)cc(S(=O)(=O)[O-])cc4F)c4nc(c(-c5c(F)cc(S(=O)(=O)[O-])cc5F)c5ccc2[nH]5)C=C4)C=C3)cc1
REMARK SMILES IDX 22 1 21 2 20 3 18 4 19 5 17 7 1 8 2 9 3 10 4 11 5 12 6 13
REMARK SMILES IDX 7 14 8 16 9 17 13 18 10 19 12 20 11 21 14 22 15 23 16 24
REMARK SMILES IDX 23 27 24 28 25 29 26 30 27 32 28 33 29 34 93 35 30 36 92 37
REMARK SMILES IDX 31 38 32 39 33 40 86 41 34 42 91 43 85 44 87 45 35 46 90 47
REMARK SMILES IDX 84 48 83 49 36 51 70 52 49 53 69 54 50 55 53 56 68 57 88 58
REMARK SMILES IDX 51 59 52 60 67 62 89 63 54 64 37 65 38 66 47 67 39 68 40 69
REMARK SMILES IDX 46 70 48 71 41 72 42 73 43 74 44 75 45 76 71 77 72 78 81 79
REMARK SMILES IDX 73 80 74 81 80 82 82 83 75 84 76 85 77 86 78 87 79 88 55 89
REMARK SMILES IDX 56 90 65 91 57 92 58 93 64 94 66 95 59 96 60 97 61 98 62 99
REMARK SMILES IDX 63 100
REMARK H PARENT 20 6 7 15 15 25 15 26 25 31 87 50 53 61
REMARK Flexibility Score: inf
ROOT
ATOM      1  C   UNL A   1      37.401  22.843  25.081  1.00  0.00     0.023 C 
ENDROOT
BRANCH   1   2
ATOM      2  C   UNL A   1      36.452  21.767  25.588  1.00  0.00     0.116 C 
BRANCH   2   3
ATOM      3  N   UNL A   1      35.527  22.281  26.569  1.00  0.00    -0.356 N 
ATOM      4  C   UNL A   1      34.252  22.723  26.381  1.00  0.00     0.224 C 
ATOM      5  O   UNL A   1      33.706  23.345  27.287  1.00  0.00    -0.275 OA
ATOM      6  H   UNL A   1      35.861  22.318  27.494  1.00  0.00     0.163 HD
BRANCH   4   7
ATOM      7  C   UNL A   1      33.560  22.519  25.071  1.00  0.00     0.098 C 
ATOM      8  C   UNL A   1      33.651  23.395  22.592  1.00  0.00     0.013 C 
ATOM      9  C   UNL A   1      33.509  23.694  24.081  1.00  0.00    -0.011 C 
ATOM     10  C   UNL A   1      34.301  24.916  24.458  1.00  0.00     0.013 C 
ATOM     11  C   UNL A   1      32.227  23.138  24.666  1.00  0.00     0.098 C 
BRANCH  11  12
ATOM     12  C   UNL A   1      31.183  23.388  25.691  1.00  0.00     0.228 C 
ATOM     13  O   UNL A   1      30.683  22.379  26.199  1.00  0.00    -0.274 OA
ATOM     14  N   UNL A   1      30.826  24.576  26.255  1.00  0.00    -0.325 N 
ATOM     15  H   UNL A   1      30.287  24.482  27.074  1.00  0.00     0.169 HD
BRANCH  14  16
ATOM     16  C   UNL A   1      31.077  25.892  25.895  1.00  0.00     0.053 A 
ATOM     17  C   UNL A   1      31.880  26.603  26.799  1.00  0.00     0.027 A 
ATOM     18  C   UNL A   1      30.576  26.520  24.746  1.00  0.00     0.063 A 
ATOM     19  C   UNL A   1      32.322  27.883  26.490  1.00  0.00     0.002 A 
ATOM     20  C   UNL A   1      31.015  27.824  24.453  1.00  0.00     0.016 A 
ATOM     21  C   UNL A   1      31.912  28.483  25.303  1.00  0.00     0.001 A 
BRANCH  18  22
ATOM     22  C   UNL A   1      29.535  25.865  23.899  1.00  0.00     0.250 C 
ATOM     23  N   UNL A   1      28.243  26.299  24.020  1.00  0.00    -0.366 N 
ATOM     24  O   UNL A   1      29.793  24.967  23.108  1.00  0.00    -0.269 OA
ATOM     25  H   UNL A   1      28.024  27.020  24.653  1.00  0.00     0.159 HD
ATOM     26  H   UNL A   1      27.534  25.891  23.474  1.00  0.00     0.159 HD
ENDBRANCH  18  22
ENDBRANCH  14  16
ENDBRANCH  11  12
ENDBRANCH   4   7
ENDBRANCH   2   3
ENDBRANCH   1   2
BRANCH   1  27
ATOM     27  C   UNL A   1      37.715  23.949  26.089  1.00  0.00     0.023 C 
BRANCH  27  28
ATOM     28  C   UNL A   1      39.032  23.795  26.843  1.00  0.00     0.116 C 
BRANCH  28  29
ATOM     29  N   UNL A   1      40.186  24.181  26.049  1.00  0.00    -0.352 N 
ATOM     30  C   UNL A   1      40.961  25.312  26.126  1.00  0.00     0.251 C 
ATOM     31  H   UNL A   1      40.451  23.537  25.352  1.00  0.00     0.163 HD
ATOM     32  O   UNL A   1      41.786  25.549  25.249  1.00  0.00    -0.269 OA
BRANCH  30  33
ATOM     33  C   UNL A   1      40.787  26.250  27.257  1.00  0.00     0.039 A 
ATOM     34  C   UNL A   1      39.899  25.917  28.282  1.00  0.00     0.014 A 
ATOM     35  C   UNL A   1      41.489  27.458  27.302  1.00  0.00     0.014 A 
ATOM     36  C   UNL A   1      39.747  26.777  29.371  1.00  0.00     0.010 A 
ATOM     37  C   UNL A   1      41.409  28.265  28.432  1.00  0.00     0.010 A 
ATOM     38  C   UNL A   1      40.516  27.949  29.467  1.00  0.00    -0.014 A 
BRANCH  38  39
ATOM     39  C   UNL A   1      40.353  28.883  30.612  1.00  0.00     0.031 A 
ATOM     40  C   UNL A   1      41.220  28.725  31.836  1.00  0.00     0.074 A 
ATOM     41  C   UNL A   1      39.411  29.846  30.570  1.00  0.00     0.049 A 
ATOM     42  N   UNL A   1      41.216  29.415  32.947  1.00  0.00    -0.248 NA
ATOM     43  C   UNL A   1      42.201  27.626  31.820  1.00  0.00     0.031 C 
ATOM     44  C   UNL A   1      38.476  30.069  29.465  1.00  0.00     0.029 A 
ATOM     45  N   UNL A   1      39.083  30.818  31.481  1.00  0.00    -0.354 N 
ATOM     46  C   UNL A   1      42.179  28.828  33.762  1.00  0.00     0.074 A 
ATOM     47  C   UNL A   1      42.696  27.683  33.047  1.00  0.00     0.031 C 
ATOM     48  C   UNL A   1      37.704  31.130  29.749  1.00  0.00     0.029 A 
ATOM     49  C   UNL A   1      38.062  31.643  31.068  1.00  0.00     0.049 A 
ATOM     50  H   UNL A   1      39.535  30.917  32.349  1.00  0.00     0.167 HD
ATOM     51  C   UNL A   1      42.618  29.226  34.979  1.00  0.00     0.037 A 
ATOM     52  C   UNL A   1      37.483  32.692  31.682  1.00  0.00     0.037 A 
ATOM     53  C   UNL A   1      42.119  30.384  35.672  1.00  0.00     0.049 A 
ATOM     54  C   UNL A   1      37.992  33.121  33.033  1.00  0.00     0.074 A 
ATOM     55  C   UNL A   1      42.528  30.902  36.889  1.00  0.00     0.029 A 
ATOM     56  N   UNL A   1      41.103  31.207  35.209  1.00  0.00    -0.354 N 
ATOM     57  N   UNL A   1      38.944  32.588  33.764  1.00  0.00    -0.248 NA
ATOM     58  C   UNL A   1      37.363  34.303  33.637  1.00  0.00     0.031 C 
ATOM     59  C   UNL A   1      41.726  32.009  37.184  1.00  0.00     0.029 A 
ATOM     60  C   UNL A   1      40.861  32.220  36.121  1.00  0.00     0.049 A 
ATOM     61  H   UNL A   1      40.624  31.089  34.357  1.00  0.00     0.167 HD
ATOM     62  C   UNL A   1      39.056  33.397  34.891  1.00  0.00     0.074 A 
ATOM     63  C   UNL A   1      38.079  34.455  34.741  1.00  0.00     0.031 C 
ATOM     64  C   UNL A   1      39.896  33.277  35.950  1.00  0.00     0.037 A 
BRANCH  51  65
ATOM     65  C   UNL A   1      43.694  28.402  35.636  1.00  0.00     0.058 A 
ATOM     66  C   UNL A   1      43.388  27.356  36.524  1.00  0.00     0.135 A 
ATOM     67  C   UNL A   1      45.049  28.641  35.353  1.00  0.00     0.135 A 
ATOM     68  F   UNL A   1      42.112  27.093  36.845  1.00  0.00    -0.206 F 
ATOM     69  C   UNL A   1      44.386  26.602  37.133  1.00  0.00     0.059 A 
ATOM     70  C   UNL A   1      46.062  27.876  35.925  1.00  0.00     0.059 A 
ATOM     71  F   UNL A   1      45.401  29.627  34.513  1.00  0.00    -0.206 F 
ATOM     72  C   UNL A   1      45.721  26.870  36.827  1.00  0.00     0.060 A 
BRANCH  72  73
ATOM     73  S   UNL A   1      47.002  25.878  37.622  1.00  0.00     0.124 S 
ATOM     74  O   UNL A   1      47.144  26.560  38.905  1.00  0.00    -0.237 OA
ATOM     75  O   UNL A   1      46.386  24.555  37.672  1.00  0.00    -0.237 OA
ATOM     76  O   UNL A   1      48.140  26.003  36.717  1.00  0.00    -0.744 OA
ENDBRANCH  72  73
ENDBRANCH  51  65
BRANCH  52  77
ATOM     77  C   UNL A   1      36.380  33.435  31.012  1.00  0.00     0.058 A 
ATOM     78  C   UNL A   1      35.059  33.348  31.477  1.00  0.00     0.135 A 
ATOM     79  C   UNL A   1      36.625  34.248  29.894  1.00  0.00     0.135 A 
ATOM     80  F   UNL A   1      34.771  32.581  32.539  1.00  0.00    -0.206 F 
ATOM     81  C   UNL A   1      34.017  34.021  30.846  1.00  0.00     0.059 A 
ATOM     82  C   UNL A   1      35.604  34.953  29.264  1.00  0.00     0.059 A 
ATOM     83  F   UNL A   1      37.874  34.380  29.418  1.00  0.00    -0.206 F 
ATOM     84  C   UNL A   1      34.301  34.823  29.739  1.00  0.00     0.060 A 
BRANCH  84  85
ATOM     85  S   UNL A   1      32.947  35.721  28.952  1.00  0.00     0.124 S 
ATOM     86  O   UNL A   1      32.149  36.119  30.105  1.00  0.00    -0.237 OA
ATOM     87  O   UNL A   1      33.653  36.796  28.262  1.00  0.00    -0.237 OA
ATOM     88  O   UNL A   1      32.341  34.719  28.080  1.00  0.00    -0.744 OA
ENDBRANCH  84  85
ENDBRANCH  52  77
BRANCH  64  89
ATOM     89  C   UNL A   1      39.845  34.354  37.001  1.00  0.00     0.058 A 
ATOM     90  C   UNL A   1      40.550  35.561  36.871  1.00  0.00     0.135 A 
ATOM     91  C   UNL A   1      39.045  34.185  38.144  1.00  0.00     0.135 A 
ATOM     92  F   UNL A   1      41.332  35.774  35.800  1.00  0.00    -0.206 F 
ATOM     93  C   UNL A   1      40.495  36.544  37.853  1.00  0.00     0.059 A 
ATOM     94  C   UNL A   1      38.947  35.168  39.121  1.00  0.00     0.059 A 
ATOM     95  F   UNL A   1      38.336  33.057  38.312  1.00  0.00    -0.206 F 
ATOM     96  C   UNL A   1      39.691  36.338  38.976  1.00  0.00     0.060 A 
BRANCH  96  97
ATOM     97  S   UNL A   1      39.619  37.626  40.238  1.00  0.00     0.124 S 
ATOM     98  O   UNL A   1      41.013  38.054  40.300  1.00  0.00    -0.237 OA
ATOM     99  O   UNL A   1      38.686  38.584  39.654  1.00  0.00    -0.237 OA
ATOM    100  O   UNL A   1      39.126  36.920  41.417  1.00  0.00    -0.744 OA
ENDBRANCH  96  97
ENDBRANCH  64  89
ENDBRANCH  38  39
ENDBRANCH  30  33
ENDBRANCH  28  29
ENDBRANCH  27  28
ENDBRANCH   1  27
TORSDOF 17
ENDMDL
MODEL 2
REMARK VINA RESULT:     -12.0      6.314      8.382
REMARK SMILES CC1(C)[C@H](C(=O)Nc2ccccc2C(N)=O)[C@@H]1C(=O)NCCCCNC(=O)c1ccc(-c2c3nc(c(-c4c(F)cc(S(=O)(=O)[O-])cc4F)c4ccc([nH]4)c(-c4c(F)cc(S(=O)(=O)[O-])cc4F)c4nc(c(-c5c(F)cc(S(=O)(=O)[O-])cc5F)c5ccc2[nH]5)C=C4)C=C3)cc1
REMARK SMILES IDX 22 1 21 2 20 3 18 4 19 5 17 7 1 8 2 9 3 10 4 11 5 12 6 13
REMARK SMILES IDX 7 14 8 16 9 17 13 18 10 19 12 20 11 21 14 22 15 23 16 24
REMARK SMILES IDX 23 27 24 28 25 29 26 30 27 32 28 33 29 34 93 35 30 36 92 37
REMARK SMILES IDX 31 38 32 39 33 40 86 41 34 42 91 43 85 44 87 45 35 46 90 47
REMARK SMILES IDX 84 48 83 49 36 51 70 52 49 53 69 54 50 55 53 56 68 57 88 58
REMARK SMILES IDX 51 59 52 60 67 62 89 63 54 64 37 65 38 66 47 67 39 68 40 69
REMARK SMILES IDX 46 70 48 71 41 72 42 73 43 74 44 75 45 76 71 77 72 78 81 79
REMARK SMILES IDX 73 80 74 81 80 82 82 83 75 84 76 85 77 86 78 87 79 88 55 89
REMARK SMILES IDX 56 90 65 91 57 92 58 93 64 94 66 95 59 96 60 97 61 98 62 99
REMARK SMILES IDX 63 100
REMARK H PARENT 20 6 7 15 15 25 15 26 25 31 87 50 53 61
REMARK Flexibility Score: inf
ROOT
ATOM      1  C   UNL A   1      37.253  21.061  24.789  1.00  0.00     0.023 C 
ENDROOT
BRANCH   1   2
ATOM      2  C   UNL A   1      35.897  20.728  25.394  1.00  0.00     0.116 C 
BRANCH   2   3
ATOM      3  N   UNL A   1      35.502  21.689  26.396  1.00  0.00    -0.356 N 
ATOM      4  C   UNL A   1      34.287  22.280  26.570  1.00  0.00     0.224 C 
ATOM      5  O   UNL A   1      34.206  23.246  27.322  1.00  0.00    -0.275 OA
ATOM      6  H   UNL A   1      36.203  21.951  27.036  1.00  0.00     0.163 HD
BRANCH   4   7
ATOM      7  C   UNL A   1      33.093  21.808  25.804  1.00  0.00     0.098 C 
ATOM      8  C   UNL A   1      32.275  21.545  23.318  1.00  0.00     0.013 C 
ATOM      9  C   UNL A   1      32.808  22.440  24.431  1.00  0.00    -0.011 C 
ATOM     10  C   UNL A   1      33.855  23.383  23.904  1.00  0.00     0.013 C 
ATOM     11  C   UNL A   1      31.818  22.608  25.565  1.00  0.00     0.098 C 
BRANCH  11  12
ATOM     12  C   UNL A   1      31.342  23.568  26.592  1.00  0.00     0.228 C 
ATOM     13  O   UNL A   1      30.775  23.067  27.569  1.00  0.00    -0.274 OA
ATOM     14  N   UNL A   1      31.592  24.906  26.674  1.00  0.00    -0.325 N 
ATOM     15  H   UNL A   1      31.382  25.297  27.553  1.00  0.00     0.169 HD
BRANCH  14  16
ATOM     16  C   UNL A   1      32.086  25.820  25.755  1.00  0.00     0.053 A 
ATOM     17  C   UNL A   1      33.278  26.451  26.139  1.00  0.00     0.027 A 
ATOM     18  C   UNL A   1      31.474  26.144  24.536  1.00  0.00     0.063 A 
ATOM     19  C   UNL A   1      33.952  27.281  25.253  1.00  0.00     0.002 A 
ATOM     20  C   UNL A   1      32.156  27.001  23.654  1.00  0.00     0.016 A 
ATOM     21  C   UNL A   1      33.404  27.534  23.998  1.00  0.00     0.001 A 
BRANCH  18  22
ATOM     22  C   UNL A   1      30.096  25.668  24.213  1.00  0.00     0.250 C 
ATOM     23  N   UNL A   1      29.966  24.635  23.326  1.00  0.00    -0.366 N 
ATOM     24  O   UNL A   1      29.091  26.162  24.709  1.00  0.00    -0.269 OA
ATOM     25  H   UNL A   1      30.766  24.230  22.921  1.00  0.00     0.159 HD
ATOM     26  H   UNL A   1      29.072  24.295  23.094  1.00  0.00     0.159 HD
ENDBRANCH  18  22
ENDBRANCH  14  16
ENDBRANCH  11  12
ENDBRANCH   4   7
ENDBRANCH   2   3
ENDBRANCH   1   2
BRANCH   1  27
ATOM     27  C   UNL A   1      38.341  20.015  25.036  1.00  0.00     0.023 C 
BRANCH  27  28
ATOM     28  C   UNL A   1      39.419  20.413  26.039  1.00  0.00     0.116 C 
BRANCH  28  29
ATOM     29  N   UNL A   1      40.501  19.447  26.120  1.00  0.00    -0.352 N 
ATOM     30  C   UNL A   1      41.852  19.658  26.247  1.00  0.00     0.251 C 
ATOM     31  H   UNL A   1      40.225  18.502  26.075  1.00  0.00     0.163 HD
ATOM     32  O   UNL A   1      42.632  18.719  26.114  1.00  0.00    -0.269 OA
BRANCH  30  33
ATOM     33  C   UNL A   1      42.365  21.017  26.525  1.00  0.00     0.039 A 
ATOM     34  C   UNL A   1      42.588  21.887  25.456  1.00  0.00     0.014 A 
ATOM     35  C   UNL A   1      42.634  21.429  27.833  1.00  0.00     0.014 A 
ATOM     36  C   UNL A   1      43.042  23.184  25.704  1.00  0.00     0.010 A 
ATOM     37  C   UNL A   1      42.991  22.749  28.085  1.00  0.00     0.010 A 
ATOM     38  C   UNL A   1      43.228  23.634  27.022  1.00  0.00    -0.014 A 
BRANCH  38  39
ATOM     39  C   UNL A   1      43.727  25.007  27.302  1.00  0.00     0.031 A 
ATOM     40  C   UNL A   1      45.176  25.341  27.056  1.00  0.00     0.074 A 
ATOM     41  C   UNL A   1      42.894  25.939  27.805  1.00  0.00     0.049 A 
ATOM     42  N   UNL A   1      45.812  26.465  27.260  1.00  0.00    -0.248 NA
ATOM     43  C   UNL A   1      46.031  24.258  26.539  1.00  0.00     0.031 C 
ATOM     44  C   UNL A   1      41.482  25.726  28.135  1.00  0.00     0.029 A 
ATOM     45  N   UNL A   1      43.112  27.255  28.128  1.00  0.00    -0.354 N 
ATOM     46  C   UNL A   1      47.136  26.221  26.911  1.00  0.00     0.074 A 
ATOM     47  C   UNL A   1      47.227  24.824  26.551  1.00  0.00     0.031 C 
ATOM     48  C   UNL A   1      40.955  26.877  28.581  1.00  0.00     0.029 A 
ATOM     49  C   UNL A   1      41.995  27.902  28.604  1.00  0.00     0.049 A 
ATOM     50  H   UNL A   1      43.986  27.695  28.029  1.00  0.00     0.167 HD
ATOM     51  C   UNL A   1      48.175  27.088  26.861  1.00  0.00     0.037 A 
ATOM     52  C   UNL A   1      41.828  29.175  29.010  1.00  0.00     0.037 A 
ATOM     53  C   UNL A   1      48.070  28.485  27.192  1.00  0.00     0.049 A 
ATOM     54  C   UNL A   1      42.996  30.124  28.939  1.00  0.00     0.074 A 
ATOM     55  C   UNL A   1      49.050  29.460  27.131  1.00  0.00     0.029 A 
ATOM     56  N   UNL A   1      46.916  29.106  27.646  1.00  0.00    -0.354 N 
ATOM     57  N   UNL A   1      44.228  29.889  28.551  1.00  0.00    -0.248 NA
ATOM     58  C   UNL A   1      42.748  31.514  29.343  1.00  0.00     0.031 C 
ATOM     59  C   UNL A   1      48.501  30.660  27.594  1.00  0.00     0.029 A 
ATOM     60  C   UNL A   1      47.162  30.448  27.881  1.00  0.00     0.049 A 
ATOM     61  H   UNL A   1      46.049  28.659  27.780  1.00  0.00     0.167 HD
ATOM     62  C   UNL A   1      44.889  31.112  28.623  1.00  0.00     0.074 A 
ATOM     63  C   UNL A   1      43.918  32.082  29.087  1.00  0.00     0.031 C 
ATOM     64  C   UNL A   1      46.180  31.406  28.327  1.00  0.00     0.037 A 
BRANCH  51  65
ATOM     65  C   UNL A   1      49.513  26.549  26.428  1.00  0.00     0.058 A 
ATOM     66  C   UNL A   1      49.978  26.694  25.109  1.00  0.00     0.135 A 
ATOM     67  C   UNL A   1      50.356  25.905  27.348  1.00  0.00     0.135 A 
ATOM     68  F   UNL A   1      49.209  27.285  24.181  1.00  0.00    -0.206 F 
ATOM     69  C   UNL A   1      51.212  26.189  24.711  1.00  0.00     0.059 A 
ATOM     70  C   UNL A   1      51.609  25.423  26.980  1.00  0.00     0.059 A 
ATOM     71  F   UNL A   1      49.965  25.738  28.622  1.00  0.00    -0.206 F 
ATOM     72  C   UNL A   1      52.020  25.555  25.656  1.00  0.00     0.060 A 
BRANCH  72  73
ATOM     73  S   UNL A   1      53.621  24.912  25.124  1.00  0.00     0.124 S 
ATOM     74  O   UNL A   1      53.355  23.476  25.073  1.00  0.00    -0.237 OA
ATOM     75  O   UNL A   1      53.808  25.567  23.833  1.00  0.00    -0.237 OA
ATOM     76  O   UNL A   1      54.530  25.343  26.182  1.00  0.00    -0.744 OA
ENDBRANCH  72  73
ENDBRANCH  51  65
BRANCH  52  77
ATOM     77  C   UNL A   1      40.496  29.639  29.486  1.00  0.00     0.058 A 
ATOM     78  C   UNL A   1      40.252  29.867  30.849  1.00  0.00     0.135 A 
ATOM     79  C   UNL A   1      39.441  29.867  28.588  1.00  0.00     0.135 A 
ATOM     80  F   UNL A   1      41.225  29.661  31.748  1.00  0.00    -0.206 F 
ATOM     81  C   UNL A   1      39.004  30.281  31.308  1.00  0.00     0.059 A 
ATOM     82  C   UNL A   1      38.194  30.308  29.020  1.00  0.00     0.059 A 
ATOM     83  F   UNL A   1      39.626  29.681  27.271  1.00  0.00    -0.206 F 
ATOM     84  C   UNL A   1      37.982  30.500  30.384  1.00  0.00     0.060 A 
BRANCH  84  85
ATOM     85  S   UNL A   1      36.379  31.073  30.987  1.00  0.00     0.124 S 
ATOM     86  O   UNL A   1      35.593  31.093  29.760  1.00  0.00    -0.237 OA
ATOM     87  O   UNL A   1      36.029  30.039  31.955  1.00  0.00    -0.237 OA
ATOM     88  O   UNL A   1      36.685  32.380  31.562  1.00  0.00    -0.744 OA
ENDBRANCH  84  85
ENDBRANCH  52  77
BRANCH  64  89
ATOM     89  C   UNL A   1      46.605  32.846  28.427  1.00  0.00     0.058 A 
ATOM     90  C   UNL A   1      47.214  33.368  29.580  1.00  0.00     0.135 A 
ATOM     91  C   UNL A   1      46.431  33.710  27.332  1.00  0.00     0.135 A 
ATOM     92  F   UNL A   1      47.402  32.589  30.656  1.00  0.00    -0.206 F 
ATOM     93  C   UNL A   1      47.597  34.703  29.657  1.00  0.00     0.059 A 
ATOM     94  C   UNL A   1      46.839  35.037  27.374  1.00  0.00     0.059 A 
ATOM     95  F   UNL A   1      45.869  33.259  26.199  1.00  0.00    -0.206 F 
ATOM     96  C   UNL A   1      47.405  35.530  28.549  1.00  0.00     0.060 A 
BRANCH  96  97
ATOM     97  S   UNL A   1      47.917  37.258  28.658  1.00  0.00     0.124 S 
ATOM     98  O   UNL A   1      47.967  37.459  30.103  1.00  0.00    -0.237 OA
ATOM     99  O   UNL A   1      49.207  37.244  27.975  1.00  0.00    -0.237 OA
ATOM    100  O   UNL A   1      46.853  37.973  27.960  1.00  0.00    -0.744 OA
ENDBRANCH  96  97
ENDBRANCH  64  89
ENDBRANCH  38  39
ENDBRANCH  30  33
ENDBRANCH  28  29
ENDBRANCH  27  28
ENDBRANCH   1  27
TORSDOF 17
ENDMDL
MODEL 3
REMARK VINA RESULT:     -11.8      6.555     12.016
REMARK SMILES CC1(C)[C@H](C(=O)Nc2ccccc2C(N)=O)[C@@H]1C(=O)NCCCCNC(=O)c1ccc(-c2c3nc(c(-c4c(F)cc(S(=O)(=O)[O-])cc4F)c4ccc([nH]4)c(-c4c(F)cc(S(=O)(=O)[O-])cc4F)c4nc(c(-c5c(F)cc(S(=O)(=O)[O-])cc5F)c5ccc2[nH]5)C=C4)C=C3)cc1
REMARK SMILES IDX 22 1 21 2 20 3 18 4 19 5 17 7 1 8 2 9 3 10 4 11 5 12 6 13
REMARK SMILES IDX 7 14 8 16 9 17 13 18 10 19 12 20 11 21 14 22 15 23 16 24
REMARK SMILES IDX 23 27 24 28 25 29 26 30 27 32 28 33 29 34 93 35 30 36 92 37
REMARK SMILES IDX 31 38 32 39 33 40 86 41 34 42 91 43 85 44 87 45 35 46 90 47
REMARK SMILES IDX 84 48 83 49 36 51 70 52 49 53 69 54 50 55 53 56 68 57 88 58
REMARK SMILES IDX 51 59 52 60 67 62 89 63 54 64 37 65 38 66 47 67 39 68 40 69
REMARK SMILES IDX 46 70 48 71 41 72 42 73 43 74 44 75 45 76 71 77 72 78 81 79
REMARK SMILES IDX 73 80 74 81 80 82 82 83 75 84 76 85 77 86 78 87 79 88 55 89
REMARK SMILES IDX 56 90 65 91 57 92 58 93 64 94 66 95 59 96 60 97 61 98 62 99
REMARK SMILES IDX 63 100
REMARK H PARENT 20 6 7 15 15 25 15 26 25 31 87 50 53 61
REMARK Flexibility Score: inf
ROOT
ATOM      1  C   UNL A   1      33.582  30.342  26.968  1.00  0.00     0.023 C 
ENDROOT
BRANCH   1   2
ATOM      2  C   UNL A   1      33.827  28.860  27.213  1.00  0.00     0.116 C 
BRANCH   2   3
ATOM      3  N   UNL A   1      32.597  28.140  27.440  1.00  0.00    -0.356 N 
ATOM      4  C   UNL A   1      31.859  27.423  26.547  1.00  0.00     0.224 C 
ATOM      5  O   UNL A   1      30.724  27.082  26.862  1.00  0.00    -0.275 OA
ATOM      6  H   UNL A   1      32.246  28.172  28.359  1.00  0.00     0.163 HD
BRANCH   4   7
ATOM      7  C   UNL A   1      32.395  27.121  25.183  1.00  0.00     0.098 C 
ATOM      8  C   UNL A   1      33.159  28.377  23.001  1.00  0.00     0.013 C 
ATOM      9  C   UNL A   1      32.078  28.101  24.041  1.00  0.00    -0.011 C 
ATOM     10  C   UNL A   1      31.374  29.372  24.431  1.00  0.00     0.013 C 
ATOM     11  C   UNL A   1      31.567  26.676  23.983  1.00  0.00     0.098 C 
BRANCH  11  12
ATOM     12  C   UNL A   1      30.358  25.839  24.186  1.00  0.00     0.228 C 
ATOM     13  O   UNL A   1      29.288  26.453  24.242  1.00  0.00    -0.274 OA
ATOM     14  N   UNL A   1      30.261  24.480  24.156  1.00  0.00    -0.325 N 
ATOM     15  H   UNL A   1      29.337  24.149  24.077  1.00  0.00     0.169 HD
BRANCH  14  16
ATOM     16  C   UNL A   1      31.216  23.475  24.214  1.00  0.00     0.053 A 
ATOM     17  C   UNL A   1      31.755  23.107  22.973  1.00  0.00     0.027 A 
ATOM     18  C   UNL A   1      31.631  22.828  25.387  1.00  0.00     0.063 A 
ATOM     19  C   UNL A   1      32.818  22.215  22.905  1.00  0.00     0.002 A 
ATOM     20  C   UNL A   1      32.694  21.912  25.303  1.00  0.00     0.016 A 
ATOM     21  C   UNL A   1      33.306  21.638  24.074  1.00  0.00     0.001 A 
BRANCH  18  22
ATOM     22  C   UNL A   1      30.909  23.032  26.678  1.00  0.00     0.250 C 
ATOM     23  N   UNL A   1      29.687  22.436  26.831  1.00  0.00    -0.366 N 
ATOM     24  O   UNL A   1      31.366  23.703  27.595  1.00  0.00    -0.269 OA
ATOM     25  H   UNL A   1      29.309  21.894  26.101  1.00  0.00     0.159 HD
ATOM     26  H   UNL A   1      29.186  22.547  27.671  1.00  0.00     0.159 HD
ENDBRANCH  18  22
ENDBRANCH  14  16
ENDBRANCH  11  12
ENDBRANCH   4   7
ENDBRANCH   2   3
ENDBRANCH   1   2
BRANCH   1  27
ATOM     27  C   UNL A   1      34.240  31.278  27.983  1.00  0.00     0.023 C 
BRANCH  27  28
ATOM     28  C   UNL A   1      35.561  30.790  28.567  1.00  0.00     0.116 C 
BRANCH  28  29
ATOM     29  N   UNL A   1      35.549  30.725  30.018  1.00  0.00    -0.352 N 
ATOM     30  C   UNL A   1      36.493  30.219  30.878  1.00  0.00     0.251 C 
ATOM     31  H   UNL A   1      34.745  31.097  30.449  1.00  0.00     0.163 HD
ATOM     32  O   UNL A   1      36.227  30.085  32.068  1.00  0.00    -0.269 OA
BRANCH  30  33
ATOM     33  C   UNL A   1      37.822  29.821  30.364  1.00  0.00     0.039 A 
ATOM     34  C   UNL A   1      38.069  29.903  28.992  1.00  0.00     0.014 A 
ATOM     35  C   UNL A   1      38.817  29.358  31.229  1.00  0.00     0.014 A 
ATOM     36  C   UNL A   1      39.327  29.560  28.494  1.00  0.00     0.010 A 
ATOM     37  C   UNL A   1      40.098  29.111  30.745  1.00  0.00     0.010 A 
ATOM     38  C   UNL A   1      40.360  29.181  29.368  1.00  0.00    -0.014 A 
BRANCH  38  39
ATOM     39  C   UNL A   1      41.701  28.798  28.852  1.00  0.00     0.031 A 
ATOM     40  C   UNL A   1      42.791  29.834  28.757  1.00  0.00     0.074 A 
ATOM     41  C   UNL A   1      41.930  27.535  28.440  1.00  0.00     0.049 A 
ATOM     42  N   UNL A   1      44.014  29.710  28.310  1.00  0.00    -0.248 NA
ATOM     43  C   UNL A   1      42.452  31.200  29.192  1.00  0.00     0.031 C 
ATOM     44  C   UNL A   1      40.942  26.452  28.434  1.00  0.00     0.029 A 
ATOM     45  N   UNL A   1      43.067  26.946  27.945  1.00  0.00    -0.354 N 
ATOM     46  C   UNL A   1      44.582  30.977  28.400  1.00  0.00     0.074 A 
ATOM     47  C   UNL A   1      43.548  31.870  28.875  1.00  0.00     0.031 C 
ATOM     48  C   UNL A   1      41.525  25.327  27.991  1.00  0.00     0.029 A 
ATOM     49  C   UNL A   1      42.916  25.612  27.648  1.00  0.00     0.049 A 
ATOM     50  H   UNL A   1      43.911  27.434  27.815  1.00  0.00     0.167 HD
ATOM     51  C   UNL A   1      45.856  31.357  28.144  1.00  0.00     0.037 A 
ATOM     52  C   UNL A   1      43.797  24.720  27.156  1.00  0.00     0.037 A 
ATOM     53  C   UNL A   1      46.887  30.456  27.700  1.00  0.00     0.049 A 
ATOM     54  C   UNL A   1      45.211  25.163  26.886  1.00  0.00     0.074 A 
ATOM     55  C   UNL A   1      48.222  30.729  27.456  1.00  0.00     0.029 A 
ATOM     56  N   UNL A   1      46.700  29.107  27.435  1.00  0.00    -0.354 N 
ATOM     57  N   UNL A   1      45.746  26.354  27.032  1.00  0.00    -0.248 NA
ATOM     58  C   UNL A   1      46.147  24.140  26.401  1.00  0.00     0.031 C 
ATOM     59  C   UNL A   1      48.830  29.556  26.997  1.00  0.00     0.029 A 
ATOM     60  C   UNL A   1      47.890  28.537  27.017  1.00  0.00     0.049 A 
ATOM     61  H   UNL A   1      45.846  28.626  27.530  1.00  0.00     0.167 HD
ATOM     62  C   UNL A   1      47.089  26.211  26.699  1.00  0.00     0.074 A 
ATOM     63  C   UNL A   1      47.285  24.819  26.350  1.00  0.00     0.031 C 
ATOM     64  C   UNL A   1      48.073  27.145  26.689  1.00  0.00     0.037 A 
BRANCH  51  65
ATOM     65  C   UNL A   1      46.204  32.809  28.343  1.00  0.00     0.058 A 
ATOM     66  C   UNL A   1      46.075  33.749  27.307  1.00  0.00     0.135 A 
ATOM     67  C   UNL A   1      46.647  33.272  29.593  1.00  0.00     0.135 A 
ATOM     68  F   UNL A   1      45.674  33.361  26.086  1.00  0.00    -0.206 F 
ATOM     69  C   UNL A   1      46.404  35.088  27.493  1.00  0.00     0.059 A 
ATOM     70  C   UNL A   1      46.949  34.614  29.810  1.00  0.00     0.059 A 
ATOM     71  F   UNL A   1      46.790  32.419  30.619  1.00  0.00    -0.206 F 
ATOM     72  C   UNL A   1      46.840  35.511  28.749  1.00  0.00     0.060 A 
BRANCH  72  73
ATOM     73  S   UNL A   1      47.257  37.252  28.975  1.00  0.00     0.124 S 
ATOM     74  O   UNL A   1      45.995  37.901  28.630  1.00  0.00    -0.237 OA
ATOM     75  O   UNL A   1      47.631  37.303  30.386  1.00  0.00    -0.237 OA
ATOM     76  O   UNL A   1      48.350  37.466  28.032  1.00  0.00    -0.744 OA
ENDBRANCH  72  73
ENDBRANCH  51  65
BRANCH  52  77
ATOM     77  C   UNL A   1      43.382  23.310  26.923  1.00  0.00     0.058 A 
ATOM     78  C   UNL A   1      43.195  22.422  27.993  1.00  0.00     0.135 A 
ATOM     79  C   UNL A   1      43.161  22.821  25.625  1.00  0.00     0.135 A 
ATOM     80  F   UNL A   1      43.397  22.838  29.252  1.00  0.00    -0.206 F 
ATOM     81  C   UNL A   1      42.827  21.096  27.786  1.00  0.00     0.059 A 
ATOM     82  C   UNL A   1      42.765  21.507  25.395  1.00  0.00     0.059 A 
ATOM     83  F   UNL A   1      43.309  23.633  24.566  1.00  0.00    -0.206 F 
ATOM     84  C   UNL A   1      42.613  20.648  26.482  1.00  0.00     0.060 A 
BRANCH  84  85
ATOM     85  S   UNL A   1      42.099  18.936  26.228  1.00  0.00     0.124 S 
ATOM     86  O   UNL A   1      40.719  19.105  25.790  1.00  0.00    -0.237 OA
ATOM     87  O   UNL A   1      43.041  18.481  25.211  1.00  0.00    -0.237 OA
ATOM     88  O   UNL A   1      42.274  18.334  27.547  1.00  0.00    -0.744 OA
ENDBRANCH  84  85
ENDBRANCH  52  77
BRANCH  64  89
ATOM     89  C   UNL A   1      49.466  26.684  26.355  1.00  0.00     0.058 A 
ATOM     90  C   UNL A   1      50.304  26.081  27.307  1.00  0.00     0.135 A 
ATOM     91  C   UNL A   1      49.956  26.816  25.045  1.00  0.00     0.135 A 
ATOM     92  F   UNL A   1      49.888  25.932  28.575  1.00  0.00    -0.206 F 
ATOM     93  C   UNL A   1      51.590  25.663  26.982  1.00  0.00     0.059 A 
ATOM     94  C   UNL A   1      51.225  26.373  24.689  1.00  0.00     0.059 A 
ATOM     95  F   UNL A   1      49.192  27.370  24.090  1.00  0.00    -0.206 F 
ATOM     96  C   UNL A   1      52.042  25.814  25.670  1.00  0.00     0.060 A 
BRANCH  96  97
ATOM     97  S   UNL A   1      53.709  25.258  25.258  1.00  0.00     0.124 S 
ATOM     98  O   UNL A   1      53.806  25.639  23.852  1.00  0.00    -0.237 OA
ATOM     99  O   UNL A   1      54.533  26.031  26.183  1.00  0.00    -0.237 OA
ATOM    100  O   UNL A   1      53.664  23.823  25.519  1.00  0.00    -0.744 OA
ENDBRANCH  96  97
ENDBRANCH  64  89
ENDBRANCH  38  39
ENDBRANCH  30  33
ENDBRANCH  28  29
ENDBRANCH  27  28
ENDBRANCH   1  27
TORSDOF 17
ENDMDL
