MODEL 1
REMARK VINA RESULT:     -11.3      0.000      0.000
REMARK SMILES N#C[C@@]1([C@@H](O)C(=O)NCCCCNC(=O)c2ccc(-c3c4nc(c(-c5c(F)cc(S(=O)(=O)[O-])cc5F)c5ccc([nH]5)c(-c5c(F)cc(S(=O)(=O)[O-])cc5F)c5nc(c(-c6c(F)cc(S(=O)(=O)[O-])cc6F)c6ccc3[nH]6)C=C5)C=C4)cc2)CCCc2ccccc21
REMARK SMILES IDX 11 1 10 2 9 3 8 4 6 5 7 6 4 8 3 9 82 10 90 11 83 12 85 13
REMARK SMILES IDX 89 14 84 15 86 16 88 17 87 18 2 19 1 20 5 21 12 23 13 24
REMARK SMILES IDX 14 25 15 27 16 28 17 29 81 30 18 31 80 32 19 33 20 34 21 35
REMARK SMILES IDX 74 36 22 37 79 38 73 39 75 40 23 41 78 42 72 43 71 44 24 46
REMARK SMILES IDX 58 47 37 48 57 49 38 50 41 51 56 52 76 53 39 54 40 55 55 57
REMARK SMILES IDX 77 58 42 59 25 60 26 61 35 62 27 63 28 64 34 65 36 66 29 67
REMARK SMILES IDX 30 68 31 69 32 70 33 71 59 72 60 73 69 74 61 75 62 76 68 77
REMARK SMILES IDX 70 78 63 79 64 80 65 81 66 82 67 83 43 84 44 85 53 86 45 87
REMARK SMILES IDX 46 88 52 89 54 90 47 91 48 92 49 93 50 94 51 95
REMARK H PARENT 8 7 5 22 13 26 75 45 41 56
REMARK Flexibility Score: inf
ROOT
ATOM      1  C   UNL A   1      32.692  28.224  27.251  1.00  0.00     0.023 C 
ENDROOT
BRANCH   1   2
ATOM      2  C   UNL A   1      31.587  28.849  26.431  1.00  0.00     0.023 C 
BRANCH   2   3
ATOM      3  C   UNL A   1      32.033  29.809  25.318  1.00  0.00     0.116 C 
BRANCH   3   4
ATOM      4  N   UNL A   1      31.284  29.669  24.078  1.00  0.00    -0.354 N 
ATOM      5  C   UNL A   1      31.428  28.801  23.027  1.00  0.00     0.250 C 
ATOM      6  O   UNL A   1      30.578  28.853  22.132  1.00  0.00    -0.272 OA
ATOM      7  H   UNL A   1      30.544  30.312  23.975  1.00  0.00     0.163 HD
BRANCH   5   8
ATOM      8  C   UNL A   1      32.596  27.795  22.927  1.00  0.00     0.227 C 
BRANCH   8   9
ATOM      9  C   UNL A   1      32.287  26.250  23.022  1.00  0.00     0.117 C 
ATOM     10  C   UNL A   1      30.803  25.855  23.065  1.00  0.00     0.031 C 
ATOM     11  C   UNL A   1      32.953  25.554  24.229  1.00  0.00    -0.021 A 
ATOM     12  C   UNL A   1      30.121  26.184  24.393  1.00  0.00     0.007 C 
ATOM     13  C   UNL A   1      32.198  25.106  25.342  1.00  0.00    -0.043 A 
ATOM     14  C   UNL A   1      34.319  25.211  24.171  1.00  0.00     0.006 A 
ATOM     15  C   UNL A   1      30.712  25.330  25.494  1.00  0.00     0.036 C 
ATOM     16  C   UNL A   1      32.805  24.302  26.320  1.00  0.00     0.004 A 
ATOM     17  C   UNL A   1      34.894  24.384  25.135  1.00  0.00     0.000 A 
ATOM     18  C   UNL A   1      34.137  23.925  26.205  1.00  0.00     0.000 A 
BRANCH   9  19
ATOM     19  C   UNL A   1      32.801  25.630  21.748  1.00  0.00     0.077 C 
ATOM     20  N   UNL A   1      33.183  25.149  20.767  1.00  0.00    -0.197 NA
ENDBRANCH   9  19
ENDBRANCH   8   9
BRANCH   8  21
ATOM     21  O   UNL A   1      33.353  28.146  21.752  1.00  0.00    -0.381 OA
ATOM     22  H   UNL A   1      33.563  29.093  21.773  1.00  0.00     0.211 HD
ENDBRANCH   8  21
ENDBRANCH   5   8
ENDBRANCH   3   4
ENDBRANCH   2   3
ENDBRANCH   1   2
BRANCH   1  23
ATOM     23  C   UNL A   1      33.997  28.959  27.100  1.00  0.00     0.116 C 
BRANCH  23  24
ATOM     24  N   UNL A   1      34.011  30.222  27.840  1.00  0.00    -0.352 N 
ATOM     25  C   UNL A   1      35.004  30.742  28.637  1.00  0.00     0.251 C 
ATOM     26  H   UNL A   1      33.199  30.774  27.757  1.00  0.00     0.163 HD
ATOM     27  O   UNL A   1      34.796  31.712  29.355  1.00  0.00    -0.269 OA
BRANCH  25  28
ATOM     28  C   UNL A   1      36.313  30.069  28.614  1.00  0.00     0.039 A 
ATOM     29  C   UNL A   1      36.771  29.481  29.791  1.00  0.00     0.014 A 
ATOM     30  C   UNL A   1      37.134  30.167  27.492  1.00  0.00     0.014 A 
ATOM     31  C   UNL A   1      38.123  29.251  29.935  1.00  0.00     0.010 A 
ATOM     32  C   UNL A   1      38.463  29.753  27.591  1.00  0.00     0.010 A 
ATOM     33  C   UNL A   1      38.983  29.350  28.831  1.00  0.00    -0.014 A 
BRANCH  33  34
ATOM     34  C   UNL A   1      40.410  28.987  29.016  1.00  0.00     0.031 A 
ATOM     35  C   UNL A   1      40.931  27.634  28.618  1.00  0.00     0.074 A 
ATOM     36  C   UNL A   1      41.246  29.936  29.487  1.00  0.00     0.049 A 
ATOM     37  N   UNL A   1      42.148  27.166  28.721  1.00  0.00    -0.248 NA
ATOM     38  C   UNL A   1      39.973  26.677  28.039  1.00  0.00     0.031 C 
ATOM     39  C   UNL A   1      40.845  31.292  29.881  1.00  0.00     0.029 A 
ATOM     40  N   UNL A   1      42.601  29.928  29.678  1.00  0.00    -0.354 N 
ATOM     41  C   UNL A   1      42.099  25.861  28.246  1.00  0.00     0.074 A 
ATOM     42  C   UNL A   1      40.725  25.596  27.884  1.00  0.00     0.031 C 
ATOM     43  C   UNL A   1      41.934  32.006  30.186  1.00  0.00     0.029 A 
ATOM     44  C   UNL A   1      43.096  31.131  30.124  1.00  0.00     0.049 A 
ATOM     45  H   UNL A   1      43.166  29.140  29.514  1.00  0.00     0.167 HD
ATOM     46  C   UNL A   1      43.114  24.974  28.115  1.00  0.00     0.037 A 
ATOM     47  C   UNL A   1      44.343  31.489  30.478  1.00  0.00     0.037 A 
ATOM     48  C   UNL A   1      44.482  25.268  28.463  1.00  0.00     0.049 A 
ATOM     49  C   UNL A   1      45.432  30.465  30.387  1.00  0.00     0.074 A 
ATOM     50  C   UNL A   1      45.589  24.442  28.359  1.00  0.00     0.029 A 
ATOM     51  N   UNL A   1      44.933  26.476  28.977  1.00  0.00    -0.354 N 
ATOM     52  N   UNL A   1      45.366  29.232  29.943  1.00  0.00    -0.248 NA
ATOM     53  C   UNL A   1      46.762  30.870  30.855  1.00  0.00     0.031 C 
ATOM     54  C   UNL A   1      46.695  25.129  28.867  1.00  0.00     0.029 A 
ATOM     55  C   UNL A   1      46.295  26.407  29.223  1.00  0.00     0.049 A 
ATOM     56  H   UNL A   1      44.368  27.264  29.142  1.00  0.00     0.167 HD
ATOM     57  C   UNL A   1      46.650  28.719  30.059  1.00  0.00     0.074 A 
ATOM     58  C   UNL A   1      47.477  29.782  30.597  1.00  0.00     0.031 C 
ATOM     59  C   UNL A   1      47.102  27.479  29.752  1.00  0.00     0.037 A 
BRANCH  46  60
ATOM     60  C   UNL A   1      42.799  23.600  27.584  1.00  0.00     0.058 A 
ATOM     61  C   UNL A   1      42.806  23.317  26.210  1.00  0.00     0.135 A 
ATOM     62  C   UNL A   1      42.561  22.534  28.468  1.00  0.00     0.135 A 
ATOM     63  F   UNL A   1      43.011  24.300  25.317  1.00  0.00    -0.206 F 
ATOM     64  C   UNL A   1      42.577  22.032  25.729  1.00  0.00     0.059 A 
ATOM     65  C   UNL A   1      42.359  21.234  28.011  1.00  0.00     0.059 A 
ATOM     66  F   UNL A   1      42.540  22.745  29.794  1.00  0.00    -0.206 F 
ATOM     67  C   UNL A   1      42.361  20.995  26.639  1.00  0.00     0.060 A 
BRANCH  67  68
ATOM     68  S   UNL A   1      42.087  19.331  25.994  1.00  0.00     0.124 S 
ATOM     69  O   UNL A   1      40.646  19.343  25.758  1.00  0.00    -0.237 OA
ATOM     70  O   UNL A   1      42.923  19.322  24.798  1.00  0.00    -0.237 OA
ATOM     71  O   UNL A   1      42.536  18.464  27.079  1.00  0.00    -0.744 OA
ENDBRANCH  67  68
ENDBRANCH  46  60
BRANCH  47  72
ATOM     72  C   UNL A   1      44.602  32.870  30.963  1.00  0.00     0.058 A 
ATOM     73  C   UNL A   1      44.967  33.889  30.073  1.00  0.00     0.135 A 
ATOM     74  C   UNL A   1      44.445  33.210  32.318  1.00  0.00     0.135 A 
ATOM     75  F   UNL A   1      45.130  33.615  28.769  1.00  0.00    -0.206 F 
ATOM     76  C   UNL A   1      45.179  35.193  30.508  1.00  0.00     0.059 A 
ATOM     77  C   UNL A   1      44.616  34.513  32.771  1.00  0.00     0.059 A 
ATOM     78  F   UNL A   1      44.076  32.276  33.209  1.00  0.00    -0.206 F 
ATOM     79  C   UNL A   1      44.994  35.496  31.859  1.00  0.00     0.060 A 
BRANCH  79  80
ATOM     80  S   UNL A   1      45.228  37.202  32.399  1.00  0.00     0.124 S 
ATOM     81  O   UNL A   1      45.555  37.864  31.141  1.00  0.00    -0.237 OA
ATOM     82  O   UNL A   1      43.924  37.520  32.970  1.00  0.00    -0.237 OA
ATOM     83  O   UNL A   1      46.321  37.103  33.363  1.00  0.00    -0.744 OA
ENDBRANCH  79  80
ENDBRANCH  47  72
BRANCH  59  84
ATOM     84  C   UNL A   1      48.565  27.204  29.961  1.00  0.00     0.058 A 
ATOM     85  C   UNL A   1      49.505  27.402  28.937  1.00  0.00     0.135 A 
ATOM     86  C   UNL A   1      49.041  26.813  31.223  1.00  0.00     0.135 A 
ATOM     87  F   UNL A   1      49.101  27.764  27.709  1.00  0.00    -0.206 F 
ATOM     88  C   UNL A   1      50.864  27.210  29.154  1.00  0.00     0.059 A 
ATOM     89  C   UNL A   1      50.399  26.649  31.471  1.00  0.00     0.059 A 
ATOM     90  F   UNL A   1      48.184  26.618  32.237  1.00  0.00    -0.206 F 
ATOM     91  C   UNL A   1      51.302  26.843  30.428  1.00  0.00     0.060 A 
BRANCH  91  92
ATOM     92  S   UNL A   1      53.075  26.654  30.705  1.00  0.00     0.124 S 
ATOM     93  O   UNL A   1      53.564  26.441  29.347  1.00  0.00    -0.237 OA
ATOM     94  O   UNL A   1      53.430  27.931  31.314  1.00  0.00    -0.237 OA
ATOM     95  O   UNL A   1      53.162  25.497  31.590  1.00  0.00    -0.744 OA
ENDBRANCH  91  92
ENDBRANCH  59  84
ENDBRANCH  33  34
ENDBRANCH  25  28
ENDBRANCH  23  24
ENDBRANCH   1  23
TORSDOF 17
ENDMDL
MODEL 2
REMARK VINA RESULT:     -11.3      2.911      5.900
REMARK SMILES N#C[C@@]1([C@@H](O)C(=O)NCCCCNC(=O)c2ccc(-c3c4nc(c(-c5c(F)cc(S(=O)(=O)[O-])cc5F)c5ccc([nH]5)c(-c5c(F)cc(S(=O)(=O)[O-])cc5F)c5nc(c(-c6c(F)cc(S(=O)(=O)[O-])cc6F)c6ccc3[nH]6)C=C5)C=C4)cc2)CCCc2ccccc21
REMARK SMILES IDX 11 1 10 2 9 3 8 4 6 5 7 6 4 8 3 9 82 10 90 11 83 12 85 13
REMARK SMILES IDX 89 14 84 15 86 16 88 17 87 18 2 19 1 20 5 21 12 23 13 24
REMARK SMILES IDX 14 25 15 27 16 28 17 29 81 30 18 31 80 32 19 33 20 34 21 35
REMARK SMILES IDX 74 36 22 37 79 38 73 39 75 40 23 41 78 42 72 43 71 44 24 46
REMARK SMILES IDX 58 47 37 48 57 49 38 50 41 51 56 52 76 53 39 54 40 55 55 57
REMARK SMILES IDX 77 58 42 59 25 60 26 61 35 62 27 63 28 64 34 65 36 66 29 67
REMARK SMILES IDX 30 68 31 69 32 70 33 71 59 72 60 73 69 74 61 75 62 76 68 77
REMARK SMILES IDX 70 78 63 79 64 80 65 81 66 82 67 83 43 84 44 85 53 86 45 87
REMARK SMILES IDX 46 88 52 89 54 90 47 91 48 92 49 93 50 94 51 95
REMARK H PARENT 8 7 5 22 13 26 75 45 41 56
REMARK Flexibility Score: inf
ROOT
ATOM      1  C   UNL A   1      33.497  33.395  28.020  1.00  0.00     0.023 C 
ENDROOT
BRANCH   1   2
ATOM      2  C   UNL A   1      33.633  34.399  29.142  1.00  0.00     0.023 C 
BRANCH   2   3
ATOM      3  C   UNL A   1      33.958  33.822  30.528  1.00  0.00     0.116 C 
BRANCH   3   4
ATOM      4  N   UNL A   1      34.320  34.826  31.518  1.00  0.00    -0.354 N 
ATOM      5  C   UNL A   1      34.990  34.720  32.709  1.00  0.00     0.250 C 
ATOM      6  O   UNL A   1      35.238  35.770  33.312  1.00  0.00    -0.272 OA
ATOM      7  H   UNL A   1      34.031  35.740  31.295  1.00  0.00     0.163 HD
BRANCH   5   8
ATOM      8  C   UNL A   1      35.422  33.364  33.309  1.00  0.00     0.227 C 
BRANCH   8   9
ATOM      9  C   UNL A   1      36.867  32.812  32.994  1.00  0.00     0.117 C 
ATOM     10  C   UNL A   1      37.917  32.988  34.103  1.00  0.00     0.031 C 
ATOM     11  C   UNL A   1      37.494  33.400  31.711  1.00  0.00    -0.021 A 
ATOM     12  C   UNL A   1      38.388  34.431  34.276  1.00  0.00     0.007 C 
ATOM     13  C   UNL A   1      38.570  34.322  31.760  1.00  0.00    -0.043 A 
ATOM     14  C   UNL A   1      37.102  32.903  30.452  1.00  0.00     0.006 A 
ATOM     15  C   UNL A   1      39.147  34.871  33.043  1.00  0.00     0.036 C 
ATOM     16  C   UNL A   1      39.242  34.676  30.580  1.00  0.00     0.004 A 
ATOM     17  C   UNL A   1      37.803  33.241  29.295  1.00  0.00     0.000 A 
ATOM     18  C   UNL A   1      38.876  34.121  29.360  1.00  0.00     0.000 A 
BRANCH   9  19
ATOM     19  C   UNL A   1      36.733  31.319  32.840  1.00  0.00     0.077 C 
ATOM     20  N   UNL A   1      36.621  30.173  32.732  1.00  0.00    -0.197 NA
ENDBRANCH   9  19
ENDBRANCH   8   9
BRANCH   8  21
ATOM     21  O   UNL A   1      35.137  33.418  34.721  1.00  0.00    -0.381 OA
ATOM     22  H   UNL A   1      34.214  33.160  34.875  1.00  0.00     0.211 HD
ENDBRANCH   8  21
ENDBRANCH   5   8
ENDBRANCH   3   4
ENDBRANCH   2   3
ENDBRANCH   1   2
BRANCH   1  23
ATOM     23  C   UNL A   1      34.571  32.341  28.067  1.00  0.00     0.116 C 
BRANCH  23  24
ATOM     24  N   UNL A   1      34.050  31.005  27.773  1.00  0.00    -0.352 N 
ATOM     25  C   UNL A   1      34.729  29.810  27.718  1.00  0.00     0.251 C 
ATOM     26  H   UNL A   1      33.084  30.954  27.590  1.00  0.00     0.163 HD
ATOM     27  O   UNL A   1      34.201  28.803  27.261  1.00  0.00    -0.269 OA
BRANCH  25  28
ATOM     28  C   UNL A   1      36.120  29.797  28.199  1.00  0.00     0.039 A 
ATOM     29  C   UNL A   1      37.131  30.122  27.298  1.00  0.00     0.014 A 
ATOM     30  C   UNL A   1      36.418  29.314  29.472  1.00  0.00     0.014 A 
ATOM     31  C   UNL A   1      38.417  29.698  27.563  1.00  0.00     0.010 A 
ATOM     32  C   UNL A   1      37.751  29.064  29.803  1.00  0.00     0.010 A 
ATOM     33  C   UNL A   1      38.754  29.197  28.829  1.00  0.00    -0.014 A 
BRANCH  33  34
ATOM     34  C   UNL A   1      40.173  28.857  29.097  1.00  0.00     0.031 A 
ATOM     35  C   UNL A   1      40.749  27.529  28.692  1.00  0.00     0.074 A 
ATOM     36  C   UNL A   1      40.955  29.806  29.653  1.00  0.00     0.049 A 
ATOM     37  N   UNL A   1      41.967  27.082  28.861  1.00  0.00    -0.248 NA
ATOM     38  C   UNL A   1      39.852  26.572  28.021  1.00  0.00     0.031 C 
ATOM     39  C   UNL A   1      40.499  31.140  30.062  1.00  0.00     0.029 A 
ATOM     40  N   UNL A   1      42.295  29.820  29.933  1.00  0.00    -0.354 N 
ATOM     41  C   UNL A   1      41.978  25.792  28.343  1.00  0.00     0.074 A 
ATOM     42  C   UNL A   1      40.636  25.512  27.882  1.00  0.00     0.031 C 
ATOM     43  C   UNL A   1      41.550  31.865  30.461  1.00  0.00     0.029 A 
ATOM     44  C   UNL A   1      42.732  31.017  30.448  1.00  0.00     0.049 A 
ATOM     45  H   UNL A   1      42.886  29.048  29.782  1.00  0.00     0.167 HD
ATOM     46  C   UNL A   1      43.019  24.931  28.251  1.00  0.00     0.037 A 
ATOM     47  C   UNL A   1      43.945  31.387  30.896  1.00  0.00     0.037 A 
ATOM     48  C   UNL A   1      44.354  25.240  28.698  1.00  0.00     0.049 A 
ATOM     49  C   UNL A   1      45.060  30.389  30.845  1.00  0.00     0.074 A 
ATOM     50  C   UNL A   1      45.483  24.441  28.643  1.00  0.00     0.029 A 
ATOM     51  N   UNL A   1      44.743  26.439  29.280  1.00  0.00    -0.354 N 
ATOM     52  N   UNL A   1      45.051  29.170  30.359  1.00  0.00    -0.248 NA
ATOM     53  C   UNL A   1      46.347  30.804  31.413  1.00  0.00     0.031 C 
ATOM     54  C   UNL A   1      46.538  25.132  29.244  1.00  0.00     0.029 A 
ATOM     55  C   UNL A   1      46.087  26.390  29.613  1.00  0.00     0.049 A 
ATOM     56  H   UNL A   1      44.151  27.210  29.432  1.00  0.00     0.167 HD
ATOM     57  C   UNL A   1      46.335  28.679  30.544  1.00  0.00     0.074 A 
ATOM     58  C   UNL A   1      47.101  29.740  31.169  1.00  0.00     0.031 C 
ATOM     59  C   UNL A   1      46.834  27.459  30.229  1.00  0.00     0.037 A 
BRANCH  46  60
ATOM     60  C   UNL A   1      42.769  23.569  27.658  1.00  0.00     0.058 A 
ATOM     61  C   UNL A   1      42.926  23.319  26.286  1.00  0.00     0.135 A 
ATOM     62  C   UNL A   1      42.443  22.481  28.485  1.00  0.00     0.135 A 
ATOM     63  F   UNL A   1      43.221  24.323  25.444  1.00  0.00    -0.206 F 
ATOM     64  C   UNL A   1      42.757  22.045  25.754  1.00  0.00     0.059 A 
ATOM     65  C   UNL A   1      42.299  21.192  27.980  1.00  0.00     0.059 A 
ATOM     66  F   UNL A   1      42.279  22.661  29.806  1.00  0.00    -0.206 F 
ATOM     67  C   UNL A   1      42.449  20.986  26.610  1.00  0.00     0.060 A 
BRANCH  67  68
ATOM     68  S   UNL A   1      42.255  19.337  25.900  1.00  0.00     0.124 S 
ATOM     69  O   UNL A   1      40.815  19.289  25.664  1.00  0.00    -0.237 OA
ATOM     70  O   UNL A   1      43.089  19.415  24.706  1.00  0.00    -0.237 OA
ATOM     71  O   UNL A   1      42.747  18.451  26.951  1.00  0.00    -0.744 OA
ENDBRANCH  67  68
ENDBRANCH  46  60
BRANCH  47  72
ATOM     72  C   UNL A   1      44.141  32.757  31.441  1.00  0.00     0.058 A 
ATOM     73  C   UNL A   1      43.996  33.014  32.811  1.00  0.00     0.135 A 
ATOM     74  C   UNL A   1      44.524  33.825  30.611  1.00  0.00     0.135 A 
ATOM     75  F   UNL A   1      43.632  32.028  33.644  1.00  0.00    -0.206 F 
ATOM     76  C   UNL A   1      44.210  34.283  33.338  1.00  0.00     0.059 A 
ATOM     77  C   UNL A   1      44.779  35.092  31.120  1.00  0.00     0.059 A 
ATOM     78  F   UNL A   1      44.699  33.627  29.295  1.00  0.00    -0.206 F 
ATOM     79  C   UNL A   1      44.609  35.314  32.485  1.00  0.00     0.060 A 
BRANCH  79  80
ATOM     80  S   UNL A   1      44.927  36.943  33.192  1.00  0.00     0.124 S 
ATOM     81  O   UNL A   1      46.376  37.046  33.049  1.00  0.00    -0.237 OA
ATOM     82  O   UNL A   1      44.136  37.809  32.324  1.00  0.00    -0.237 OA
ATOM     83  O   UNL A   1      44.436  36.819  34.561  1.00  0.00    -0.744 OA
ENDBRANCH  79  80
ENDBRANCH  47  72
BRANCH  59  84
ATOM     84  C   UNL A   1      48.286  27.206  30.525  1.00  0.00     0.058 A 
ATOM     85  C   UNL A   1      48.711  26.744  31.780  1.00  0.00     0.135 A 
ATOM     86  C   UNL A   1      49.252  27.353  29.517  1.00  0.00     0.135 A 
ATOM     87  F   UNL A   1      47.829  26.597  32.782  1.00  0.00    -0.206 F 
ATOM     88  C   UNL A   1      50.046  26.448  32.029  1.00  0.00     0.059 A 
ATOM     89  C   UNL A   1      50.587  27.030  29.733  1.00  0.00     0.059 A 
ATOM     90  F   UNL A   1      48.896  27.785  28.297  1.00  0.00    -0.206 F 
ATOM     91  C   UNL A   1      50.975  26.584  30.995  1.00  0.00     0.060 A 
BRANCH  91  92
ATOM     92  S   UNL A   1      52.694  26.141  31.321  1.00  0.00     0.124 S 
ATOM     93  O   UNL A   1      52.549  24.814  31.910  1.00  0.00    -0.237 OA
ATOM     94  O   UNL A   1      53.281  26.182  29.986  1.00  0.00    -0.237 OA
ATOM     95  O   UNL A   1      53.149  27.184  32.234  1.00  0.00    -0.744 OA
ENDBRANCH  91  92
ENDBRANCH  59  84
ENDBRANCH  33  34
ENDBRANCH  25  28
ENDBRANCH  23  24
ENDBRANCH   1  23
TORSDOF 17
ENDMDL
MODEL 3
REMARK VINA RESULT:     -11.1      5.502     10.175
REMARK SMILES N#C[C@@]1([C@@H](O)C(=O)NCCCCNC(=O)c2ccc(-c3c4nc(c(-c5c(F)cc(S(=O)(=O)[O-])cc5F)c5ccc([nH]5)c(-c5c(F)cc(S(=O)(=O)[O-])cc5F)c5nc(c(-c6c(F)cc(S(=O)(=O)[O-])cc6F)c6ccc3[nH]6)C=C5)C=C4)cc2)CCCc2ccccc21
REMARK SMILES IDX 11 1 10 2 9 3 8 4 6 5 7 6 4 8 3 9 82 10 90 11 83 12 85 13
REMARK SMILES IDX 89 14 84 15 86 16 88 17 87 18 2 19 1 20 5 21 12 23 13 24
REMARK SMILES IDX 14 25 15 27 16 28 17 29 81 30 18 31 80 32 19 33 20 34 21 35
REMARK SMILES IDX 74 36 22 37 79 38 73 39 75 40 23 41 78 42 72 43 71 44 24 46
REMARK SMILES IDX 58 47 37 48 57 49 38 50 41 51 56 52 76 53 39 54 40 55 55 57
REMARK SMILES IDX 77 58 42 59 25 60 26 61 35 62 27 63 28 64 34 65 36 66 29 67
REMARK SMILES IDX 30 68 31 69 32 70 33 71 59 72 60 73 69 74 61 75 62 76 68 77
REMARK SMILES IDX 70 78 63 79 64 80 65 81 66 82 67 83 43 84 44 85 53 86 45 87
REMARK SMILES IDX 46 88 52 89 54 90 47 91 48 92 49 93 50 94 51 95
REMARK H PARENT 8 7 5 22 13 26 75 45 41 56
REMARK Flexibility Score: inf
ROOT
ATOM      1  C   UNL A   1      37.421  23.454  25.364  1.00  0.00     0.023 C 
ENDROOT
BRANCH   1   2
ATOM      2  C   UNL A   1      37.325  21.958  25.562  1.00  0.00     0.023 C 
BRANCH   2   3
ATOM      3  C   UNL A   1      36.324  21.221  24.661  1.00  0.00     0.116 C 
BRANCH   3   4
ATOM      4  N   UNL A   1      35.238  20.575  25.384  1.00  0.00    -0.354 N 
ATOM      5  C   UNL A   1      34.185  21.098  26.089  1.00  0.00     0.250 C 
ATOM      6  O   UNL A   1      33.352  20.301  26.532  1.00  0.00    -0.272 OA
ATOM      7  H   UNL A   1      35.265  19.592  25.364  1.00  0.00     0.163 HD
BRANCH   5   8
ATOM      8  C   UNL A   1      34.021  22.611  26.349  1.00  0.00     0.227 C 
BRANCH   8   9
ATOM      9  C   UNL A   1      32.905  23.408  25.566  1.00  0.00     0.117 C 
ATOM     10  C   UNL A   1      32.325  22.716  24.322  1.00  0.00     0.031 C 
ATOM     11  C   UNL A   1      33.349  24.815  25.108  1.00  0.00    -0.021 A 
ATOM     12  C   UNL A   1      33.288  22.682  23.136  1.00  0.00     0.007 C 
ATOM     13  C   UNL A   1      33.595  25.113  23.745  1.00  0.00    -0.043 A 
ATOM     14  C   UNL A   1      33.363  25.877  26.034  1.00  0.00     0.006 A 
ATOM     15  C   UNL A   1      33.531  24.090  22.636  1.00  0.00     0.036 C 
ATOM     16  C   UNL A   1      33.797  26.444  23.346  1.00  0.00     0.004 A 
ATOM     17  C   UNL A   1      33.532  27.196  25.614  1.00  0.00     0.000 A 
ATOM     18  C   UNL A   1      33.743  27.480  24.270  1.00  0.00     0.000 A 
BRANCH   9  19
ATOM     19  C   UNL A   1      31.732  23.538  26.502  1.00  0.00     0.077 C 
ATOM     20  N   UNL A   1      30.831  23.625  27.223  1.00  0.00    -0.197 NA
ENDBRANCH   9  19
ENDBRANCH   8   9
BRANCH   8  21
ATOM     21  O   UNL A   1      33.937  22.786  27.778  1.00  0.00    -0.381 OA
ATOM     22  H   UNL A   1      33.400  23.569  27.977  1.00  0.00     0.211 HD
ENDBRANCH   8  21
ENDBRANCH   5   8
ENDBRANCH   3   4
ENDBRANCH   2   3
ENDBRANCH   1   2
BRANCH   1  23
ATOM     23  C   UNL A   1      38.226  24.121  26.447  1.00  0.00     0.116 C 
BRANCH  23  24
ATOM     24  N   UNL A   1      39.662  24.098  26.164  1.00  0.00    -0.352 N 
ATOM     25  C   UNL A   1      40.631  24.989  26.560  1.00  0.00     0.251 C 
ATOM     26  H   UNL A   1      39.977  23.343  25.616  1.00  0.00     0.163 HD
ATOM     27  O   UNL A   1      41.758  24.955  26.080  1.00  0.00    -0.269 OA
BRANCH  25  28
ATOM     28  C   UNL A   1      40.253  26.003  27.559  1.00  0.00     0.039 A 
ATOM     29  C   UNL A   1      40.866  27.252  27.493  1.00  0.00     0.014 A 
ATOM     30  C   UNL A   1      39.432  25.660  28.631  1.00  0.00     0.014 A 
ATOM     31  C   UNL A   1      40.886  28.042  28.624  1.00  0.00     0.010 A 
ATOM     32  C   UNL A   1      39.305  26.553  29.696  1.00  0.00     0.010 A 
ATOM     33  C   UNL A   1      40.080  27.724  29.727  1.00  0.00    -0.014 A 
BRANCH  33  34
ATOM     34  C   UNL A   1      40.056  28.663  30.875  1.00  0.00     0.031 A 
ATOM     35  C   UNL A   1      41.039  28.541  32.006  1.00  0.00     0.074 A 
ATOM     36  C   UNL A   1      39.169  29.679  30.841  1.00  0.00     0.049 A 
ATOM     37  N   UNL A   1      41.143  29.281  33.080  1.00  0.00    -0.248 NA
ATOM     38  C   UNL A   1      42.028  27.452  31.936  1.00  0.00     0.031 C 
ATOM     39  C   UNL A   1      38.185  29.903  29.775  1.00  0.00     0.029 A 
ATOM     40  N   UNL A   1      38.972  30.733  31.692  1.00  0.00    -0.354 N 
ATOM     41  C   UNL A   1      42.185  28.737  33.822  1.00  0.00     0.074 A 
ATOM     42  C   UNL A   1      42.663  27.583  33.093  1.00  0.00     0.031 C 
ATOM     43  C   UNL A   1      37.549  31.059  29.992  1.00  0.00     0.029 A 
ATOM     44  C   UNL A   1      37.994  31.602  31.268  1.00  0.00     0.049 A 
ATOM     45  H   UNL A   1      39.479  30.856  32.526  1.00  0.00     0.167 HD
ATOM     46  C   UNL A   1      42.699  29.172  34.997  1.00  0.00     0.037 A 
ATOM     47  C   UNL A   1      37.481  32.698  31.853  1.00  0.00     0.037 A 
ATOM     48  C   UNL A   1      42.220  30.338  35.696  1.00  0.00     0.049 A 
ATOM     49  C   UNL A   1      38.024  33.115  33.186  1.00  0.00     0.074 A 
ATOM     50  C   UNL A   1      42.679  30.872  36.889  1.00  0.00     0.029 A 
ATOM     51  N   UNL A   1      41.180  31.153  35.269  1.00  0.00    -0.354 N 
ATOM     52  N   UNL A   1      39.005  32.584  33.876  1.00  0.00    -0.248 NA
ATOM     53  C   UNL A   1      37.387  34.270  33.828  1.00  0.00     0.031 C 
ATOM     54  C   UNL A   1      41.878  31.970  37.212  1.00  0.00     0.029 A 
ATOM     55  C   UNL A   1      40.964  32.166  36.189  1.00  0.00     0.049 A 
ATOM     56  H   UNL A   1      40.672  31.029  34.435  1.00  0.00     0.167 HD
ATOM     57  C   UNL A   1      39.117  33.352  35.027  1.00  0.00     0.074 A 
ATOM     58  C   UNL A   1      38.116  34.397  34.929  1.00  0.00     0.031 C 
ATOM     59  C   UNL A   1      39.968  33.203  36.071  1.00  0.00     0.037 A 
BRANCH  46  60
ATOM     60  C   UNL A   1      43.829  28.392  35.615  1.00  0.00     0.058 A 
ATOM     61  C   UNL A   1      45.173  28.688  35.339  1.00  0.00     0.135 A 
ATOM     62  C   UNL A   1      43.565  27.382  36.557  1.00  0.00     0.135 A 
ATOM     63  F   UNL A   1      45.486  29.631  34.435  1.00  0.00    -0.206 F 
ATOM     64  C   UNL A   1      46.213  28.006  35.963  1.00  0.00     0.059 A 
ATOM     65  C   UNL A   1      44.589  26.707  37.216  1.00  0.00     0.059 A 
ATOM     66  F   UNL A   1      42.299  27.055  36.860  1.00  0.00    -0.206 F 
ATOM     67  C   UNL A   1      45.911  27.021  36.905  1.00  0.00     0.060 A 
BRANCH  67  68
ATOM     68  S   UNL A   1      47.276  26.163  37.717  1.00  0.00     0.124 S 
ATOM     69  O   UNL A   1      48.392  26.488  36.834  1.00  0.00    -0.237 OA
ATOM     70  O   UNL A   1      47.303  26.800  39.030  1.00  0.00    -0.237 OA
ATOM     71  O   UNL A   1      46.857  24.765  37.708  1.00  0.00    -0.744 OA
ENDBRANCH  67  68
ENDBRANCH  46  60
BRANCH  47  72
ATOM     72  C   UNL A   1      36.389  33.449  31.180  1.00  0.00     0.058 A 
ATOM     73  C   UNL A   1      36.640  34.206  30.028  1.00  0.00     0.135 A 
ATOM     74  C   UNL A   1      35.065  33.388  31.647  1.00  0.00     0.135 A 
ATOM     75  F   UNL A   1      37.888  34.296  29.542  1.00  0.00    -0.206 F 
ATOM     76  C   UNL A   1      35.622  34.886  29.369  1.00  0.00     0.059 A 
ATOM     77  C   UNL A   1      34.025  34.029  30.985  1.00  0.00     0.059 A 
ATOM     78  F   UNL A   1      34.767  32.659  32.734  1.00  0.00    -0.206 F 
ATOM     79  C   UNL A   1      34.315  34.785  29.852  1.00  0.00     0.060 A 
BRANCH  79  80
ATOM     80  S   UNL A   1      32.998  35.635  28.958  1.00  0.00     0.124 S 
ATOM     81  O   UNL A   1      32.448  34.553  28.149  1.00  0.00    -0.237 OA
ATOM     82  O   UNL A   1      32.153  36.112  30.048  1.00  0.00    -0.237 OA
ATOM     83  O   UNL A   1      33.708  36.676  28.221  1.00  0.00    -0.744 OA
ENDBRANCH  79  80
ENDBRANCH  47  72
BRANCH  59  84
ATOM     84  C   UNL A   1      39.881  34.208  37.185  1.00  0.00     0.058 A 
ATOM     85  C   UNL A   1      40.531  35.449  37.109  1.00  0.00     0.135 A 
ATOM     86  C   UNL A   1      39.073  33.957  38.305  1.00  0.00     0.135 A 
ATOM     87  F   UNL A   1      41.325  35.734  36.064  1.00  0.00    -0.206 F 
ATOM     88  C   UNL A   1      40.393  36.402  38.112  1.00  0.00     0.059 A 
ATOM     89  C   UNL A   1      38.893  34.909  39.303  1.00  0.00     0.059 A 
ATOM     90  F   UNL A   1      38.423  32.788  38.423  1.00  0.00    -0.206 F 
ATOM     91  C   UNL A   1      39.563  36.125  39.200  1.00  0.00     0.060 A 
BRANCH  91  92
ATOM     92  S   UNL A   1      39.353  37.397  40.463  1.00  0.00     0.124 S 
ATOM     93  O   UNL A   1      39.039  36.592  41.640  1.00  0.00    -0.237 OA
ATOM     94  O   UNL A   1      40.659  38.046  40.468  1.00  0.00    -0.237 OA
ATOM     95  O   UNL A   1      38.255  38.210  39.951  1.00  0.00    -0.744 OA
ENDBRANCH  91  92
ENDBRANCH  59  84
ENDBRANCH  33  34
ENDBRANCH  25  28
ENDBRANCH  23  24
ENDBRANCH   1  23
TORSDOF 17
ENDMDL
