MODEL 1
REMARK VINA RESULT:     -12.0      0.000      0.000
REMARK SMILES C[C@@H](c1ccco1)n1c(SCC(=O)NCCCCNC(=O)c2ccc(-c3c4nc(c(-c5c(F)cc(S(=O)(=O)[O-])cc5F)c5ccc([nH]5)c(-c5c(F)cc(S(=O)(=O)[O-])cc5F)c5nc(c(-c6c(F)cc(S(=O)(=O)[O-])cc6F)c6ccc3[nH]6)C=C5)C=C4)cc2)nc2cnccc21
REMARK SMILES IDX 16 1 15 2 14 3 12 4 13 5 11 7 10 8 9 9 8 10 94 11 88 12
REMARK SMILES IDX 89 13 93 14 90 15 92 16 91 17 2 18 1 19 3 20 4 21 7 22 5 23
REMARK SMILES IDX 6 24 17 25 18 26 19 27 20 28 21 30 22 31 23 32 87 33 24 34
REMARK SMILES IDX 86 35 25 36 26 37 27 38 80 39 28 40 85 41 79 42 81 43 29 44
REMARK SMILES IDX 84 45 78 46 77 47 30 49 64 50 43 51 63 52 44 53 47 54 62 55
REMARK SMILES IDX 82 56 45 57 46 58 61 60 83 61 48 62 31 63 32 64 41 65 33 66
REMARK SMILES IDX 34 67 40 68 42 69 35 70 36 71 37 72 38 73 39 74 65 75 66 76
REMARK SMILES IDX 75 77 67 78 68 79 74 80 76 81 69 82 70 83 71 84 72 85 73 86
REMARK SMILES IDX 49 87 50 88 59 89 51 90 52 91 58 92 60 93 53 94 54 95 55 96
REMARK SMILES IDX 56 97 57 98
REMARK H PARENT 14 6 19 29 81 48 47 59
REMARK Flexibility Score: inf
ROOT
ATOM      1  C   UNL A   1      38.787  23.501  26.452  1.00  0.00     0.023 C 
ENDROOT
BRANCH   1   2
ATOM      2  C   UNL A   1      37.353  23.848  26.052  1.00  0.00     0.116 C 
BRANCH   2   3
ATOM      3  N   UNL A   1      36.387  22.793  26.295  1.00  0.00    -0.355 N 
ATOM      4  C   UNL A   1      35.033  22.810  26.129  1.00  0.00     0.230 C 
ATOM      5  O   UNL A   1      34.428  21.732  26.152  1.00  0.00    -0.274 OA
ATOM      6  H   UNL A   1      36.763  21.944  26.626  1.00  0.00     0.163 HD
BRANCH   4   7
ATOM      7  C   UNL A   1      34.292  24.077  25.785  1.00  0.00     0.178 C 
BRANCH   7   8
ATOM      8  S   UNL A   1      32.608  23.919  25.264  1.00  0.00    -0.078 SA
BRANCH   8   9
ATOM      9  C   UNL A   1      31.747  25.305  24.699  1.00  0.00     0.170 A 
ATOM     10  N   UNL A   1      32.092  26.571  24.268  1.00  0.00    -0.308 N 
ATOM     11  C   UNL A   1      30.908  27.204  23.868  1.00  0.00     0.073 A 
ATOM     12  N   UNL A   1      30.437  25.143  24.644  1.00  0.00    -0.221 NA
ATOM     13  C   UNL A   1      29.906  26.278  24.112  1.00  0.00     0.108 A 
ATOM     14  C   UNL A   1      30.618  28.457  23.314  1.00  0.00     0.049 A 
ATOM     15  C   UNL A   1      28.581  26.603  23.807  1.00  0.00     0.141 A 
ATOM     16  C   UNL A   1      29.275  28.699  23.061  1.00  0.00     0.113 A 
ATOM     17  N   UNL A   1      28.273  27.829  23.306  1.00  0.00    -0.262 NA
BRANCH  10  18
ATOM     18  C   UNL A   1      33.367  27.274  24.168  1.00  0.00     0.153 C 
ATOM     19  C   UNL A   1      33.748  27.779  22.783  1.00  0.00     0.040 C 
BRANCH  18  20
ATOM     20  C   UNL A   1      33.625  28.181  25.330  1.00  0.00     0.126 A 
ATOM     21  C   UNL A   1      34.070  27.932  26.617  1.00  0.00     0.048 A 
ATOM     22  O   UNL A   1      33.284  29.498  25.218  1.00  0.00    -0.467 OA
ATOM     23  C   UNL A   1      34.014  29.161  27.314  1.00  0.00     0.042 A 
ATOM     24  C   UNL A   1      33.530  30.080  26.418  1.00  0.00     0.195 A 
ENDBRANCH  18  20
ENDBRANCH  10  18
ENDBRANCH   8   9
ENDBRANCH   7   8
ENDBRANCH   4   7
ENDBRANCH   2   3
ENDBRANCH   1   2
BRANCH   1  25
ATOM     25  C   UNL A   1      39.289  22.075  26.184  1.00  0.00     0.023 C 
BRANCH  25  26
ATOM     26  C   UNL A   1      40.717  21.750  26.609  1.00  0.00     0.116 C 
BRANCH  26  27
ATOM     27  N   UNL A   1      41.723  22.147  25.648  1.00  0.00    -0.352 N 
ATOM     28  C   UNL A   1      42.511  23.250  25.469  1.00  0.00     0.251 C 
ATOM     29  H   UNL A   1      41.877  21.460  24.959  1.00  0.00     0.163 HD
ATOM     30  O   UNL A   1      43.384  23.135  24.602  1.00  0.00    -0.269 OA
BRANCH  28  31
ATOM     31  C   UNL A   1      42.371  24.553  26.178  1.00  0.00     0.039 A 
ATOM     32  C   UNL A   1      42.827  24.842  27.462  1.00  0.00     0.014 A 
ATOM     33  C   UNL A   1      41.655  25.551  25.485  1.00  0.00     0.014 A 
ATOM     34  C   UNL A   1      42.498  26.056  28.066  1.00  0.00     0.010 A 
ATOM     35  C   UNL A   1      41.334  26.770  26.080  1.00  0.00     0.010 A 
ATOM     36  C   UNL A   1      41.717  27.007  27.393  1.00  0.00    -0.014 A 
BRANCH  36  37
ATOM     37  C   UNL A   1      41.433  28.273  28.074  1.00  0.00     0.031 A 
ATOM     38  C   UNL A   1      42.507  29.292  27.920  1.00  0.00     0.074 A 
ATOM     39  C   UNL A   1      40.301  28.566  28.753  1.00  0.00     0.049 A 
ATOM     40  N   UNL A   1      43.364  29.664  28.812  1.00  0.00    -0.248 NA
ATOM     41  C   UNL A   1      42.768  29.838  26.581  1.00  0.00     0.031 C 
ATOM     42  C   UNL A   1      39.054  27.803  28.822  1.00  0.00     0.029 A 
ATOM     43  N   UNL A   1      40.015  29.676  29.499  1.00  0.00    -0.354 N 
ATOM     44  C   UNL A   1      44.132  30.663  28.220  1.00  0.00     0.074 A 
ATOM     45  C   UNL A   1      43.838  30.603  26.811  1.00  0.00     0.031 C 
ATOM     46  C   UNL A   1      38.085  28.566  29.386  1.00  0.00     0.029 A 
ATOM     47  C   UNL A   1      38.675  29.806  29.858  1.00  0.00     0.049 A 
ATOM     48  H   UNL A   1      40.702  30.330  29.762  1.00  0.00     0.167 HD
ATOM     49  C   UNL A   1      44.766  31.601  28.977  1.00  0.00     0.037 A 
ATOM     50  C   UNL A   1      38.093  30.859  30.494  1.00  0.00     0.037 A 
ATOM     51  C   UNL A   1      44.852  31.180  30.354  1.00  0.00     0.049 A 
ATOM     52  C   UNL A   1      39.169  31.559  31.238  1.00  0.00     0.074 A 
ATOM     53  C   UNL A   1      45.435  30.125  31.029  1.00  0.00     0.029 A 
ATOM     54  N   UNL A   1      43.962  31.742  31.235  1.00  0.00    -0.354 N 
ATOM     55  N   UNL A   1      39.802  31.047  32.257  1.00  0.00    -0.248 NA
ATOM     56  C   UNL A   1      39.834  32.673  30.583  1.00  0.00     0.031 C 
ATOM     57  C   UNL A   1      44.538  29.826  32.097  1.00  0.00     0.029 A 
ATOM     58  C   UNL A   1      43.492  30.748  32.048  1.00  0.00     0.049 A 
ATOM     59  H   UNL A   1      43.708  32.693  31.275  1.00  0.00     0.167 HD
ATOM     60  C   UNL A   1      41.113  31.467  32.101  1.00  0.00     0.074 A 
ATOM     61  C   UNL A   1      41.052  32.542  31.113  1.00  0.00     0.031 C 
ATOM     62  C   UNL A   1      42.150  30.723  32.584  1.00  0.00     0.037 A 
BRANCH  49  63
ATOM     63  C   UNL A   1      44.913  33.063  28.596  1.00  0.00     0.058 A 
ATOM     64  C   UNL A   1      46.204  33.639  28.615  1.00  0.00     0.135 A 
ATOM     65  C   UNL A   1      43.843  33.982  28.554  1.00  0.00     0.135 A 
ATOM     66  F   UNL A   1      47.301  32.864  28.622  1.00  0.00    -0.206 F 
ATOM     67  C   UNL A   1      46.410  35.013  28.733  1.00  0.00     0.059 A 
ATOM     68  C   UNL A   1      44.028  35.359  28.621  1.00  0.00     0.059 A 
ATOM     69  F   UNL A   1      42.563  33.598  28.543  1.00  0.00    -0.206 F 
ATOM     70  C   UNL A   1      45.308  35.862  28.765  1.00  0.00     0.060 A 
BRANCH  70  71
ATOM     71  S   UNL A   1      45.564  37.619  29.063  1.00  0.00     0.124 S 
ATOM     72  O   UNL A   1      46.474  37.590  30.199  1.00  0.00    -0.237 OA
ATOM     73  O   UNL A   1      46.131  38.059  27.796  1.00  0.00    -0.237 OA
ATOM     74  O   UNL A   1      44.214  38.108  29.343  1.00  0.00    -0.744 OA
ENDBRANCH  70  71
ENDBRANCH  49  63
BRANCH  50  75
ATOM     75  C   UNL A   1      36.776  31.506  30.227  1.00  0.00     0.058 A 
ATOM     76  C   UNL A   1      36.074  32.180  31.247  1.00  0.00     0.135 A 
ATOM     77  C   UNL A   1      36.337  31.755  28.913  1.00  0.00     0.135 A 
ATOM     78  F   UNL A   1      36.427  32.017  32.532  1.00  0.00    -0.206 F 
ATOM     79  C   UNL A   1      35.050  33.098  30.977  1.00  0.00     0.059 A 
ATOM     80  C   UNL A   1      35.314  32.659  28.619  1.00  0.00     0.059 A 
ATOM     81  F   UNL A   1      36.956  31.195  27.862  1.00  0.00    -0.206 F 
ATOM     82  C   UNL A   1      34.694  33.351  29.653  1.00  0.00     0.060 A 
BRANCH  82  83
ATOM     83  S   UNL A   1      33.504  34.665  29.286  1.00  0.00     0.124 S 
ATOM     84  O   UNL A   1      32.604  34.006  28.346  1.00  0.00    -0.237 OA
ATOM     85  O   UNL A   1      32.948  34.956  30.603  1.00  0.00    -0.237 OA
ATOM     86  O   UNL A   1      34.333  35.725  28.715  1.00  0.00    -0.744 OA
ENDBRANCH  82  83
ENDBRANCH  50  75
BRANCH  62  87
ATOM     87  C   UNL A   1      41.856  29.654  33.599  1.00  0.00     0.058 A 
ATOM     88  C   UNL A   1      41.497  28.331  33.294  1.00  0.00     0.135 A 
ATOM     89  C   UNL A   1      42.119  29.959  34.945  1.00  0.00     0.135 A 
ATOM     90  F   UNL A   1      41.315  27.939  32.024  1.00  0.00    -0.206 F 
ATOM     91  C   UNL A   1      41.388  27.357  34.290  1.00  0.00     0.059 A 
ATOM     92  C   UNL A   1      42.044  28.999  35.947  1.00  0.00     0.059 A 
ATOM     93  F   UNL A   1      42.516  31.195  35.289  1.00  0.00    -0.206 F 
ATOM     94  C   UNL A   1      41.671  27.700  35.614  1.00  0.00     0.060 A 
BRANCH  94  95
ATOM     95  S   UNL A   1      41.628  26.421  36.888  1.00  0.00     0.124 S 
ATOM     96  O   UNL A   1      42.873  26.664  37.610  1.00  0.00    -0.237 OA
ATOM     97  O   UNL A   1      40.401  26.740  37.611  1.00  0.00    -0.237 OA
ATOM     98  O   UNL A   1      41.586  25.177  36.122  1.00  0.00    -0.744 OA
ENDBRANCH  94  95
ENDBRANCH  62  87
ENDBRANCH  36  37
ENDBRANCH  28  31
ENDBRANCH  26  27
ENDBRANCH  25  26
ENDBRANCH   1  25
TORSDOF 18
ENDMDL
MODEL 2
REMARK VINA RESULT:     -11.9      1.762      2.317
REMARK SMILES C[C@@H](c1ccco1)n1c(SCC(=O)NCCCCNC(=O)c2ccc(-c3c4nc(c(-c5c(F)cc(S(=O)(=O)[O-])cc5F)c5ccc([nH]5)c(-c5c(F)cc(S(=O)(=O)[O-])cc5F)c5nc(c(-c6c(F)cc(S(=O)(=O)[O-])cc6F)c6ccc3[nH]6)C=C5)C=C4)cc2)nc2cnccc21
REMARK SMILES IDX 16 1 15 2 14 3 12 4 13 5 11 7 10 8 9 9 8 10 94 11 88 12
REMARK SMILES IDX 89 13 93 14 90 15 92 16 91 17 2 18 1 19 3 20 4 21 7 22 5 23
REMARK SMILES IDX 6 24 17 25 18 26 19 27 20 28 21 30 22 31 23 32 87 33 24 34
REMARK SMILES IDX 86 35 25 36 26 37 27 38 80 39 28 40 85 41 79 42 81 43 29 44
REMARK SMILES IDX 84 45 78 46 77 47 30 49 64 50 43 51 63 52 44 53 47 54 62 55
REMARK SMILES IDX 82 56 45 57 46 58 61 60 83 61 48 62 31 63 32 64 41 65 33 66
REMARK SMILES IDX 34 67 40 68 42 69 35 70 36 71 37 72 38 73 39 74 65 75 66 76
REMARK SMILES IDX 75 77 67 78 68 79 74 80 76 81 69 82 70 83 71 84 72 85 73 86
REMARK SMILES IDX 49 87 50 88 59 89 51 90 52 91 58 92 60 93 53 94 54 95 55 96
REMARK SMILES IDX 56 97 57 98
REMARK H PARENT 14 6 19 29 81 48 47 59
REMARK Flexibility Score: inf
ROOT
ATOM      1  C   UNL A   1      36.615  22.654  23.512  1.00  0.00     0.023 C 
ENDROOT
BRANCH   1   2
ATOM      2  C   UNL A   1      35.172  23.050  23.826  1.00  0.00     0.116 C 
BRANCH   2   3
ATOM      3  N   UNL A   1      34.502  23.774  22.763  1.00  0.00    -0.355 N 
ATOM      4  C   UNL A   1      33.316  24.449  22.796  1.00  0.00     0.230 C 
ATOM      5  O   UNL A   1      33.048  25.205  21.855  1.00  0.00    -0.274 OA
ATOM      6  H   UNL A   1      34.968  23.779  21.895  1.00  0.00     0.163 HD
BRANCH   4   7
ATOM      7  C   UNL A   1      32.408  24.399  23.999  1.00  0.00     0.178 C 
BRANCH   7   8
ATOM      8  S   UNL A   1      30.688  24.717  23.733  1.00  0.00    -0.078 SA
BRANCH   8   9
ATOM      9  C   UNL A   1      30.114  26.344  23.663  1.00  0.00     0.170 A 
ATOM     10  N   UNL A   1      30.696  27.597  23.693  1.00  0.00    -0.308 N 
ATOM     11  C   UNL A   1      29.667  28.531  23.517  1.00  0.00     0.073 A 
ATOM     12  N   UNL A   1      28.803  26.451  23.538  1.00  0.00    -0.221 NA
ATOM     13  C   UNL A   1      28.509  27.775  23.417  1.00  0.00     0.108 A 
ATOM     14  C   UNL A   1      29.631  29.928  23.419  1.00  0.00     0.049 A 
ATOM     15  C   UNL A   1      27.283  28.418  23.223  1.00  0.00     0.141 A 
ATOM     16  C   UNL A   1      28.370  30.479  23.244  1.00  0.00     0.113 A 
ATOM     17  N   UNL A   1      27.222  29.775  23.165  1.00  0.00    -0.262 NA
BRANCH  10  18
ATOM     18  C   UNL A   1      32.073  28.048  23.856  1.00  0.00     0.153 C 
ATOM     19  C   UNL A   1      32.714  28.700  22.638  1.00  0.00     0.040 C 
BRANCH  18  20
ATOM     20  C   UNL A   1      32.328  28.678  25.190  1.00  0.00     0.126 A 
ATOM     21  C   UNL A   1      32.073  28.245  26.480  1.00  0.00     0.048 A 
ATOM     22  O   UNL A   1      32.796  29.959  25.228  1.00  0.00    -0.467 OA
ATOM     23  C   UNL A   1      32.422  29.308  27.344  1.00  0.00     0.042 A 
ATOM     24  C   UNL A   1      32.856  30.326  26.533  1.00  0.00     0.195 A 
ENDBRANCH  18  20
ENDBRANCH  10  18
ENDBRANCH   8   9
ENDBRANCH   7   8
ENDBRANCH   4   7
ENDBRANCH   2   3
ENDBRANCH   1   2
BRANCH   1  25
ATOM     25  C   UNL A   1      37.247  21.513  24.323  1.00  0.00     0.023 C 
BRANCH  25  26
ATOM     26  C   UNL A   1      37.889  21.881  25.656  1.00  0.00     0.116 C 
BRANCH  26  27
ATOM     27  N   UNL A   1      39.320  21.671  25.700  1.00  0.00    -0.352 N 
ATOM     28  C   UNL A   1      40.373  22.297  26.306  1.00  0.00     0.251 C 
ATOM     29  H   UNL A   1      39.602  20.893  25.166  1.00  0.00     0.163 HD
ATOM     30  O   UNL A   1      41.452  21.700  26.229  1.00  0.00    -0.269 OA
BRANCH  28  31
ATOM     31  C   UNL A   1      40.333  23.623  26.984  1.00  0.00     0.039 A 
ATOM     32  C   UNL A   1      39.277  24.532  26.950  1.00  0.00     0.014 A 
ATOM     33  C   UNL A   1      41.509  23.995  27.669  1.00  0.00     0.014 A 
ATOM     34  C   UNL A   1      39.429  25.803  27.505  1.00  0.00     0.010 A 
ATOM     35  C   UNL A   1      41.660  25.259  28.234  1.00  0.00     0.010 A 
ATOM     36  C   UNL A   1      40.634  26.185  28.113  1.00  0.00    -0.014 A 
BRANCH  36  37
ATOM     37  C   UNL A   1      40.714  27.525  28.701  1.00  0.00     0.031 A 
ATOM     38  C   UNL A   1      41.784  28.377  28.110  1.00  0.00     0.074 A 
ATOM     39  C   UNL A   1      39.895  28.018  29.655  1.00  0.00     0.049 A 
ATOM     40  N   UNL A   1      42.915  28.696  28.648  1.00  0.00    -0.248 NA
ATOM     41  C   UNL A   1      41.660  28.780  26.702  1.00  0.00     0.031 C 
ATOM     42  C   UNL A   1      38.662  27.437  30.190  1.00  0.00     0.029 A 
ATOM     43  N   UNL A   1      39.978  29.209  30.323  1.00  0.00    -0.354 N 
ATOM     44  C   UNL A   1      43.553  29.535  27.740  1.00  0.00     0.074 A 
ATOM     45  C   UNL A   1      42.821  29.410  26.506  1.00  0.00     0.031 C 
ATOM     46  C   UNL A   1      38.008  28.363  30.933  1.00  0.00     0.029 A 
ATOM     47  C   UNL A   1      38.843  29.544  31.058  1.00  0.00     0.049 A 
ATOM     48  H   UNL A   1      40.777  29.782  30.287  1.00  0.00     0.167 HD
ATOM     49  C   UNL A   1      44.489  30.434  28.155  1.00  0.00     0.037 A 
ATOM     50  C   UNL A   1      38.607  30.711  31.718  1.00  0.00     0.037 A 
ATOM     51  C   UNL A   1      44.965  30.109  29.477  1.00  0.00     0.049 A 
ATOM     52  C   UNL A   1      39.930  31.313  32.012  1.00  0.00     0.074 A 
ATOM     53  C   UNL A   1      45.619  29.039  30.056  1.00  0.00     0.029 A 
ATOM     54  N   UNL A   1      44.465  30.850  30.520  1.00  0.00    -0.354 N 
ATOM     55  N   UNL A   1      40.797  30.798  32.839  1.00  0.00    -0.248 NA
ATOM     56  C   UNL A   1      40.464  32.276  31.064  1.00  0.00     0.031 C 
ATOM     57  C   UNL A   1      45.083  28.944  31.374  1.00  0.00     0.029 A 
ATOM     58  C   UNL A   1      44.177  29.992  31.544  1.00  0.00     0.049 A 
ATOM     59  H   UNL A   1      44.337  31.826  30.527  1.00  0.00     0.167 HD
ATOM     60  C   UNL A   1      42.027  31.025  32.243  1.00  0.00     0.074 A 
ATOM     61  C   UNL A   1      41.766  32.022  31.206  1.00  0.00     0.031 C 
ATOM     62  C   UNL A   1      43.080  30.188  32.465  1.00  0.00     0.037 A 
BRANCH  49  63
ATOM     63  C   UNL A   1      44.658  31.830  27.584  1.00  0.00     0.058 A 
ATOM     64  C   UNL A   1      45.807  32.107  26.807  1.00  0.00     0.135 A 
ATOM     65  C   UNL A   1      43.949  32.963  28.038  1.00  0.00     0.135 A 
ATOM     66  F   UNL A   1      46.544  31.109  26.292  1.00  0.00    -0.206 F 
ATOM     67  C   UNL A   1      46.292  33.400  26.623  1.00  0.00     0.059 A 
ATOM     68  C   UNL A   1      44.390  34.264  27.823  1.00  0.00     0.059 A 
ATOM     69  F   UNL A   1      42.850  32.871  28.792  1.00  0.00    -0.206 F 
ATOM     70  C   UNL A   1      45.589  34.471  27.164  1.00  0.00     0.060 A 
BRANCH  70  71
ATOM     71  S   UNL A   1      46.288  36.126  27.054  1.00  0.00     0.124 S 
ATOM     72  O   UNL A   1      47.055  36.199  28.289  1.00  0.00    -0.237 OA
ATOM     73  O   UNL A   1      47.060  36.045  25.820  1.00  0.00    -0.237 OA
ATOM     74  O   UNL A   1      45.104  36.984  26.990  1.00  0.00    -0.744 OA
ENDBRANCH  70  71
ENDBRANCH  49  63
BRANCH  50  75
ATOM     75  C   UNL A   1      37.348  31.507  31.797  1.00  0.00     0.058 A 
ATOM     76  C   UNL A   1      36.736  31.784  33.037  1.00  0.00     0.135 A 
ATOM     77  C   UNL A   1      36.901  32.276  30.706  1.00  0.00     0.135 A 
ATOM     78  F   UNL A   1      37.105  31.111  34.138  1.00  0.00    -0.206 F 
ATOM     79  C   UNL A   1      35.794  32.809  33.199  1.00  0.00     0.059 A 
ATOM     80  C   UNL A   1      35.958  33.298  30.841  1.00  0.00     0.059 A 
ATOM     81  F   UNL A   1      37.440  32.122  29.487  1.00  0.00    -0.206 F 
ATOM     82  C   UNL A   1      35.430  33.580  32.096  1.00  0.00     0.060 A 
BRANCH  82  83
ATOM     83  S   UNL A   1      34.356  35.019  32.330  1.00  0.00     0.124 S 
ATOM     84  O   UNL A   1      33.195  34.428  32.985  1.00  0.00    -0.237 OA
ATOM     85  O   UNL A   1      35.181  35.889  33.161  1.00  0.00    -0.237 OA
ATOM     86  O   UNL A   1      34.127  35.497  30.968  1.00  0.00    -0.744 OA
ENDBRANCH  82  83
ENDBRANCH  50  75
BRANCH  62  87
ATOM     87  C   UNL A   1      43.016  29.247  33.636  1.00  0.00     0.058 A 
ATOM     88  C   UNL A   1      43.337  29.588  34.961  1.00  0.00     0.135 A 
ATOM     89  C   UNL A   1      42.438  27.987  33.415  1.00  0.00     0.135 A 
ATOM     90  F   UNL A   1      43.812  30.804  35.266  1.00  0.00    -0.206 F 
ATOM     91  C   UNL A   1      43.108  28.701  36.017  1.00  0.00     0.059 A 
ATOM     92  C   UNL A   1      42.175  27.102  34.454  1.00  0.00     0.059 A 
ATOM     93  F   UNL A   1      42.063  27.627  32.175  1.00  0.00    -0.206 F 
ATOM     94  C   UNL A   1      42.519  27.464  35.754  1.00  0.00     0.060 A 
BRANCH  94  95
ATOM     95  S   UNL A   1      42.130  26.359  37.128  1.00  0.00     0.124 S 
ATOM     96  O   UNL A   1      43.160  26.706  38.103  1.00  0.00    -0.237 OA
ATOM     97  O   UNL A   1      40.768  26.755  37.474  1.00  0.00    -0.237 OA
ATOM     98  O   UNL A   1      42.252  25.026  36.541  1.00  0.00    -0.744 OA
ENDBRANCH  94  95
ENDBRANCH  62  87
ENDBRANCH  36  37
ENDBRANCH  28  31
ENDBRANCH  26  27
ENDBRANCH  25  26
ENDBRANCH   1  25
TORSDOF 18
ENDMDL
MODEL 3
REMARK VINA RESULT:     -11.8      1.295      2.085
REMARK SMILES C[C@@H](c1ccco1)n1c(SCC(=O)NCCCCNC(=O)c2ccc(-c3c4nc(c(-c5c(F)cc(S(=O)(=O)[O-])cc5F)c5ccc([nH]5)c(-c5c(F)cc(S(=O)(=O)[O-])cc5F)c5nc(c(-c6c(F)cc(S(=O)(=O)[O-])cc6F)c6ccc3[nH]6)C=C5)C=C4)cc2)nc2cnccc21
REMARK SMILES IDX 16 1 15 2 14 3 12 4 13 5 11 7 10 8 9 9 8 10 94 11 88 12
REMARK SMILES IDX 89 13 93 14 90 15 92 16 91 17 2 18 1 19 3 20 4 21 7 22 5 23
REMARK SMILES IDX 6 24 17 25 18 26 19 27 20 28 21 30 22 31 23 32 87 33 24 34
REMARK SMILES IDX 86 35 25 36 26 37 27 38 80 39 28 40 85 41 79 42 81 43 29 44
REMARK SMILES IDX 84 45 78 46 77 47 30 49 64 50 43 51 63 52 44 53 47 54 62 55
REMARK SMILES IDX 82 56 45 57 46 58 61 60 83 61 48 62 31 63 32 64 41 65 33 66
REMARK SMILES IDX 34 67 40 68 42 69 35 70 36 71 37 72 38 73 39 74 65 75 66 76
REMARK SMILES IDX 75 77 67 78 68 79 74 80 76 81 69 82 70 83 71 84 72 85 73 86
REMARK SMILES IDX 49 87 50 88 59 89 51 90 52 91 58 92 60 93 53 94 54 95 55 96
REMARK SMILES IDX 56 97 57 98
REMARK H PARENT 14 6 19 29 81 48 47 59
REMARK Flexibility Score: inf
ROOT
ATOM      1  C   UNL A   1      38.615  23.263  26.532  1.00  0.00     0.023 C 
ENDROOT
BRANCH   1   2
ATOM      2  C   UNL A   1      37.374  23.677  25.741  1.00  0.00     0.116 C 
BRANCH   2   3
ATOM      3  N   UNL A   1      37.448  23.407  24.318  1.00  0.00    -0.355 N 
ATOM      4  C   UNL A   1      36.510  22.850  23.497  1.00  0.00     0.230 C 
ATOM      5  O   UNL A   1      36.677  22.938  22.276  1.00  0.00    -0.274 OA
ATOM      6  H   UNL A   1      38.294  23.661  23.882  1.00  0.00     0.163 HD
BRANCH   4   7
ATOM      7  C   UNL A   1      35.231  22.262  24.039  1.00  0.00     0.178 C 
BRANCH   7   8
ATOM      8  S   UNL A   1      33.710  22.894  23.394  1.00  0.00    -0.078 SA
BRANCH   8   9
ATOM      9  C   UNL A   1      33.331  24.570  23.566  1.00  0.00     0.170 A 
ATOM     10  N   UNL A   1      32.670  25.339  24.504  1.00  0.00    -0.308 N 
ATOM     11  C   UNL A   1      32.774  26.672  24.087  1.00  0.00     0.073 A 
ATOM     12  N   UNL A   1      33.781  25.330  22.584  1.00  0.00    -0.221 NA
ATOM     13  C   UNL A   1      33.479  26.622  22.894  1.00  0.00     0.108 A 
ATOM     14  C   UNL A   1      32.351  27.894  24.627  1.00  0.00     0.049 A 
ATOM     15  C   UNL A   1      33.765  27.809  22.213  1.00  0.00     0.141 A 
ATOM     16  C   UNL A   1      32.664  29.017  23.874  1.00  0.00     0.113 A 
ATOM     17  N   UNL A   1      33.328  29.001  22.700  1.00  0.00    -0.262 NA
BRANCH  10  18
ATOM     18  C   UNL A   1      31.959  25.012  25.735  1.00  0.00     0.153 C 
ATOM     19  C   UNL A   1      30.438  25.033  25.657  1.00  0.00     0.040 C 
BRANCH  18  20
ATOM     20  C   UNL A   1      32.596  23.892  26.497  1.00  0.00     0.126 A 
ATOM     21  C   UNL A   1      32.060  22.791  27.143  1.00  0.00     0.048 A 
ATOM     22  O   UNL A   1      33.938  23.948  26.738  1.00  0.00    -0.467 OA
ATOM     23  C   UNL A   1      33.132  22.137  27.792  1.00  0.00     0.042 A 
ATOM     24  C   UNL A   1      34.252  22.880  27.514  1.00  0.00     0.195 A 
ENDBRANCH  18  20
ENDBRANCH  10  18
ENDBRANCH   8   9
ENDBRANCH   7   8
ENDBRANCH   4   7
ENDBRANCH   2   3
ENDBRANCH   1   2
BRANCH   1  25
ATOM     25  C   UNL A   1      39.296  21.935  26.168  1.00  0.00     0.023 C 
BRANCH  25  26
ATOM     26  C   UNL A   1      40.723  21.729  26.662  1.00  0.00     0.116 C 
BRANCH  26  27
ATOM     27  N   UNL A   1      41.741  22.120  25.711  1.00  0.00    -0.352 N 
ATOM     28  C   UNL A   1      42.540  23.217  25.543  1.00  0.00     0.251 C 
ATOM     29  H   UNL A   1      41.893  21.435  25.021  1.00  0.00     0.163 HD
ATOM     30  O   UNL A   1      43.418  23.097  24.682  1.00  0.00    -0.269 OA
BRANCH  28  31
ATOM     31  C   UNL A   1      42.406  24.518  26.257  1.00  0.00     0.039 A 
ATOM     32  C   UNL A   1      42.891  24.809  27.531  1.00  0.00     0.014 A 
ATOM     33  C   UNL A   1      41.666  25.511  25.583  1.00  0.00     0.014 A 
ATOM     34  C   UNL A   1      42.566  26.019  28.143  1.00  0.00     0.010 A 
ATOM     35  C   UNL A   1      41.350  26.727  26.187  1.00  0.00     0.010 A 
ATOM     36  C   UNL A   1      41.762  26.965  27.490  1.00  0.00    -0.014 A 
BRANCH  36  37
ATOM     37  C   UNL A   1      41.484  28.228  28.180  1.00  0.00     0.031 A 
ATOM     38  C   UNL A   1      42.561  29.245  28.029  1.00  0.00     0.074 A 
ATOM     39  C   UNL A   1      40.356  28.521  28.864  1.00  0.00     0.049 A 
ATOM     40  N   UNL A   1      43.423  29.609  28.920  1.00  0.00    -0.248 NA
ATOM     41  C   UNL A   1      42.819  29.797  26.691  1.00  0.00     0.031 C 
ATOM     42  C   UNL A   1      39.106  27.762  28.932  1.00  0.00     0.029 A 
ATOM     43  N   UNL A   1      40.076  29.628  29.618  1.00  0.00    -0.354 N 
ATOM     44  C   UNL A   1      44.191  30.608  28.331  1.00  0.00     0.074 A 
ATOM     45  C   UNL A   1      43.893  30.557  26.923  1.00  0.00     0.031 C 
ATOM     46  C   UNL A   1      38.142  28.525  29.504  1.00  0.00     0.029 A 
ATOM     47  C   UNL A   1      38.737  29.760  29.982  1.00  0.00     0.049 A 
ATOM     48  H   UNL A   1      40.765  30.278  29.883  1.00  0.00     0.167 HD
ATOM     49  C   UNL A   1      44.831  31.540  29.092  1.00  0.00     0.037 A 
ATOM     50  C   UNL A   1      38.161  30.811  30.625  1.00  0.00     0.037 A 
ATOM     51  C   UNL A   1      44.921  31.110  30.466  1.00  0.00     0.049 A 
ATOM     52  C   UNL A   1      39.241  31.503  31.370  1.00  0.00     0.074 A 
ATOM     53  C   UNL A   1      45.502  30.050  31.133  1.00  0.00     0.029 A 
ATOM     54  N   UNL A   1      44.035  31.670  31.353  1.00  0.00    -0.354 N 
ATOM     55  N   UNL A   1      39.876  30.983  32.384  1.00  0.00    -0.248 NA
ATOM     56  C   UNL A   1      39.908  32.619  30.720  1.00  0.00     0.031 C 
ATOM     57  C   UNL A   1      44.608  29.748  32.202  1.00  0.00     0.029 A 
ATOM     58  C   UNL A   1      43.564  30.673  32.162  1.00  0.00     0.049 A 
ATOM     59  H   UNL A   1      43.784  32.622  31.399  1.00  0.00     0.167 HD
ATOM     60  C   UNL A   1      41.188  31.399  32.227  1.00  0.00     0.074 A 
ATOM     61  C   UNL A   1      41.127  32.481  31.245  1.00  0.00     0.031 C 
ATOM     62  C   UNL A   1      42.223  30.650  32.701  1.00  0.00     0.037 A 
BRANCH  49  63
ATOM     63  C   UNL A   1      44.981  33.003  28.718  1.00  0.00     0.058 A 
ATOM     64  C   UNL A   1      46.275  33.576  28.737  1.00  0.00     0.135 A 
ATOM     65  C   UNL A   1      43.914  33.927  28.685  1.00  0.00     0.135 A 
ATOM     66  F   UNL A   1      47.370  32.797  28.737  1.00  0.00    -0.206 F 
ATOM     67  C   UNL A   1      46.485  34.948  28.863  1.00  0.00     0.059 A 
ATOM     68  C   UNL A   1      44.104  35.302  28.759  1.00  0.00     0.059 A 
ATOM     69  F   UNL A   1      42.633  33.547  28.675  1.00  0.00    -0.206 F 
ATOM     70  C   UNL A   1      45.387  35.800  28.903  1.00  0.00     0.060 A 
BRANCH  70  71
ATOM     71  S   UNL A   1      45.648  37.555  29.210  1.00  0.00     0.124 S 
ATOM     72  O   UNL A   1      46.428  37.940  28.043  1.00  0.00    -0.237 OA
ATOM     73  O   UNL A   1      44.282  38.057  29.267  1.00  0.00    -0.237 OA
ATOM     74  O   UNL A   1      46.367  37.565  30.485  1.00  0.00    -0.744 OA
ENDBRANCH  70  71
ENDBRANCH  49  63
BRANCH  50  75
ATOM     75  C   UNL A   1      36.845  31.464  30.367  1.00  0.00     0.058 A 
ATOM     76  C   UNL A   1      36.082  32.011  31.419  1.00  0.00     0.135 A 
ATOM     77  C   UNL A   1      36.464  31.850  29.068  1.00  0.00     0.135 A 
ATOM     78  F   UNL A   1      36.377  31.711  32.694  1.00  0.00    -0.206 F 
ATOM     79  C   UNL A   1      35.053  32.937  31.201  1.00  0.00     0.059 A 
ATOM     80  C   UNL A   1      35.438  32.766  28.825  1.00  0.00     0.059 A 
ATOM     81  F   UNL A   1      37.143  31.420  27.994  1.00  0.00    -0.206 F 
ATOM     82  C   UNL A   1      34.756  33.330  29.897  1.00  0.00     0.060 A 
BRANCH  82  83
ATOM     83  S   UNL A   1      33.558  34.659  29.618  1.00  0.00     0.124 S 
ATOM     84  O   UNL A   1      32.571  34.004  28.767  1.00  0.00    -0.237 OA
ATOM     85  O   UNL A   1      33.121  34.971  30.975  1.00  0.00    -0.237 OA
ATOM     86  O   UNL A   1      34.350  35.699  28.966  1.00  0.00    -0.744 OA
ENDBRANCH  82  83
ENDBRANCH  50  75
BRANCH  62  87
ATOM     87  C   UNL A   1      41.930  29.576  33.712  1.00  0.00     0.058 A 
ATOM     88  C   UNL A   1      41.583  28.251  33.400  1.00  0.00     0.135 A 
ATOM     89  C   UNL A   1      42.180  29.878  35.060  1.00  0.00     0.135 A 
ATOM     90  F   UNL A   1      41.412  27.862  32.128  1.00  0.00    -0.206 F 
ATOM     91  C   UNL A   1      41.472  27.273  34.393  1.00  0.00     0.059 A 
ATOM     92  C   UNL A   1      42.104  28.915  36.059  1.00  0.00     0.059 A 
ATOM     93  F   UNL A   1      42.566  31.117  35.410  1.00  0.00    -0.206 F 
ATOM     94  C   UNL A   1      41.743  27.614  35.719  1.00  0.00     0.060 A 
BRANCH  94  95
ATOM     95  S   UNL A   1      41.699  26.331  36.989  1.00  0.00     0.124 S 
ATOM     96  O   UNL A   1      42.889  26.638  37.777  1.00  0.00    -0.237 OA
ATOM     97  O   UNL A   1      40.420  26.584  37.646  1.00  0.00    -0.237 OA
ATOM     98  O   UNL A   1      41.763  25.089  36.223  1.00  0.00    -0.744 OA
ENDBRANCH  94  95
ENDBRANCH  62  87
ENDBRANCH  36  37
ENDBRANCH  28  31
ENDBRANCH  26  27
ENDBRANCH  25  26
ENDBRANCH   1  25
TORSDOF 18
ENDMDL
