MODEL 1
REMARK VINA RESULT:     -10.9      0.000      0.000
REMARK SMILES CC(C)C[C@H](Nc1ncnc2scc(-c3ccccc3)c12)C(=O)NCCCCNC(=O)c1ccc(-c2c3nc(c(-c4c(F)cc(S(=O)(=O)[O-])cc4F)c4ccc([nH]4)c(-c4c(F)cc(S(=O)(=O)[O-])cc4F)c4nc(c(-c5c(F)cc(S(=O)(=O)[O-])cc5F)c5ccc2[nH]5)C=C4)C=C3)cc1
REMARK SMILES IDX 26 1 25 2 24 3 22 4 23 5 5 7 4 8 2 9 1 10 3 11 6 12 7 14
REMARK SMILES IDX 8 15 21 16 9 17 11 18 14 19 10 20 12 21 13 22 15 23 16 24
REMARK SMILES IDX 20 25 17 26 19 27 18 28 27 29 28 30 29 31 30 32 31 34 32 35
REMARK SMILES IDX 33 36 97 37 34 38 96 39 35 40 36 41 37 42 90 43 38 44 95 45
REMARK SMILES IDX 89 46 91 47 39 48 94 49 88 50 87 51 40 53 74 54 53 55 73 56
REMARK SMILES IDX 54 57 57 58 72 59 92 60 55 61 56 62 71 64 93 65 58 66 41 67
REMARK SMILES IDX 42 68 51 69 43 70 44 71 50 72 52 73 45 74 46 75 47 76 48 77
REMARK SMILES IDX 49 78 75 79 76 80 85 81 77 82 78 83 84 84 86 85 79 86 80 87
REMARK SMILES IDX 81 88 82 89 83 90 59 91 60 92 69 93 61 94 62 95 68 96 70 97
REMARK SMILES IDX 63 98 64 99 65 100 66 101 67 102
REMARK H PARENT 24 6 6 13 29 33 91 52 57 63
REMARK Flexibility Score: inf
ROOT
ATOM      1  C   UNL A   1      32.287  28.696  25.181  1.00  0.00     0.023 C 
ENDROOT
BRANCH   1   2
ATOM      2  C   UNL A   1      31.761  27.805  24.072  1.00  0.00     0.116 C 
BRANCH   2   3
ATOM      3  N   UNL A   1      32.771  27.327  23.142  1.00  0.00    -0.354 N 
ATOM      4  C   UNL A   1      33.276  26.072  22.933  1.00  0.00     0.242 C 
ATOM      5  O   UNL A   1      34.077  25.939  22.000  1.00  0.00    -0.273 OA
ATOM      6  H   UNL A   1      33.159  28.025  22.565  1.00  0.00     0.163 HD
BRANCH   4   7
ATOM      7  C   UNL A   1      32.988  24.876  23.888  1.00  0.00     0.170 C 
BRANCH   7   8
ATOM      8  C   UNL A   1      33.200  25.151  25.393  1.00  0.00     0.038 C 
BRANCH   8   9
ATOM      9  C   UNL A   1      32.187  24.494  26.363  1.00  0.00    -0.015 C 
ATOM     10  C   UNL A   1      30.817  24.286  25.728  1.00  0.00     0.007 C 
ATOM     11  C   UNL A   1      32.747  23.176  26.901  1.00  0.00     0.007 C 
ENDBRANCH   8   9
ENDBRANCH   7   8
BRANCH   7  12
ATOM     12  N   UNL A   1      33.741  23.733  23.333  1.00  0.00    -0.358 N 
ATOM     13  H   UNL A   1      34.659  23.918  23.031  1.00  0.00     0.162 HD
BRANCH  12  14
ATOM     14  C   UNL A   1      33.303  22.444  23.194  1.00  0.00     0.139 A 
ATOM     15  N   UNL A   1      32.246  22.256  22.372  1.00  0.00    -0.219 NA
ATOM     16  C   UNL A   1      33.880  21.326  23.868  1.00  0.00     0.062 A 
ATOM     17  C   UNL A   1      31.741  21.033  22.217  1.00  0.00     0.225 A 
ATOM     18  C   UNL A   1      33.170  20.138  23.662  1.00  0.00     0.129 A 
ATOM     19  C   UNL A   1      35.042  21.068  24.768  1.00  0.00     0.006 A 
ATOM     20  N   UNL A   1      32.126  19.934  22.843  1.00  0.00    -0.225 NA
ATOM     21  S   UNL A   1      33.699  18.842  24.615  1.00  0.00    -0.123 S 
ATOM     22  C   UNL A   1      34.921  19.789  25.307  1.00  0.00     0.076 A 
BRANCH  19  23
ATOM     23  C   UNL A   1      36.209  21.892  25.214  1.00  0.00    -0.017 A 
ATOM     24  C   UNL A   1      37.514  21.359  25.254  1.00  0.00     0.009 A 
ATOM     25  C   UNL A   1      36.097  23.212  25.648  1.00  0.00     0.009 A 
ATOM     26  C   UNL A   1      38.606  22.084  25.760  1.00  0.00     0.001 A 
ATOM     27  C   UNL A   1      37.179  23.956  26.139  1.00  0.00     0.001 A 
ATOM     28  C   UNL A   1      38.436  23.385  26.210  1.00  0.00     0.000 A 
ENDBRANCH  19  23
ENDBRANCH  12  14
ENDBRANCH   7  12
ENDBRANCH   4   7
ENDBRANCH   2   3
ENDBRANCH   1   2
BRANCH   1  29
ATOM     29  C   UNL A   1      32.450  27.990  26.518  1.00  0.00     0.023 C 
BRANCH  29  30
ATOM     30  C   UNL A   1      33.680  28.482  27.256  1.00  0.00     0.116 C 
BRANCH  30  31
ATOM     31  N   UNL A   1      33.578  29.905  27.571  1.00  0.00    -0.352 N 
ATOM     32  C   UNL A   1      34.480  30.720  28.209  1.00  0.00     0.251 C 
ATOM     33  H   UNL A   1      32.743  30.341  27.286  1.00  0.00     0.163 HD
ATOM     34  O   UNL A   1      34.139  31.822  28.617  1.00  0.00    -0.269 OA
BRANCH  32  35
ATOM     35  C   UNL A   1      35.856  30.233  28.401  1.00  0.00     0.039 A 
ATOM     36  C   UNL A   1      36.759  30.274  27.339  1.00  0.00     0.014 A 
ATOM     37  C   UNL A   1      36.256  29.775  29.659  1.00  0.00     0.014 A 
ATOM     38  C   UNL A   1      38.085  29.907  27.560  1.00  0.00     0.010 A 
ATOM     39  C   UNL A   1      37.597  29.549  29.907  1.00  0.00     0.010 A 
ATOM     40  C   UNL A   1      38.520  29.574  28.854  1.00  0.00    -0.014 A 
BRANCH  40  41
ATOM     41  C   UNL A   1      39.923  29.189  29.134  1.00  0.00     0.031 A 
ATOM     42  C   UNL A   1      40.856  30.209  29.735  1.00  0.00     0.074 A 
ATOM     43  C   UNL A   1      40.369  27.970  28.777  1.00  0.00     0.049 A 
ATOM     44  N   UNL A   1      42.142  30.125  29.953  1.00  0.00    -0.248 NA
ATOM     45  C   UNL A   1      40.277  31.518  30.089  1.00  0.00     0.031 C 
ATOM     46  C   UNL A   1      39.568  26.931  28.122  1.00  0.00     0.029 A 
ATOM     47  N   UNL A   1      41.607  27.398  28.909  1.00  0.00    -0.354 N 
ATOM     48  C   UNL A   1      42.522  31.373  30.435  1.00  0.00     0.074 A 
ATOM     49  C   UNL A   1      41.354  32.220  30.400  1.00  0.00     0.031 C 
ATOM     50  C   UNL A   1      40.326  25.838  27.945  1.00  0.00     0.029 A 
ATOM     51  C   UNL A   1      41.674  26.110  28.431  1.00  0.00     0.049 A 
ATOM     52  H   UNL A   1      42.376  27.866  29.308  1.00  0.00     0.167 HD
ATOM     53  C   UNL A   1      43.727  31.763  30.910  1.00  0.00     0.037 A 
ATOM     54  C   UNL A   1      42.711  25.252  28.392  1.00  0.00     0.037 A 
ATOM     55  C   UNL A   1      44.864  30.888  30.991  1.00  0.00     0.049 A 
ATOM     56  C   UNL A   1      44.033  25.694  28.956  1.00  0.00     0.074 A 
ATOM     57  C   UNL A   1      46.116  31.148  31.518  1.00  0.00     0.029 A 
ATOM     58  N   UNL A   1      44.881  29.574  30.544  1.00  0.00    -0.354 N 
ATOM     59  N   UNL A   1      44.361  26.857  29.472  1.00  0.00    -0.248 NA
ATOM     60  C   UNL A   1      45.123  24.712  28.945  1.00  0.00     0.031 C 
ATOM     61  C   UNL A   1      46.903  30.004  31.350  1.00  0.00     0.029 A 
ATOM     62  C   UNL A   1      46.125  29.014  30.768  1.00  0.00     0.049 A 
ATOM     63  H   UNL A   1      44.120  29.110  30.128  1.00  0.00     0.167 HD
ATOM     64  C   UNL A   1      45.687  26.737  29.870  1.00  0.00     0.074 A 
ATOM     65  C   UNL A   1      46.095  25.383  29.548  1.00  0.00     0.031 C 
ATOM     66  C   UNL A   1      46.497  27.659  30.446  1.00  0.00     0.037 A 
BRANCH  53  67
ATOM     67  C   UNL A   1      43.863  33.183  31.390  1.00  0.00     0.058 A 
ATOM     68  C   UNL A   1      44.257  34.221  30.529  1.00  0.00     0.135 A 
ATOM     69  C   UNL A   1      43.586  33.515  32.726  1.00  0.00     0.135 A 
ATOM     70  F   UNL A   1      44.555  33.959  29.246  1.00  0.00    -0.206 F 
ATOM     71  C   UNL A   1      44.407  35.527  30.982  1.00  0.00     0.059 A 
ATOM     72  C   UNL A   1      43.696  34.822  33.194  1.00  0.00     0.059 A 
ATOM     73  F   UNL A   1      43.209  32.564  33.596  1.00  0.00    -0.206 F 
ATOM     74  C   UNL A   1      44.124  35.818  32.316  1.00  0.00     0.060 A 
BRANCH  74  75
ATOM     75  S   UNL A   1      44.319  37.520  32.884  1.00  0.00     0.124 S 
ATOM     76  O   UNL A   1      43.166  37.667  33.767  1.00  0.00    -0.237 OA
ATOM     77  O   UNL A   1      45.620  37.482  33.542  1.00  0.00    -0.237 OA
ATOM     78  O   UNL A   1      44.266  38.299  31.649  1.00  0.00    -0.744 OA
ENDBRANCH  74  75
ENDBRANCH  53  67
BRANCH  54  79
ATOM     79  C   UNL A   1      42.525  23.886  27.832  1.00  0.00     0.058 A 
ATOM     80  C   UNL A   1      42.500  23.671  26.447  1.00  0.00     0.135 A 
ATOM     81  C   UNL A   1      42.392  22.766  28.668  1.00  0.00     0.135 A 
ATOM     82  F   UNL A   1      42.621  24.709  25.604  1.00  0.00    -0.206 F 
ATOM     83  C   UNL A   1      42.333  22.399  25.907  1.00  0.00     0.059 A 
ATOM     84  C   UNL A   1      42.252  21.481  28.153  1.00  0.00     0.059 A 
ATOM     85  F   UNL A   1      42.433  22.913  30.001  1.00  0.00    -0.206 F 
ATOM     86  C   UNL A   1      42.212  21.309  26.770  1.00  0.00     0.060 A 
BRANCH  86  87
ATOM     87  S   UNL A   1      42.043  19.657  26.060  1.00  0.00     0.124 S 
ATOM     88  O   UNL A   1      42.462  18.813  27.172  1.00  0.00    -0.237 OA
ATOM     89  O   UNL A   1      40.623  19.613  25.723  1.00  0.00    -0.237 OA
ATOM     90  O   UNL A   1      42.949  19.689  24.915  1.00  0.00    -0.744 OA
ENDBRANCH  86  87
ENDBRANCH  54  79
BRANCH  66  91
ATOM     91  C   UNL A   1      47.891  27.226  30.799  1.00  0.00     0.058 A 
ATOM     92  C   UNL A   1      48.160  26.467  31.949  1.00  0.00     0.135 A 
ATOM     93  C   UNL A   1      48.962  27.523  29.940  1.00  0.00     0.135 A 
ATOM     94  F   UNL A   1      47.171  26.163  32.803  1.00  0.00    -0.206 F 
ATOM     95  C   UNL A   1      49.446  26.036  32.247  1.00  0.00     0.059 A 
ATOM     96  C   UNL A   1      50.252  27.076  30.204  1.00  0.00     0.059 A 
ATOM     97  F   UNL A   1      48.756  28.235  28.821  1.00  0.00    -0.206 F 
ATOM     98  C   UNL A   1      50.486  26.342  31.366  1.00  0.00     0.060 A 
BRANCH  98  99
ATOM     99  S   UNL A   1      52.145  25.745  31.747  1.00  0.00     0.124 S 
ATOM    100  O   UNL A   1      52.800  25.850  30.448  1.00  0.00    -0.237 OA
ATOM    101  O   UNL A   1      52.593  26.696  32.762  1.00  0.00    -0.237 OA
ATOM    102  O   UNL A   1      51.916  24.386  32.229  1.00  0.00    -0.744 OA
ENDBRANCH  98  99
ENDBRANCH  66  91
ENDBRANCH  40  41
ENDBRANCH  32  35
ENDBRANCH  30  31
ENDBRANCH  29  30
ENDBRANCH   1  29
TORSDOF 19
ENDMDL
MODEL 2
REMARK VINA RESULT:     -10.8      2.657      3.494
REMARK SMILES CC(C)C[C@H](Nc1ncnc2scc(-c3ccccc3)c12)C(=O)NCCCCNC(=O)c1ccc(-c2c3nc(c(-c4c(F)cc(S(=O)(=O)[O-])cc4F)c4ccc([nH]4)c(-c4c(F)cc(S(=O)(=O)[O-])cc4F)c4nc(c(-c5c(F)cc(S(=O)(=O)[O-])cc5F)c5ccc2[nH]5)C=C4)C=C3)cc1
REMARK SMILES IDX 26 1 25 2 24 3 22 4 23 5 5 7 4 8 2 9 1 10 3 11 6 12 7 14
REMARK SMILES IDX 8 15 21 16 9 17 11 18 14 19 10 20 12 21 13 22 15 23 16 24
REMARK SMILES IDX 20 25 17 26 19 27 18 28 27 29 28 30 29 31 30 32 31 34 32 35
REMARK SMILES IDX 33 36 97 37 34 38 96 39 35 40 36 41 37 42 90 43 38 44 95 45
REMARK SMILES IDX 89 46 91 47 39 48 94 49 88 50 87 51 40 53 74 54 53 55 73 56
REMARK SMILES IDX 54 57 57 58 72 59 92 60 55 61 56 62 71 64 93 65 58 66 41 67
REMARK SMILES IDX 42 68 51 69 43 70 44 71 50 72 52 73 45 74 46 75 47 76 48 77
REMARK SMILES IDX 49 78 75 79 76 80 85 81 77 82 78 83 84 84 86 85 79 86 80 87
REMARK SMILES IDX 81 88 82 89 83 90 59 91 60 92 69 93 61 94 62 95 68 96 70 97
REMARK SMILES IDX 63 98 64 99 65 100 66 101 67 102
REMARK H PARENT 24 6 6 13 29 33 91 52 57 63
REMARK Flexibility Score: inf
ROOT
ATOM      1  C   UNL A   1      34.174  29.111  25.655  1.00  0.00     0.023 C 
ENDROOT
BRANCH   1   2
ATOM      2  C   UNL A   1      33.218  28.131  25.000  1.00  0.00     0.116 C 
BRANCH   2   3
ATOM      3  N   UNL A   1      33.678  27.583  23.735  1.00  0.00    -0.354 N 
ATOM      4  C   UNL A   1      33.663  26.302  23.254  1.00  0.00     0.242 C 
ATOM      5  O   UNL A   1      34.045  26.136  22.090  1.00  0.00    -0.273 OA
ATOM      6  H   UNL A   1      34.067  28.246  23.119  1.00  0.00     0.163 HD
BRANCH   4   7
ATOM      7  C   UNL A   1      33.323  25.070  24.144  1.00  0.00     0.170 C 
BRANCH   7   8
ATOM      8  C   UNL A   1      33.582  25.241  25.657  1.00  0.00     0.038 C 
BRANCH   8   9
ATOM      9  C   UNL A   1      32.435  24.814  26.606  1.00  0.00    -0.015 C 
ATOM     10  C   UNL A   1      31.059  25.186  26.066  1.00  0.00     0.007 C 
ATOM     11  C   UNL A   1      32.521  23.315  26.900  1.00  0.00     0.007 C 
ENDBRANCH   8   9
ENDBRANCH   7   8
BRANCH   7  12
ATOM     12  N   UNL A   1      33.992  23.919  23.505  1.00  0.00    -0.358 N 
ATOM     13  H   UNL A   1      34.914  24.066  23.192  1.00  0.00     0.162 HD
BRANCH  12  14
ATOM     14  C   UNL A   1      33.473  22.669  23.302  1.00  0.00     0.139 A 
ATOM     15  N   UNL A   1      32.430  22.587  22.447  1.00  0.00    -0.219 NA
ATOM     16  C   UNL A   1      33.958  21.488  23.941  1.00  0.00     0.062 A 
ATOM     17  C   UNL A   1      31.849  21.408  22.229  1.00  0.00     0.225 A 
ATOM     18  C   UNL A   1      33.176  20.361  23.669  1.00  0.00     0.129 A 
ATOM     19  C   UNL A   1      35.075  21.117  24.858  1.00  0.00     0.006 A 
ATOM     20  N   UNL A   1      32.143  20.260  22.817  1.00  0.00    -0.225 NA
ATOM     21  S   UNL A   1      33.592  18.994  24.579  1.00  0.00    -0.123 S 
ATOM     22  C   UNL A   1      34.855  19.828  25.339  1.00  0.00     0.076 A 
BRANCH  19  23
ATOM     23  C   UNL A   1      36.282  21.842  25.365  1.00  0.00    -0.017 A 
ATOM     24  C   UNL A   1      36.197  23.166  25.844  1.00  0.00     0.009 A 
ATOM     25  C   UNL A   1      37.562  21.293  25.372  1.00  0.00     0.009 A 
ATOM     26  C   UNL A   1      37.332  23.897  26.233  1.00  0.00     0.001 A 
ATOM     27  C   UNL A   1      38.703  22.002  25.775  1.00  0.00     0.001 A 
ATOM     28  C   UNL A   1      38.590  23.315  26.192  1.00  0.00     0.000 A 
ENDBRANCH  19  23
ENDBRANCH  12  14
ENDBRANCH   7  12
ENDBRANCH   4   7
ENDBRANCH   2   3
ENDBRANCH   1   2
BRANCH   1  29
ATOM     29  C   UNL A   1      34.114  29.112  27.174  1.00  0.00     0.023 C 
BRANCH  29  30
ATOM     30  C   UNL A   1      35.483  29.351  27.781  1.00  0.00     0.116 C 
BRANCH  30  31
ATOM     31  N   UNL A   1      35.390  30.130  29.014  1.00  0.00    -0.352 N 
ATOM     32  C   UNL A   1      36.350  30.368  29.966  1.00  0.00     0.251 C 
ATOM     33  H   UNL A   1      34.513  30.542  29.187  1.00  0.00     0.163 HD
ATOM     34  O   UNL A   1      36.041  30.827  31.058  1.00  0.00    -0.269 OA
BRANCH  32  35
ATOM     35  C   UNL A   1      37.752  30.045  29.648  1.00  0.00     0.039 A 
ATOM     36  C   UNL A   1      38.594  29.563  30.650  1.00  0.00     0.014 A 
ATOM     37  C   UNL A   1      38.210  30.184  28.337  1.00  0.00     0.014 A 
ATOM     38  C   UNL A   1      39.887  29.164  30.316  1.00  0.00     0.010 A 
ATOM     39  C   UNL A   1      39.439  29.657  27.985  1.00  0.00     0.010 A 
ATOM     40  C   UNL A   1      40.306  29.177  28.975  1.00  0.00    -0.014 A 
BRANCH  40  41
ATOM     41  C   UNL A   1      41.668  28.751  28.575  1.00  0.00     0.031 A 
ATOM     42  C   UNL A   1      42.766  29.781  28.503  1.00  0.00     0.074 A 
ATOM     43  C   UNL A   1      41.890  27.475  28.206  1.00  0.00     0.049 A 
ATOM     44  N   UNL A   1      43.992  29.652  28.069  1.00  0.00    -0.248 NA
ATOM     45  C   UNL A   1      42.425  31.152  28.924  1.00  0.00     0.031 C 
ATOM     46  C   UNL A   1      40.881  26.413  28.170  1.00  0.00     0.029 A 
ATOM     47  N   UNL A   1      43.037  26.855  27.784  1.00  0.00    -0.354 N 
ATOM     48  C   UNL A   1      44.548  30.925  28.136  1.00  0.00     0.074 A 
ATOM     49  C   UNL A   1      43.507  31.825  28.572  1.00  0.00     0.031 C 
ATOM     50  C   UNL A   1      41.463  25.266  27.785  1.00  0.00     0.029 A 
ATOM     51  C   UNL A   1      42.872  25.519  27.506  1.00  0.00     0.049 A 
ATOM     52  H   UNL A   1      43.898  27.323  27.689  1.00  0.00     0.167 HD
ATOM     53  C   UNL A   1      45.826  31.301  27.902  1.00  0.00     0.037 A 
ATOM     54  C   UNL A   1      43.762  24.606  27.072  1.00  0.00     0.037 A 
ATOM     55  C   UNL A   1      46.864  30.381  27.525  1.00  0.00     0.049 A 
ATOM     56  C   UNL A   1      45.186  25.038  26.851  1.00  0.00     0.074 A 
ATOM     57  C   UNL A   1      48.209  30.631  27.330  1.00  0.00     0.029 A 
ATOM     58  N   UNL A   1      46.670  29.024  27.301  1.00  0.00    -0.354 N 
ATOM     59  N   UNL A   1      45.714  26.233  26.984  1.00  0.00    -0.248 NA
ATOM     60  C   UNL A   1      46.138  24.003  26.432  1.00  0.00     0.031 C 
ATOM     61  C   UNL A   1      48.821  29.433  26.945  1.00  0.00     0.029 A 
ATOM     62  C   UNL A   1      47.867  28.427  26.955  1.00  0.00     0.049 A 
ATOM     63  H   UNL A   1      45.807  28.557  27.377  1.00  0.00     0.167 HD
ATOM     64  C   UNL A   1      47.065  26.087  26.689  1.00  0.00     0.074 A 
ATOM     65  C   UNL A   1      47.274  24.684  26.387  1.00  0.00     0.031 C 
ATOM     66  C   UNL A   1      48.045  27.025  26.669  1.00  0.00     0.037 A 
BRANCH  53  67
ATOM     67  C   UNL A   1      46.167  32.757  28.066  1.00  0.00     0.058 A 
ATOM     68  C   UNL A   1      46.622  33.277  29.291  1.00  0.00     0.135 A 
ATOM     69  C   UNL A   1      46.049  33.646  26.986  1.00  0.00     0.135 A 
ATOM     70  F   UNL A   1      46.734  32.478  30.363  1.00  0.00    -0.206 F 
ATOM     71  C   UNL A   1      46.911  34.628  29.447  1.00  0.00     0.059 A 
ATOM     72  C   UNL A   1      46.366  34.997  27.110  1.00  0.00     0.059 A 
ATOM     73  F   UNL A   1      45.616  33.208  25.793  1.00  0.00    -0.206 F 
ATOM     74  C   UNL A   1      46.780  35.481  28.351  1.00  0.00     0.060 A 
BRANCH  74  75
ATOM     75  S   UNL A   1      47.166  37.229  28.572  1.00  0.00     0.124 S 
ATOM     76  O   UNL A   1      46.288  37.849  27.584  1.00  0.00    -0.237 OA
ATOM     77  O   UNL A   1      46.806  37.454  29.968  1.00  0.00    -0.237 OA
ATOM     78  O   UNL A   1      48.594  37.303  28.276  1.00  0.00    -0.744 OA
ENDBRANCH  74  75
ENDBRANCH  53  67
BRANCH  54  79
ATOM     79  C   UNL A   1      43.337  23.196  26.858  1.00  0.00     0.058 A 
ATOM     80  C   UNL A   1      43.208  22.670  25.564  1.00  0.00     0.135 A 
ATOM     81  C   UNL A   1      43.075  22.340  27.939  1.00  0.00     0.135 A 
ATOM     82  F   UNL A   1      43.445  23.448  24.497  1.00  0.00    -0.206 F 
ATOM     83  C   UNL A   1      42.817  21.353  25.347  1.00  0.00     0.059 A 
ATOM     84  C   UNL A   1      42.710  21.011  27.748  1.00  0.00     0.059 A 
ATOM     85  F   UNL A   1      43.207  22.786  29.197  1.00  0.00    -0.206 F 
ATOM     86  C   UNL A   1      42.573  20.529  26.447  1.00  0.00     0.060 A 
BRANCH  86  87
ATOM     87  S   UNL A   1      42.113  18.808  26.154  1.00  0.00     0.124 S 
ATOM     88  O   UNL A   1      40.719  18.940  25.748  1.00  0.00    -0.237 OA
ATOM     89  O   UNL A   1      43.049  18.415  25.105  1.00  0.00    -0.237 OA
ATOM     90  O   UNL A   1      42.336  18.175  27.451  1.00  0.00    -0.744 OA
ENDBRANCH  86  87
ENDBRANCH  54  79
BRANCH  66  91
ATOM     91  C   UNL A   1      49.435  26.560  26.343  1.00  0.00     0.058 A 
ATOM     92  C   UNL A   1      49.975  26.694  25.055  1.00  0.00     0.135 A 
ATOM     93  C   UNL A   1      50.258  26.031  27.351  1.00  0.00     0.135 A 
ATOM     94  F   UNL A   1      49.227  27.189  24.057  1.00  0.00    -0.206 F 
ATOM     95  C   UNL A   1      51.277  26.299  24.771  1.00  0.00     0.059 A 
ATOM     96  C   UNL A   1      51.572  25.657  27.096  1.00  0.00     0.059 A 
ATOM     97  F   UNL A   1      49.793  25.894  28.603  1.00  0.00    -0.206 F 
ATOM     98  C   UNL A   1      52.070  25.784  25.799  1.00  0.00     0.060 A 
BRANCH  98  99
ATOM     99  S   UNL A   1      53.769  25.309  25.425  1.00  0.00     0.124 S 
ATOM    100  O   UNL A   1      53.736  23.874  25.685  1.00  0.00    -0.237 OA
ATOM    101  O   UNL A   1      53.898  25.696  24.023  1.00  0.00    -0.237 OA
ATOM    102  O   UNL A   1      54.558  26.100  26.363  1.00  0.00    -0.744 OA
ENDBRANCH  98  99
ENDBRANCH  66  91
ENDBRANCH  40  41
ENDBRANCH  32  35
ENDBRANCH  30  31
ENDBRANCH  29  30
ENDBRANCH   1  29
TORSDOF 19
ENDMDL
MODEL 3
REMARK VINA RESULT:     -10.8      3.448      9.070
REMARK SMILES CC(C)C[C@H](Nc1ncnc2scc(-c3ccccc3)c12)C(=O)NCCCCNC(=O)c1ccc(-c2c3nc(c(-c4c(F)cc(S(=O)(=O)[O-])cc4F)c4ccc([nH]4)c(-c4c(F)cc(S(=O)(=O)[O-])cc4F)c4nc(c(-c5c(F)cc(S(=O)(=O)[O-])cc5F)c5ccc2[nH]5)C=C4)C=C3)cc1
REMARK SMILES IDX 26 1 25 2 24 3 22 4 23 5 5 7 4 8 2 9 1 10 3 11 6 12 7 14
REMARK SMILES IDX 8 15 21 16 9 17 11 18 14 19 10 20 12 21 13 22 15 23 16 24
REMARK SMILES IDX 20 25 17 26 19 27 18 28 27 29 28 30 29 31 30 32 31 34 32 35
REMARK SMILES IDX 33 36 97 37 34 38 96 39 35 40 36 41 37 42 90 43 38 44 95 45
REMARK SMILES IDX 89 46 91 47 39 48 94 49 88 50 87 51 40 53 74 54 53 55 73 56
REMARK SMILES IDX 54 57 57 58 72 59 92 60 55 61 56 62 71 64 93 65 58 66 41 67
REMARK SMILES IDX 42 68 51 69 43 70 44 71 50 72 52 73 45 74 46 75 47 76 48 77
REMARK SMILES IDX 49 78 75 79 76 80 85 81 77 82 78 83 84 84 86 85 79 86 80 87
REMARK SMILES IDX 81 88 82 89 83 90 59 91 60 92 69 93 61 94 62 95 68 96 70 97
REMARK SMILES IDX 63 98 64 99 65 100 66 101 67 102
REMARK H PARENT 24 6 6 13 29 33 91 52 57 63
REMARK Flexibility Score: inf
ROOT
ATOM      1  C   UNL A   1      37.568  20.969  24.642  1.00  0.00     0.023 C 
ENDROOT
BRANCH   1   2
ATOM      2  C   UNL A   1      36.139  20.829  25.130  1.00  0.00     0.116 C 
BRANCH   2   3
ATOM      3  N   UNL A   1      35.868  21.456  26.414  1.00  0.00    -0.354 N 
ATOM      4  C   UNL A   1      34.762  22.117  26.873  1.00  0.00     0.242 C 
ATOM      5  O   UNL A   1      34.775  22.476  28.056  1.00  0.00    -0.273 OA
ATOM      6  H   UNL A   1      36.607  21.395  27.062  1.00  0.00     0.163 HD
BRANCH   4   7
ATOM      7  C   UNL A   1      33.584  22.540  25.945  1.00  0.00     0.170 C 
BRANCH   7   8
ATOM      8  C   UNL A   1      33.085  23.993  26.112  1.00  0.00     0.038 C 
BRANCH   8   9
ATOM      9  C   UNL A   1      34.097  25.113  25.767  1.00  0.00    -0.015 C 
ATOM     10  C   UNL A   1      34.973  24.764  24.569  1.00  0.00     0.007 C 
ATOM     11  C   UNL A   1      33.367  26.438  25.544  1.00  0.00     0.007 C 
ENDBRANCH   8   9
ENDBRANCH   7   8
BRANCH   7  12
ATOM     12  N   UNL A   1      32.559  21.489  26.098  1.00  0.00    -0.358 N 
ATOM     13  H   UNL A   1      31.881  21.636  26.796  1.00  0.00     0.162 HD
BRANCH  12  14
ATOM     14  C   UNL A   1      32.447  20.332  25.375  1.00  0.00     0.139 A 
ATOM     15  N   UNL A   1      32.553  19.178  26.071  1.00  0.00    -0.219 NA
ATOM     16  C   UNL A   1      32.244  20.288  23.963  1.00  0.00     0.062 A 
ATOM     17  C   UNL A   1      32.491  18.013  25.429  1.00  0.00     0.225 A 
ATOM     18  C   UNL A   1      32.296  18.990  23.444  1.00  0.00     0.129 A 
ATOM     19  C   UNL A   1      32.012  21.263  22.857  1.00  0.00     0.006 A 
ATOM     20  N   UNL A   1      32.392  17.835  24.122  1.00  0.00    -0.225 NA
ATOM     21  S   UNL A   1      32.276  18.920  21.752  1.00  0.00    -0.123 S 
ATOM     22  C   UNL A   1      32.153  20.605  21.638  1.00  0.00     0.076 A 
BRANCH  19  23
ATOM     23  C   UNL A   1      31.726  22.731  22.815  1.00  0.00    -0.017 A 
ATOM     24  C   UNL A   1      32.558  23.623  22.106  1.00  0.00     0.009 A 
ATOM     25  C   UNL A   1      30.659  23.326  23.487  1.00  0.00     0.009 A 
ATOM     26  C   UNL A   1      32.362  25.014  22.135  1.00  0.00     0.001 A 
ATOM     27  C   UNL A   1      30.439  24.711  23.511  1.00  0.00     0.001 A 
ATOM     28  C   UNL A   1      31.303  25.560  22.845  1.00  0.00     0.000 A 
ENDBRANCH  19  23
ENDBRANCH  12  14
ENDBRANCH   7  12
ENDBRANCH   4   7
ENDBRANCH   2   3
ENDBRANCH   1   2
BRANCH   1  29
ATOM     29  C   UNL A   1      38.491  19.851  25.102  1.00  0.00     0.023 C 
BRANCH  29  30
ATOM     30  C   UNL A   1      39.632  20.387  25.945  1.00  0.00     0.116 C 
BRANCH  30  31
ATOM     31  N   UNL A   1      40.637  19.356  26.199  1.00  0.00    -0.352 N 
ATOM     32  C   UNL A   1      41.998  19.482  26.325  1.00  0.00     0.251 C 
ATOM     33  H   UNL A   1      40.287  18.440  26.291  1.00  0.00     0.163 HD
ATOM     34  O   UNL A   1      42.719  18.495  26.284  1.00  0.00    -0.269 OA
BRANCH  32  35
ATOM     35  C   UNL A   1      42.567  20.831  26.497  1.00  0.00     0.039 A 
ATOM     36  C   UNL A   1      42.967  21.559  25.377  1.00  0.00     0.014 A 
ATOM     37  C   UNL A   1      42.657  21.383  27.776  1.00  0.00     0.014 A 
ATOM     38  C   UNL A   1      43.407  22.871  25.543  1.00  0.00     0.010 A 
ATOM     39  C   UNL A   1      42.958  22.724  27.920  1.00  0.00     0.010 A 
ATOM     40  C   UNL A   1      43.374  23.473  26.811  1.00  0.00    -0.014 A 
BRANCH  40  41
ATOM     41  C   UNL A   1      43.822  24.869  27.029  1.00  0.00     0.031 A 
ATOM     42  C   UNL A   1      45.276  25.210  26.830  1.00  0.00     0.074 A 
ATOM     43  C   UNL A   1      42.949  25.791  27.477  1.00  0.00     0.049 A 
ATOM     44  N   UNL A   1      45.902  26.331  27.075  1.00  0.00    -0.248 NA
ATOM     45  C   UNL A   1      46.155  24.132  26.341  1.00  0.00     0.031 C 
ATOM     46  C   UNL A   1      41.533  25.550  27.772  1.00  0.00     0.029 A 
ATOM     47  N   UNL A   1      43.125  27.119  27.769  1.00  0.00    -0.354 N 
ATOM     48  C   UNL A   1      47.242  26.079  26.800  1.00  0.00     0.074 A 
ATOM     49  C   UNL A   1      47.352  24.682  26.452  1.00  0.00     0.031 C 
ATOM     50  C   UNL A   1      40.964  26.699  28.166  1.00  0.00     0.029 A 
ATOM     51  C   UNL A   1      41.978  27.747  28.194  1.00  0.00     0.049 A 
ATOM     52  H   UNL A   1      43.991  27.578  27.682  1.00  0.00     0.167 HD
ATOM     53  C   UNL A   1      48.280  26.945  26.794  1.00  0.00     0.037 A 
ATOM     54  C   UNL A   1      41.776  29.025  28.566  1.00  0.00     0.037 A 
ATOM     55  C   UNL A   1      48.141  28.345  27.086  1.00  0.00     0.049 A 
ATOM     56  C   UNL A   1      42.937  29.981  28.518  1.00  0.00     0.074 A 
ATOM     57  C   UNL A   1      49.106  29.336  27.042  1.00  0.00     0.029 A 
ATOM     58  N   UNL A   1      46.954  28.957  27.465  1.00  0.00    -0.354 N 
ATOM     59  N   UNL A   1      44.186  29.743  28.191  1.00  0.00    -0.248 NA
ATOM     60  C   UNL A   1      42.664  31.378  28.876  1.00  0.00     0.031 C 
ATOM     61  C   UNL A   1      48.510  30.538  27.436  1.00  0.00     0.029 A 
ATOM     62  C   UNL A   1      47.163  30.308  27.672  1.00  0.00     0.049 A 
ATOM     63  H   UNL A   1      46.091  28.496  27.571  1.00  0.00     0.167 HD
ATOM     64  C   UNL A   1      44.842  30.965  28.280  1.00  0.00     0.074 A 
ATOM     65  C   UNL A   1      43.847  31.942  28.677  1.00  0.00     0.031 C 
ATOM     66  C   UNL A   1      46.148  31.257  28.057  1.00  0.00     0.037 A 
BRANCH  53  67
ATOM     67  C   UNL A   1      49.640  26.405  26.441  1.00  0.00     0.058 A 
ATOM     68  C   UNL A   1      50.163  26.511  25.141  1.00  0.00     0.135 A 
ATOM     69  C   UNL A   1      50.436  25.781  27.415  1.00  0.00     0.135 A 
ATOM     70  F   UNL A   1      49.439  27.080  24.165  1.00  0.00    -0.206 F 
ATOM     71  C   UNL A   1      51.408  25.987  24.811  1.00  0.00     0.059 A 
ATOM     72  C   UNL A   1      51.700  25.279  27.115  1.00  0.00     0.059 A 
ATOM     73  F   UNL A   1      49.986  25.646  28.672  1.00  0.00    -0.206 F 
ATOM     74  C   UNL A   1      52.170  25.373  25.806  1.00  0.00     0.060 A 
BRANCH  74  75
ATOM     75  S   UNL A   1      53.786  24.705  25.359  1.00  0.00     0.124 S 
ATOM     76  O   UNL A   1      54.527  24.880  26.605  1.00  0.00    -0.237 OA
ATOM     77  O   UNL A   1      53.466  23.328  25.001  1.00  0.00    -0.237 OA
ATOM     78  O   UNL A   1      54.212  25.555  24.251  1.00  0.00    -0.744 OA
ENDBRANCH  74  75
ENDBRANCH  53  67
BRANCH  54  79
ATOM     79  C   UNL A   1      40.418  29.475  28.976  1.00  0.00     0.058 A 
ATOM     80  C   UNL A   1      40.127  29.759  30.318  1.00  0.00     0.135 A 
ATOM     81  C   UNL A   1      39.392  29.653  28.035  1.00  0.00     0.135 A 
ATOM     82  F   UNL A   1      41.073  29.603  31.257  1.00  0.00    -0.206 F 
ATOM     83  C   UNL A   1      38.865  30.185  30.718  1.00  0.00     0.059 A 
ATOM     84  C   UNL A   1      38.129  30.105  28.406  1.00  0.00     0.059 A 
ATOM     85  F   UNL A   1      39.624  29.418  26.734  1.00  0.00    -0.206 F 
ATOM     86  C   UNL A   1      37.872  30.358  29.752  1.00  0.00     0.060 A 
BRANCH  86  87
ATOM     87  S   UNL A   1      36.251  30.957  30.275  1.00  0.00     0.124 S 
ATOM     88  O   UNL A   1      36.552  32.335  30.647  1.00  0.00    -0.237 OA
ATOM     89  O   UNL A   1      35.454  30.783  29.064  1.00  0.00    -0.237 OA
ATOM     90  O   UNL A   1      35.903  30.066  31.378  1.00  0.00    -0.744 OA
ENDBRANCH  86  87
ENDBRANCH  54  79
BRANCH  66  91
ATOM     91  C   UNL A   1      46.568  32.692  28.202  1.00  0.00     0.058 A 
ATOM     92  C   UNL A   1      46.379  33.623  27.170  1.00  0.00     0.135 A 
ATOM     93  C   UNL A   1      47.107  33.152  29.414  1.00  0.00     0.135 A 
ATOM     94  F   UNL A   1      45.872  33.232  25.991  1.00  0.00    -0.206 F 
ATOM     95  C   UNL A   1      46.732  34.958  27.326  1.00  0.00     0.059 A 
ATOM     96  C   UNL A   1      47.440  34.488  29.602  1.00  0.00     0.059 A 
ATOM     97  F   UNL A   1      47.296  32.303  30.438  1.00  0.00    -0.206 F 
ATOM     98  C   UNL A   1      47.259  35.382  28.548  1.00  0.00     0.060 A 
BRANCH  98  99
ATOM     99  S   UNL A   1      47.680  37.125  28.749  1.00  0.00     0.124 S 
ATOM    100  O   UNL A   1      47.313  37.356  30.142  1.00  0.00    -0.237 OA
ATOM    101  O   UNL A   1      49.112  37.135  28.459  1.00  0.00    -0.237 OA
ATOM    102  O   UNL A   1      46.842  37.794  27.759  1.00  0.00    -0.744 OA
ENDBRANCH  98  99
ENDBRANCH  66  91
ENDBRANCH  40  41
ENDBRANCH  32  35
ENDBRANCH  30  31
ENDBRANCH  29  30
ENDBRANCH   1  29
TORSDOF 19
ENDMDL
