MODEL 1
REMARK VINA RESULT:     -14.4      0.000      0.000
REMARK SMILES O=C(N[C@]1(C(=O)NCCCCNC(=O)c2ccc(-c3c4nc(c(-c5c(F)cc(S(=O)(=O)[O-])cc5F)c5ccc([nH]5)c(-c5c(F)cc(S(=O)(=O)[O-])cc5F)c5nc(c(-c6c(F)cc(S(=O)(=O)[O-])cc6F)c6ccc3[nH]6)C=C5)C=C4)cc2)CC[C@H](c2ccccc2)CC1)OCC1c2ccccc2-c2ccccc21
REMARK SMILES IDX 9 1 8 2 7 3 5 4 6 5 4 7 81 8 91 9 82 10 90 11 83 12 3 13
REMARK SMILES IDX 1 14 2 15 92 17 93 18 94 19 95 20 106 21 96 22 100 23 101 24
REMARK SMILES IDX 105 25 97 26 99 27 102 28 104 29 98 30 103 31 84 32 85 33
REMARK SMILES IDX 89 34 86 35 88 36 87 37 10 38 11 39 12 40 13 41 14 43 15 44
REMARK SMILES IDX 16 45 80 46 17 47 79 48 18 49 19 50 20 51 73 52 21 53 78 54
REMARK SMILES IDX 72 55 74 56 22 57 77 58 71 59 70 60 23 62 57 63 36 64 56 65
REMARK SMILES IDX 37 66 40 67 55 68 75 69 38 70 39 71 54 73 76 74 41 75 24 76
REMARK SMILES IDX 25 77 34 78 26 79 27 80 33 81 35 82 28 83 29 84 30 85 31 86
REMARK SMILES IDX 32 87 58 88 59 89 68 90 60 91 61 92 67 93 69 94 62 95 63 96
REMARK SMILES IDX 64 97 65 98 66 99 42 100 43 101 52 102 44 103 45 104 51 105
REMARK SMILES IDX 53 106 46 107 47 108 48 109 49 110 50 111
REMARK H PARENT 7 6 3 16 12 42 74 61 40 72
REMARK Flexibility Score: inf
ROOT
ATOM      1  C   UNL A   1      32.203  28.366  26.475  1.00  0.00     0.023 C 
ENDROOT
BRANCH   1   2
ATOM      2  C   UNL A   1      33.446  27.564  25.921  1.00  0.00     0.116 C 
BRANCH   2   3
ATOM      3  N   UNL A   1      33.579  26.149  26.491  1.00  0.00    -0.354 N 
ATOM      4  C   UNL A   1      33.810  24.949  25.799  1.00  0.00     0.245 C 
ATOM      5  O   UNL A   1      34.652  24.978  24.885  1.00  0.00    -0.272 OA
ATOM      6  H   UNL A   1      33.491  26.070  27.469  1.00  0.00     0.163 HD
BRANCH   4   7
ATOM      7  C   UNL A   1      33.037  23.392  26.163  1.00  0.00     0.122 C 
ATOM      8  C   UNL A   1      34.051  22.559  27.052  1.00  0.00     0.039 C 
ATOM      9  C   UNL A   1      32.107  22.200  25.777  1.00  0.00     0.039 C 
ATOM     10  C   UNL A   1      34.486  21.086  26.522  1.00  0.00     0.011 C 
ATOM     11  C   UNL A   1      32.550  21.095  24.872  1.00  0.00     0.011 C 
ATOM     12  C   UNL A   1      33.920  20.524  25.177  1.00  0.00     0.019 C 
BRANCH   7  13
ATOM     13  N   UNL A   1      31.964  24.160  26.765  1.00  0.00    -0.307 N 
ATOM     14  O   UNL A   1      29.892  25.024  26.463  1.00  0.00    -0.225 OA
ATOM     15  C   UNL A   1      30.859  24.479  25.980  1.00  0.00     0.408 C 
ATOM     16  H   UNL A   1      32.016  24.450  27.705  1.00  0.00     0.168 HD
BRANCH  15  17
ATOM     17  O   UNL A   1      30.997  24.292  24.609  1.00  0.00    -0.449 OA
BRANCH  17  18
ATOM     18  C   UNL A   1      30.191  24.749  23.430  1.00  0.00     0.248 C 
BRANCH  18  19
ATOM     19  C   UNL A   1      30.074  26.305  22.938  1.00  0.00     0.088 C 
ATOM     20  C   UNL A   1      31.476  26.952  22.814  1.00  0.00    -0.029 A 
ATOM     21  C   UNL A   1      29.201  27.651  23.209  1.00  0.00    -0.029 A 
ATOM     22  C   UNL A   1      32.694  26.351  22.541  1.00  0.00     0.005 A 
ATOM     23  C   UNL A   1      31.387  28.356  22.867  1.00  0.00    -0.014 A 
ATOM     24  C   UNL A   1      30.032  28.777  23.068  1.00  0.00    -0.014 A 
ATOM     25  C   UNL A   1      27.849  28.015  23.342  1.00  0.00     0.005 A 
ATOM     26  C   UNL A   1      33.808  27.167  22.332  1.00  0.00     0.000 A 
ATOM     27  C   UNL A   1      32.489  29.165  22.666  1.00  0.00     0.009 A 
ATOM     28  C   UNL A   1      29.554  30.108  23.038  1.00  0.00     0.009 A 
ATOM     29  C   UNL A   1      27.343  29.329  23.316  1.00  0.00     0.000 A 
ATOM     30  C   UNL A   1      33.707  28.562  22.391  1.00  0.00     0.001 A 
ATOM     31  C   UNL A   1      28.199  30.384  23.149  1.00  0.00     0.001 A 
ENDBRANCH  18  19
ENDBRANCH  17  18
ENDBRANCH  15  17
ENDBRANCH   7  13
BRANCH  12  32
ATOM     32  C   UNL A   1      33.712  19.031  24.850  1.00  0.00    -0.045 A 
ATOM     33  C   UNL A   1      34.717  18.219  24.326  1.00  0.00     0.004 A 
ATOM     34  C   UNL A   1      32.583  18.394  25.441  1.00  0.00     0.004 A 
ATOM     35  C   UNL A   1      34.657  16.828  24.502  1.00  0.00     0.000 A 
ATOM     36  C   UNL A   1      32.546  17.013  25.645  1.00  0.00     0.000 A 
ATOM     37  C   UNL A   1      33.600  16.231  25.194  1.00  0.00     0.000 A 
ENDBRANCH  12  32
ENDBRANCH   4   7
ENDBRANCH   2   3
ENDBRANCH   1   2
BRANCH   1  38
ATOM     38  C   UNL A   1      32.307  29.780  27.066  1.00  0.00     0.023 C 
BRANCH  38  39
ATOM     39  C   UNL A   1      33.735  30.339  27.239  1.00  0.00     0.116 C 
BRANCH  39  40
ATOM     40  N   UNL A   1      33.970  31.227  28.393  1.00  0.00    -0.352 N 
ATOM     41  C   UNL A   1      35.104  31.385  29.177  1.00  0.00     0.251 C 
ATOM     42  H   UNL A   1      33.206  31.794  28.645  1.00  0.00     0.163 HD
ATOM     43  O   UNL A   1      35.193  32.290  30.003  1.00  0.00    -0.269 OA
BRANCH  41  44
ATOM     44  C   UNL A   1      36.191  30.390  29.078  1.00  0.00     0.039 A 
ATOM     45  C   UNL A   1      36.892  30.283  27.871  1.00  0.00     0.014 A 
ATOM     46  C   UNL A   1      36.624  29.710  30.212  1.00  0.00     0.014 A 
ATOM     47  C   UNL A   1      38.143  29.661  27.860  1.00  0.00     0.010 A 
ATOM     48  C   UNL A   1      37.905  29.173  30.221  1.00  0.00     0.010 A 
ATOM     49  C   UNL A   1      38.702  29.203  29.062  1.00  0.00    -0.014 A 
BRANCH  49  50
ATOM     50  C   UNL A   1      40.148  28.873  29.182  1.00  0.00     0.031 A 
ATOM     51  C   UNL A   1      41.145  29.952  29.486  1.00  0.00     0.074 A 
ATOM     52  C   UNL A   1      40.574  27.637  28.843  1.00  0.00     0.049 A 
ATOM     53  N   UNL A   1      42.449  29.914  29.424  1.00  0.00    -0.248 NA
ATOM     54  C   UNL A   1      40.596  31.262  29.866  1.00  0.00     0.031 C 
ATOM     55  C   UNL A   1      39.712  26.518  28.450  1.00  0.00     0.029 A 
ATOM     56  N   UNL A   1      41.843  27.121  28.736  1.00  0.00    -0.354 N 
ATOM     57  C   UNL A   1      42.878  31.202  29.713  1.00  0.00     0.074 A 
ATOM     58  C   UNL A   1      41.690  32.006  29.914  1.00  0.00     0.031 C 
ATOM     59  C   UNL A   1      40.472  25.454  28.152  1.00  0.00     0.029 A 
ATOM     60  C   UNL A   1      41.877  25.822  28.282  1.00  0.00     0.049 A 
ATOM     61  H   UNL A   1      42.653  27.633  28.962  1.00  0.00     0.167 HD
ATOM     62  C   UNL A   1      44.146  31.669  29.815  1.00  0.00     0.037 A 
ATOM     63  C   UNL A   1      42.919  25.020  27.981  1.00  0.00     0.037 A 
ATOM     64  C   UNL A   1      45.319  30.853  29.652  1.00  0.00     0.049 A 
ATOM     65  C   UNL A   1      44.317  25.541  28.151  1.00  0.00     0.074 A 
ATOM     66  C   UNL A   1      46.644  31.208  29.824  1.00  0.00     0.029 A 
ATOM     67  N   UNL A   1      45.308  29.517  29.276  1.00  0.00    -0.354 N 
ATOM     68  N   UNL A   1      44.708  26.741  28.508  1.00  0.00    -0.248 NA
ATOM     69  C   UNL A   1      45.419  24.605  27.885  1.00  0.00     0.031 C 
ATOM     70  C   UNL A   1      47.437  30.097  29.518  1.00  0.00     0.029 A 
ATOM     71  C   UNL A   1      46.605  29.038  29.196  1.00  0.00     0.049 A 
ATOM     72  H   UNL A   1      44.498  28.988  29.093  1.00  0.00     0.167 HD
ATOM     73  C   UNL A   1      46.096  26.700  28.531  1.00  0.00     0.074 A 
ATOM     74  C   UNL A   1      46.480  25.354  28.159  1.00  0.00     0.031 C 
ATOM     75  C   UNL A   1      46.971  27.689  28.838  1.00  0.00     0.037 A 
BRANCH  62  76
ATOM     76  C   UNL A   1      44.318  33.133  30.112  1.00  0.00     0.058 A 
ATOM     77  C   UNL A   1      44.256  33.633  31.423  1.00  0.00     0.135 A 
ATOM     78  C   UNL A   1      44.539  34.050  29.072  1.00  0.00     0.135 A 
ATOM     79  F   UNL A   1      44.035  32.802  32.454  1.00  0.00    -0.206 F 
ATOM     80  C   UNL A   1      44.350  34.995  31.687  1.00  0.00     0.059 A 
ATOM     81  C   UNL A   1      44.668  35.414  29.316  1.00  0.00     0.059 A 
ATOM     82  F   UNL A   1      44.613  33.626  27.800  1.00  0.00    -0.206 F 
ATOM     83  C   UNL A   1      44.545  35.879  30.625  1.00  0.00     0.060 A 
BRANCH  83  84
ATOM     84  S   UNL A   1      44.623  37.647  30.977  1.00  0.00     0.124 S 
ATOM     85  O   UNL A   1      45.876  38.016  30.324  1.00  0.00    -0.237 OA
ATOM     86  O   UNL A   1      43.409  38.148  30.341  1.00  0.00    -0.237 OA
ATOM     87  O   UNL A   1      44.633  37.704  32.434  1.00  0.00    -0.744 OA
ENDBRANCH  83  84
ENDBRANCH  62  76
BRANCH  63  88
ATOM     88  C   UNL A   1      42.665  23.634  27.503  1.00  0.00     0.058 A 
ATOM     89  C   UNL A   1      42.662  23.334  26.133  1.00  0.00     0.135 A 
ATOM     90  C   UNL A   1      42.475  22.574  28.404  1.00  0.00     0.135 A 
ATOM     91  F   UNL A   1      42.832  24.313  25.233  1.00  0.00    -0.206 F 
ATOM     92  C   UNL A   1      42.478  22.034  25.670  1.00  0.00     0.059 A 
ATOM     93  C   UNL A   1      42.310  21.263  27.967  1.00  0.00     0.059 A 
ATOM     94  F   UNL A   1      42.488  22.805  29.726  1.00  0.00    -0.206 F 
ATOM     95  C   UNL A   1      42.310  21.003  26.597  1.00  0.00     0.060 A 
BRANCH  95  96
ATOM     96  S   UNL A   1      42.157  19.309  25.989  1.00  0.00     0.124 S 
ATOM     97  O   UNL A   1      42.629  18.541  27.135  1.00  0.00    -0.237 OA
ATOM     98  O   UNL A   1      40.728  19.214  25.702  1.00  0.00    -0.237 OA
ATOM     99  O   UNL A   1      43.025  19.294  24.815  1.00  0.00    -0.744 OA
ENDBRANCH  95  96
ENDBRANCH  63  88
BRANCH  75 100
ATOM    100  C   UNL A   1      48.437  27.357  28.821  1.00  0.00     0.058 A 
ATOM    101  C   UNL A   1      49.229  27.575  27.685  1.00  0.00     0.135 A 
ATOM    102  C   UNL A   1      49.073  26.913  29.993  1.00  0.00     0.135 A 
ATOM    103  F   UNL A   1      48.666  27.990  26.538  1.00  0.00    -0.206 F 
ATOM    104  C   UNL A   1      50.604  27.370  27.710  1.00  0.00     0.059 A 
ATOM    105  C   UNL A   1      50.449  26.723  30.046  1.00  0.00     0.059 A 
ATOM    106  F   UNL A   1      48.359  26.695  31.108  1.00  0.00    -0.206 F 
ATOM    107  C   UNL A   1      51.208  26.953  28.899  1.00  0.00     0.060 A 
BRANCH 107 108
ATOM    108  S   UNL A   1      53.003  26.771  28.943  1.00  0.00     0.124 S 
ATOM    109  O   UNL A   1      53.242  25.926  27.778  1.00  0.00    -0.237 OA
ATOM    110  O   UNL A   1      53.460  28.153  28.829  1.00  0.00    -0.237 OA
ATOM    111  O   UNL A   1      53.250  26.142  30.237  1.00  0.00    -0.744 OA
ENDBRANCH 107 108
ENDBRANCH  75 100
ENDBRANCH  49  50
ENDBRANCH  41  44
ENDBRANCH  39  40
ENDBRANCH  38  39
ENDBRANCH   1  38
TORSDOF 19
ENDMDL
MODEL 2
REMARK VINA RESULT:     -13.8      5.229     10.395
REMARK SMILES O=C(N[C@]1(C(=O)NCCCCNC(=O)c2ccc(-c3c4nc(c(-c5c(F)cc(S(=O)(=O)[O-])cc5F)c5ccc([nH]5)c(-c5c(F)cc(S(=O)(=O)[O-])cc5F)c5nc(c(-c6c(F)cc(S(=O)(=O)[O-])cc6F)c6ccc3[nH]6)C=C5)C=C4)cc2)CC[C@H](c2ccccc2)CC1)OCC1c2ccccc2-c2ccccc21
REMARK SMILES IDX 9 1 8 2 7 3 5 4 6 5 4 7 81 8 91 9 82 10 90 11 83 12 3 13
REMARK SMILES IDX 1 14 2 15 92 17 93 18 94 19 95 20 106 21 96 22 100 23 101 24
REMARK SMILES IDX 105 25 97 26 99 27 102 28 104 29 98 30 103 31 84 32 85 33
REMARK SMILES IDX 89 34 86 35 88 36 87 37 10 38 11 39 12 40 13 41 14 43 15 44
REMARK SMILES IDX 16 45 80 46 17 47 79 48 18 49 19 50 20 51 73 52 21 53 78 54
REMARK SMILES IDX 72 55 74 56 22 57 77 58 71 59 70 60 23 62 57 63 36 64 56 65
REMARK SMILES IDX 37 66 40 67 55 68 75 69 38 70 39 71 54 73 76 74 41 75 24 76
REMARK SMILES IDX 25 77 34 78 26 79 27 80 33 81 35 82 28 83 29 84 30 85 31 86
REMARK SMILES IDX 32 87 58 88 59 89 68 90 60 91 61 92 67 93 69 94 62 95 63 96
REMARK SMILES IDX 64 97 65 98 66 99 42 100 43 101 52 102 44 103 45 104 51 105
REMARK SMILES IDX 53 106 46 107 47 108 48 109 49 110 50 111
REMARK H PARENT 7 6 3 16 12 42 74 61 40 72
REMARK Flexibility Score: inf
ROOT
ATOM      1  C   UNL A   1      40.238  22.958  27.172  1.00  0.00     0.023 C 
ENDROOT
BRANCH   1   2
ATOM      2  C   UNL A   1      39.600  21.901  26.186  1.00  0.00     0.116 C 
BRANCH   2   3
ATOM      3  N   UNL A   1      38.091  21.714  26.363  1.00  0.00    -0.354 N 
ATOM      4  C   UNL A   1      37.137  21.357  25.396  1.00  0.00     0.245 C 
ATOM      5  O   UNL A   1      37.453  20.457  24.599  1.00  0.00    -0.272 OA
ATOM      6  H   UNL A   1      37.744  21.865  27.273  1.00  0.00     0.163 HD
BRANCH   4   7
ATOM      7  C   UNL A   1      35.506  22.048  25.261  1.00  0.00     0.122 C 
ATOM      8  C   UNL A   1      35.401  22.732  23.836  1.00  0.00     0.039 C 
ATOM      9  C   UNL A   1      34.251  22.731  25.888  1.00  0.00     0.039 C 
ATOM     10  C   UNL A   1      34.989  24.303  23.780  1.00  0.00     0.011 C 
ATOM     11  C   UNL A   1      34.202  24.193  26.197  1.00  0.00     0.011 C 
ATOM     12  C   UNL A   1      34.714  25.102  25.096  1.00  0.00     0.019 C 
BRANCH   7  13
ATOM     13  N   UNL A   1      35.009  20.705  25.490  1.00  0.00    -0.307 N 
ATOM     14  O   UNL A   1      33.755  19.013  24.656  1.00  0.00    -0.225 OA
ATOM     15  C   UNL A   1      34.114  20.165  24.569  1.00  0.00     0.408 C 
ATOM     16  H   UNL A   1      35.296  20.188  26.276  1.00  0.00     0.168 HD
BRANCH  15  17
ATOM     17  O   UNL A   1      33.543  21.055  23.665  1.00  0.00    -0.449 OA
BRANCH  17  18
ATOM     18  C   UNL A   1      32.177  21.664  23.558  1.00  0.00     0.248 C 
BRANCH  18  19
ATOM     19  C   UNL A   1      31.846  23.243  23.828  1.00  0.00     0.088 C 
ATOM     20  C   UNL A   1      30.871  23.408  25.020  1.00  0.00    -0.029 A 
ATOM     21  C   UNL A   1      31.491  24.613  23.025  1.00  0.00    -0.029 A 
ATOM     22  C   UNL A   1      30.689  22.584  26.119  1.00  0.00     0.005 A 
ATOM     23  C   UNL A   1      30.218  24.653  24.966  1.00  0.00    -0.014 A 
ATOM     24  C   UNL A   1      30.609  25.387  23.799  1.00  0.00    -0.014 A 
ATOM     25  C   UNL A   1      31.955  25.320  21.901  1.00  0.00     0.005 A 
ATOM     26  C   UNL A   1      29.848  23.019  27.147  1.00  0.00     0.000 A 
ATOM     27  C   UNL A   1      29.381  25.083  25.979  1.00  0.00     0.009 A 
ATOM     28  C   UNL A   1      30.257  26.723  23.491  1.00  0.00     0.009 A 
ATOM     29  C   UNL A   1      31.623  26.647  21.568  1.00  0.00     0.000 A 
ATOM     30  C   UNL A   1      29.201  24.259  27.078  1.00  0.00     0.001 A 
ATOM     31  C   UNL A   1      30.780  27.361  22.376  1.00  0.00     0.001 A 
ENDBRANCH  18  19
ENDBRANCH  17  18
ENDBRANCH  15  17
ENDBRANCH   7  13
BRANCH  12  32
ATOM     32  C   UNL A   1      33.764  26.310  25.226  1.00  0.00    -0.045 A 
ATOM     33  C   UNL A   1      32.994  26.554  26.363  1.00  0.00     0.004 A 
ATOM     34  C   UNL A   1      33.960  27.385  24.312  1.00  0.00     0.004 A 
ATOM     35  C   UNL A   1      32.548  27.855  26.641  1.00  0.00     0.000 A 
ATOM     36  C   UNL A   1      33.545  28.683  24.612  1.00  0.00     0.000 A 
ATOM     37  C   UNL A   1      32.857  28.922  25.793  1.00  0.00     0.000 A 
ENDBRANCH  12  32
ENDBRANCH   4   7
ENDBRANCH   2   3
ENDBRANCH   1   2
BRANCH   1  38
ATOM     38  C   UNL A   1      39.496  24.213  27.657  1.00  0.00     0.023 C 
BRANCH  38  39
ATOM     39  C   UNL A   1      39.664  25.478  26.789  1.00  0.00     0.116 C 
BRANCH  39  40
ATOM     40  N   UNL A   1      40.776  25.481  25.820  1.00  0.00    -0.352 N 
ATOM     41  C   UNL A   1      42.112  25.809  26.001  1.00  0.00     0.251 C 
ATOM     42  H   UNL A   1      40.532  25.208  24.906  1.00  0.00     0.163 HD
ATOM     43  O   UNL A   1      42.949  25.600  25.127  1.00  0.00    -0.269 OA
BRANCH  41  44
ATOM     44  C   UNL A   1      42.521  26.503  27.239  1.00  0.00     0.039 A 
ATOM     45  C   UNL A   1      43.086  27.779  27.135  1.00  0.00     0.014 A 
ATOM     46  C   UNL A   1      42.181  25.977  28.482  1.00  0.00     0.014 A 
ATOM     47  C   UNL A   1      43.117  28.607  28.259  1.00  0.00     0.010 A 
ATOM     48  C   UNL A   1      42.129  26.830  29.577  1.00  0.00     0.010 A 
ATOM     49  C   UNL A   1      42.534  28.172  29.459  1.00  0.00    -0.014 A 
BRANCH  49  50
ATOM     50  C   UNL A   1      42.208  29.115  30.563  1.00  0.00     0.031 A 
ATOM     51  C   UNL A   1      42.957  29.041  31.861  1.00  0.00     0.074 A 
ATOM     52  C   UNL A   1      41.124  29.911  30.455  1.00  0.00     0.049 A 
ATOM     53  N   UNL A   1      42.691  29.617  33.003  1.00  0.00    -0.248 NA
ATOM     54  C   UNL A   1      44.138  28.165  31.888  1.00  0.00     0.031 C 
ATOM     55  C   UNL A   1      40.262  30.017  29.273  1.00  0.00     0.029 A 
ATOM     56  N   UNL A   1      40.535  30.758  31.363  1.00  0.00    -0.354 N 
ATOM     57  C   UNL A   1      43.642  29.142  33.896  1.00  0.00     0.074 A 
ATOM     58  C   UNL A   1      44.468  28.200  33.170  1.00  0.00     0.031 C 
ATOM     59  C   UNL A   1      39.263  30.877  29.527  1.00  0.00     0.029 A 
ATOM     60  C   UNL A   1      39.381  31.350  30.902  1.00  0.00     0.049 A 
ATOM     61  H   UNL A   1      40.903  30.925  32.261  1.00  0.00     0.167 HD
ATOM     62  C   UNL A   1      43.818  29.470  35.199  1.00  0.00     0.037 A 
ATOM     63  C   UNL A   1      38.499  32.163  31.519  1.00  0.00     0.037 A 
ATOM     64  C   UNL A   1      43.015  30.435  35.901  1.00  0.00     0.049 A 
ATOM     65  C   UNL A   1      38.742  32.556  32.948  1.00  0.00     0.074 A 
ATOM     66  C   UNL A   1      43.168  30.905  37.192  1.00  0.00     0.029 A 
ATOM     67  N   UNL A   1      41.906  31.078  35.370  1.00  0.00    -0.354 N 
ATOM     68  N   UNL A   1      39.697  32.161  33.757  1.00  0.00    -0.248 NA
ATOM     69  C   UNL A   1      37.797  33.505  33.552  1.00  0.00     0.031 C 
ATOM     70  C   UNL A   1      42.131  31.805  37.456  1.00  0.00     0.029 A 
ATOM     71  C   UNL A   1      41.355  31.930  36.314  1.00  0.00     0.049 A 
ATOM     72  H   UNL A   1      41.560  30.948  34.457  1.00  0.00     0.167 HD
ATOM     73  C   UNL A   1      39.482  32.829  34.955  1.00  0.00     0.074 A 
ATOM     74  C   UNL A   1      38.310  33.659  34.767  1.00  0.00     0.031 C 
ATOM     75  C   UNL A   1      40.196  32.762  36.106  1.00  0.00     0.037 A 
BRANCH  62  76
ATOM     76  C   UNL A   1      44.921  28.768  35.942  1.00  0.00     0.058 A 
ATOM     77  C   UNL A   1      46.234  29.264  35.957  1.00  0.00     0.135 A 
ATOM     78  C   UNL A   1      44.663  27.578  36.641  1.00  0.00     0.135 A 
ATOM     79  F   UNL A   1      46.538  30.392  35.294  1.00  0.00    -0.206 F 
ATOM     80  C   UNL A   1      47.264  28.578  36.590  1.00  0.00     0.059 A 
ATOM     81  C   UNL A   1      45.672  26.891  37.309  1.00  0.00     0.059 A 
ATOM     82  F   UNL A   1      43.424  27.062  36.666  1.00  0.00    -0.206 F 
ATOM     83  C   UNL A   1      46.975  27.386  37.255  1.00  0.00     0.060 A 
BRANCH  83  84
ATOM     84  S   UNL A   1      48.328  26.483  38.036  1.00  0.00     0.124 S 
ATOM     85  O   UNL A   1      48.760  25.612  36.946  1.00  0.00    -0.237 OA
ATOM     86  O   UNL A   1      49.253  27.552  38.397  1.00  0.00    -0.237 OA
ATOM     87  O   UNL A   1      47.683  25.810  39.159  1.00  0.00    -0.744 OA
ENDBRANCH  83  84
ENDBRANCH  62  76
BRANCH  63  88
ATOM     88  C   UNL A   1      37.316  32.668  30.771  1.00  0.00     0.058 A 
ATOM     89  C   UNL A   1      36.040  32.132  30.996  1.00  0.00     0.135 A 
ATOM     90  C   UNL A   1      37.427  33.728  29.858  1.00  0.00     0.135 A 
ATOM     91  F   UNL A   1      35.883  31.112  31.853  1.00  0.00    -0.206 F 
ATOM     92  C   UNL A   1      34.915  32.627  30.343  1.00  0.00     0.059 A 
ATOM     93  C   UNL A   1      36.315  34.255  29.208  1.00  0.00     0.059 A 
ATOM     94  F   UNL A   1      38.624  34.288  29.621  1.00  0.00    -0.206 F 
ATOM     95  C   UNL A   1      35.062  33.695  29.456  1.00  0.00     0.060 A 
BRANCH  95  96
ATOM     96  S   UNL A   1      33.584  34.385  28.678  1.00  0.00     0.124 S 
ATOM     97  O   UNL A   1      32.743  34.662  29.837  1.00  0.00    -0.237 OA
ATOM     98  O   UNL A   1      34.119  35.552  27.985  1.00  0.00    -0.237 OA
ATOM     99  O   UNL A   1      33.127  33.304  27.809  1.00  0.00    -0.744 OA
ENDBRANCH  95  96
ENDBRANCH  63  88
BRANCH  75 100
ATOM    100  C   UNL A   1      39.760  33.631  37.252  1.00  0.00     0.058 A 
ATOM    101  C   UNL A   1      38.831  33.186  38.203  1.00  0.00     0.135 A 
ATOM    102  C   UNL A   1      40.362  34.885  37.456  1.00  0.00     0.135 A 
ATOM    103  F   UNL A   1      38.221  31.999  38.048  1.00  0.00    -0.206 F 
ATOM    104  C   UNL A   1      38.515  33.950  39.320  1.00  0.00     0.059 A 
ATOM    105  C   UNL A   1      40.077  35.655  38.577  1.00  0.00     0.059 A 
ATOM    106  F   UNL A   1      41.262  35.352  36.577  1.00  0.00    -0.206 F 
ATOM    107  C   UNL A   1      39.151  35.180  39.505  1.00  0.00     0.060 A 
BRANCH 107 108
ATOM    108  S   UNL A   1      38.795  36.125  41.001  1.00  0.00     0.124 S 
ATOM    109  O   UNL A   1      40.044  35.986  41.742  1.00  0.00    -0.237 OA
ATOM    110  O   UNL A   1      38.517  37.457  40.470  1.00  0.00    -0.237 OA
ATOM    111  O   UNL A   1      37.644  35.435  41.575  1.00  0.00    -0.744 OA
ENDBRANCH 107 108
ENDBRANCH  75 100
ENDBRANCH  49  50
ENDBRANCH  41  44
ENDBRANCH  39  40
ENDBRANCH  38  39
ENDBRANCH   1  38
TORSDOF 19
ENDMDL
MODEL 3
REMARK VINA RESULT:     -13.8      5.325     10.180
REMARK SMILES O=C(N[C@]1(C(=O)NCCCCNC(=O)c2ccc(-c3c4nc(c(-c5c(F)cc(S(=O)(=O)[O-])cc5F)c5ccc([nH]5)c(-c5c(F)cc(S(=O)(=O)[O-])cc5F)c5nc(c(-c6c(F)cc(S(=O)(=O)[O-])cc6F)c6ccc3[nH]6)C=C5)C=C4)cc2)CC[C@H](c2ccccc2)CC1)OCC1c2ccccc2-c2ccccc21
REMARK SMILES IDX 9 1 8 2 7 3 5 4 6 5 4 7 81 8 91 9 82 10 90 11 83 12 3 13
REMARK SMILES IDX 1 14 2 15 92 17 93 18 94 19 95 20 106 21 96 22 100 23 101 24
REMARK SMILES IDX 105 25 97 26 99 27 102 28 104 29 98 30 103 31 84 32 85 33
REMARK SMILES IDX 89 34 86 35 88 36 87 37 10 38 11 39 12 40 13 41 14 43 15 44
REMARK SMILES IDX 16 45 80 46 17 47 79 48 18 49 19 50 20 51 73 52 21 53 78 54
REMARK SMILES IDX 72 55 74 56 22 57 77 58 71 59 70 60 23 62 57 63 36 64 56 65
REMARK SMILES IDX 37 66 40 67 55 68 75 69 38 70 39 71 54 73 76 74 41 75 24 76
REMARK SMILES IDX 25 77 34 78 26 79 27 80 33 81 35 82 28 83 29 84 30 85 31 86
REMARK SMILES IDX 32 87 58 88 59 89 68 90 60 91 61 92 67 93 69 94 62 95 63 96
REMARK SMILES IDX 64 97 65 98 66 99 42 100 43 101 52 102 44 103 45 104 51 105
REMARK SMILES IDX 53 106 46 107 47 108 48 109 49 110 50 111
REMARK H PARENT 7 6 3 16 12 42 74 61 40 72
REMARK Flexibility Score: inf
ROOT
ATOM      1  C   UNL A   1      40.273  23.028  26.856  1.00  0.00     0.023 C 
ENDROOT
BRANCH   1   2
ATOM      2  C   UNL A   1      39.663  21.766  26.127  1.00  0.00     0.116 C 
BRANCH   2   3
ATOM      3  N   UNL A   1      38.155  21.598  26.329  1.00  0.00    -0.354 N 
ATOM      4  C   UNL A   1      37.183  21.232  25.383  1.00  0.00     0.245 C 
ATOM      5  O   UNL A   1      37.479  20.313  24.599  1.00  0.00    -0.272 OA
ATOM      6  H   UNL A   1      37.822  21.770  27.241  1.00  0.00     0.163 HD
BRANCH   4   7
ATOM      7  C   UNL A   1      35.558  21.937  25.258  1.00  0.00     0.122 C 
ATOM      8  C   UNL A   1      35.447  22.615  23.830  1.00  0.00     0.039 C 
ATOM      9  C   UNL A   1      34.314  22.634  25.891  1.00  0.00     0.039 C 
ATOM     10  C   UNL A   1      35.049  24.189  23.771  1.00  0.00     0.011 C 
ATOM     11  C   UNL A   1      34.280  24.098  26.194  1.00  0.00     0.011 C 
ATOM     12  C   UNL A   1      34.792  24.996  25.085  1.00  0.00     0.019 C 
BRANCH   7  13
ATOM     13  N   UNL A   1      35.051  20.599  25.497  1.00  0.00    -0.307 N 
ATOM     14  O   UNL A   1      33.759  18.922  24.690  1.00  0.00    -0.225 OA
ATOM     15  C   UNL A   1      34.130  20.070  24.596  1.00  0.00     0.408 C 
ATOM     16  H   UNL A   1      35.349  20.078  26.277  1.00  0.00     0.168 HD
BRANCH  15  17
ATOM     17  O   UNL A   1      33.549  20.967  23.705  1.00  0.00    -0.449 OA
BRANCH  17  18
ATOM     18  C   UNL A   1      32.185  21.586  23.624  1.00  0.00     0.248 C 
BRANCH  18  19
ATOM     19  C   UNL A   1      31.878  23.176  23.859  1.00  0.00     0.088 C 
ATOM     20  C   UNL A   1      30.894  23.381  25.037  1.00  0.00    -0.029 A 
ATOM     21  C   UNL A   1      31.553  24.534  23.024  1.00  0.00    -0.029 A 
ATOM     22  C   UNL A   1      30.687  22.583  26.151  1.00  0.00     0.005 A 
ATOM     23  C   UNL A   1      30.261  24.635  24.950  1.00  0.00    -0.014 A 
ATOM     24  C   UNL A   1      30.676  25.338  23.773  1.00  0.00    -0.014 A 
ATOM     25  C   UNL A   1      32.040  25.210  21.891  1.00  0.00     0.005 A 
ATOM     26  C   UNL A   1      29.844  23.052  27.160  1.00  0.00     0.000 A 
ATOM     27  C   UNL A   1      29.422  25.100  25.946  1.00  0.00     0.009 A 
ATOM     28  C   UNL A   1      30.350  26.673  23.434  1.00  0.00     0.009 A 
ATOM     29  C   UNL A   1      31.734  26.536  21.527  1.00  0.00     0.000 A 
ATOM     30  C   UNL A   1      29.217  24.301  27.060  1.00  0.00     0.001 A 
ATOM     31  C   UNL A   1      30.894  27.280  22.311  1.00  0.00     0.001 A 
ENDBRANCH  18  19
ENDBRANCH  17  18
ENDBRANCH  15  17
ENDBRANCH   7  13
BRANCH  12  32
ATOM     32  C   UNL A   1      33.853  26.213  25.217  1.00  0.00    -0.045 A 
ATOM     33  C   UNL A   1      33.101  26.474  26.362  1.00  0.00     0.004 A 
ATOM     34  C   UNL A   1      34.045  27.278  24.290  1.00  0.00     0.004 A 
ATOM     35  C   UNL A   1      32.670  27.782  26.634  1.00  0.00     0.000 A 
ATOM     36  C   UNL A   1      33.644  28.583  24.583  1.00  0.00     0.000 A 
ATOM     37  C   UNL A   1      32.976  28.838  25.772  1.00  0.00     0.000 A 
ENDBRANCH  12  32
ENDBRANCH   4   7
ENDBRANCH   2   3
ENDBRANCH   1   2
BRANCH   1  38
ATOM     38  C   UNL A   1      39.421  24.196  27.374  1.00  0.00     0.023 C 
BRANCH  38  39
ATOM     39  C   UNL A   1      39.686  25.570  26.724  1.00  0.00     0.116 C 
BRANCH  39  40
ATOM     40  N   UNL A   1      40.843  25.667  25.814  1.00  0.00    -0.352 N 
ATOM     41  C   UNL A   1      42.154  26.038  26.078  1.00  0.00     0.251 C 
ATOM     42  H   UNL A   1      40.656  25.432  24.876  1.00  0.00     0.163 HD
ATOM     43  O   UNL A   1      43.040  25.907  25.238  1.00  0.00    -0.269 OA
BRANCH  41  44
ATOM     44  C   UNL A   1      42.472  26.684  27.367  1.00  0.00     0.039 A 
ATOM     45  C   UNL A   1      42.684  28.067  27.389  1.00  0.00     0.014 A 
ATOM     46  C   UNL A   1      42.381  25.962  28.554  1.00  0.00     0.014 A 
ATOM     47  C   UNL A   1      42.595  28.754  28.602  1.00  0.00     0.010 A 
ATOM     48  C   UNL A   1      42.203  26.654  29.745  1.00  0.00     0.010 A 
ATOM     49  C   UNL A   1      42.242  28.060  29.769  1.00  0.00    -0.014 A 
BRANCH  49  50
ATOM     50  C   UNL A   1      41.779  28.765  30.994  1.00  0.00     0.031 A 
ATOM     51  C   UNL A   1      40.561  29.640  30.946  1.00  0.00     0.074 A 
ATOM     52  C   UNL A   1      42.557  28.754  32.097  1.00  0.00     0.049 A 
ATOM     53  N   UNL A   1      40.122  30.495  31.831  1.00  0.00    -0.248 NA
ATOM     54  C   UNL A   1      39.758  29.577  29.715  1.00  0.00     0.031 C 
ATOM     55  C   UNL A   1      43.810  28.006  32.247  1.00  0.00     0.029 A 
ATOM     56  N   UNL A   1      42.433  29.420  33.293  1.00  0.00    -0.354 N 
ATOM     57  C   UNL A   1      39.017  31.104  31.250  1.00  0.00     0.074 A 
ATOM     58  C   UNL A   1      38.878  30.546  29.921  1.00  0.00     0.031 C 
ATOM     59  C   UNL A   1      44.333  28.251  33.458  1.00  0.00     0.029 A 
ATOM     60  C   UNL A   1      43.484  29.209  34.157  1.00  0.00     0.049 A 
ATOM     61  H   UNL A   1      41.665  29.996  33.511  1.00  0.00     0.167 HD
ATOM     62  C   UNL A   1      38.187  32.033  31.781  1.00  0.00     0.037 A 
ATOM     63  C   UNL A   1      43.751  29.741  35.367  1.00  0.00     0.037 A 
ATOM     64  C   UNL A   1      38.311  32.553  33.117  1.00  0.00     0.049 A 
ATOM     65  C   UNL A   1      42.790  30.731  35.960  1.00  0.00     0.074 A 
ATOM     66  C   UNL A   1      37.470  33.428  33.780  1.00  0.00     0.029 A 
ATOM     67  N   UNL A   1      39.342  32.248  33.993  1.00  0.00    -0.354 N 
ATOM     68  N   UNL A   1      41.701  31.236  35.431  1.00  0.00    -0.248 NA
ATOM     69  C   UNL A   1      43.083  31.223  37.313  1.00  0.00     0.031 C 
ATOM     70  C   UNL A   1      38.011  33.680  35.045  1.00  0.00     0.029 A 
ATOM     71  C   UNL A   1      39.167  32.929  35.186  1.00  0.00     0.049 A 
ATOM     72  H   UNL A   1      40.089  31.637  33.796  1.00  0.00     0.167 HD
ATOM     73  C   UNL A   1      41.168  32.086  36.391  1.00  0.00     0.074 A 
ATOM     74  C   UNL A   1      42.049  32.025  37.539  1.00  0.00     0.031 C 
ATOM     75  C   UNL A   1      40.047  32.845  36.327  1.00  0.00     0.037 A 
BRANCH  62  76
ATOM     76  C   UNL A   1      37.077  32.546  30.905  1.00  0.00     0.058 A 
ATOM     77  C   UNL A   1      37.262  33.639  30.043  1.00  0.00     0.135 A 
ATOM     78  C   UNL A   1      35.811  31.941  30.932  1.00  0.00     0.135 A 
ATOM     79  F   UNL A   1      38.450  34.262  29.986  1.00  0.00    -0.206 F 
ATOM     80  C   UNL A   1      36.216  34.152  29.283  1.00  0.00     0.059 A 
ATOM     81  C   UNL A   1      34.758  32.417  30.156  1.00  0.00     0.059 A 
ATOM     82  F   UNL A   1      35.580  30.889  31.733  1.00  0.00    -0.206 F 
ATOM     83  C   UNL A   1      34.964  33.539  29.355  1.00  0.00     0.060 A 
BRANCH  83  84
ATOM     84  S   UNL A   1      33.605  34.239  28.396  1.00  0.00     0.124 S 
ATOM     85  O   UNL A   1      32.734  34.742  29.456  1.00  0.00    -0.237 OA
ATOM     86  O   UNL A   1      34.276  35.256  27.594  1.00  0.00    -0.237 OA
ATOM     87  O   UNL A   1      33.091  33.095  27.651  1.00  0.00    -0.744 OA
ENDBRANCH  83  84
ENDBRANCH  62  76
BRANCH  63  88
ATOM     88  C   UNL A   1      44.980  29.327  36.097  1.00  0.00     0.058 A 
ATOM     89  C   UNL A   1      44.966  28.221  36.960  1.00  0.00     0.135 A 
ATOM     90  C   UNL A   1      46.201  29.991  35.908  1.00  0.00     0.135 A 
ATOM     91  F   UNL A   1      43.821  27.557  37.180  1.00  0.00    -0.206 F 
ATOM     92  C   UNL A   1      46.117  27.788  37.611  1.00  0.00     0.059 A 
ATOM     93  C   UNL A   1      47.371  29.565  36.531  1.00  0.00     0.059 A 
ATOM     94  F   UNL A   1      46.272  31.044  35.079  1.00  0.00    -0.206 F 
ATOM     95  C   UNL A   1      47.318  28.463  37.384  1.00  0.00     0.060 A 
BRANCH  95  96
ATOM     96  S   UNL A   1      48.823  27.841  38.167  1.00  0.00     0.124 S 
ATOM     97  O   UNL A   1      48.520  28.032  39.580  1.00  0.00    -0.237 OA
ATOM     98  O   UNL A   1      48.860  26.457  37.703  1.00  0.00    -0.237 OA
ATOM     99  O   UNL A   1      49.866  28.705  37.620  1.00  0.00    -0.744 OA
ENDBRANCH  95  96
ENDBRANCH  63  88
BRANCH  75 100
ATOM    100  C   UNL A   1      39.677  33.652  37.539  1.00  0.00     0.058 A 
ATOM    101  C   UNL A   1      38.800  33.157  38.514  1.00  0.00     0.135 A 
ATOM    102  C   UNL A   1      40.291  34.894  37.775  1.00  0.00     0.135 A 
ATOM    103  F   UNL A   1      38.180  31.980  38.330  1.00  0.00    -0.206 F 
ATOM    104  C   UNL A   1      38.547  33.861  39.686  1.00  0.00     0.059 A 
ATOM    105  C   UNL A   1      40.070  35.603  38.950  1.00  0.00     0.059 A 
ATOM    106  F   UNL A   1      41.143  35.408  36.874  1.00  0.00    -0.206 F 
ATOM    107  C   UNL A   1      39.195  35.079  39.901  1.00  0.00     0.060 A 
BRANCH 107 108
ATOM    108  S   UNL A   1      38.924  35.944  41.462  1.00  0.00     0.124 S 
ATOM    109  O   UNL A   1      40.094  35.536  42.232  1.00  0.00    -0.237 OA
ATOM    110  O   UNL A   1      38.896  37.343  41.043  1.00  0.00    -0.237 OA
ATOM    111  O   UNL A   1      37.647  35.412  41.929  1.00  0.00    -0.744 OA
ENDBRANCH 107 108
ENDBRANCH  75 100
ENDBRANCH  49  50
ENDBRANCH  41  44
ENDBRANCH  39  40
ENDBRANCH  38  39
ENDBRANCH   1  38
TORSDOF 19
ENDMDL
