MODEL 1
REMARK VINA RESULT:     -12.5      0.000      0.000
REMARK SMILES CC(C)n1cc(C(=O)NCCCCNC(=O)c2ccc(-c3c4nc(c(-c5c(F)cc(S(=O)(=O)[O-])cc5F)c5ccc([nH]5)c(-c5c(F)cc(S(=O)(=O)[O-])cc5F)c5nc(c(-c6c(F)cc(S(=O)(=O)[O-])cc6F)c6ccc3[nH]6)C=C5)C=C4)cc2)c2ccccc2c1=O
REMARK SMILES IDX 12 1 11 2 10 3 9 4 7 5 8 6 6 8 4 9 5 10 89 11 88 12 90 13
REMARK SMILES IDX 83 14 87 15 84 16 86 17 85 18 2 19 1 20 3 21 13 22 14 23
REMARK SMILES IDX 15 24 16 26 17 27 18 28 82 29 19 30 81 31 20 32 21 33 22 34
REMARK SMILES IDX 75 35 23 36 80 37 74 38 76 39 24 40 79 41 73 42 72 43 25 45
REMARK SMILES IDX 59 46 38 47 58 48 39 49 42 50 57 51 77 52 40 53 41 54 56 56
REMARK SMILES IDX 78 57 43 58 26 59 27 60 36 61 28 62 29 63 35 64 37 65 30 66
REMARK SMILES IDX 31 67 32 68 33 69 34 70 60 71 61 72 70 73 62 74 63 75 69 76
REMARK SMILES IDX 71 77 64 78 65 79 66 80 67 81 68 82 44 83 45 84 54 85 46 86
REMARK SMILES IDX 47 87 53 88 55 89 48 90 49 91 50 92 51 93 52 94
REMARK H PARENT 9 7 14 25 76 44 42 55
REMARK Flexibility Score: inf
ROOT
ATOM      1  C   UNL A   1      40.057  22.321  27.396  1.00  0.00     0.023 C 
ENDROOT
BRANCH   1   2
ATOM      2  C   UNL A   1      39.225  22.058  26.134  1.00  0.00     0.023 C 
BRANCH   2   3
ATOM      3  C   UNL A   1      38.017  22.983  25.972  1.00  0.00     0.116 C 
BRANCH   3   4
ATOM      4  N   UNL A   1      37.654  23.135  24.577  1.00  0.00    -0.352 N 
ATOM      5  C   UNL A   1      36.530  22.998  23.827  1.00  0.00     0.253 C 
ATOM      6  O   UNL A   1      36.718  23.232  22.629  1.00  0.00    -0.269 OA
ATOM      7  H   UNL A   1      38.425  23.411  24.029  1.00  0.00     0.163 HD
BRANCH   5   8
ATOM      8  C   UNL A   1      35.146  22.625  24.338  1.00  0.00     0.064 A 
ATOM      9  N   UNL A   1      33.456  20.904  24.729  1.00  0.00    -0.312 N 
ATOM     10  C   UNL A   1      34.678  21.369  24.249  1.00  0.00     0.104 A 
ATOM     11  C   UNL A   1      32.572  21.767  25.379  1.00  0.00     0.258 A 
ATOM     12  C   UNL A   1      32.981  23.193  25.473  1.00  0.00     0.048 A 
ATOM     13  O   UNL A   1      31.494  21.443  25.868  1.00  0.00    -0.269 OA
ATOM     14  C   UNL A   1      34.213  23.623  24.950  1.00  0.00     0.001 A 
ATOM     15  C   UNL A   1      32.081  24.095  26.076  1.00  0.00     0.014 A 
ATOM     16  C   UNL A   1      34.476  25.004  25.028  1.00  0.00     0.010 A 
ATOM     17  C   UNL A   1      32.380  25.450  26.146  1.00  0.00     0.001 A 
ATOM     18  C   UNL A   1      33.576  25.905  25.614  1.00  0.00     0.001 A 
BRANCH   9  19
ATOM     19  C   UNL A   1      33.181  19.441  24.554  1.00  0.00     0.084 C 
ATOM     20  C   UNL A   1      32.315  19.028  23.359  1.00  0.00     0.031 C 
ATOM     21  C   UNL A   1      34.480  18.619  24.514  1.00  0.00     0.031 C 
ENDBRANCH   9  19
ENDBRANCH   5   8
ENDBRANCH   3   4
ENDBRANCH   2   3
ENDBRANCH   1   2
BRANCH   1  22
ATOM     22  C   UNL A   1      41.396  23.009  27.157  1.00  0.00     0.116 C 
BRANCH  22  23
ATOM     23  N   UNL A   1      41.393  23.946  26.043  1.00  0.00    -0.352 N 
ATOM     24  C   UNL A   1      41.304  25.324  26.100  1.00  0.00     0.251 C 
ATOM     25  H   UNL A   1      41.463  23.552  25.143  1.00  0.00     0.163 HD
ATOM     26  O   UNL A   1      41.233  25.991  25.085  1.00  0.00    -0.269 OA
BRANCH  24  27
ATOM     27  C   UNL A   1      41.237  25.954  27.436  1.00  0.00     0.039 A 
ATOM     28  C   UNL A   1      40.052  25.902  28.171  1.00  0.00     0.014 A 
ATOM     29  C   UNL A   1      42.326  26.700  27.890  1.00  0.00     0.014 A 
ATOM     30  C   UNL A   1      39.893  26.741  29.265  1.00  0.00     0.010 A 
ATOM     31  C   UNL A   1      42.191  27.478  29.042  1.00  0.00     0.010 A 
ATOM     32  C   UNL A   1      40.955  27.549  29.705  1.00  0.00    -0.014 A 
BRANCH  32  33
ATOM     33  C   UNL A   1      40.737  28.476  30.846  1.00  0.00     0.031 A 
ATOM     34  C   UNL A   1      41.645  28.447  32.047  1.00  0.00     0.074 A 
ATOM     35  C   UNL A   1      39.756  29.394  30.762  1.00  0.00     0.049 A 
ATOM     36  N   UNL A   1      41.611  29.192  33.123  1.00  0.00    -0.248 NA
ATOM     37  C   UNL A   1      42.733  27.455  32.044  1.00  0.00     0.031 C 
ATOM     38  C   UNL A   1      38.828  29.531  29.636  1.00  0.00     0.029 A 
ATOM     39  N   UNL A   1      39.393  30.403  31.617  1.00  0.00    -0.354 N 
ATOM     40  C   UNL A   1      42.652  28.749  33.931  1.00  0.00     0.074 A 
ATOM     41  C   UNL A   1      43.285  27.651  33.233  1.00  0.00     0.031 C 
ATOM     42  C   UNL A   1      38.045  30.600  29.841  1.00  0.00     0.029 A 
ATOM     43  C   UNL A   1      38.365  31.181  31.141  1.00  0.00     0.049 A 
ATOM     44  H   UNL A   1      39.826  30.554  32.487  1.00  0.00     0.167 HD
ATOM     45  C   UNL A   1      43.049  29.222  35.136  1.00  0.00     0.037 A 
ATOM     46  C   UNL A   1      37.738  32.237  31.691  1.00  0.00     0.037 A 
ATOM     47  C   UNL A   1      42.425  30.330  35.815  1.00  0.00     0.049 A 
ATOM     48  C   UNL A   1      38.168  32.715  33.047  1.00  0.00     0.074 A 
ATOM     49  C   UNL A   1      42.760  30.890  37.036  1.00  0.00     0.029 A 
ATOM     50  N   UNL A   1      41.343  31.050  35.329  1.00  0.00    -0.354 N 
ATOM     51  N   UNL A   1      39.142  32.270  33.804  1.00  0.00    -0.248 NA
ATOM     52  C   UNL A   1      37.405  33.825  33.632  1.00  0.00     0.031 C 
ATOM     53  C   UNL A   1      41.855  31.923  37.306  1.00  0.00     0.029 A 
ATOM     54  C   UNL A   1      40.984  32.036  36.234  1.00  0.00     0.049 A 
ATOM     55  H   UNL A   1      40.895  30.884  34.468  1.00  0.00     0.167 HD
ATOM     56  C   UNL A   1      39.113  33.048  34.954  1.00  0.00     0.074 A 
ATOM     57  C   UNL A   1      38.038  34.006  34.783  1.00  0.00     0.031 C 
ATOM     58  C   UNL A   1      39.904  32.974  36.052  1.00  0.00     0.037 A 
BRANCH  45  59
ATOM     59  C   UNL A   1      44.205  28.535  35.813  1.00  0.00     0.058 A 
ATOM     60  C   UNL A   1      45.532  28.944  35.604  1.00  0.00     0.135 A 
ATOM     61  C   UNL A   1      43.981  27.480  36.712  1.00  0.00     0.135 A 
ATOM     62  F   UNL A   1      45.806  29.936  34.742  1.00  0.00    -0.206 F 
ATOM     63  C   UNL A   1      46.597  28.315  36.242  1.00  0.00     0.059 A 
ATOM     64  C   UNL A   1      45.029  26.852  37.381  1.00  0.00     0.059 A 
ATOM     65  F   UNL A   1      42.732  27.049  36.951  1.00  0.00    -0.206 F 
ATOM     66  C   UNL A   1      46.335  27.267  37.128  1.00  0.00     0.060 A 
BRANCH  66  67
ATOM     67  S   UNL A   1      47.728  26.457  37.942  1.00  0.00     0.124 S 
ATOM     68  O   UNL A   1      48.071  27.434  38.971  1.00  0.00    -0.237 OA
ATOM     69  O   UNL A   1      47.131  25.216  38.422  1.00  0.00    -0.237 OA
ATOM     70  O   UNL A   1      48.708  26.305  36.871  1.00  0.00    -0.744 OA
ENDBRANCH  66  67
ENDBRANCH  45  59
BRANCH  46  71
ATOM     71  C   UNL A   1      36.642  32.903  30.943  1.00  0.00     0.058 A 
ATOM     72  C   UNL A   1      35.305  32.749  31.335  1.00  0.00     0.135 A 
ATOM     73  C   UNL A   1      36.915  33.763  29.867  1.00  0.00     0.135 A 
ATOM     74  F   UNL A   1      34.995  31.932  32.355  1.00  0.00    -0.206 F 
ATOM     75  C   UNL A   1      34.278  33.433  30.696  1.00  0.00     0.059 A 
ATOM     76  C   UNL A   1      35.908  34.477  29.229  1.00  0.00     0.059 A 
ATOM     77  F   UNL A   1      38.182  33.954  29.465  1.00  0.00    -0.206 F 
ATOM     78  C   UNL A   1      34.591  34.305  29.650  1.00  0.00     0.060 A 
BRANCH  78  79
ATOM     79  S   UNL A   1      33.259  35.259  28.892  1.00  0.00     0.124 S 
ATOM     80  O   UNL A   1      34.005  36.297  28.190  1.00  0.00    -0.237 OA
ATOM     81  O   UNL A   1      32.608  34.259  28.051  1.00  0.00    -0.237 OA
ATOM     82  O   UNL A   1      32.474  35.709  30.038  1.00  0.00    -0.744 OA
ENDBRANCH  78  79
ENDBRANCH  46  71
BRANCH  58  83
ATOM     83  C   UNL A   1      39.640  33.957  37.159  1.00  0.00     0.058 A 
ATOM     84  C   UNL A   1      38.866  33.608  38.276  1.00  0.00     0.135 A 
ATOM     85  C   UNL A   1      40.215  35.237  37.129  1.00  0.00     0.135 A 
ATOM     86  F   UNL A   1      38.288  32.398  38.347  1.00  0.00    -0.206 F 
ATOM     87  C   UNL A   1      38.660  34.500  39.322  1.00  0.00     0.059 A 
ATOM     88  C   UNL A   1      40.041  36.137  38.175  1.00  0.00     0.059 A 
ATOM     89  F   UNL A   1      40.970  35.615  36.086  1.00  0.00    -0.206 F 
ATOM     90  C   UNL A   1      39.255  35.763  39.264  1.00  0.00     0.060 A 
BRANCH  90  91
ATOM     91  S   UNL A   1      39.013  36.895  40.648  1.00  0.00     0.124 S 
ATOM     92  O   UNL A   1      38.369  38.029  39.992  1.00  0.00    -0.237 OA
ATOM     93  O   UNL A   1      38.163  36.116  41.543  1.00  0.00    -0.237 OA
ATOM     94  O   UNL A   1      40.368  37.137  41.132  1.00  0.00    -0.744 OA
ENDBRANCH  90  91
ENDBRANCH  58  83
ENDBRANCH  32  33
ENDBRANCH  24  27
ENDBRANCH  22  23
ENDBRANCH   1  22
TORSDOF 15
ENDMDL
MODEL 2
REMARK VINA RESULT:     -12.3      6.768     12.163
REMARK SMILES CC(C)n1cc(C(=O)NCCCCNC(=O)c2ccc(-c3c4nc(c(-c5c(F)cc(S(=O)(=O)[O-])cc5F)c5ccc([nH]5)c(-c5c(F)cc(S(=O)(=O)[O-])cc5F)c5nc(c(-c6c(F)cc(S(=O)(=O)[O-])cc6F)c6ccc3[nH]6)C=C5)C=C4)cc2)c2ccccc2c1=O
REMARK SMILES IDX 12 1 11 2 10 3 9 4 7 5 8 6 6 8 4 9 5 10 89 11 88 12 90 13
REMARK SMILES IDX 83 14 87 15 84 16 86 17 85 18 2 19 1 20 3 21 13 22 14 23
REMARK SMILES IDX 15 24 16 26 17 27 18 28 82 29 19 30 81 31 20 32 21 33 22 34
REMARK SMILES IDX 75 35 23 36 80 37 74 38 76 39 24 40 79 41 73 42 72 43 25 45
REMARK SMILES IDX 59 46 38 47 58 48 39 49 42 50 57 51 77 52 40 53 41 54 56 56
REMARK SMILES IDX 78 57 43 58 26 59 27 60 36 61 28 62 29 63 35 64 37 65 30 66
REMARK SMILES IDX 31 67 32 68 33 69 34 70 60 71 61 72 70 73 62 74 63 75 69 76
REMARK SMILES IDX 71 77 64 78 65 79 66 80 67 81 68 82 44 83 45 84 54 85 46 86
REMARK SMILES IDX 47 87 53 88 55 89 48 90 49 91 50 92 51 93 52 94
REMARK H PARENT 9 7 14 25 76 44 42 55
REMARK Flexibility Score: inf
ROOT
ATOM      1  C   UNL A   1      34.916  32.055  27.943  1.00  0.00     0.023 C 
ENDROOT
BRANCH   1   2
ATOM      2  C   UNL A   1      34.637  30.620  27.479  1.00  0.00     0.023 C 
BRANCH   2   3
ATOM      3  C   UNL A   1      33.301  30.442  26.755  1.00  0.00     0.116 C 
BRANCH   3   4
ATOM      4  N   UNL A   1      32.484  29.431  27.398  1.00  0.00    -0.352 N 
ATOM      5  C   UNL A   1      31.814  28.312  27.018  1.00  0.00     0.253 C 
ATOM      6  O   UNL A   1      31.227  27.761  27.953  1.00  0.00    -0.269 OA
ATOM      7  H   UNL A   1      32.391  29.600  28.364  1.00  0.00     0.163 HD
BRANCH   5   8
ATOM      8  C   UNL A   1      31.766  27.723  25.615  1.00  0.00     0.064 A 
ATOM      9  N   UNL A   1      30.746  27.691  23.395  1.00  0.00    -0.312 N 
ATOM     10  C   UNL A   1      30.850  28.119  24.717  1.00  0.00     0.104 A 
ATOM     11  C   UNL A   1      31.647  26.759  22.877  1.00  0.00     0.258 A 
ATOM     12  C   UNL A   1      32.664  26.219  23.818  1.00  0.00     0.048 A 
ATOM     13  O   UNL A   1      31.659  26.352  21.719  1.00  0.00    -0.269 OA
ATOM     14  C   UNL A   1      32.714  26.661  25.151  1.00  0.00     0.001 A 
ATOM     15  C   UNL A   1      33.549  25.236  23.333  1.00  0.00     0.014 A 
ATOM     16  C   UNL A   1      33.669  26.039  25.979  1.00  0.00     0.010 A 
ATOM     17  C   UNL A   1      34.487  24.653  24.176  1.00  0.00     0.001 A 
ATOM     18  C   UNL A   1      34.540  25.050  25.502  1.00  0.00     0.001 A 
BRANCH   9  19
ATOM     19  C   UNL A   1      29.664  28.320  22.571  1.00  0.00     0.084 C 
ATOM     20  C   UNL A   1      28.256  28.361  23.175  1.00  0.00     0.031 C 
ATOM     21  C   UNL A   1      30.041  29.744  22.130  1.00  0.00     0.031 C 
ENDBRANCH   9  19
ENDBRANCH   5   8
ENDBRANCH   3   4
ENDBRANCH   2   3
ENDBRANCH   1   2
BRANCH   1  22
ATOM     22  C   UNL A   1      35.869  32.180  29.127  1.00  0.00     0.116 C 
BRANCH  22  23
ATOM     23  N   UNL A   1      35.616  31.225  30.196  1.00  0.00    -0.352 N 
ATOM     24  C   UNL A   1      36.492  30.293  30.718  1.00  0.00     0.251 C 
ATOM     25  H   UNL A   1      34.715  31.247  30.595  1.00  0.00     0.163 HD
ATOM     26  O   UNL A   1      36.129  29.496  31.564  1.00  0.00    -0.269 OA
BRANCH  24  27
ATOM     27  C   UNL A   1      37.865  30.258  30.172  1.00  0.00     0.039 A 
ATOM     28  C   UNL A   1      38.075  29.902  28.840  1.00  0.00     0.014 A 
ATOM     29  C   UNL A   1      38.943  30.462  31.035  1.00  0.00     0.014 A 
ATOM     30  C   UNL A   1      39.355  29.573  28.418  1.00  0.00     0.010 A 
ATOM     31  C   UNL A   1      40.241  30.212  30.581  1.00  0.00     0.010 A 
ATOM     32  C   UNL A   1      40.451  29.710  29.287  1.00  0.00    -0.014 A 
BRANCH  32  33
ATOM     33  C   UNL A   1      41.801  29.298  28.822  1.00  0.00     0.031 A 
ATOM     34  C   UNL A   1      42.967  30.250  28.900  1.00  0.00     0.074 A 
ATOM     35  C   UNL A   1      41.987  28.035  28.394  1.00  0.00     0.049 A 
ATOM     36  N   UNL A   1      44.214  30.054  28.554  1.00  0.00    -0.248 NA
ATOM     37  C   UNL A   1      42.701  31.596  29.432  1.00  0.00     0.031 C 
ATOM     38  C   UNL A   1      40.937  27.019  28.298  1.00  0.00     0.029 A 
ATOM     39  N   UNL A   1      43.122  27.380  27.992  1.00  0.00    -0.354 N 
ATOM     40  C   UNL A   1      44.876  31.250  28.806  1.00  0.00     0.074 A 
ATOM     41  C   UNL A   1      43.886  32.178  29.310  1.00  0.00     0.031 C 
ATOM     42  C   UNL A   1      41.486  25.854  27.925  1.00  0.00     0.029 A 
ATOM     43  C   UNL A   1      42.912  26.057  27.687  1.00  0.00     0.049 A 
ATOM     44  H   UNL A   1      44.002  27.815  27.928  1.00  0.00     0.167 HD
ATOM     45  C   UNL A   1      46.188  31.543  28.643  1.00  0.00     0.037 A 
ATOM     46  C   UNL A   1      43.765  25.112  27.252  1.00  0.00     0.037 A 
ATOM     47  C   UNL A   1      47.171  30.606  28.161  1.00  0.00     0.049 A 
ATOM     48  C   UNL A   1      45.206  25.473  27.038  1.00  0.00     0.074 A 
ATOM     49  C   UNL A   1      48.527  30.804  27.969  1.00  0.00     0.029 A 
ATOM     50  N   UNL A   1      46.904  29.294  27.798  1.00  0.00    -0.354 N 
ATOM     51  N   UNL A   1      45.809  26.615  27.263  1.00  0.00    -0.248 NA
ATOM     52  C   UNL A   1      46.079  24.424  26.495  1.00  0.00     0.031 C 
ATOM     53  C   UNL A   1      49.074  29.623  27.454  1.00  0.00     0.029 A 
ATOM     54  C   UNL A   1      48.067  28.675  27.366  1.00  0.00     0.049 A 
ATOM     55  H   UNL A   1      46.019  28.864  27.842  1.00  0.00     0.167 HD
ATOM     56  C   UNL A   1      47.134  26.423  26.894  1.00  0.00     0.074 A 
ATOM     57  C   UNL A   1      47.248  25.048  26.450  1.00  0.00     0.031 C 
ATOM     58  C   UNL A   1      48.161  27.307  26.918  1.00  0.00     0.037 A 
BRANCH  45  59
ATOM     59  C   UNL A   1      46.641  32.940  28.975  1.00  0.00     0.058 A 
ATOM     60  C   UNL A   1      46.637  33.964  28.015  1.00  0.00     0.135 A 
ATOM     61  C   UNL A   1      47.046  33.268  30.279  1.00  0.00     0.135 A 
ATOM     62  F   UNL A   1      46.276  33.704  26.749  1.00  0.00    -0.206 F 
ATOM     63  C   UNL A   1      47.043  35.258  28.330  1.00  0.00     0.059 A 
ATOM     64  C   UNL A   1      47.432  34.561  30.623  1.00  0.00     0.059 A 
ATOM     65  F   UNL A   1      47.067  32.328  31.237  1.00  0.00    -0.206 F 
ATOM     66  C   UNL A   1      47.442  35.546  29.637  1.00  0.00     0.060 A 
BRANCH  66  67
ATOM     67  S   UNL A   1      47.973  37.227  30.026  1.00  0.00     0.124 S 
ATOM     68  O   UNL A   1      48.645  37.613  28.788  1.00  0.00    -0.237 OA
ATOM     69  O   UNL A   1      46.706  37.900  30.294  1.00  0.00    -0.237 OA
ATOM     70  O   UNL A   1      48.844  37.052  31.183  1.00  0.00    -0.744 OA
ENDBRANCH  66  67
ENDBRANCH  45  59
BRANCH  46  71
ATOM     71  C   UNL A   1      43.262  23.738  26.998  1.00  0.00     0.058 A 
ATOM     72  C   UNL A   1      43.070  23.271  25.691  1.00  0.00     0.135 A 
ATOM     73  C   UNL A   1      43.031  22.843  28.055  1.00  0.00     0.135 A 
ATOM     74  F   UNL A   1      43.272  24.094  24.649  1.00  0.00    -0.206 F 
ATOM     75  C   UNL A   1      42.679  21.961  25.438  1.00  0.00     0.059 A 
ATOM     76  C   UNL A   1      42.664  21.522  27.826  1.00  0.00     0.059 A 
ATOM     77  F   UNL A   1      43.215  23.239  29.324  1.00  0.00    -0.206 F 
ATOM     78  C   UNL A   1      42.490  21.090  26.512  1.00  0.00     0.060 A 
BRANCH  78  79
ATOM     79  S   UNL A   1      42.076  19.367  26.166  1.00  0.00     0.124 S 
ATOM     80  O   UNL A   1      42.875  19.107  24.973  1.00  0.00    -0.237 OA
ATOM     81  O   UNL A   1      42.513  18.697  27.387  1.00  0.00    -0.237 OA
ATOM     82  O   UNL A   1      40.631  19.404  25.963  1.00  0.00    -0.744 OA
ENDBRANCH  78  79
ENDBRANCH  46  71
BRANCH  58  83
ATOM     83  C   UNL A   1      49.504  26.817  26.454  1.00  0.00     0.058 A 
ATOM     84  C   UNL A   1      50.363  26.117  27.314  1.00  0.00     0.135 A 
ATOM     85  C   UNL A   1      49.908  26.997  25.122  1.00  0.00     0.135 A 
ATOM     86  F   UNL A   1      50.025  25.927  28.599  1.00  0.00    -0.206 F 
ATOM     87  C   UNL A   1      51.585  25.622  26.873  1.00  0.00     0.059 A 
ATOM     88  C   UNL A   1      51.115  26.491  24.653  1.00  0.00     0.059 A 
ATOM     89  F   UNL A   1      49.117  27.653  24.258  1.00  0.00    -0.206 F 
ATOM     90  C   UNL A   1      51.951  25.811  25.538  1.00  0.00     0.060 A 
BRANCH  90  91
ATOM     91  S   UNL A   1      53.522  25.128  24.969  1.00  0.00     0.124 S 
ATOM     92  O   UNL A   1      53.324  23.701  25.201  1.00  0.00    -0.237 OA
ATOM     93  O   UNL A   1      53.555  25.544  23.571  1.00  0.00    -0.237 OA
ATOM     94  O   UNL A   1      54.507  25.773  25.833  1.00  0.00    -0.744 OA
ENDBRANCH  90  91
ENDBRANCH  58  83
ENDBRANCH  32  33
ENDBRANCH  24  27
ENDBRANCH  22  23
ENDBRANCH   1  22
TORSDOF 15
ENDMDL
MODEL 3
REMARK VINA RESULT:     -11.9      6.568     11.995
REMARK SMILES CC(C)n1cc(C(=O)NCCCCNC(=O)c2ccc(-c3c4nc(c(-c5c(F)cc(S(=O)(=O)[O-])cc5F)c5ccc([nH]5)c(-c5c(F)cc(S(=O)(=O)[O-])cc5F)c5nc(c(-c6c(F)cc(S(=O)(=O)[O-])cc6F)c6ccc3[nH]6)C=C5)C=C4)cc2)c2ccccc2c1=O
REMARK SMILES IDX 12 1 11 2 10 3 9 4 7 5 8 6 6 8 4 9 5 10 89 11 88 12 90 13
REMARK SMILES IDX 83 14 87 15 84 16 86 17 85 18 2 19 1 20 3 21 13 22 14 23
REMARK SMILES IDX 15 24 16 26 17 27 18 28 82 29 19 30 81 31 20 32 21 33 22 34
REMARK SMILES IDX 75 35 23 36 80 37 74 38 76 39 24 40 79 41 73 42 72 43 25 45
REMARK SMILES IDX 59 46 38 47 58 48 39 49 42 50 57 51 77 52 40 53 41 54 56 56
REMARK SMILES IDX 78 57 43 58 26 59 27 60 36 61 28 62 29 63 35 64 37 65 30 66
REMARK SMILES IDX 31 67 32 68 33 69 34 70 60 71 61 72 70 73 62 74 63 75 69 76
REMARK SMILES IDX 71 77 64 78 65 79 66 80 67 81 68 82 44 83 45 84 54 85 46 86
REMARK SMILES IDX 47 87 53 88 55 89 48 90 49 91 50 92 51 93 52 94
REMARK H PARENT 9 7 14 25 76 44 42 55
REMARK Flexibility Score: inf
ROOT
ATOM      1  C   UNL A   1      34.234  31.085  27.635  1.00  0.00     0.023 C 
ENDROOT
BRANCH   1   2
ATOM      2  C   UNL A   1      33.906  29.789  26.883  1.00  0.00     0.023 C 
BRANCH   2   3
ATOM      3  C   UNL A   1      32.930  29.967  25.718  1.00  0.00     0.116 C 
BRANCH   3   4
ATOM      4  N   UNL A   1      33.559  29.647  24.452  1.00  0.00    -0.352 N 
ATOM      5  C   UNL A   1      33.630  28.568  23.628  1.00  0.00     0.253 C 
ATOM      6  O   UNL A   1      34.322  28.773  22.626  1.00  0.00    -0.269 OA
ATOM      7  H   UNL A   1      34.067  30.411  24.095  1.00  0.00     0.163 HD
BRANCH   5   8
ATOM      8  C   UNL A   1      32.940  27.228  23.836  1.00  0.00     0.064 A 
ATOM      9  N   UNL A   1      33.114  24.839  24.318  1.00  0.00    -0.312 N 
ATOM     10  C   UNL A   1      33.638  26.104  24.062  1.00  0.00     0.104 A 
ATOM     11  C   UNL A   1      31.733  24.637  24.360  1.00  0.00     0.258 A 
ATOM     12  C   UNL A   1      30.878  25.816  24.063  1.00  0.00     0.048 A 
ATOM     13  O   UNL A   1      31.179  23.572  24.615  1.00  0.00    -0.269 OA
ATOM     14  C   UNL A   1      31.451  27.068  23.783  1.00  0.00     0.001 A 
ATOM     15  C   UNL A   1      29.481  25.625  24.044  1.00  0.00     0.014 A 
ATOM     16  C   UNL A   1      30.558  28.103  23.448  1.00  0.00     0.010 A 
ATOM     17  C   UNL A   1      28.629  26.673  23.721  1.00  0.00     0.001 A 
ATOM     18  C   UNL A   1      29.170  27.911  23.414  1.00  0.00     0.001 A 
BRANCH   9  19
ATOM     19  C   UNL A   1      34.103  23.748  24.592  1.00  0.00     0.084 C 
ATOM     20  C   UNL A   1      34.585  22.921  23.394  1.00  0.00     0.031 C 
ATOM     21  C   UNL A   1      35.338  24.274  25.341  1.00  0.00     0.031 C 
ENDBRANCH   9  19
ENDBRANCH   5   8
ENDBRANCH   3   4
ENDBRANCH   2   3
ENDBRANCH   1   2
BRANCH   1  22
ATOM     22  C   UNL A   1      35.577  31.094  28.356  1.00  0.00     0.116 C 
BRANCH  22  23
ATOM     23  N   UNL A   1      35.473  31.009  29.806  1.00  0.00    -0.352 N 
ATOM     24  C   UNL A   1      36.341  30.382  30.678  1.00  0.00     0.251 C 
ATOM     25  H   UNL A   1      34.692  31.452  30.213  1.00  0.00     0.163 HD
ATOM     26  O   UNL A   1      36.097  30.317  31.869  1.00  0.00    -0.269 OA
BRANCH  24  27
ATOM     27  C   UNL A   1      37.545  29.740  30.108  1.00  0.00     0.039 A 
ATOM     28  C   UNL A   1      38.369  28.961  30.921  1.00  0.00     0.014 A 
ATOM     29  C   UNL A   1      37.906  30.026  28.790  1.00  0.00     0.014 A 
ATOM     30  C   UNL A   1      39.638  28.621  30.475  1.00  0.00     0.010 A 
ATOM     31  C   UNL A   1      39.151  29.608  28.315  1.00  0.00     0.010 A 
ATOM     32  C   UNL A   1      40.050  28.952  29.172  1.00  0.00    -0.014 A 
BRANCH  32  33
ATOM     33  C   UNL A   1      41.434  28.622  28.743  1.00  0.00     0.031 A 
ATOM     34  C   UNL A   1      42.538  29.641  28.852  1.00  0.00     0.074 A 
ATOM     35  C   UNL A   1      41.705  27.373  28.321  1.00  0.00     0.049 A 
ATOM     36  N   UNL A   1      43.803  29.520  28.540  1.00  0.00    -0.248 NA
ATOM     37  C   UNL A   1      42.179  30.968  29.377  1.00  0.00     0.031 C 
ATOM     38  C   UNL A   1      40.720  26.296  28.197  1.00  0.00     0.029 A 
ATOM     39  N   UNL A   1      42.888  26.787  27.949  1.00  0.00    -0.354 N 
ATOM     40  C   UNL A   1      44.386  30.753  28.809  1.00  0.00     0.074 A 
ATOM     41  C   UNL A   1      43.330  31.619  29.287  1.00  0.00     0.031 C 
ATOM     42  C   UNL A   1      41.348  25.167  27.839  1.00  0.00     0.029 A 
ATOM     43  C   UNL A   1      42.765  25.454  27.639  1.00  0.00     0.049 A 
ATOM     44  H   UNL A   1      43.742  27.274  27.909  1.00  0.00     0.167 HD
ATOM     45  C   UNL A   1      45.683  31.123  28.682  1.00  0.00     0.037 A 
ATOM     46  C   UNL A   1      43.684  24.562  27.227  1.00  0.00     0.037 A 
ATOM     47  C   UNL A   1      46.732  30.247  28.226  1.00  0.00     0.049 A 
ATOM     48  C   UNL A   1      45.106  25.008  27.051  1.00  0.00     0.074 A 
ATOM     49  C   UNL A   1      48.079  30.526  28.070  1.00  0.00     0.029 A 
ATOM     50  N   UNL A   1      46.554  28.922  27.856  1.00  0.00    -0.354 N 
ATOM     51  N   UNL A   1      45.633  26.184  27.292  1.00  0.00    -0.248 NA
ATOM     52  C   UNL A   1      46.053  24.014  26.532  1.00  0.00     0.031 C 
ATOM     53  C   UNL A   1      48.708  29.380  27.570  1.00  0.00     0.029 A 
ATOM     54  C   UNL A   1      47.762  28.374  27.455  1.00  0.00     0.049 A 
ATOM     55  H   UNL A   1      45.694  28.440  27.876  1.00  0.00     0.167 HD
ATOM     56  C   UNL A   1      46.977  26.071  26.958  1.00  0.00     0.074 A 
ATOM     57  C   UNL A   1      47.185  24.706  26.518  1.00  0.00     0.031 C 
ATOM     58  C   UNL A   1      47.949  27.015  27.010  1.00  0.00     0.037 A 
BRANCH  45  59
ATOM     59  C   UNL A   1      46.043  32.544  29.025  1.00  0.00     0.058 A 
ATOM     60  C   UNL A   1      46.460  32.909  30.315  1.00  0.00     0.135 A 
ATOM     61  C   UNL A   1      46.009  33.546  28.041  1.00  0.00     0.135 A 
ATOM     62  F   UNL A   1      46.495  31.996  31.298  1.00  0.00    -0.206 F 
ATOM     63  C   UNL A   1      46.805  34.221  30.624  1.00  0.00     0.059 A 
ATOM     64  C   UNL A   1      46.374  34.860  28.322  1.00  0.00     0.059 A 
ATOM     65  F   UNL A   1      45.620  33.253  26.791  1.00  0.00    -0.206 F 
ATOM     66  C   UNL A   1      46.757  35.192  29.620  1.00  0.00     0.060 A 
BRANCH  66  67
ATOM     67  S   UNL A   1      47.201  36.890  30.041  1.00  0.00     0.124 S 
ATOM     68  O   UNL A   1      47.158  37.534  28.732  1.00  0.00    -0.237 OA
ATOM     69  O   UNL A   1      46.140  37.270  30.968  1.00  0.00    -0.237 OA
ATOM     70  O   UNL A   1      48.529  36.760  30.631  1.00  0.00    -0.744 OA
ENDBRANCH  66  67
ENDBRANCH  45  59
BRANCH  46  71
ATOM     71  C   UNL A   1      43.269  23.161  26.960  1.00  0.00     0.058 A 
ATOM     72  C   UNL A   1      43.188  22.672  25.649  1.00  0.00     0.135 A 
ATOM     73  C   UNL A   1      43.017  22.266  28.012  1.00  0.00     0.135 A 
ATOM     74  F   UNL A   1      43.413  23.493  24.611  1.00  0.00    -0.206 F 
ATOM     75  C   UNL A   1      42.882  21.340  25.389  1.00  0.00     0.059 A 
ATOM     76  C   UNL A   1      42.735  20.925  27.778  1.00  0.00     0.059 A 
ATOM     77  F   UNL A   1      43.099  22.684  29.285  1.00  0.00    -0.206 F 
ATOM     78  C   UNL A   1      42.670  20.471  26.461  1.00  0.00     0.060 A 
BRANCH  78  79
ATOM     79  S   UNL A   1      42.369  18.725  26.113  1.00  0.00     0.124 S 
ATOM     80  O   UNL A   1      42.653  18.115  27.407  1.00  0.00    -0.237 OA
ATOM     81  O   UNL A   1      40.968  18.733  25.703  1.00  0.00    -0.237 OA
ATOM     82  O   UNL A   1      43.323  18.426  25.049  1.00  0.00    -0.744 OA
ENDBRANCH  78  79
ENDBRANCH  46  71
BRANCH  58  83
ATOM     83  C   UNL A   1      49.330  26.605  26.581  1.00  0.00     0.058 A 
ATOM     84  C   UNL A   1      50.239  26.042  27.489  1.00  0.00     0.135 A 
ATOM     85  C   UNL A   1      49.726  26.724  25.240  1.00  0.00     0.135 A 
ATOM     86  F   UNL A   1      49.910  25.915  28.785  1.00  0.00    -0.206 F 
ATOM     87  C   UNL A   1      51.501  25.620  27.084  1.00  0.00     0.059 A 
ATOM     88  C   UNL A   1      50.974  26.288  24.808  1.00  0.00     0.059 A 
ATOM     89  F   UNL A   1      48.889  27.250  24.332  1.00  0.00    -0.206 F 
ATOM     90  C   UNL A   1      51.857  25.744  25.739  1.00  0.00     0.060 A 
BRANCH  90  91
ATOM     91  S   UNL A   1      53.483  25.155  25.221  1.00  0.00     0.124 S 
ATOM     92  O   UNL A   1      53.596  25.737  23.887  1.00  0.00    -0.237 OA
ATOM     93  O   UNL A   1      54.361  25.725  26.237  1.00  0.00    -0.237 OA
ATOM     94  O   UNL A   1      53.347  23.702  25.261  1.00  0.00    -0.744 OA
ENDBRANCH  90  91
ENDBRANCH  58  83
ENDBRANCH  32  33
ENDBRANCH  24  27
ENDBRANCH  22  23
ENDBRANCH   1  22
TORSDOF 15
ENDMDL
