MODEL 1
REMARK VINA RESULT:     -11.3      0.000      0.000
REMARK SMILES Cc1nc(-c2ccco2)nc(S)c1C(=O)NCCCCNC(=O)c1ccc(-c2c3nc(c(-c4c(F)cc(S(=O)(=O)[O-])cc4F)c4ccc([nH]4)c(-c4c(F)cc(S(=O)(=O)[O-])cc4F)c4nc(c(-c5c(F)cc(S(=O)(=O)[O-])cc5F)c5ccc2[nH]5)C=C4)C=C3)cc1
REMARK SMILES IDX 19 1 18 2 17 3 16 4 14 5 15 6 13 8 1 9 2 10 3 11 4 12 11 13
REMARK SMILES IDX 10 14 5 15 6 16 9 17 7 18 8 19 12 20 20 22 21 23 22 24 23 26
REMARK SMILES IDX 24 27 25 28 89 29 26 30 88 31 27 32 28 33 29 34 82 35 30 36
REMARK SMILES IDX 87 37 81 38 83 39 31 40 86 41 80 42 79 43 32 45 66 46 45 47
REMARK SMILES IDX 65 48 46 49 49 50 64 51 84 52 47 53 48 54 63 56 85 57 50 58
REMARK SMILES IDX 33 59 34 60 43 61 35 62 36 63 42 64 44 65 37 66 38 67 39 68
REMARK SMILES IDX 40 69 41 70 67 71 68 72 77 73 69 74 70 75 76 76 78 77 71 78
REMARK SMILES IDX 72 79 73 80 74 81 75 82 51 83 52 84 61 85 53 86 54 87 60 88
REMARK SMILES IDX 62 89 55 90 56 91 57 92 58 93 59 94
REMARK H PARENT 16 7 12 21 21 25 83 44 49 55
REMARK Flexibility Score: inf
ROOT
ATOM      1  C   UNL A   1      32.586  27.770  27.031  1.00  0.00     0.023 C 
ENDROOT
BRANCH   1   2
ATOM      2  C   UNL A   1      32.595  26.545  26.128  1.00  0.00     0.023 C 
BRANCH   2   3
ATOM      3  C   UNL A   1      33.970  26.107  25.606  1.00  0.00     0.116 C 
BRANCH   3   4
ATOM      4  N   UNL A   1      33.854  25.760  24.205  1.00  0.00    -0.352 N 
ATOM      5  C   UNL A   1      33.944  24.580  23.518  1.00  0.00     0.255 C 
ATOM      6  O   UNL A   1      34.041  24.671  22.291  1.00  0.00    -0.269 OA
ATOM      7  H   UNL A   1      33.672  26.535  23.625  1.00  0.00     0.163 HD
BRANCH   5   8
ATOM      8  C   UNL A   1      33.873  23.216  24.098  1.00  0.00     0.093 A 
ATOM      9  C   UNL A   1      36.381  22.633  24.091  1.00  0.00     0.068 C 
ATOM     10  C   UNL A   1      34.937  22.345  24.306  1.00  0.00     0.055 A 
ATOM     11  N   UNL A   1      34.758  21.050  24.659  1.00  0.00    -0.230 NA
ATOM     12  C   UNL A   1      33.511  20.581  24.715  1.00  0.00     0.196 A 
ATOM     13  C   UNL A   1      32.608  22.619  24.236  1.00  0.00     0.110 A 
ATOM     14  N   UNL A   1      32.412  21.304  24.510  1.00  0.00    -0.218 NA
BRANCH  12  15
ATOM     15  C   UNL A   1      33.406  19.139  24.722  1.00  0.00     0.171 A 
ATOM     16  C   UNL A   1      34.246  18.126  24.300  1.00  0.00     0.054 A 
ATOM     17  O   UNL A   1      32.330  18.607  25.376  1.00  0.00    -0.461 OA
ATOM     18  C   UNL A   1      33.662  16.913  24.738  1.00  0.00     0.043 A 
ATOM     19  C   UNL A   1      32.492  17.259  25.373  1.00  0.00     0.196 A 
ENDBRANCH  12  15
BRANCH  13  20
ATOM     20  S   UNL A   1      31.051  23.503  24.101  1.00  0.00    -0.123 SA
ATOM     21  H   UNL A   1      31.137  24.677  24.784  1.00  0.00     0.110 HD
ENDBRANCH  13  20
ENDBRANCH   5   8
ENDBRANCH   3   4
ENDBRANCH   2   3
ENDBRANCH   1   2
BRANCH   1  22
ATOM     22  C   UNL A   1      33.876  28.568  26.998  1.00  0.00     0.116 C 
BRANCH  22  23
ATOM     23  N   UNL A   1      33.780  29.869  27.651  1.00  0.00    -0.352 N 
ATOM     24  C   UNL A   1      34.772  30.549  28.321  1.00  0.00     0.251 C 
ATOM     25  H   UNL A   1      32.903  30.313  27.606  1.00  0.00     0.163 HD
ATOM     26  O   UNL A   1      34.539  31.615  28.879  1.00  0.00    -0.269 OA
BRANCH  24  27
ATOM     27  C   UNL A   1      36.106  29.924  28.401  1.00  0.00     0.039 A 
ATOM     28  C   UNL A   1      36.522  29.333  29.596  1.00  0.00     0.014 A 
ATOM     29  C   UNL A   1      36.986  30.065  27.327  1.00  0.00     0.014 A 
ATOM     30  C   UNL A   1      37.868  29.059  29.782  1.00  0.00     0.010 A 
ATOM     31  C   UNL A   1      38.322  29.695  27.486  1.00  0.00     0.010 A 
ATOM     32  C   UNL A   1      38.783  29.240  28.731  1.00  0.00    -0.014 A 
BRANCH  32  33
ATOM     33  C   UNL A   1      40.217  28.941  28.963  1.00  0.00     0.031 A 
ATOM     34  C   UNL A   1      40.804  27.612  28.575  1.00  0.00     0.074 A 
ATOM     35  C   UNL A   1      41.002  29.909  29.474  1.00  0.00     0.049 A 
ATOM     36  N   UNL A   1      42.028  27.177  28.735  1.00  0.00    -0.248 NA
ATOM     37  C   UNL A   1      39.906  26.644  27.924  1.00  0.00     0.031 C 
ATOM     38  C   UNL A   1      40.543  31.247  29.861  1.00  0.00     0.029 A 
ATOM     39  N   UNL A   1      42.348  29.935  29.726  1.00  0.00    -0.354 N 
ATOM     40  C   UNL A   1      42.042  25.880  28.235  1.00  0.00     0.074 A 
ATOM     41  C   UNL A   1      40.701  25.592  27.774  1.00  0.00     0.031 C 
ATOM     42  C   UNL A   1      41.599  31.981  30.239  1.00  0.00     0.029 A 
ATOM     43  C   UNL A   1      42.793  31.146  30.197  1.00  0.00     0.049 A 
ATOM     44  H   UNL A   1      42.939  29.160  29.583  1.00  0.00     0.167 HD
ATOM     45  C   UNL A   1      43.081  25.013  28.167  1.00  0.00     0.037 A 
ATOM     46  C   UNL A   1      44.024  31.538  30.571  1.00  0.00     0.037 A 
ATOM     47  C   UNL A   1      44.419  25.320  28.606  1.00  0.00     0.049 A 
ATOM     48  C   UNL A   1      45.151  30.554  30.505  1.00  0.00     0.074 A 
ATOM     49  C   UNL A   1      45.539  24.507  28.595  1.00  0.00     0.029 A 
ATOM     50  N   UNL A   1      44.822  26.544  29.124  1.00  0.00    -0.354 N 
ATOM     51  N   UNL A   1      45.133  29.312  30.084  1.00  0.00    -0.248 NA
ATOM     52  C   UNL A   1      46.461  31.015  30.980  1.00  0.00     0.031 C 
ATOM     53  C   UNL A   1      46.613  25.231  29.127  1.00  0.00     0.029 A 
ATOM     54  C   UNL A   1      46.170  26.506  29.438  1.00  0.00     0.049 A 
ATOM     55  H   UNL A   1      44.234  27.323  29.249  1.00  0.00     0.167 HD
ATOM     56  C   UNL A   1      46.428  28.840  30.244  1.00  0.00     0.074 A 
ATOM     57  C   UNL A   1      47.210  29.938  30.779  1.00  0.00     0.031 C 
ATOM     58  C   UNL A   1      46.924  27.608  29.979  1.00  0.00     0.037 A 
BRANCH  45  59
ATOM     59  C   UNL A   1      42.816  23.640  27.614  1.00  0.00     0.058 A 
ATOM     60  C   UNL A   1      42.980  23.350  26.250  1.00  0.00     0.135 A 
ATOM     61  C   UNL A   1      42.445  22.588  28.467  1.00  0.00     0.135 A 
ATOM     62  F   UNL A   1      43.316  24.324  25.388  1.00  0.00    -0.206 F 
ATOM     63  C   UNL A   1      42.774  22.068  25.750  1.00  0.00     0.059 A 
ATOM     64  C   UNL A   1      42.251  21.294  27.991  1.00  0.00     0.059 A 
ATOM     65  F   UNL A   1      42.271  22.811  29.779  1.00  0.00    -0.206 F 
ATOM     66  C   UNL A   1      42.409  21.046  26.628  1.00  0.00     0.060 A 
BRANCH  66  67
ATOM     67  S   UNL A   1      42.156  19.386  25.966  1.00  0.00     0.124 S 
ATOM     68  O   UNL A   1      42.981  19.425  24.761  1.00  0.00    -0.237 OA
ATOM     69  O   UNL A   1      42.652  18.539  27.046  1.00  0.00    -0.237 OA
ATOM     70  O   UNL A   1      40.716  19.326  25.736  1.00  0.00    -0.744 OA
ENDBRANCH  66  67
ENDBRANCH  45  59
BRANCH  46  71
ATOM     71  C   UNL A   1      44.231  32.929  31.047  1.00  0.00     0.058 A 
ATOM     72  C   UNL A   1      44.518  33.961  30.144  1.00  0.00     0.135 A 
ATOM     73  C   UNL A   1      44.077  33.263  32.401  1.00  0.00     0.135 A 
ATOM     74  F   UNL A   1      44.677  33.686  28.840  1.00  0.00    -0.206 F 
ATOM     75  C   UNL A   1      44.638  35.280  30.565  1.00  0.00     0.059 A 
ATOM     76  C   UNL A   1      44.169  34.577  32.843  1.00  0.00     0.059 A 
ATOM     77  F   UNL A   1      43.783  32.310  33.300  1.00  0.00    -0.206 F 
ATOM     78  C   UNL A   1      44.454  35.579  31.916  1.00  0.00     0.060 A 
BRANCH  78  79
ATOM     79  S   UNL A   1      44.520  37.306  32.441  1.00  0.00     0.124 S 
ATOM     80  O   UNL A   1      43.486  37.340  33.467  1.00  0.00    -0.237 OA
ATOM     81  O   UNL A   1      45.896  37.432  32.914  1.00  0.00    -0.237 OA
ATOM     82  O   UNL A   1      44.221  38.039  31.214  1.00  0.00    -0.744 OA
ENDBRANCH  78  79
ENDBRANCH  46  71
BRANCH  58  83
ATOM     83  C   UNL A   1      48.383  27.390  30.257  1.00  0.00     0.058 A 
ATOM     84  C   UNL A   1      49.362  27.711  29.304  1.00  0.00     0.135 A 
ATOM     85  C   UNL A   1      48.804  26.881  31.494  1.00  0.00     0.135 A 
ATOM     86  F   UNL A   1      49.005  28.194  28.103  1.00  0.00    -0.206 F 
ATOM     87  C   UNL A   1      50.713  27.513  29.562  1.00  0.00     0.059 A 
ATOM     88  C   UNL A   1      50.152  26.693  31.780  1.00  0.00     0.059 A 
ATOM     89  F   UNL A   1      47.903  26.565  32.438  1.00  0.00    -0.206 F 
ATOM     90  C   UNL A   1      51.098  27.000  30.802  1.00  0.00     0.060 A 
BRANCH  90  91
ATOM     91  S   UNL A   1      52.857  26.761  31.133  1.00  0.00     0.124 S 
ATOM     92  O   UNL A   1      52.821  25.761  32.196  1.00  0.00    -0.237 OA
ATOM     93  O   UNL A   1      53.358  26.296  29.843  1.00  0.00    -0.237 OA
ATOM     94  O   UNL A   1      53.310  28.089  31.534  1.00  0.00    -0.744 OA
ENDBRANCH  90  91
ENDBRANCH  58  83
ENDBRANCH  32  33
ENDBRANCH  24  27
ENDBRANCH  22  23
ENDBRANCH   1  22
TORSDOF 16
ENDMDL
MODEL 2
REMARK VINA RESULT:     -11.3      5.004      9.789
REMARK SMILES Cc1nc(-c2ccco2)nc(S)c1C(=O)NCCCCNC(=O)c1ccc(-c2c3nc(c(-c4c(F)cc(S(=O)(=O)[O-])cc4F)c4ccc([nH]4)c(-c4c(F)cc(S(=O)(=O)[O-])cc4F)c4nc(c(-c5c(F)cc(S(=O)(=O)[O-])cc5F)c5ccc2[nH]5)C=C4)C=C3)cc1
REMARK SMILES IDX 19 1 18 2 17 3 16 4 14 5 15 6 13 8 1 9 2 10 3 11 4 12 11 13
REMARK SMILES IDX 10 14 5 15 6 16 9 17 7 18 8 19 12 20 20 22 21 23 22 24 23 26
REMARK SMILES IDX 24 27 25 28 89 29 26 30 88 31 27 32 28 33 29 34 82 35 30 36
REMARK SMILES IDX 87 37 81 38 83 39 31 40 86 41 80 42 79 43 32 45 66 46 45 47
REMARK SMILES IDX 65 48 46 49 49 50 64 51 84 52 47 53 48 54 63 56 85 57 50 58
REMARK SMILES IDX 33 59 34 60 43 61 35 62 36 63 42 64 44 65 37 66 38 67 39 68
REMARK SMILES IDX 40 69 41 70 67 71 68 72 77 73 69 74 70 75 76 76 78 77 71 78
REMARK SMILES IDX 72 79 73 80 74 81 75 82 51 83 52 84 61 85 53 86 54 87 60 88
REMARK SMILES IDX 62 89 55 90 56 91 57 92 58 93 59 94
REMARK H PARENT 16 7 12 21 21 25 83 44 49 55
REMARK Flexibility Score: inf
ROOT
ATOM      1  C   UNL A   1      37.739  23.069  26.335  1.00  0.00     0.023 C 
ENDROOT
BRANCH   1   2
ATOM      2  C   UNL A   1      37.133  22.521  25.050  1.00  0.00     0.023 C 
BRANCH   2   3
ATOM      3  C   UNL A   1      36.500  23.558  24.113  1.00  0.00     0.116 C 
BRANCH   3   4
ATOM      4  N   UNL A   1      35.415  24.220  24.806  1.00  0.00    -0.352 N 
ATOM      5  C   UNL A   1      34.140  23.845  25.134  1.00  0.00     0.255 C 
ATOM      6  O   UNL A   1      33.388  24.746  25.512  1.00  0.00    -0.269 OA
ATOM      7  H   UNL A   1      35.641  25.130  25.105  1.00  0.00     0.163 HD
BRANCH   5   8
ATOM      8  C   UNL A   1      33.603  22.461  25.136  1.00  0.00     0.093 A 
ATOM      9  C   UNL A   1      34.222  21.779  27.539  1.00  0.00     0.068 C 
ATOM     10  C   UNL A   1      33.680  21.541  26.174  1.00  0.00     0.055 A 
ATOM     11  N   UNL A   1      33.336  20.240  26.021  1.00  0.00    -0.230 NA
ATOM     12  C   UNL A   1      33.000  19.819  24.800  1.00  0.00     0.196 A 
ATOM     13  C   UNL A   1      33.188  21.911  23.910  1.00  0.00     0.110 A 
ATOM     14  N   UNL A   1      32.916  20.594  23.721  1.00  0.00    -0.218 NA
BRANCH  12  15
ATOM     15  C   UNL A   1      33.014  18.384  24.630  1.00  0.00     0.171 A 
ATOM     16  C   UNL A   1      33.798  17.526  23.883  1.00  0.00     0.054 A 
ATOM     17  O   UNL A   1      32.178  17.664  25.439  1.00  0.00    -0.461 OA
ATOM     18  C   UNL A   1      33.437  16.213  24.273  1.00  0.00     0.043 A 
ATOM     19  C   UNL A   1      32.439  16.352  25.209  1.00  0.00     0.196 A 
ENDBRANCH  12  15
BRANCH  13  20
ATOM     20  S   UNL A   1      32.922  22.861  22.411  1.00  0.00    -0.123 SA
ATOM     21  H   UNL A   1      32.891  24.187  22.715  1.00  0.00     0.110 HD
ENDBRANCH  13  20
ENDBRANCH   5   8
ENDBRANCH   3   4
ENDBRANCH   2   3
ENDBRANCH   1   2
BRANCH   1  22
ATOM     22  C   UNL A   1      38.679  24.240  26.121  1.00  0.00     0.116 C 
BRANCH  22  23
ATOM     23  N   UNL A   1      40.090  23.872  26.141  1.00  0.00    -0.352 N 
ATOM     24  C   UNL A   1      41.106  24.474  26.851  1.00  0.00     0.251 C 
ATOM     25  H   UNL A   1      40.347  23.104  25.582  1.00  0.00     0.163 HD
ATOM     26  O   UNL A   1      42.267  24.099  26.729  1.00  0.00    -0.269 OA
BRANCH  24  27
ATOM     27  C   UNL A   1      40.763  25.621  27.711  1.00  0.00     0.039 A 
ATOM     28  C   UNL A   1      41.601  26.738  27.741  1.00  0.00     0.014 A 
ATOM     29  C   UNL A   1      39.687  25.510  28.594  1.00  0.00     0.014 A 
ATOM     30  C   UNL A   1      41.476  27.650  28.777  1.00  0.00     0.010 A 
ATOM     31  C   UNL A   1      39.506  26.483  29.576  1.00  0.00     0.010 A 
ATOM     32  C   UNL A   1      40.430  27.531  29.708  1.00  0.00    -0.014 A 
BRANCH  32  33
ATOM     33  C   UNL A   1      40.327  28.520  30.808  1.00  0.00     0.031 A 
ATOM     34  C   UNL A   1      41.289  28.496  31.964  1.00  0.00     0.074 A 
ATOM     35  C   UNL A   1      39.390  29.483  30.722  1.00  0.00     0.049 A 
ATOM     36  N   UNL A   1      41.322  29.266  33.022  1.00  0.00    -0.248 NA
ATOM     37  C   UNL A   1      42.352  27.478  31.934  1.00  0.00     0.031 C 
ATOM     38  C   UNL A   1      38.421  29.619  29.630  1.00  0.00     0.029 A 
ATOM     39  N   UNL A   1      39.117  30.546  31.541  1.00  0.00    -0.354 N 
ATOM     40  C   UNL A   1      42.383  28.811  33.795  1.00  0.00     0.074 A 
ATOM     41  C   UNL A   1      42.966  27.689  33.091  1.00  0.00     0.031 C 
ATOM     42  C   UNL A   1      37.705  30.737  29.815  1.00  0.00     0.029 A 
ATOM     43  C   UNL A   1      38.108  31.353  31.073  1.00  0.00     0.049 A 
ATOM     44  H   UNL A   1      39.597  30.716  32.384  1.00  0.00     0.167 HD
ATOM     45  C   UNL A   1      42.829  29.290  34.982  1.00  0.00     0.037 A 
ATOM     46  C   UNL A   1      37.554  32.457  31.606  1.00  0.00     0.037 A 
ATOM     47  C   UNL A   1      42.256  30.424  35.662  1.00  0.00     0.049 A 
ATOM     48  C   UNL A   1      38.051  32.953  32.929  1.00  0.00     0.074 A 
ATOM     49  C   UNL A   1      42.623  30.979  36.875  1.00  0.00     0.029 A 
ATOM     50  N   UNL A   1      41.201  31.187  35.179  1.00  0.00    -0.354 N 
ATOM     51  N   UNL A   1      39.019  32.474  33.674  1.00  0.00    -0.248 NA
ATOM     52  C   UNL A   1      37.374  34.126  33.493  1.00  0.00     0.031 C 
ATOM     53  C   UNL A   1      41.776  32.063  37.137  1.00  0.00     0.029 A 
ATOM     54  C   UNL A   1      40.903  32.204  36.070  1.00  0.00     0.049 A 
ATOM     55  H   UNL A   1      40.734  31.028  34.327  1.00  0.00     0.167 HD
ATOM     56  C   UNL A   1      39.066  33.286  34.798  1.00  0.00     0.074 A 
ATOM     57  C   UNL A   1      38.046  34.301  34.624  1.00  0.00     0.031 C 
ATOM     58  C   UNL A   1      39.877  33.196  35.880  1.00  0.00     0.037 A 
BRANCH  45  59
ATOM     59  C   UNL A   1      43.982  28.581  35.637  1.00  0.00     0.058 A 
ATOM     60  C   UNL A   1      45.313  28.946  35.381  1.00  0.00     0.135 A 
ATOM     61  C   UNL A   1      43.751  27.560  36.573  1.00  0.00     0.135 A 
ATOM     62  F   UNL A   1      45.590  29.904  34.482  1.00  0.00    -0.206 F 
ATOM     63  C   UNL A   1      46.375  28.315  36.022  1.00  0.00     0.059 A 
ATOM     64  C   UNL A   1      44.798  26.927  37.238  1.00  0.00     0.059 A 
ATOM     65  F   UNL A   1      42.498  27.169  36.852  1.00  0.00    -0.206 F 
ATOM     66  C   UNL A   1      46.108  27.306  36.949  1.00  0.00     0.060 A 
BRANCH  66  67
ATOM     67  S   UNL A   1      47.496  26.505  37.780  1.00  0.00     0.124 S 
ATOM     68  O   UNL A   1      47.418  27.098  39.112  1.00  0.00    -0.237 OA
ATOM     69  O   UNL A   1      47.140  25.092  37.694  1.00  0.00    -0.237 OA
ATOM     70  O   UNL A   1      48.650  26.908  36.982  1.00  0.00    -0.744 OA
ENDBRANCH  66  67
ENDBRANCH  45  59
BRANCH  46  71
ATOM     71  C   UNL A   1      36.462  33.147  30.876  1.00  0.00     0.058 A 
ATOM     72  C   UNL A   1      35.136  33.067  31.322  1.00  0.00     0.135 A 
ATOM     73  C   UNL A   1      36.734  33.957  29.762  1.00  0.00     0.135 A 
ATOM     74  F   UNL A   1      34.831  32.301  32.381  1.00  0.00    -0.206 F 
ATOM     75  C   UNL A   1      34.116  33.770  30.693  1.00  0.00     0.059 A 
ATOM     76  C   UNL A   1      35.735  34.689  29.131  1.00  0.00     0.059 A 
ATOM     77  F   UNL A   1      37.992  34.081  29.311  1.00  0.00    -0.206 F 
ATOM     78  C   UNL A   1      34.427  34.585  29.603  1.00  0.00     0.060 A 
BRANCH  78  79
ATOM     79  S   UNL A   1      33.112  35.567  28.850  1.00  0.00     0.124 S 
ATOM     80  O   UNL A   1      33.877  36.566  28.114  1.00  0.00    -0.237 OA
ATOM     81  O   UNL A   1      32.410  34.575  28.040  1.00  0.00    -0.237 OA
ATOM     82  O   UNL A   1      32.364  36.063  30.001  1.00  0.00    -0.744 OA
ENDBRANCH  78  79
ENDBRANCH  46  71
BRANCH  58  83
ATOM     83  C   UNL A   1      39.694  34.231  36.952  1.00  0.00     0.058 A 
ATOM     84  C   UNL A   1      39.002  33.938  38.137  1.00  0.00     0.135 A 
ATOM     85  C   UNL A   1      40.238  35.515  36.802  1.00  0.00     0.135 A 
ATOM     86  F   UNL A   1      38.458  32.725  38.320  1.00  0.00    -0.206 F 
ATOM     87  C   UNL A   1      38.836  34.895  39.131  1.00  0.00     0.059 A 
ATOM     88  C   UNL A   1      40.100  36.482  37.793  1.00  0.00     0.059 A 
ATOM     89  F   UNL A   1      40.913  35.839  35.688  1.00  0.00    -0.206 F 
ATOM     90  C   UNL A   1      39.386  36.165  38.949  1.00  0.00     0.060 A 
BRANCH  90  91
ATOM     91  S   UNL A   1      39.176  37.395  40.253  1.00  0.00     0.124 S 
ATOM     92  O   UNL A   1      38.273  38.348  39.615  1.00  0.00    -0.237 OA
ATOM     93  O   UNL A   1      38.602  36.607  41.339  1.00  0.00    -0.237 OA
ATOM     94  O   UNL A   1      40.535  37.876  40.486  1.00  0.00    -0.744 OA
ENDBRANCH  90  91
ENDBRANCH  58  83
ENDBRANCH  32  33
ENDBRANCH  24  27
ENDBRANCH  22  23
ENDBRANCH   1  22
TORSDOF 16
ENDMDL
MODEL 3
REMARK VINA RESULT:     -11.3      0.439      8.398
REMARK SMILES Cc1nc(-c2ccco2)nc(S)c1C(=O)NCCCCNC(=O)c1ccc(-c2c3nc(c(-c4c(F)cc(S(=O)(=O)[O-])cc4F)c4ccc([nH]4)c(-c4c(F)cc(S(=O)(=O)[O-])cc4F)c4nc(c(-c5c(F)cc(S(=O)(=O)[O-])cc5F)c5ccc2[nH]5)C=C4)C=C3)cc1
REMARK SMILES IDX 19 1 18 2 17 3 16 4 14 5 15 6 13 8 1 9 2 10 3 11 4 12 11 13
REMARK SMILES IDX 10 14 5 15 6 16 9 17 7 18 8 19 12 20 20 22 21 23 22 24 23 26
REMARK SMILES IDX 24 27 25 28 89 29 26 30 88 31 27 32 28 33 29 34 82 35 30 36
REMARK SMILES IDX 87 37 81 38 83 39 31 40 86 41 80 42 79 43 32 45 66 46 45 47
REMARK SMILES IDX 65 48 46 49 49 50 64 51 84 52 47 53 48 54 63 56 85 57 50 58
REMARK SMILES IDX 33 59 34 60 43 61 35 62 36 63 42 64 44 65 37 66 38 67 39 68
REMARK SMILES IDX 40 69 41 70 67 71 68 72 77 73 69 74 70 75 76 76 78 77 71 78
REMARK SMILES IDX 72 79 73 80 74 81 75 82 51 83 52 84 61 85 53 86 54 87 60 88
REMARK SMILES IDX 62 89 55 90 56 91 57 92 58 93 59 94
REMARK H PARENT 16 7 12 21 21 25 83 44 49 55
REMARK Flexibility Score: inf
ROOT
ATOM      1  C   UNL A   1      32.404  27.808  26.819  1.00  0.00     0.023 C 
ENDROOT
BRANCH   1   2
ATOM      2  C   UNL A   1      32.525  26.449  26.142  1.00  0.00     0.023 C 
BRANCH   2   3
ATOM      3  C   UNL A   1      33.924  26.077  25.633  1.00  0.00     0.116 C 
BRANCH   3   4
ATOM      4  N   UNL A   1      33.838  25.733  24.229  1.00  0.00    -0.352 N 
ATOM      5  C   UNL A   1      33.955  24.556  23.540  1.00  0.00     0.255 C 
ATOM      6  O   UNL A   1      34.073  24.652  22.316  1.00  0.00    -0.269 OA
ATOM      7  H   UNL A   1      33.657  26.507  23.648  1.00  0.00     0.163 HD
BRANCH   5   8
ATOM      8  C   UNL A   1      33.890  23.189  24.114  1.00  0.00     0.093 A 
ATOM      9  C   UNL A   1      36.398  22.610  24.088  1.00  0.00     0.068 C 
ATOM     10  C   UNL A   1      34.956  22.319  24.312  1.00  0.00     0.055 A 
ATOM     11  N   UNL A   1      34.782  21.023  24.660  1.00  0.00    -0.230 NA
ATOM     12  C   UNL A   1      33.536  20.551  24.723  1.00  0.00     0.196 A 
ATOM     13  C   UNL A   1      32.627  22.590  24.259  1.00  0.00     0.110 A 
ATOM     14  N   UNL A   1      32.435  21.273  24.528  1.00  0.00    -0.218 NA
BRANCH  12  15
ATOM     15  C   UNL A   1      33.433  19.109  24.724  1.00  0.00     0.171 A 
ATOM     16  C   UNL A   1      34.283  18.098  24.318  1.00  0.00     0.054 A 
ATOM     17  O   UNL A   1      32.343  18.574  25.353  1.00  0.00    -0.461 OA
ATOM     18  C   UNL A   1      33.691  16.884  24.741  1.00  0.00     0.043 A 
ATOM     19  C   UNL A   1      32.507  17.226  25.351  1.00  0.00     0.196 A 
ENDBRANCH  12  15
BRANCH  13  20
ATOM     20  S   UNL A   1      31.068  23.473  24.139  1.00  0.00    -0.123 SA
ATOM     21  H   UNL A   1      31.102  24.307  23.064  1.00  0.00     0.110 HD
ENDBRANCH  13  20
ENDBRANCH   5   8
ENDBRANCH   3   4
ENDBRANCH   2   3
ENDBRANCH   1   2
BRANCH   1  22
ATOM     22  C   UNL A   1      33.733  28.506  27.039  1.00  0.00     0.116 C 
BRANCH  22  23
ATOM     23  N   UNL A   1      33.610  29.832  27.634  1.00  0.00    -0.352 N 
ATOM     24  C   UNL A   1      34.589  30.564  28.267  1.00  0.00     0.251 C 
ATOM     25  H   UNL A   1      32.722  30.253  27.576  1.00  0.00     0.163 HD
ATOM     26  O   UNL A   1      34.334  31.648  28.779  1.00  0.00    -0.269 OA
BRANCH  24  27
ATOM     27  C   UNL A   1      35.938  29.975  28.365  1.00  0.00     0.039 A 
ATOM     28  C   UNL A   1      36.369  29.432  29.577  1.00  0.00     0.014 A 
ATOM     29  C   UNL A   1      36.815  30.105  27.286  1.00  0.00     0.014 A 
ATOM     30  C   UNL A   1      37.721  29.197  29.770  1.00  0.00     0.010 A 
ATOM     31  C   UNL A   1      38.159  29.773  27.455  1.00  0.00     0.010 A 
ATOM     32  C   UNL A   1      38.632  29.368  28.713  1.00  0.00    -0.014 A 
BRANCH  32  33
ATOM     33  C   UNL A   1      40.073  29.113  28.953  1.00  0.00     0.031 A 
ATOM     34  C   UNL A   1      40.940  30.141  29.627  1.00  0.00     0.074 A 
ATOM     35  C   UNL A   1      40.580  27.913  28.610  1.00  0.00     0.049 A 
ATOM     36  N   UNL A   1      42.222  30.092  29.886  1.00  0.00    -0.248 NA
ATOM     37  C   UNL A   1      40.289  31.386  30.068  1.00  0.00     0.031 C 
ATOM     38  C   UNL A   1      39.823  26.831  27.976  1.00  0.00     0.029 A 
ATOM     39  N   UNL A   1      41.834  27.389  28.774  1.00  0.00    -0.354 N 
ATOM     40  C   UNL A   1      42.537  31.303  30.490  1.00  0.00     0.074 A 
ATOM     41  C   UNL A   1      41.315  32.074  30.552  1.00  0.00     0.031 C 
ATOM     42  C   UNL A   1      40.610  25.751  27.863  1.00  0.00     0.029 A 
ATOM     43  C   UNL A   1      41.944  26.089  28.344  1.00  0.00     0.049 A 
ATOM     44  H   UNL A   1      42.585  27.895  29.163  1.00  0.00     0.167 HD
ATOM     45  C   UNL A   1      43.738  31.728  30.952  1.00  0.00     0.037 A 
ATOM     46  C   UNL A   1      43.006  25.263  28.321  1.00  0.00     0.037 A 
ATOM     47  C   UNL A   1      44.945  30.941  30.907  1.00  0.00     0.049 A 
ATOM     48  C   UNL A   1      44.326  25.765  28.818  1.00  0.00     0.074 A 
ATOM     49  C   UNL A   1      46.216  31.285  31.333  1.00  0.00     0.029 A 
ATOM     50  N   UNL A   1      45.027  29.644  30.418  1.00  0.00    -0.354 N 
ATOM     51  N   UNL A   1      44.619  26.935  29.333  1.00  0.00    -0.248 NA
ATOM     52  C   UNL A   1      45.465  24.844  28.716  1.00  0.00     0.031 C 
ATOM     53  C   UNL A   1      47.071  30.205  31.082  1.00  0.00     0.029 A 
ATOM     54  C   UNL A   1      46.326  29.176  30.529  1.00  0.00     0.049 A 
ATOM     55  H   UNL A   1      44.273  29.133  30.047  1.00  0.00     0.167 HD
ATOM     56  C   UNL A   1      45.977  26.894  29.616  1.00  0.00     0.074 A 
ATOM     57  C   UNL A   1      46.443  25.574  29.237  1.00  0.00     0.031 C 
ATOM     58  C   UNL A   1      46.768  27.863  30.137  1.00  0.00     0.037 A 
BRANCH  45  59
ATOM     59  C   UNL A   1      43.819  33.114  31.530  1.00  0.00     0.058 A 
ATOM     60  C   UNL A   1      44.043  34.238  30.720  1.00  0.00     0.135 A 
ATOM     61  C   UNL A   1      43.618  33.325  32.904  1.00  0.00     0.135 A 
ATOM     62  F   UNL A   1      44.259  34.090  29.403  1.00  0.00    -0.206 F 
ATOM     63  C   UNL A   1      44.076  35.523  31.254  1.00  0.00     0.059 A 
ATOM     64  C   UNL A   1      43.629  34.603  33.456  1.00  0.00     0.059 A 
ATOM     65  F   UNL A   1      43.405  32.284  33.723  1.00  0.00    -0.206 F 
ATOM     66  C   UNL A   1      43.868  35.696  32.623  1.00  0.00     0.060 A 
BRANCH  66  67
ATOM     67  S   UNL A   1      43.902  37.370  33.299  1.00  0.00     0.124 S 
ATOM     68  O   UNL A   1      45.196  37.382  33.977  1.00  0.00    -0.237 OA
ATOM     69  O   UNL A   1      43.810  38.194  32.098  1.00  0.00    -0.237 OA
ATOM     70  O   UNL A   1      42.736  37.408  34.175  1.00  0.00    -0.744 OA
ENDBRANCH  66  67
ENDBRANCH  45  59
BRANCH  46  71
ATOM     71  C   UNL A   1      42.843  23.884  27.797  1.00  0.00     0.058 A 
ATOM     72  C   UNL A   1      42.633  22.806  28.667  1.00  0.00     0.135 A 
ATOM     73  C   UNL A   1      42.824  23.630  26.417  1.00  0.00     0.135 A 
ATOM     74  F   UNL A   1      42.647  23.003  29.994  1.00  0.00    -0.206 F 
ATOM     75  C   UNL A   1      42.403  21.522  28.187  1.00  0.00     0.059 A 
ATOM     76  C   UNL A   1      42.573  22.360  25.913  1.00  0.00     0.059 A 
ATOM     77  F   UNL A   1      43.002  24.636  25.545  1.00  0.00    -0.206 F 
ATOM     78  C   UNL A   1      42.367  21.310  26.807  1.00  0.00     0.060 A 
BRANCH  78  79
ATOM     79  S   UNL A   1      41.976  19.659  26.192  1.00  0.00     0.124 S 
ATOM     80  O   UNL A   1      42.429  18.820  27.295  1.00  0.00    -0.237 OA
ATOM     81  O   UNL A   1      40.531  19.735  25.999  1.00  0.00    -0.237 OA
ATOM     82  O   UNL A   1      42.758  19.567  24.962  1.00  0.00    -0.744 OA
ENDBRANCH  78  79
ENDBRANCH  46  71
BRANCH  58  83
ATOM     83  C   UNL A   1      48.216  27.522  30.333  1.00  0.00     0.058 A 
ATOM     84  C   UNL A   1      48.674  26.945  31.527  1.00  0.00     0.135 A 
ATOM     85  C   UNL A   1      49.147  27.752  29.309  1.00  0.00     0.135 A 
ATOM     86  F   UNL A   1      47.820  26.714  32.537  1.00  0.00    -0.206 F 
ATOM     87  C   UNL A   1      50.015  26.626  31.708  1.00  0.00     0.059 A 
ATOM     88  C   UNL A   1      50.490  27.423  29.462  1.00  0.00     0.059 A 
ATOM     89  F   UNL A   1      48.755  28.297  28.147  1.00  0.00    -0.206 F 
ATOM     90  C   UNL A   1      50.916  26.872  30.670  1.00  0.00     0.060 A 
BRANCH  90  91
ATOM     91  S   UNL A   1      52.652  26.441  30.910  1.00  0.00     0.124 S 
ATOM     92  O   UNL A   1      52.544  25.222  31.706  1.00  0.00    -0.237 OA
ATOM     93  O   UNL A   1      53.124  26.263  29.540  1.00  0.00    -0.237 OA
ATOM     94  O   UNL A   1      53.197  27.602  31.608  1.00  0.00    -0.744 OA
ENDBRANCH  90  91
ENDBRANCH  58  83
ENDBRANCH  32  33
ENDBRANCH  24  27
ENDBRANCH  22  23
ENDBRANCH   1  22
TORSDOF 16
ENDMDL
