MODEL 1
REMARK VINA RESULT:     -11.9      0.000      0.000
REMARK SMILES O=C(NCCCCNC(=O)[C@H]1CC[C@@H](CNC(=O)[C@@H]2CSc3ccccc32)O1)c1ccc(-c2c3nc(c(-c4c(F)cc(S(=O)(=O)[O-])cc4F)c4ccc([nH]4)c(-c4c(F)cc(S(=O)(=O)[O-])cc4F)c4nc(c(-c5c(F)cc(S(=O)(=O)[O-])cc5F)c5ccc2[nH]5)C=C4)C=C3)cc1
REMARK SMILES IDX 5 1 4 2 3 3 1 4 2 5 29 7 30 8 94 9 31 10 93 11 32 12 33 13
REMARK SMILES IDX 34 14 87 15 35 16 92 17 86 18 88 19 36 20 91 21 85 22 84 23
REMARK SMILES IDX 37 25 71 26 50 27 70 28 51 29 54 30 69 31 89 32 52 33 53 34
REMARK SMILES IDX 68 36 90 37 55 38 38 39 39 40 48 41 40 42 41 43 47 44 49 45
REMARK SMILES IDX 42 46 43 47 44 48 45 49 46 50 72 51 73 52 82 53 74 54 75 55
REMARK SMILES IDX 81 56 83 57 76 58 77 59 78 60 79 61 80 62 56 63 57 64 66 65
REMARK SMILES IDX 58 66 59 67 65 68 67 69 60 70 61 71 62 72 63 73 64 74 6 75
REMARK SMILES IDX 7 76 8 77 9 78 10 80 11 81 12 82 28 83 13 84 14 85 15 86
REMARK SMILES IDX 16 87 17 88 18 90 19 91 20 92 27 93 21 94 22 95 26 96 23 97
REMARK SMILES IDX 25 98 24 99
REMARK H PARENT 3 6 88 24 54 35 8 79 16 89
REMARK Flexibility Score: inf
ROOT
ATOM      1  C   UNL A   1      34.275  29.629  26.702  1.00  0.00     0.023 C 
ENDROOT
BRANCH   1   2
ATOM      2  C   UNL A   1      34.907  29.278  28.044  1.00  0.00     0.116 C 
BRANCH   2   3
ATOM      3  N   UNL A   1      35.129  30.448  28.878  1.00  0.00    -0.352 N 
ATOM      4  O   UNL A   1      36.202  31.812  30.302  1.00  0.00    -0.269 OA
ATOM      5  C   UNL A   1      36.271  30.880  29.499  1.00  0.00     0.251 C 
ATOM      6  H   UNL A   1      34.337  31.017  29.018  1.00  0.00     0.163 HD
BRANCH   5   7
ATOM      7  C   UNL A   1      37.579  30.247  29.220  1.00  0.00     0.039 A 
ATOM      8  C   UNL A   1      38.402  29.904  30.300  1.00  0.00     0.014 A 
ATOM      9  C   UNL A   1      38.037  30.063  27.912  1.00  0.00     0.014 A 
ATOM     10  C   UNL A   1      39.672  29.369  30.070  1.00  0.00     0.010 A 
ATOM     11  C   UNL A   1      39.278  29.474  27.683  1.00  0.00     0.010 A 
ATOM     12  C   UNL A   1      40.119  29.151  28.760  1.00  0.00    -0.014 A 
BRANCH  12  13
ATOM     13  C   UNL A   1      41.504  28.697  28.479  1.00  0.00     0.031 A 
ATOM     14  C   UNL A   1      42.631  29.690  28.565  1.00  0.00     0.074 A 
ATOM     15  C   UNL A   1      41.752  27.424  28.127  1.00  0.00     0.049 A 
ATOM     16  N   UNL A   1      43.889  29.551  28.236  1.00  0.00    -0.248 NA
ATOM     17  C   UNL A   1      42.286  31.028  29.072  1.00  0.00     0.031 C 
ATOM     18  C   UNL A   1      40.754  26.360  28.032  1.00  0.00     0.029 A 
ATOM     19  N   UNL A   1      42.930  26.811  27.779  1.00  0.00    -0.354 N 
ATOM     20  C   UNL A   1      44.481  30.784  28.480  1.00  0.00     0.074 A 
ATOM     21  C   UNL A   1      43.434  31.673  28.938  1.00  0.00     0.031 C 
ATOM     22  C   UNL A   1      41.365  25.217  27.681  1.00  0.00     0.029 A 
ATOM     23  C   UNL A   1      42.788  25.477  27.479  1.00  0.00     0.049 A 
ATOM     24  H   UNL A   1      43.793  27.281  27.749  1.00  0.00     0.167 HD
ATOM     25  C   UNL A   1      45.783  31.141  28.359  1.00  0.00     0.037 A 
ATOM     26  C   UNL A   1      43.703  24.574  27.080  1.00  0.00     0.037 A 
ATOM     27  C   UNL A   1      46.824  30.253  27.916  1.00  0.00     0.049 A 
ATOM     28  C   UNL A   1      45.132  25.003  26.892  1.00  0.00     0.074 A 
ATOM     29  C   UNL A   1      48.172  30.517  27.746  1.00  0.00     0.029 A 
ATOM     30  N   UNL A   1      46.633  28.921  27.579  1.00  0.00    -0.354 N 
ATOM     31  N   UNL A   1      45.672  26.183  27.086  1.00  0.00    -0.248 NA
ATOM     32  C   UNL A   1      46.073  23.978  26.421  1.00  0.00     0.031 C 
ATOM     33  C   UNL A   1      48.791  29.349  27.281  1.00  0.00     0.029 A 
ATOM     34  C   UNL A   1      47.835  28.349  27.196  1.00  0.00     0.049 A 
ATOM     35  H   UNL A   1      45.770  28.449  27.608  1.00  0.00     0.167 HD
ATOM     36  C   UNL A   1      47.019  26.042  26.772  1.00  0.00     0.074 A 
ATOM     37  C   UNL A   1      47.213  24.656  26.389  1.00  0.00     0.031 C 
ATOM     38  C   UNL A   1      48.006  26.972  26.798  1.00  0.00     0.037 A 
BRANCH  25  39
ATOM     39  C   UNL A   1      46.129  32.563  28.705  1.00  0.00     0.058 A 
ATOM     40  C   UNL A   1      46.111  33.579  27.734  1.00  0.00     0.135 A 
ATOM     41  C   UNL A   1      46.525  32.909  30.006  1.00  0.00     0.135 A 
ATOM     42  F   UNL A   1      45.760  33.297  26.469  1.00  0.00    -0.206 F 
ATOM     43  C   UNL A   1      46.523  34.874  28.028  1.00  0.00     0.059 A 
ATOM     44  C   UNL A   1      46.915  34.206  30.329  1.00  0.00     0.059 A 
ATOM     45  F   UNL A   1      46.560  31.979  30.973  1.00  0.00    -0.206 F 
ATOM     46  C   UNL A   1      46.936  35.176  29.327  1.00  0.00     0.060 A 
BRANCH  46  47
ATOM     47  S   UNL A   1      47.518  36.847  29.684  1.00  0.00     0.124 S 
ATOM     48  O   UNL A   1      46.563  37.653  28.930  1.00  0.00    -0.237 OA
ATOM     49  O   UNL A   1      47.396  36.918  31.137  1.00  0.00    -0.237 OA
ATOM     50  O   UNL A   1      48.883  36.848  29.172  1.00  0.00    -0.744 OA
ENDBRANCH  46  47
ENDBRANCH  25  39
BRANCH  26  51
ATOM     51  C   UNL A   1      43.291  23.162  26.867  1.00  0.00     0.058 A 
ATOM     52  C   UNL A   1      43.218  22.633  25.571  1.00  0.00     0.135 A 
ATOM     53  C   UNL A   1      43.023  22.304  27.943  1.00  0.00     0.135 A 
ATOM     54  F   UNL A   1      43.453  23.421  24.511  1.00  0.00    -0.206 F 
ATOM     55  C   UNL A   1      42.908  21.296  25.348  1.00  0.00     0.059 A 
ATOM     56  C   UNL A   1      42.728  20.958  27.746  1.00  0.00     0.059 A 
ATOM     57  F   UNL A   1      43.086  22.764  29.203  1.00  0.00    -0.206 F 
ATOM     58  C   UNL A   1      42.676  20.464  26.444  1.00  0.00     0.060 A 
BRANCH  58  59
ATOM     59  S   UNL A   1      42.376  18.707  26.143  1.00  0.00     0.124 S 
ATOM     60  O   UNL A   1      42.649  18.132  27.455  1.00  0.00    -0.237 OA
ATOM     61  O   UNL A   1      40.978  18.705  25.724  1.00  0.00    -0.237 OA
ATOM     62  O   UNL A   1      43.337  18.376  25.096  1.00  0.00    -0.744 OA
ENDBRANCH  58  59
ENDBRANCH  26  51
BRANCH  38  63
ATOM     63  C   UNL A   1      49.384  26.518  26.407  1.00  0.00     0.058 A 
ATOM     64  C   UNL A   1      49.879  26.712  25.108  1.00  0.00     0.135 A 
ATOM     65  C   UNL A   1      50.227  25.903  27.345  1.00  0.00     0.135 A 
ATOM     66  F   UNL A   1      49.109  27.290  24.172  1.00  0.00    -0.206 F 
ATOM     67  C   UNL A   1      51.152  26.285  24.744  1.00  0.00     0.059 A 
ATOM     68  C   UNL A   1      51.513  25.489  27.010  1.00  0.00     0.059 A 
ATOM     69  F   UNL A   1      49.807  25.704  28.605  1.00  0.00    -0.206 F 
ATOM     70  C   UNL A   1      51.960  25.670  25.702  1.00  0.00     0.060 A 
BRANCH  70  71
ATOM     71  S   UNL A   1      53.613  25.126  25.220  1.00  0.00     0.124 S 
ATOM     72  O   UNL A   1      53.483  23.675  25.314  1.00  0.00    -0.237 OA
ATOM     73  O   UNL A   1      53.740  25.664  23.869  1.00  0.00    -0.237 OA
ATOM     74  O   UNL A   1      54.479  25.745  26.218  1.00  0.00    -0.744 OA
ENDBRANCH  70  71
ENDBRANCH  38  63
ENDBRANCH  12  13
ENDBRANCH   5   7
ENDBRANCH   2   3
ENDBRANCH   1   2
BRANCH   1  75
ATOM     75  C   UNL A   1      33.167  30.685  26.758  1.00  0.00     0.023 C 
BRANCH  75  76
ATOM     76  C   UNL A   1      31.812  30.249  26.219  1.00  0.00     0.116 C 
BRANCH  76  77
ATOM     77  N   UNL A   1      31.611  28.821  26.379  1.00  0.00    -0.354 N 
ATOM     78  C   UNL A   1      31.394  27.876  25.417  1.00  0.00     0.249 C 
ATOM     79  H   UNL A   1      31.634  28.488  27.305  1.00  0.00     0.163 HD
ATOM     80  O   UNL A   1      31.145  26.720  25.766  1.00  0.00    -0.272 OA
BRANCH  78  81
ATOM     81  C   UNL A   1      31.489  28.280  23.928  1.00  0.00     0.207 C 
ATOM     82  C   UNL A   1      32.923  28.550  23.497  1.00  0.00     0.045 C 
ATOM     83  O   UNL A   1      31.010  27.239  23.061  1.00  0.00    -0.363 OA
ATOM     84  C   UNL A   1      33.402  27.183  23.072  1.00  0.00     0.037 C 
ATOM     85  C   UNL A   1      32.145  26.568  22.468  1.00  0.00     0.138 C 
BRANCH  85  86
ATOM     86  C   UNL A   1      32.039  25.046  22.667  1.00  0.00     0.147 C 
BRANCH  86  87
ATOM     87  N   UNL A   1      32.242  24.686  24.060  1.00  0.00    -0.353 N 
ATOM     88  C   UNL A   1      32.441  23.468  24.634  1.00  0.00     0.228 C 
ATOM     89  H   UNL A   1      32.237  25.444  24.689  1.00  0.00     0.163 HD
ATOM     90  O   UNL A   1      32.269  23.405  25.854  1.00  0.00    -0.274 OA
BRANCH  88  91
ATOM     91  C   UNL A   1      32.941  22.287  23.795  1.00  0.00     0.120 C 
ATOM     92  C   UNL A   1      32.335  20.942  24.230  1.00  0.00     0.093 C 
ATOM     93  C   UNL A   1      34.445  22.161  23.894  1.00  0.00    -0.021 A 
ATOM     94  S   UNL A   1      33.615  19.931  25.040  1.00  0.00    -0.125 SA
ATOM     95  C   UNL A   1      34.904  21.053  24.606  1.00  0.00     0.011 A 
ATOM     96  C   UNL A   1      35.345  23.135  23.460  1.00  0.00     0.006 A 
ATOM     97  C   UNL A   1      36.244  20.925  24.941  1.00  0.00     0.015 A 
ATOM     98  C   UNL A   1      36.695  23.011  23.789  1.00  0.00     0.000 A 
ATOM     99  C   UNL A   1      37.141  21.916  24.538  1.00  0.00     0.001 A 
ENDBRANCH  88  91
ENDBRANCH  86  87
ENDBRANCH  85  86
ENDBRANCH  78  81
ENDBRANCH  76  77
ENDBRANCH  75  76
ENDBRANCH   1  75
TORSDOF 17
ENDMDL
MODEL 2
REMARK VINA RESULT:     -11.8      1.053      8.292
REMARK SMILES O=C(NCCCCNC(=O)[C@H]1CC[C@@H](CNC(=O)[C@@H]2CSc3ccccc32)O1)c1ccc(-c2c3nc(c(-c4c(F)cc(S(=O)(=O)[O-])cc4F)c4ccc([nH]4)c(-c4c(F)cc(S(=O)(=O)[O-])cc4F)c4nc(c(-c5c(F)cc(S(=O)(=O)[O-])cc5F)c5ccc2[nH]5)C=C4)C=C3)cc1
REMARK SMILES IDX 5 1 4 2 3 3 1 4 2 5 29 7 30 8 94 9 31 10 93 11 32 12 33 13
REMARK SMILES IDX 34 14 87 15 35 16 92 17 86 18 88 19 36 20 91 21 85 22 84 23
REMARK SMILES IDX 37 25 71 26 50 27 70 28 51 29 54 30 69 31 89 32 52 33 53 34
REMARK SMILES IDX 68 36 90 37 55 38 38 39 39 40 48 41 40 42 41 43 47 44 49 45
REMARK SMILES IDX 42 46 43 47 44 48 45 49 46 50 72 51 73 52 82 53 74 54 75 55
REMARK SMILES IDX 81 56 83 57 76 58 77 59 78 60 79 61 80 62 56 63 57 64 66 65
REMARK SMILES IDX 58 66 59 67 65 68 67 69 60 70 61 71 62 72 63 73 64 74 6 75
REMARK SMILES IDX 7 76 8 77 9 78 10 80 11 81 12 82 28 83 13 84 14 85 15 86
REMARK SMILES IDX 16 87 17 88 18 90 19 91 20 92 27 93 21 94 22 95 26 96 23 97
REMARK SMILES IDX 25 98 24 99
REMARK H PARENT 3 6 88 24 54 35 8 79 16 89
REMARK Flexibility Score: inf
ROOT
ATOM      1  C   UNL A   1      35.161  32.288  28.039  1.00  0.00     0.023 C 
ENDROOT
BRANCH   1   2
ATOM      2  C   UNL A   1      36.190  32.316  29.163  1.00  0.00     0.116 C 
BRANCH   2   3
ATOM      3  N   UNL A   1      35.942  31.298  30.171  1.00  0.00    -0.352 N 
ATOM      4  O   UNL A   1      36.238  29.386  31.312  1.00  0.00    -0.269 OA
ATOM      5  C   UNL A   1      36.713  30.231  30.550  1.00  0.00     0.251 C 
ATOM      6  H   UNL A   1      35.089  31.389  30.655  1.00  0.00     0.163 HD
BRANCH   5   7
ATOM      7  C   UNL A   1      38.101  30.077  30.060  1.00  0.00     0.039 A 
ATOM      8  C   UNL A   1      38.313  29.906  28.687  1.00  0.00     0.014 A 
ATOM      9  C   UNL A   1      39.183  30.017  30.943  1.00  0.00     0.014 A 
ATOM     10  C   UNL A   1      39.604  29.689  28.199  1.00  0.00     0.010 A 
ATOM     11  C   UNL A   1      40.477  29.861  30.451  1.00  0.00     0.010 A 
ATOM     12  C   UNL A   1      40.695  29.664  29.079  1.00  0.00    -0.014 A 
BRANCH  12  13
ATOM     13  C   UNL A   1      42.061  29.319  28.610  1.00  0.00     0.031 A 
ATOM     14  C   UNL A   1      42.354  27.904  28.192  1.00  0.00     0.074 A 
ATOM     15  C   UNL A   1      43.033  30.246  28.581  1.00  0.00     0.049 A 
ATOM     16  N   UNL A   1      43.496  27.349  27.878  1.00  0.00    -0.248 NA
ATOM     17  C   UNL A   1      41.204  26.986  28.141  1.00  0.00     0.031 C 
ATOM     18  C   UNL A   1      42.872  31.656  28.935  1.00  0.00     0.029 A 
ATOM     19  N   UNL A   1      44.357  30.135  28.238  1.00  0.00    -0.354 N 
ATOM     20  C   UNL A   1      43.206  26.017  27.609  1.00  0.00     0.074 A 
ATOM     21  C   UNL A   1      41.789  25.835  27.845  1.00  0.00     0.031 C 
ATOM     22  C   UNL A   1      44.045  32.286  28.762  1.00  0.00     0.029 A 
ATOM     23  C   UNL A   1      45.051  31.318  28.332  1.00  0.00     0.049 A 
ATOM     24  H   UNL A   1      44.770  29.290  27.951  1.00  0.00     0.167 HD
ATOM     25  C   UNL A   1      44.037  25.036  27.181  1.00  0.00     0.037 A 
ATOM     26  C   UNL A   1      46.350  31.584  28.103  1.00  0.00     0.037 A 
ATOM     27  C   UNL A   1      45.442  25.220  26.935  1.00  0.00     0.049 A 
ATOM     28  C   UNL A   1      47.271  30.470  27.687  1.00  0.00     0.074 A 
ATOM     29  C   UNL A   1      46.376  24.290  26.512  1.00  0.00     0.029 A 
ATOM     30  N   UNL A   1      46.117  26.423  27.084  1.00  0.00    -0.354 N 
ATOM     31  N   UNL A   1      46.993  29.206  27.477  1.00  0.00    -0.248 NA
ATOM     32  C   UNL A   1      48.684  30.820  27.488  1.00  0.00     0.031 C 
ATOM     33  C   UNL A   1      47.622  24.927  26.430  1.00  0.00     0.029 A 
ATOM     34  C   UNL A   1      47.456  26.262  26.767  1.00  0.00     0.049 A 
ATOM     35  H   UNL A   1      45.705  27.270  27.372  1.00  0.00     0.167 HD
ATOM     36  C   UNL A   1      48.194  28.608  27.109  1.00  0.00     0.074 A 
ATOM     37  C   UNL A   1      49.197  29.657  27.111  1.00  0.00     0.031 C 
ATOM     38  C   UNL A   1      48.445  27.312  26.796  1.00  0.00     0.037 A 
BRANCH  25  39
ATOM     39  C   UNL A   1      43.427  23.678  26.968  1.00  0.00     0.058 A 
ATOM     40  C   UNL A   1      43.165  22.815  28.047  1.00  0.00     0.135 A 
ATOM     41  C   UNL A   1      43.142  23.213  25.675  1.00  0.00     0.135 A 
ATOM     42  F   UNL A   1      43.438  23.203  29.303  1.00  0.00    -0.206 F 
ATOM     43  C   UNL A   1      42.691  21.523  27.847  1.00  0.00     0.059 A 
ATOM     44  C   UNL A   1      42.642  21.932  25.454  1.00  0.00     0.059 A 
ATOM     45  F   UNL A   1      43.373  23.994  24.609  1.00  0.00    -0.206 F 
ATOM     46  C   UNL A   1      42.444  21.086  26.545  1.00  0.00     0.060 A 
BRANCH  46  47
ATOM     47  S   UNL A   1      41.879  19.389  26.294  1.00  0.00     0.124 S 
ATOM     48  O   UNL A   1      42.290  18.760  27.546  1.00  0.00    -0.237 OA
ATOM     49  O   UNL A   1      40.441  19.560  26.114  1.00  0.00    -0.237 OA
ATOM     50  O   UNL A   1      42.610  18.960  25.106  1.00  0.00    -0.744 OA
ENDBRANCH  46  47
ENDBRANCH  25  39
BRANCH  26  51
ATOM     51  C   UNL A   1      46.843  32.980  28.231  1.00  0.00     0.058 A 
ATOM     52  C   UNL A   1      47.504  33.394  29.396  1.00  0.00     0.135 A 
ATOM     53  C   UNL A   1      46.719  33.903  27.182  1.00  0.00     0.135 A 
ATOM     54  F   UNL A   1      47.633  32.550  30.430  1.00  0.00    -0.206 F 
ATOM     55  C   UNL A   1      48.041  34.672  29.512  1.00  0.00     0.059 A 
ATOM     56  C   UNL A   1      47.263  35.181  27.269  1.00  0.00     0.059 A 
ATOM     57  F   UNL A   1      46.100  33.550  26.045  1.00  0.00    -0.206 F 
ATOM     58  C   UNL A   1      47.926  35.554  28.437  1.00  0.00     0.060 A 
BRANCH  58  59
ATOM     59  S   UNL A   1      48.717  37.174  28.564  1.00  0.00     0.124 S 
ATOM     60  O   UNL A   1      47.627  37.995  29.077  1.00  0.00    -0.237 OA
ATOM     61  O   UNL A   1      49.808  36.907  29.497  1.00  0.00    -0.237 OA
ATOM     62  O   UNL A   1      49.129  37.456  27.194  1.00  0.00    -0.744 OA
ENDBRANCH  58  59
ENDBRANCH  26  51
BRANCH  38  63
ATOM     63  C   UNL A   1      49.858  26.960  26.427  1.00  0.00     0.058 A 
ATOM     64  C   UNL A   1      50.799  26.589  27.399  1.00  0.00     0.135 A 
ATOM     65  C   UNL A   1      50.270  26.970  25.085  1.00  0.00     0.135 A 
ATOM     66  F   UNL A   1      50.456  26.569  28.698  1.00  0.00    -0.206 F 
ATOM     67  C   UNL A   1      52.109  26.269  27.058  1.00  0.00     0.059 A 
ATOM     68  C   UNL A   1      51.569  26.631  24.718  1.00  0.00     0.059 A 
ATOM     69  F   UNL A   1      49.406  27.306  24.114  1.00  0.00    -0.206 F 
ATOM     70  C   UNL A   1      52.486  26.298  25.714  1.00  0.00     0.060 A 
BRANCH  70  71
ATOM     71  S   UNL A   1      54.187  25.874  25.282  1.00  0.00     0.124 S 
ATOM     72  O   UNL A   1      54.474  26.849  24.235  1.00  0.00    -0.237 OA
ATOM     73  O   UNL A   1      54.892  26.075  26.545  1.00  0.00    -0.237 OA
ATOM     74  O   UNL A   1      54.090  24.487  24.840  1.00  0.00    -0.744 OA
ENDBRANCH  70  71
ENDBRANCH  38  63
ENDBRANCH  12  13
ENDBRANCH   5   7
ENDBRANCH   2   3
ENDBRANCH   1   2
BRANCH   1  75
ATOM     75  C   UNL A   1      34.712  30.891  27.600  1.00  0.00     0.023 C 
BRANCH  75  76
ATOM     76  C   UNL A   1      33.226  30.738  27.303  1.00  0.00     0.116 C 
BRANCH  76  77
ATOM     77  N   UNL A   1      32.742  29.423  27.679  1.00  0.00    -0.354 N 
ATOM     78  C   UNL A   1      32.226  28.443  26.880  1.00  0.00     0.249 C 
ATOM     79  H   UNL A   1      32.792  29.209  28.639  1.00  0.00     0.163 HD
ATOM     80  O   UNL A   1      31.774  27.425  27.409  1.00  0.00    -0.272 OA
BRANCH  78  81
ATOM     81  C   UNL A   1      32.247  28.631  25.347  1.00  0.00     0.207 C 
ATOM     82  C   UNL A   1      33.605  28.299  24.746  1.00  0.00     0.045 C 
ATOM     83  O   UNL A   1      31.308  27.764  24.690  1.00  0.00    -0.363 OA
ATOM     84  C   UNL A   1      33.495  26.818  24.480  1.00  0.00     0.037 C 
ATOM     85  C   UNL A   1      32.029  26.662  24.096  1.00  0.00     0.138 C 
BRANCH  85  86
ATOM     86  C   UNL A   1      31.413  25.318  24.522  1.00  0.00     0.147 C 
BRANCH  86  87
ATOM     87  N   UNL A   1      32.108  24.768  25.675  1.00  0.00    -0.353 N 
ATOM     88  C   UNL A   1      32.548  23.502  25.915  1.00  0.00     0.228 C 
ATOM     89  H   UNL A   1      32.291  25.413  26.396  1.00  0.00     0.163 HD
ATOM     90  O   UNL A   1      32.819  23.233  27.087  1.00  0.00    -0.274 OA
BRANCH  88  91
ATOM     91  C   UNL A   1      32.772  22.526  24.755  1.00  0.00     0.120 C 
ATOM     92  C   UNL A   1      32.192  21.128  25.027  1.00  0.00     0.093 C 
ATOM     93  C   UNL A   1      34.250  22.358  24.478  1.00  0.00    -0.021 A 
ATOM     94  S   UNL A   1      33.550  19.944  25.292  1.00  0.00    -0.125 SA
ATOM     95  C   UNL A   1      34.782  21.114  24.817  1.00  0.00     0.011 A 
ATOM     96  C   UNL A   1      35.094  23.388  24.063  1.00  0.00     0.006 A 
ATOM     97  C   UNL A   1      36.151  20.894  24.802  1.00  0.00     0.015 A 
ATOM     98  C   UNL A   1      36.472  23.174  24.040  1.00  0.00     0.000 A 
ATOM     99  C   UNL A   1      37.000  21.935  24.420  1.00  0.00     0.001 A 
ENDBRANCH  88  91
ENDBRANCH  86  87
ENDBRANCH  85  86
ENDBRANCH  78  81
ENDBRANCH  76  77
ENDBRANCH  75  76
ENDBRANCH   1  75
TORSDOF 17
ENDMDL
MODEL 3
REMARK VINA RESULT:     -11.5      6.570     11.621
REMARK SMILES O=C(NCCCCNC(=O)[C@H]1CC[C@@H](CNC(=O)[C@@H]2CSc3ccccc32)O1)c1ccc(-c2c3nc(c(-c4c(F)cc(S(=O)(=O)[O-])cc4F)c4ccc([nH]4)c(-c4c(F)cc(S(=O)(=O)[O-])cc4F)c4nc(c(-c5c(F)cc(S(=O)(=O)[O-])cc5F)c5ccc2[nH]5)C=C4)C=C3)cc1
REMARK SMILES IDX 5 1 4 2 3 3 1 4 2 5 29 7 30 8 94 9 31 10 93 11 32 12 33 13
REMARK SMILES IDX 34 14 87 15 35 16 92 17 86 18 88 19 36 20 91 21 85 22 84 23
REMARK SMILES IDX 37 25 71 26 50 27 70 28 51 29 54 30 69 31 89 32 52 33 53 34
REMARK SMILES IDX 68 36 90 37 55 38 38 39 39 40 48 41 40 42 41 43 47 44 49 45
REMARK SMILES IDX 42 46 43 47 44 48 45 49 46 50 72 51 73 52 82 53 74 54 75 55
REMARK SMILES IDX 81 56 83 57 76 58 77 59 78 60 79 61 80 62 56 63 57 64 66 65
REMARK SMILES IDX 58 66 59 67 65 68 67 69 60 70 61 71 62 72 63 73 64 74 6 75
REMARK SMILES IDX 7 76 8 77 9 78 10 80 11 81 12 82 28 83 13 84 14 85 15 86
REMARK SMILES IDX 16 87 17 88 18 90 19 91 20 92 27 93 21 94 22 95 26 96 23 97
REMARK SMILES IDX 25 98 24 99
REMARK H PARENT 3 6 88 24 54 35 8 79 16 89
REMARK Flexibility Score: inf
ROOT
ATOM      1  C   UNL A   1      42.240  21.796  27.438  1.00  0.00     0.023 C 
ENDROOT
BRANCH   1   2
ATOM      2  C   UNL A   1      42.631  23.259  27.602  1.00  0.00     0.116 C 
BRANCH   2   3
ATOM      3  N   UNL A   1      42.520  24.008  26.361  1.00  0.00    -0.352 N 
ATOM      4  O   UNL A   1      41.881  25.659  24.979  1.00  0.00    -0.269 OA
ATOM      5  C   UNL A   1      42.047  25.274  26.138  1.00  0.00     0.251 C 
ATOM      6  H   UNL A   1      42.832  23.532  25.557  1.00  0.00     0.163 HD
BRANCH   5   7
ATOM      7  C   UNL A   1      41.732  26.183  27.264  1.00  0.00     0.039 A 
ATOM      8  C   UNL A   1      42.529  27.317  27.453  1.00  0.00     0.014 A 
ATOM      9  C   UNL A   1      40.716  25.887  28.178  1.00  0.00     0.014 A 
ATOM     10  C   UNL A   1      42.303  28.158  28.546  1.00  0.00     0.010 A 
ATOM     11  C   UNL A   1      40.452  26.756  29.233  1.00  0.00     0.010 A 
ATOM     12  C   UNL A   1      41.263  27.882  29.444  1.00  0.00    -0.014 A 
BRANCH  12  13
ATOM     13  C   UNL A   1      41.070  28.686  30.677  1.00  0.00     0.031 A 
ATOM     14  C   UNL A   1      39.990  29.732  30.707  1.00  0.00     0.074 A 
ATOM     15  C   UNL A   1      41.864  28.505  31.747  1.00  0.00     0.049 A 
ATOM     16  N   UNL A   1      39.729  30.633  31.618  1.00  0.00    -0.248 NA
ATOM     17  C   UNL A   1      39.094  29.779  29.540  1.00  0.00     0.031 C 
ATOM     18  C   UNL A   1      42.929  27.509  31.854  1.00  0.00     0.029 A 
ATOM     19  N   UNL A   1      41.895  29.162  32.952  1.00  0.00    -0.354 N 
ATOM     20  C   UNL A   1      38.653  31.364  31.129  1.00  0.00     0.074 A 
ATOM     21  C   UNL A   1      38.341  30.832  29.818  1.00  0.00     0.031 C 
ATOM     22  C   UNL A   1      43.490  27.600  33.071  1.00  0.00     0.029 A 
ATOM     23  C   UNL A   1      42.859  28.690  33.810  1.00  0.00     0.049 A 
ATOM     24  H   UNL A   1      41.286  29.900  33.179  1.00  0.00     0.167 HD
ATOM     25  C   UNL A   1      37.968  32.370  31.723  1.00  0.00     0.037 A 
ATOM     26  C   UNL A   1      43.195  29.098  35.049  1.00  0.00     0.037 A 
ATOM     27  C   UNL A   1      38.271  32.890  33.030  1.00  0.00     0.049 A 
ATOM     28  C   UNL A   1      42.464  30.257  35.669  1.00  0.00     0.074 A 
ATOM     29  C   UNL A   1      37.649  33.916  33.720  1.00  0.00     0.029 A 
ATOM     30  N   UNL A   1      39.284  32.414  33.852  1.00  0.00    -0.354 N 
ATOM     31  N   UNL A   1      41.476  30.967  35.179  1.00  0.00    -0.248 NA
ATOM     32  C   UNL A   1      42.904  30.675  37.007  1.00  0.00     0.031 C 
ATOM     33  C   UNL A   1      38.302  34.076  34.949  1.00  0.00     0.029 A 
ATOM     34  C   UNL A   1      39.309  33.127  35.039  1.00  0.00     0.049 A 
ATOM     35  H   UNL A   1      39.895  31.677  33.625  1.00  0.00     0.167 HD
ATOM     36  C   UNL A   1      41.165  31.910  36.152  1.00  0.00     0.074 A 
ATOM     37  C   UNL A   1      42.063  31.668  37.266  1.00  0.00     0.031 C 
ATOM     38  C   UNL A   1      40.223  32.886  36.129  1.00  0.00     0.037 A 
BRANCH  25  39
ATOM     39  C   UNL A   1      36.833  32.971  30.941  1.00  0.00     0.058 A 
ATOM     40  C   UNL A   1      37.059  33.940  29.948  1.00  0.00     0.135 A 
ATOM     41  C   UNL A   1      35.504  32.611  31.212  1.00  0.00     0.135 A 
ATOM     42  F   UNL A   1      38.310  34.336  29.664  1.00  0.00    -0.206 F 
ATOM     43  C   UNL A   1      36.007  34.568  29.290  1.00  0.00     0.059 A 
ATOM     44  C   UNL A   1      34.436  33.206  30.545  1.00  0.00     0.059 A 
ATOM     45  F   UNL A   1      35.230  31.691  32.149  1.00  0.00    -0.206 F 
ATOM     46  C   UNL A   1      34.697  34.202  29.605  1.00  0.00     0.060 A 
BRANCH  46  47
ATOM     47  S   UNL A   1      33.338  35.060  28.782  1.00  0.00     0.124 S 
ATOM     48  O   UNL A   1      32.745  33.979  28.001  1.00  0.00    -0.237 OA
ATOM     49  O   UNL A   1      32.541  35.538  29.907  1.00  0.00    -0.237 OA
ATOM     50  O   UNL A   1      34.010  36.098  28.009  1.00  0.00    -0.744 OA
ENDBRANCH  46  47
ENDBRANCH  25  39
BRANCH  26  51
ATOM     51  C   UNL A   1      44.257  28.373  35.792  1.00  0.00     0.058 A 
ATOM     52  C   UNL A   1      43.927  27.308  36.642  1.00  0.00     0.135 A 
ATOM     53  C   UNL A   1      45.615  28.685  35.627  1.00  0.00     0.135 A 
ATOM     54  F   UNL A   1      42.640  26.983  36.841  1.00  0.00    -0.206 F 
ATOM     55  C   UNL A   1      44.906  26.564  37.291  1.00  0.00     0.059 A 
ATOM     56  C   UNL A   1      46.614  27.944  36.252  1.00  0.00     0.059 A 
ATOM     57  F   UNL A   1      45.980  29.692  34.819  1.00  0.00    -0.206 F 
ATOM     58  C   UNL A   1      46.249  26.883  37.080  1.00  0.00     0.060 A 
BRANCH  58  59
ATOM     59  S   UNL A   1      47.512  25.845  37.848  1.00  0.00     0.124 S 
ATOM     60  O   UNL A   1      47.416  24.626  37.052  1.00  0.00    -0.237 OA
ATOM     61  O   UNL A   1      48.719  26.640  37.654  1.00  0.00    -0.237 OA
ATOM     62  O   UNL A   1      47.060  25.732  39.231  1.00  0.00    -0.744 OA
ENDBRANCH  58  59
ENDBRANCH  26  51
BRANCH  38  63
ATOM     63  C   UNL A   1      40.115  33.760  37.346  1.00  0.00     0.058 A 
ATOM     64  C   UNL A   1      39.224  33.461  38.387  1.00  0.00     0.135 A 
ATOM     65  C   UNL A   1      40.929  34.896  37.484  1.00  0.00     0.135 A 
ATOM     66  F   UNL A   1      38.419  32.389  38.300  1.00  0.00    -0.206 F 
ATOM     67  C   UNL A   1      39.119  34.275  39.511  1.00  0.00     0.059 A 
ATOM     68  C   UNL A   1      40.859  35.711  38.610  1.00  0.00     0.059 A 
ATOM     69  F   UNL A   1      41.808  35.220  36.522  1.00  0.00    -0.206 F 
ATOM     70  C   UNL A   1      39.938  35.401  39.610  1.00  0.00     0.060 A 
BRANCH  70  71
ATOM     71  S   UNL A   1      39.800  36.446  41.076  1.00  0.00     0.124 S 
ATOM     72  O   UNL A   1      40.940  35.994  41.866  1.00  0.00    -0.237 OA
ATOM     73  O   UNL A   1      39.910  37.790  40.516  1.00  0.00    -0.237 OA
ATOM     74  O   UNL A   1      38.487  36.104  41.615  1.00  0.00    -0.744 OA
ENDBRANCH  70  71
ENDBRANCH  38  63
ENDBRANCH  12  13
ENDBRANCH   5   7
ENDBRANCH   2   3
ENDBRANCH   1   2
BRANCH   1  75
ATOM     75  C   UNL A   1      40.742  21.501  27.569  1.00  0.00     0.023 C 
BRANCH  75  76
ATOM     76  C   UNL A   1      39.911  21.737  26.316  1.00  0.00     0.116 C 
BRANCH  76  77
ATOM     77  N   UNL A   1      38.891  22.745  26.537  1.00  0.00    -0.354 N 
ATOM     78  C   UNL A   1      37.759  22.987  25.813  1.00  0.00     0.249 C 
ATOM     79  H   UNL A   1      39.035  23.335  27.312  1.00  0.00     0.163 HD
ATOM     80  O   UNL A   1      37.065  23.963  26.106  1.00  0.00    -0.272 OA
BRANCH  78  81
ATOM     81  C   UNL A   1      37.374  22.022  24.669  1.00  0.00     0.207 C 
ATOM     82  C   UNL A   1      36.701  20.758  25.187  1.00  0.00     0.045 C 
ATOM     83  O   UNL A   1      36.435  22.619  23.759  1.00  0.00    -0.363 OA
ATOM     84  C   UNL A   1      35.246  21.155  25.230  1.00  0.00     0.037 C 
ATOM     85  C   UNL A   1      35.121  22.081  24.026  1.00  0.00     0.138 C 
BRANCH  85  86
ATOM     86  C   UNL A   1      34.100  23.216  24.216  1.00  0.00     0.147 C 
BRANCH  86  87
ATOM     87  N   UNL A   1      34.367  24.317  23.305  1.00  0.00    -0.353 N 
ATOM     88  C   UNL A   1      33.563  25.337  22.898  1.00  0.00     0.228 C 
ATOM     89  H   UNL A   1      35.275  24.327  22.923  1.00  0.00     0.163 HD
ATOM     90  O   UNL A   1      33.925  25.947  21.889  1.00  0.00    -0.274 OA
BRANCH  88  91
ATOM     91  C   UNL A   1      32.336  25.735  23.725  1.00  0.00     0.120 C 
ATOM     92  C   UNL A   1      31.118  26.092  22.858  1.00  0.00     0.093 C 
ATOM     93  C   UNL A   1      32.645  26.937  24.591  1.00  0.00    -0.021 A 
ATOM     94  S   UNL A   1      30.815  27.886  22.940  1.00  0.00    -0.125 SA
ATOM     95  C   UNL A   1      32.009  28.120  24.216  1.00  0.00     0.011 A 
ATOM     96  C   UNL A   1      33.605  26.950  25.603  1.00  0.00     0.006 A 
ATOM     97  C   UNL A   1      32.355  29.332  24.797  1.00  0.00     0.015 A 
ATOM     98  C   UNL A   1      33.955  28.163  26.196  1.00  0.00     0.000 A 
ATOM     99  C   UNL A   1      33.341  29.351  25.785  1.00  0.00     0.001 A 
ENDBRANCH  88  91
ENDBRANCH  86  87
ENDBRANCH  85  86
ENDBRANCH  78  81
ENDBRANCH  76  77
ENDBRANCH  75  76
ENDBRANCH   1  75
TORSDOF 17
ENDMDL
