MODEL 1
REMARK VINA RESULT:     -12.1      0.000      0.000
REMARK SMILES Cc1cnc(NC(=O)NC[C@H]2CC[C@H](C(=O)NCCCCNC(=O)c3ccc(-c4c5nc(c(-c6c(F)cc(S(=O)(=O)[O-])cc6F)c6ccc([nH]6)c(-c6c(F)cc(S(=O)(=O)[O-])cc6F)c6nc(c(-c7c(F)cc(S(=O)(=O)[O-])cc7F)c7ccc4[nH]7)C=C6)C=C5)cc3)O2)s1
REMARK SMILES IDX 19 1 18 2 17 3 15 4 16 5 14 7 11 8 12 9 91 10 13 11 10 12
REMARK SMILES IDX 9 13 6 14 7 15 8 17 5 19 1 20 2 21 3 22 92 23 4 24 20 25
REMARK SMILES IDX 21 26 22 27 23 28 24 30 25 31 26 32 90 33 27 34 89 35 28 36
REMARK SMILES IDX 29 37 30 38 83 39 31 40 88 41 82 42 84 43 32 44 87 45 81 46
REMARK SMILES IDX 80 47 33 49 67 50 46 51 66 52 47 53 50 54 65 55 85 56 48 57
REMARK SMILES IDX 49 58 64 60 86 61 51 62 34 63 35 64 44 65 36 66 37 67 43 68
REMARK SMILES IDX 45 69 38 70 39 71 40 72 41 73 42 74 68 75 69 76 78 77 70 78
REMARK SMILES IDX 71 79 77 80 79 81 72 82 73 83 74 84 75 85 76 86 52 87 53 88
REMARK SMILES IDX 62 89 54 90 55 91 61 92 63 93 56 94 57 95 58 96 59 97 60 98
REMARK H PARENT 17 6 6 16 9 18 22 29 84 48 50 59
REMARK Flexibility Score: inf
ROOT
ATOM      1  C   UNL A   1      37.570  22.168  25.084  1.00  0.00     0.023 C 
ENDROOT
BRANCH   1   2
ATOM      2  C   UNL A   1      36.183  21.526  25.068  1.00  0.00     0.116 C 
BRANCH   2   3
ATOM      3  N   UNL A   1      35.590  21.475  26.385  1.00  0.00    -0.354 N 
ATOM      4  C   UNL A   1      34.402  21.966  26.842  1.00  0.00     0.249 C 
ATOM      5  O   UNL A   1      34.121  21.747  28.025  1.00  0.00    -0.272 OA
ATOM      6  H   UNL A   1      36.131  21.010  27.064  1.00  0.00     0.163 HD
BRANCH   4   7
ATOM      7  C   UNL A   1      33.467  22.844  25.971  1.00  0.00     0.207 C 
ATOM      8  C   UNL A   1      33.535  23.391  23.692  1.00  0.00     0.138 C 
ATOM      9  C   UNL A   1      34.289  24.473  24.429  1.00  0.00     0.037 C 
ATOM     10  O   UNL A   1      33.147  22.398  24.652  1.00  0.00    -0.363 OA
ATOM     11  C   UNL A   1      33.965  24.274  25.882  1.00  0.00     0.045 C 
BRANCH   8  12
ATOM     12  C   UNL A   1      32.365  23.805  22.788  1.00  0.00     0.149 C 
BRANCH  12  13
ATOM     13  N   UNL A   1      32.671  24.356  21.477  1.00  0.00    -0.335 N 
ATOM     14  N   UNL A   1      32.219  26.697  21.238  1.00  0.00    -0.284 N 
ATOM     15  C   UNL A   1      32.688  25.519  20.830  1.00  0.00     0.321 C 
ATOM     16  H   UNL A   1      32.156  27.342  20.497  1.00  0.00     0.174 HD
ATOM     17  O   UNL A   1      33.088  25.464  19.658  1.00  0.00    -0.248 OA
ATOM     18  H   UNL A   1      32.960  23.635  20.872  1.00  0.00     0.165 HD
BRANCH  14  19
ATOM     19  C   UNL A   1      31.806  27.238  22.412  1.00  0.00     0.190 A 
ATOM     20  C   UNL A   1      31.626  27.854  26.189  1.00  0.00     0.058 C 
ATOM     21  C   UNL A   1      31.497  27.829  24.712  1.00  0.00     0.023 A 
ATOM     22  C   UNL A   1      30.363  27.894  23.927  1.00  0.00     0.128 A 
ATOM     23  S   UNL A   1      32.860  27.637  23.685  1.00  0.00    -0.102 S 
ATOM     24  N   UNL A   1      30.562  27.617  22.588  1.00  0.00    -0.228 NA
ENDBRANCH  14  19
ENDBRANCH  12  13
ENDBRANCH   8  12
ENDBRANCH   4   7
ENDBRANCH   2   3
ENDBRANCH   1   2
BRANCH   1  25
ATOM     25  C   UNL A   1      37.587  23.648  25.469  1.00  0.00     0.023 C 
BRANCH  25  26
ATOM     26  C   UNL A   1      38.551  24.008  26.594  1.00  0.00     0.116 C 
BRANCH  26  27
ATOM     27  N   UNL A   1      39.955  23.850  26.243  1.00  0.00    -0.352 N 
ATOM     28  C   UNL A   1      41.011  24.651  26.624  1.00  0.00     0.251 C 
ATOM     29  H   UNL A   1      40.176  23.082  25.668  1.00  0.00     0.163 HD
ATOM     30  O   UNL A   1      42.134  24.453  26.184  1.00  0.00    -0.269 OA
BRANCH  28  31
ATOM     31  C   UNL A   1      40.740  25.786  27.532  1.00  0.00     0.039 A 
ATOM     32  C   UNL A   1      39.726  25.664  28.484  1.00  0.00     0.014 A 
ATOM     33  C   UNL A   1      41.549  26.925  27.497  1.00  0.00     0.014 A 
ATOM     34  C   UNL A   1      39.576  26.653  29.458  1.00  0.00     0.010 A 
ATOM     35  C   UNL A   1      41.446  27.871  28.510  1.00  0.00     0.010 A 
ATOM     36  C   UNL A   1      40.464  27.742  29.504  1.00  0.00    -0.014 A 
BRANCH  36  37
ATOM     37  C   UNL A   1      40.393  28.750  30.590  1.00  0.00     0.031 A 
ATOM     38  C   UNL A   1      41.261  28.605  31.808  1.00  0.00     0.074 A 
ATOM     39  C   UNL A   1      39.487  29.746  30.520  1.00  0.00     0.049 A 
ATOM     40  N   UNL A   1      41.285  29.329  32.897  1.00  0.00    -0.248 NA
ATOM     41  C   UNL A   1      42.202  27.474  31.817  1.00  0.00     0.031 C 
ATOM     42  C   UNL A   1      38.538  29.951  29.422  1.00  0.00     0.029 A 
ATOM     43  N   UNL A   1      39.201  30.760  31.397  1.00  0.00    -0.354 N 
ATOM     44  C   UNL A   1      42.231  28.736  33.723  1.00  0.00     0.074 A 
ATOM     45  C   UNL A   1      42.714  27.558  33.035  1.00  0.00     0.031 C 
ATOM     46  C   UNL A   1      37.786  31.031  29.687  1.00  0.00     0.029 A 
ATOM     47  C   UNL A   1      38.177  31.578  30.983  1.00  0.00     0.049 A 
ATOM     48  H   UNL A   1      39.686  30.891  32.245  1.00  0.00     0.167 HD
ATOM     49  C   UNL A   1      42.679  29.149  34.932  1.00  0.00     0.037 A 
ATOM     50  C   UNL A   1      37.611  32.644  31.582  1.00  0.00     0.037 A 
ATOM     51  C   UNL A   1      42.210  30.333  35.604  1.00  0.00     0.049 A 
ATOM     52  C   UNL A   1      38.142  33.106  32.910  1.00  0.00     0.074 A 
ATOM     53  C   UNL A   1      42.635  30.868  36.806  1.00  0.00     0.029 A 
ATOM     54  N   UNL A   1      41.210  31.167  35.127  1.00  0.00    -0.354 N 
ATOM     55  N   UNL A   1      39.086  32.572  33.648  1.00  0.00    -0.248 NA
ATOM     56  C   UNL A   1      37.543  34.320  33.482  1.00  0.00     0.031 C 
ATOM     57  C   UNL A   1      41.869  32.009  37.072  1.00  0.00     0.029 A 
ATOM     58  C   UNL A   1      40.994  32.207  36.014  1.00  0.00     0.049 A 
ATOM     59  H   UNL A   1      40.722  31.037  34.281  1.00  0.00     0.167 HD
ATOM     60  C   UNL A   1      39.207  33.393  34.764  1.00  0.00     0.074 A 
ATOM     61  C   UNL A   1      38.249  34.467  34.595  1.00  0.00     0.031 C 
ATOM     62  C   UNL A   1      40.036  33.269  35.830  1.00  0.00     0.037 A 
BRANCH  49  63
ATOM     63  C   UNL A   1      43.738  28.310  35.593  1.00  0.00     0.058 A 
ATOM     64  C   UNL A   1      43.402  27.259  36.462  1.00  0.00     0.135 A 
ATOM     65  C   UNL A   1      45.101  28.566  35.372  1.00  0.00     0.135 A 
ATOM     66  F   UNL A   1      42.114  26.981  36.721  1.00  0.00    -0.206 F 
ATOM     67  C   UNL A   1      44.377  26.523  37.126  1.00  0.00     0.059 A 
ATOM     68  C   UNL A   1      46.094  27.824  36.005  1.00  0.00     0.059 A 
ATOM     69  F   UNL A   1      45.478  29.558  34.551  1.00  0.00    -0.206 F 
ATOM     70  C   UNL A   1      45.721  26.819  36.898  1.00  0.00     0.060 A 
BRANCH  70  71
ATOM     71  S   UNL A   1      46.976  25.880  37.793  1.00  0.00     0.124 S 
ATOM     72  O   UNL A   1      47.411  24.932  36.772  1.00  0.00    -0.237 OA
ATOM     73  O   UNL A   1      47.944  26.911  38.153  1.00  0.00    -0.237 OA
ATOM     74  O   UNL A   1      46.234  25.304  38.911  1.00  0.00    -0.744 OA
ENDBRANCH  70  71
ENDBRANCH  49  63
BRANCH  50  75
ATOM     75  C   UNL A   1      36.497  33.359  30.906  1.00  0.00     0.058 A 
ATOM     76  C   UNL A   1      35.173  33.202  31.337  1.00  0.00     0.135 A 
ATOM     77  C   UNL A   1      36.741  34.248  29.848  1.00  0.00     0.135 A 
ATOM     78  F   UNL A   1      34.890  32.359  32.342  1.00  0.00    -0.206 F 
ATOM     79  C   UNL A   1      34.126  33.900  30.743  1.00  0.00     0.059 A 
ATOM     80  C   UNL A   1      35.714  34.973  29.251  1.00  0.00     0.059 A 
ATOM     81  F   UNL A   1      37.995  34.447  29.412  1.00  0.00    -0.206 F 
ATOM     82  C   UNL A   1      34.408  34.788  29.703  1.00  0.00     0.060 A 
BRANCH  82  83
ATOM     83  S   UNL A   1      33.054  35.751  28.995  1.00  0.00     0.124 S 
ATOM     84  O   UNL A   1      33.779  36.782  28.260  1.00  0.00    -0.237 OA
ATOM     85  O   UNL A   1      32.359  34.757  28.184  1.00  0.00    -0.237 OA
ATOM     86  O   UNL A   1      32.320  36.210  30.171  1.00  0.00    -0.744 OA
ENDBRANCH  82  83
ENDBRANCH  50  75
BRANCH  62  87
ATOM     87  C   UNL A   1      39.960  34.331  36.890  1.00  0.00     0.058 A 
ATOM     88  C   UNL A   1      40.742  35.494  36.821  1.00  0.00     0.135 A 
ATOM     89  C   UNL A   1      39.053  34.209  37.955  1.00  0.00     0.135 A 
ATOM     90  F   UNL A   1      41.628  35.655  35.826  1.00  0.00    -0.206 F 
ATOM     91  C   UNL A   1      40.641  36.493  37.784  1.00  0.00     0.059 A 
ATOM     92  C   UNL A   1      38.919  35.206  38.915  1.00  0.00     0.059 A 
ATOM     93  F   UNL A   1      38.276  33.120  38.060  1.00  0.00    -0.206 F 
ATOM     94  C   UNL A   1      39.726  36.341  38.827  1.00  0.00     0.060 A 
BRANCH  94  95
ATOM     95  S   UNL A   1      39.575  37.660  40.050  1.00  0.00     0.124 S 
ATOM     96  O   UNL A   1      38.249  38.188  39.751  1.00  0.00    -0.237 OA
ATOM     97  O   UNL A   1      39.699  36.934  41.311  1.00  0.00    -0.237 OA
ATOM     98  O   UNL A   1      40.691  38.545  39.733  1.00  0.00    -0.744 OA
ENDBRANCH  94  95
ENDBRANCH  62  87
ENDBRANCH  36  37
ENDBRANCH  28  31
ENDBRANCH  26  27
ENDBRANCH  25  26
ENDBRANCH   1  25
TORSDOF 17
ENDMDL
MODEL 2
REMARK VINA RESULT:     -12.0      2.486      8.962
REMARK SMILES Cc1cnc(NC(=O)NC[C@H]2CC[C@H](C(=O)NCCCCNC(=O)c3ccc(-c4c5nc(c(-c6c(F)cc(S(=O)(=O)[O-])cc6F)c6ccc([nH]6)c(-c6c(F)cc(S(=O)(=O)[O-])cc6F)c6nc(c(-c7c(F)cc(S(=O)(=O)[O-])cc7F)c7ccc4[nH]7)C=C6)C=C5)cc3)O2)s1
REMARK SMILES IDX 19 1 18 2 17 3 15 4 16 5 14 7 11 8 12 9 91 10 13 11 10 12
REMARK SMILES IDX 9 13 6 14 7 15 8 17 5 19 1 20 2 21 3 22 92 23 4 24 20 25
REMARK SMILES IDX 21 26 22 27 23 28 24 30 25 31 26 32 90 33 27 34 89 35 28 36
REMARK SMILES IDX 29 37 30 38 83 39 31 40 88 41 82 42 84 43 32 44 87 45 81 46
REMARK SMILES IDX 80 47 33 49 67 50 46 51 66 52 47 53 50 54 65 55 85 56 48 57
REMARK SMILES IDX 49 58 64 60 86 61 51 62 34 63 35 64 44 65 36 66 37 67 43 68
REMARK SMILES IDX 45 69 38 70 39 71 40 72 41 73 42 74 68 75 69 76 78 77 70 78
REMARK SMILES IDX 71 79 77 80 79 81 72 82 73 83 74 84 75 85 76 86 52 87 53 88
REMARK SMILES IDX 62 89 54 90 55 91 61 92 63 93 56 94 57 95 58 96 59 97 60 98
REMARK H PARENT 17 6 6 16 9 18 22 29 84 48 50 59
REMARK Flexibility Score: inf
ROOT
ATOM      1  C   UNL A   1      32.171  30.425  26.844  1.00  0.00     0.023 C 
ENDROOT
BRANCH   1   2
ATOM      2  C   UNL A   1      31.859  29.716  25.526  1.00  0.00     0.116 C 
BRANCH   2   3
ATOM      3  N   UNL A   1      32.990  29.711  24.627  1.00  0.00    -0.354 N 
ATOM      4  C   UNL A   1      33.544  28.695  23.904  1.00  0.00     0.249 C 
ATOM      5  O   UNL A   1      34.502  28.980  23.176  1.00  0.00    -0.272 OA
ATOM      6  H   UNL A   1      33.435  30.583  24.519  1.00  0.00     0.163 HD
BRANCH   4   7
ATOM      7  C   UNL A   1      33.080  27.222  24.036  1.00  0.00     0.207 C 
ATOM      8  C   UNL A   1      31.276  26.264  25.188  1.00  0.00     0.138 C 
ATOM      9  C   UNL A   1      32.459  26.245  26.127  1.00  0.00     0.037 C 
ATOM     10  O   UNL A   1      31.681  26.942  23.990  1.00  0.00    -0.363 OA
ATOM     11  C   UNL A   1      33.655  26.564  25.277  1.00  0.00     0.045 C 
BRANCH   8  12
ATOM     12  C   UNL A   1      30.565  24.936  24.886  1.00  0.00     0.149 C 
BRANCH  12  13
ATOM     13  N   UNL A   1      30.023  24.178  26.002  1.00  0.00    -0.335 N 
ATOM     14  N   UNL A   1      31.528  22.574  26.953  1.00  0.00    -0.284 N 
ATOM     15  C   UNL A   1      30.392  23.267  26.900  1.00  0.00     0.321 C 
ATOM     16  H   UNL A   1      31.465  21.816  27.580  1.00  0.00     0.174 HD
ATOM     17  O   UNL A   1      29.516  22.948  27.717  1.00  0.00    -0.248 OA
ATOM     18  H   UNL A   1      29.078  24.416  26.139  1.00  0.00     0.165 HD
BRANCH  14  19
ATOM     19  C   UNL A   1      32.750  22.642  26.368  1.00  0.00     0.190 A 
ATOM     20  C   UNL A   1      36.388  23.710  25.819  1.00  0.00     0.058 C 
ATOM     21  C   UNL A   1      35.025  23.126  25.798  1.00  0.00     0.023 A 
ATOM     22  C   UNL A   1      34.184  22.896  24.728  1.00  0.00     0.128 A 
ATOM     23  S   UNL A   1      34.209  22.675  27.240  1.00  0.00    -0.102 S 
ATOM     24  N   UNL A   1      32.890  22.551  25.066  1.00  0.00    -0.228 NA
ENDBRANCH  14  19
ENDBRANCH  12  13
ENDBRANCH   8  12
ENDBRANCH   4   7
ENDBRANCH   2   3
ENDBRANCH   1   2
BRANCH   1  25
ATOM     25  C   UNL A   1      31.921  31.933  26.835  1.00  0.00     0.023 C 
BRANCH  25  26
ATOM     26  C   UNL A   1      32.968  32.762  27.571  1.00  0.00     0.116 C 
BRANCH  26  27
ATOM     27  N   UNL A   1      32.564  34.136  27.826  1.00  0.00    -0.352 N 
ATOM     28  C   UNL A   1      33.097  35.012  28.747  1.00  0.00     0.251 C 
ATOM     29  H   UNL A   1      31.824  34.481  27.275  1.00  0.00     0.163 HD
ATOM     30  O   UNL A   1      32.602  36.116  28.918  1.00  0.00    -0.269 OA
BRANCH  28  31
ATOM     31  C   UNL A   1      34.246  34.561  29.562  1.00  0.00     0.039 A 
ATOM     32  C   UNL A   1      34.024  34.156  30.879  1.00  0.00     0.014 A 
ATOM     33  C   UNL A   1      35.517  34.454  28.990  1.00  0.00     0.014 A 
ATOM     34  C   UNL A   1      35.063  33.564  31.600  1.00  0.00     0.010 A 
ATOM     35  C   UNL A   1      36.527  33.799  29.683  1.00  0.00     0.010 A 
ATOM     36  C   UNL A   1      36.310  33.342  30.992  1.00  0.00    -0.014 A 
BRANCH  36  37
ATOM     37  C   UNL A   1      37.396  32.620  31.699  1.00  0.00     0.031 A 
ATOM     38  C   UNL A   1      37.901  33.130  33.020  1.00  0.00     0.074 A 
ATOM     39  C   UNL A   1      37.985  31.559  31.113  1.00  0.00     0.049 A 
ATOM     40  N   UNL A   1      38.894  32.692  33.749  1.00  0.00    -0.248 NA
ATOM     41  C   UNL A   1      37.221  34.310  33.576  1.00  0.00     0.031 C 
ATOM     42  C   UNL A   1      37.633  31.013  29.800  1.00  0.00     0.029 A 
ATOM     43  N   UNL A   1      39.018  30.762  31.536  1.00  0.00    -0.354 N 
ATOM     44  C   UNL A   1      38.966  33.548  34.841  1.00  0.00     0.074 A 
ATOM     45  C   UNL A   1      37.956  34.566  34.647  1.00  0.00     0.031 C 
ATOM     46  C   UNL A   1      38.427  29.965  29.532  1.00  0.00     0.029 A 
ATOM     47  C   UNL A   1      39.363  29.780  30.637  1.00  0.00     0.049 A 
ATOM     48  H   UNL A   1      39.471  30.881  32.403  1.00  0.00     0.167 HD
ATOM     49  C   UNL A   1      39.779  33.477  35.922  1.00  0.00     0.037 A 
ATOM     50  C   UNL A   1      40.328  28.841  30.694  1.00  0.00     0.037 A 
ATOM     51  C   UNL A   1      40.769  32.451  36.120  1.00  0.00     0.049 A 
ATOM     52  C   UNL A   1      41.201  28.760  31.914  1.00  0.00     0.074 A 
ATOM     53  C   UNL A   1      41.607  32.259  37.203  1.00  0.00     0.029 A 
ATOM     54  N   UNL A   1      41.051  31.441  35.212  1.00  0.00    -0.354 N 
ATOM     55  N   UNL A   1      41.210  29.537  32.971  1.00  0.00    -0.248 NA
ATOM     56  C   UNL A   1      42.184  27.669  31.960  1.00  0.00     0.031 C 
ATOM     57  C   UNL A   1      42.419  31.150  36.936  1.00  0.00     0.029 A 
ATOM     58  C   UNL A   1      42.057  30.627  35.704  1.00  0.00     0.049 A 
ATOM     59  H   UNL A   1      40.601  31.320  34.344  1.00  0.00     0.167 HD
ATOM     60  C   UNL A   1      42.187  29.020  33.815  1.00  0.00     0.074 A 
ATOM     61  C   UNL A   1      42.736  27.856  33.151  1.00  0.00     0.031 C 
ATOM     62  C   UNL A   1      42.592  29.470  35.028  1.00  0.00     0.037 A 
BRANCH  49  63
ATOM     63  C   UNL A   1      39.616  34.542  36.972  1.00  0.00     0.058 A 
ATOM     64  C   UNL A   1      40.265  35.783  36.863  1.00  0.00     0.135 A 
ATOM     65  C   UNL A   1      38.818  34.318  38.105  1.00  0.00     0.135 A 
ATOM     66  F   UNL A   1      41.052  36.044  35.806  1.00  0.00    -0.206 F 
ATOM     67  C   UNL A   1      40.170  36.745  37.862  1.00  0.00     0.059 A 
ATOM     68  C   UNL A   1      38.686  35.278  39.105  1.00  0.00     0.059 A 
ATOM     69  F   UNL A   1      38.175  33.151  38.259  1.00  0.00    -0.206 F 
ATOM     70  C   UNL A   1      39.384  36.479  38.984  1.00  0.00     0.060 A 
BRANCH  70  71
ATOM     71  S   UNL A   1      39.298  37.722  40.290  1.00  0.00     0.124 S 
ATOM     72  O   UNL A   1      40.589  38.386  40.142  1.00  0.00    -0.237 OA
ATOM     73  O   UNL A   1      38.133  38.509  39.900  1.00  0.00    -0.237 OA
ATOM     74  O   UNL A   1      39.136  36.927  41.504  1.00  0.00    -0.744 OA
ENDBRANCH  70  71
ENDBRANCH  49  63
BRANCH  50  75
ATOM     75  C   UNL A   1      40.490  27.888  29.565  1.00  0.00     0.058 A 
ATOM     76  C   UNL A   1      41.494  28.072  28.605  1.00  0.00     0.135 A 
ATOM     77  C   UNL A   1      39.675  26.751  29.452  1.00  0.00     0.135 A 
ATOM     78  F   UNL A   1      42.294  29.147  28.668  1.00  0.00    -0.206 F 
ATOM     79  C   UNL A   1      41.686  27.163  27.568  1.00  0.00     0.059 A 
ATOM     80  C   UNL A   1      39.861  25.818  28.437  1.00  0.00     0.059 A 
ATOM     81  F   UNL A   1      38.712  26.521  30.358  1.00  0.00    -0.206 F 
ATOM     82  C   UNL A   1      40.867  26.035  27.497  1.00  0.00     0.060 A 
BRANCH  82  83
ATOM     83  S   UNL A   1      41.178  24.819  26.198  1.00  0.00     0.124 S 
ATOM     84  O   UNL A   1      41.428  25.677  25.046  1.00  0.00    -0.237 OA
ATOM     85  O   UNL A   1      42.335  24.098  26.721  1.00  0.00    -0.237 OA
ATOM     86  O   UNL A   1      39.938  24.049  26.157  1.00  0.00    -0.744 OA
ENDBRANCH  82  83
ENDBRANCH  50  75
BRANCH  62  87
ATOM     87  C   UNL A   1      43.667  28.690  35.729  1.00  0.00     0.058 A 
ATOM     88  C   UNL A   1      43.360  27.614  36.577  1.00  0.00     0.135 A 
ATOM     89  C   UNL A   1      45.022  28.986  35.505  1.00  0.00     0.135 A 
ATOM     90  F   UNL A   1      42.081  27.295  36.828  1.00  0.00    -0.206 F 
ATOM     91  C   UNL A   1      44.360  26.869  37.193  1.00  0.00     0.059 A 
ATOM     92  C   UNL A   1      46.038  28.239  36.093  1.00  0.00     0.059 A 
ATOM     93  F   UNL A   1      45.367  29.999  34.696  1.00  0.00    -0.206 F 
ATOM     94  C   UNL A   1      45.696  27.188  36.944  1.00  0.00     0.060 A 
BRANCH  94  95
ATOM     95  S   UNL A   1      46.986  26.192  37.720  1.00  0.00     0.124 S 
ATOM     96  O   UNL A   1      47.454  27.085  38.775  1.00  0.00    -0.237 OA
ATOM     97  O   UNL A   1      46.247  25.015  38.167  1.00  0.00    -0.237 OA
ATOM     98  O   UNL A   1      47.931  25.954  36.633  1.00  0.00    -0.744 OA
ENDBRANCH  94  95
ENDBRANCH  62  87
ENDBRANCH  36  37
ENDBRANCH  28  31
ENDBRANCH  26  27
ENDBRANCH  25  26
ENDBRANCH   1  25
TORSDOF 17
ENDMDL
MODEL 3
REMARK VINA RESULT:     -11.9      4.252      6.996
REMARK SMILES Cc1cnc(NC(=O)NC[C@H]2CC[C@H](C(=O)NCCCCNC(=O)c3ccc(-c4c5nc(c(-c6c(F)cc(S(=O)(=O)[O-])cc6F)c6ccc([nH]6)c(-c6c(F)cc(S(=O)(=O)[O-])cc6F)c6nc(c(-c7c(F)cc(S(=O)(=O)[O-])cc7F)c7ccc4[nH]7)C=C6)C=C5)cc3)O2)s1
REMARK SMILES IDX 19 1 18 2 17 3 15 4 16 5 14 7 11 8 12 9 91 10 13 11 10 12
REMARK SMILES IDX 9 13 6 14 7 15 8 17 5 19 1 20 2 21 3 22 92 23 4 24 20 25
REMARK SMILES IDX 21 26 22 27 23 28 24 30 25 31 26 32 90 33 27 34 89 35 28 36
REMARK SMILES IDX 29 37 30 38 83 39 31 40 88 41 82 42 84 43 32 44 87 45 81 46
REMARK SMILES IDX 80 47 33 49 67 50 46 51 66 52 47 53 50 54 65 55 85 56 48 57
REMARK SMILES IDX 49 58 64 60 86 61 51 62 34 63 35 64 44 65 36 66 37 67 43 68
REMARK SMILES IDX 45 69 38 70 39 71 40 72 41 73 42 74 68 75 69 76 78 77 70 78
REMARK SMILES IDX 71 79 77 80 79 81 72 82 73 83 74 84 75 85 76 86 52 87 53 88
REMARK SMILES IDX 62 89 54 90 55 91 61 92 63 93 56 94 57 95 58 96 59 97 60 98
REMARK H PARENT 17 6 6 16 9 18 22 29 84 48 50 59
REMARK Flexibility Score: inf
ROOT
ATOM      1  C   UNL A   1      41.077  19.546  26.120  1.00  0.00     0.023 C 
ENDROOT
BRANCH   1   2
ATOM      2  C   UNL A   1      42.540  19.155  26.333  1.00  0.00     0.116 C 
BRANCH   2   3
ATOM      3  N   UNL A   1      43.282  19.128  25.093  1.00  0.00    -0.354 N 
ATOM      4  C   UNL A   1      44.243  19.971  24.617  1.00  0.00     0.249 C 
ATOM      5  O   UNL A   1      44.747  19.688  23.524  1.00  0.00    -0.272 OA
ATOM      6  H   UNL A   1      43.058  18.378  24.495  1.00  0.00     0.163 HD
BRANCH   4   7
ATOM      7  C   UNL A   1      44.643  21.281  25.341  1.00  0.00     0.207 C 
ATOM      8  C   UNL A   1      44.265  23.530  24.794  1.00  0.00     0.138 C 
ATOM      9  C   UNL A   1      45.601  23.149  24.199  1.00  0.00     0.037 C 
ATOM     10  O   UNL A   1      43.698  22.352  25.383  1.00  0.00    -0.363 OA
ATOM     11  C   UNL A   1      45.959  21.829  24.820  1.00  0.00     0.045 C 
BRANCH   8  12
ATOM     12  C   UNL A   1      44.210  24.734  25.746  1.00  0.00     0.149 C 
BRANCH  12  13
ATOM     13  N   UNL A   1      43.468  25.911  25.322  1.00  0.00    -0.335 N 
ATOM     14  N   UNL A   1      44.819  27.826  24.822  1.00  0.00    -0.284 N 
ATOM     15  C   UNL A   1      43.673  27.151  24.883  1.00  0.00     0.321 C 
ATOM     16  H   UNL A   1      44.670  28.787  24.667  1.00  0.00     0.174 HD
ATOM     17  O   UNL A   1      42.646  27.787  24.605  1.00  0.00    -0.248 OA
ATOM     18  H   UNL A   1      42.501  25.733  25.376  1.00  0.00     0.165 HD
BRANCH  14  19
ATOM     19  C   UNL A   1      46.140  27.532  24.920  1.00  0.00     0.190 A 
ATOM     20  C   UNL A   1      49.704  27.549  26.324  1.00  0.00     0.058 C 
ATOM     21  C   UNL A   1      48.434  27.355  25.585  1.00  0.00     0.023 A 
ATOM     22  C   UNL A   1      48.207  27.307  24.224  1.00  0.00     0.128 A 
ATOM     23  S   UNL A   1      46.926  27.213  26.393  1.00  0.00    -0.102 S 
ATOM     24  N   UNL A   1      46.878  27.342  23.851  1.00  0.00    -0.228 NA
ENDBRANCH  14  19
ENDBRANCH  12  13
ENDBRANCH   8  12
ENDBRANCH   4   7
ENDBRANCH   2   3
ENDBRANCH   1   2
BRANCH   1  25
ATOM     25  C   UNL A   1      40.603  20.734  26.957  1.00  0.00     0.023 C 
BRANCH  25  26
ATOM     26  C   UNL A   1      40.525  22.058  26.205  1.00  0.00     0.116 C 
BRANCH  26  27
ATOM     27  N   UNL A   1      39.181  22.421  25.784  1.00  0.00    -0.352 N 
ATOM     28  C   UNL A   1      38.484  23.570  26.095  1.00  0.00     0.251 C 
ATOM     29  H   UNL A   1      38.715  21.773  25.209  1.00  0.00     0.163 HD
ATOM     30  O   UNL A   1      37.322  23.710  25.743  1.00  0.00    -0.269 OA
BRANCH  28  31
ATOM     31  C   UNL A   1      39.160  24.602  26.911  1.00  0.00     0.039 A 
ATOM     32  C   UNL A   1      39.972  25.542  26.276  1.00  0.00     0.014 A 
ATOM     33  C   UNL A   1      38.912  24.688  28.283  1.00  0.00     0.014 A 
ATOM     34  C   UNL A   1      40.472  26.622  27.006  1.00  0.00     0.010 A 
ATOM     35  C   UNL A   1      39.349  25.801  28.991  1.00  0.00     0.010 A 
ATOM     36  C   UNL A   1      40.128  26.782  28.359  1.00  0.00    -0.014 A 
BRANCH  36  37
ATOM     37  C   UNL A   1      40.558  27.976  29.129  1.00  0.00     0.031 A 
ATOM     38  C   UNL A   1      41.897  27.987  29.811  1.00  0.00     0.074 A 
ATOM     39  C   UNL A   1      39.710  29.012  29.285  1.00  0.00     0.049 A 
ATOM     40  N   UNL A   1      42.417  28.894  30.596  1.00  0.00    -0.248 NA
ATOM     41  C   UNL A   1      42.750  26.804  29.612  1.00  0.00     0.031 C 
ATOM     42  C   UNL A   1      38.355  29.087  28.732  1.00  0.00     0.029 A 
ATOM     43  N   UNL A   1      39.853  30.190  29.972  1.00  0.00    -0.354 N 
ATOM     44  C   UNL A   1      43.648  28.389  30.994  1.00  0.00     0.074 A 
ATOM     45  C   UNL A   1      43.771  27.070  30.413  1.00  0.00     0.031 C 
ATOM     46  C   UNL A   1      37.799  30.255  29.091  1.00  0.00     0.029 A 
ATOM     47  C   UNL A   1      38.742  30.998  29.922  1.00  0.00     0.049 A 
ATOM     48  H   UNL A   1      40.676  30.435  30.456  1.00  0.00     0.167 HD
ATOM     49  C   UNL A   1      44.603  28.980  31.750  1.00  0.00     0.037 A 
ATOM     50  C   UNL A   1      38.506  32.198  30.487  1.00  0.00     0.037 A 
ATOM     51  C   UNL A   1      44.485  30.301  32.310  1.00  0.00     0.049 A 
ATOM     52  C   UNL A   1      39.589  32.852  31.298  1.00  0.00     0.074 A 
ATOM     53  C   UNL A   1      45.415  31.012  33.047  1.00  0.00     0.029 A 
ATOM     54  N   UNL A   1      43.365  31.111  32.191  1.00  0.00    -0.354 N 
ATOM     55  N   UNL A   1      40.777  32.388  31.609  1.00  0.00    -0.248 NA
ATOM     56  C   UNL A   1      39.309  34.195  31.825  1.00  0.00     0.031 C 
ATOM     57  C   UNL A   1      44.845  32.241  33.400  1.00  0.00     0.029 A 
ATOM     58  C   UNL A   1      43.575  32.312  32.849  1.00  0.00     0.049 A 
ATOM     59  H   UNL A   1      42.541  30.868  31.710  1.00  0.00     0.167 HD
ATOM     60  C   UNL A   1      41.393  33.388  32.352  1.00  0.00     0.074 A 
ATOM     61  C   UNL A   1      40.451  34.487  32.433  1.00  0.00     0.031 C 
ATOM     62  C   UNL A   1      42.625  33.395  32.918  1.00  0.00     0.037 A 
BRANCH  49  63
ATOM     63  C   UNL A   1      45.860  28.194  32.003  1.00  0.00     0.058 A 
ATOM     64  C   UNL A   1      46.942  28.235  31.107  1.00  0.00     0.135 A 
ATOM     65  C   UNL A   1      45.983  27.379  33.140  1.00  0.00     0.135 A 
ATOM     66  F   UNL A   1      46.871  28.986  29.996  1.00  0.00    -0.206 F 
ATOM     67  C   UNL A   1      48.079  27.460  31.303  1.00  0.00     0.059 A 
ATOM     68  C   UNL A   1      47.124  26.615  33.370  1.00  0.00     0.059 A 
ATOM     69  F   UNL A   1      44.980  27.303  34.028  1.00  0.00    -0.206 F 
ATOM     70  C   UNL A   1      48.157  26.645  32.433  1.00  0.00     0.060 A 
BRANCH  70  71
ATOM     71  S   UNL A   1      49.623  25.617  32.657  1.00  0.00     0.124 S 
ATOM     72  O   UNL A   1      49.088  24.522  33.459  1.00  0.00    -0.237 OA
ATOM     73  O   UNL A   1      49.982  25.278  31.283  1.00  0.00    -0.237 OA
ATOM     74  O   UNL A   1      50.557  26.503  33.345  1.00  0.00    -0.744 OA
ENDBRANCH  70  71
ENDBRANCH  49  63
BRANCH  50  75
ATOM     75  C   UNL A   1      37.195  32.864  30.271  1.00  0.00     0.058 A 
ATOM     76  C   UNL A   1      36.213  32.862  31.271  1.00  0.00     0.135 A 
ATOM     77  C   UNL A   1      36.918  33.556  29.082  1.00  0.00     0.135 A 
ATOM     78  F   UNL A   1      36.430  32.209  32.423  1.00  0.00    -0.206 F 
ATOM     79  C   UNL A   1      34.999  33.520  31.100  1.00  0.00     0.059 A 
ATOM     80  C   UNL A   1      35.720  34.239  28.896  1.00  0.00     0.059 A 
ATOM     81  F   UNL A   1      37.835  33.604  28.102  1.00  0.00    -0.206 F 
ATOM     82  C   UNL A   1      34.764  34.212  29.910  1.00  0.00     0.060 A 
BRANCH  82  83
ATOM     83  S   UNL A   1      33.221  35.132  29.732  1.00  0.00     0.124 S 
ATOM     84  O   UNL A   1      32.582  34.424  28.629  1.00  0.00    -0.237 OA
ATOM     85  O   UNL A   1      32.605  34.960  31.045  1.00  0.00    -0.237 OA
ATOM     86  O   UNL A   1      33.673  36.489  29.436  1.00  0.00    -0.744 OA
ENDBRANCH  82  83
ENDBRANCH  50  75
BRANCH  62  87
ATOM     87  C   UNL A   1      43.038  34.637  33.656  1.00  0.00     0.058 A 
ATOM     88  C   UNL A   1      42.766  34.803  35.023  1.00  0.00     0.135 A 
ATOM     89  C   UNL A   1      43.764  35.645  33.002  1.00  0.00     0.135 A 
ATOM     90  F   UNL A   1      42.070  33.870  35.692  1.00  0.00    -0.206 F 
ATOM     91  C   UNL A   1      43.184  35.937  35.713  1.00  0.00     0.059 A 
ATOM     92  C   UNL A   1      44.211  36.776  33.677  1.00  0.00     0.059 A 
ATOM     93  F   UNL A   1      44.057  35.529  31.698  1.00  0.00    -0.206 F 
ATOM     94  C   UNL A   1      43.906  36.918  35.031  1.00  0.00     0.060 A 
BRANCH  94  95
ATOM     95  S   UNL A   1      44.476  38.367  35.944  1.00  0.00     0.124 S 
ATOM     96  O   UNL A   1      43.901  39.454  35.158  1.00  0.00    -0.237 OA
ATOM     97  O   UNL A   1      43.887  38.159  37.263  1.00  0.00    -0.237 OA
ATOM     98  O   UNL A   1      45.930  38.253  35.889  1.00  0.00    -0.744 OA
ENDBRANCH  94  95
ENDBRANCH  62  87
ENDBRANCH  36  37
ENDBRANCH  28  31
ENDBRANCH  26  27
ENDBRANCH  25  26
ENDBRANCH   1  25
TORSDOF 17
ENDMDL
