MODEL 1
REMARK VINA RESULT:     -12.1      0.000      0.000
REMARK SMILES CN(C)C(=O)[C@@H]1CC=CC[C@H]1C(=O)N1CCC(C(=O)NCCCCNC(=O)c2ccc(-c3c4nc(c(-c5c(F)cc(S(=O)(=O)[O-])cc5F)c5ccc([nH]5)c(-c5c(F)cc(S(=O)(=O)[O-])cc5F)c5nc(c(-c6c(F)cc(S(=O)(=O)[O-])cc6F)c6ccc3[nH]6)C=C5)C=C4)cc2)CC1
REMARK SMILES IDX 23 1 22 2 21 3 20 4 18 5 19 6 17 8 12 9 13 10 14 11 15 12
REMARK SMILES IDX 95 13 16 14 94 15 11 16 6 17 7 18 8 19 10 20 9 21 4 22 1 23
REMARK SMILES IDX 2 24 3 25 5 26 24 27 25 28 26 29 27 31 28 32 29 33 93 34
REMARK SMILES IDX 30 35 92 36 31 37 32 38 33 39 86 40 34 41 91 42 85 43 87 44
REMARK SMILES IDX 35 45 90 46 84 47 83 48 36 50 70 51 49 52 69 53 50 54 53 55
REMARK SMILES IDX 68 56 88 57 51 58 52 59 67 61 89 62 54 63 37 64 38 65 47 66
REMARK SMILES IDX 39 67 40 68 46 69 48 70 41 71 42 72 43 73 44 74 45 75 71 76
REMARK SMILES IDX 72 77 81 78 73 79 74 80 80 81 82 82 75 83 76 84 77 85 78 86
REMARK SMILES IDX 79 87 55 88 56 89 65 90 57 91 58 92 64 93 66 94 59 95 60 96
REMARK SMILES IDX 61 97 62 98 63 99
REMARK H PARENT 20 7 25 30 87 49 53 60
REMARK Flexibility Score: inf
ROOT
ATOM      1  C   UNL A   1      42.422  21.911  27.080  1.00  0.00     0.023 C 
ENDROOT
BRANCH   1   2
ATOM      2  C   UNL A   1      41.002  21.654  27.580  1.00  0.00     0.023 C 
BRANCH   2   3
ATOM      3  C   UNL A   1      39.907  22.207  26.672  1.00  0.00     0.116 C 
BRANCH   3   4
ATOM      4  N   UNL A   1      39.152  21.139  26.034  1.00  0.00    -0.356 N 
ATOM      5  C   UNL A   1      38.014  21.182  25.286  1.00  0.00     0.223 C 
ATOM      6  O   UNL A   1      37.541  20.118  24.881  1.00  0.00    -0.275 OA
ATOM      7  H   UNL A   1      39.525  20.237  26.165  1.00  0.00     0.163 HD
BRANCH   5   8
ATOM      8  C   UNL A   1      37.356  22.504  24.919  1.00  0.00     0.082 C 
ATOM      9  C   UNL A   1      33.474  23.660  24.279  1.00  0.00     0.226 C 
ATOM     10  O   UNL A   1      33.041  22.705  23.625  1.00  0.00    -0.275 OA
ATOM     11  N   UNL A   1      34.838  23.834  24.443  1.00  0.00    -0.342 N 
ATOM     12  C   UNL A   1      35.721  23.595  23.310  1.00  0.00     0.120 C 
ATOM     13  C   UNL A   1      35.497  24.088  25.711  1.00  0.00     0.120 C 
ATOM     14  C   UNL A   1      36.678  22.442  23.545  1.00  0.00     0.035 C 
ATOM     15  C   UNL A   1      36.480  22.985  26.079  1.00  0.00     0.035 C 
BRANCH   9  16
ATOM     16  C   UNL A   1      32.525  24.843  24.586  1.00  0.00     0.095 C 
ATOM     17  C   UNL A   1      32.009  25.690  23.413  1.00  0.00     0.095 C 
ATOM     18  C   UNL A   1      30.751  26.551  23.650  1.00  0.00     0.041 C 
ATOM     19  C   UNL A   1      29.916  26.171  24.827  1.00  0.00    -0.030 C 
ATOM     20  C   UNL A   1      31.397  24.270  25.468  1.00  0.00     0.041 C 
ATOM     21  C   UNL A   1      30.206  25.154  25.643  1.00  0.00    -0.030 C 
BRANCH  17  22
ATOM     22  C   UNL A   1      33.102  26.553  22.775  1.00  0.00     0.226 C 
ATOM     23  C   UNL A   1      34.291  28.666  22.551  1.00  0.00     0.146 C 
ATOM     24  N   UNL A   1      33.473  27.764  23.349  1.00  0.00    -0.349 N 
ATOM     25  C   UNL A   1      33.320  28.137  24.750  1.00  0.00     0.146 C 
ATOM     26  O   UNL A   1      33.595  26.171  21.709  1.00  0.00    -0.275 OA
ENDBRANCH  17  22
ENDBRANCH   9  16
ENDBRANCH   5   8
ENDBRANCH   3   4
ENDBRANCH   2   3
ENDBRANCH   1   2
BRANCH   1  27
ATOM     27  C   UNL A   1      42.899  23.351  27.221  1.00  0.00     0.116 C 
BRANCH  27  28
ATOM     28  N   UNL A   1      42.595  24.164  26.055  1.00  0.00    -0.352 N 
ATOM     29  C   UNL A   1      42.064  25.430  25.995  1.00  0.00     0.251 C 
ATOM     30  H   UNL A   1      42.798  23.749  25.185  1.00  0.00     0.163 HD
ATOM     31  O   UNL A   1      41.732  25.906  24.917  1.00  0.00    -0.269 OA
BRANCH  29  32
ATOM     32  C   UNL A   1      41.867  26.200  27.243  1.00  0.00     0.039 A 
ATOM     33  C   UNL A   1      42.757  27.233  27.541  1.00  0.00     0.014 A 
ATOM     34  C   UNL A   1      40.804  25.918  28.105  1.00  0.00     0.014 A 
ATOM     35  C   UNL A   1      42.546  28.019  28.674  1.00  0.00     0.010 A 
ATOM     36  C   UNL A   1      40.545  26.758  29.185  1.00  0.00     0.010 A 
ATOM     37  C   UNL A   1      41.418  27.812  29.487  1.00  0.00    -0.014 A 
BRANCH  37  38
ATOM     38  C   UNL A   1      41.145  28.702  30.646  1.00  0.00     0.031 A 
ATOM     39  C   UNL A   1      41.968  28.593  31.902  1.00  0.00     0.074 A 
ATOM     40  C   UNL A   1      40.132  29.588  30.574  1.00  0.00     0.049 A 
ATOM     41  N   UNL A   1      41.885  29.295  33.003  1.00  0.00    -0.248 NA
ATOM     42  C   UNL A   1      43.002  27.546  31.937  1.00  0.00     0.031 C 
ATOM     43  C   UNL A   1      39.222  29.742  29.435  1.00  0.00     0.029 A 
ATOM     44  N   UNL A   1      39.696  30.529  31.473  1.00  0.00    -0.354 N 
ATOM     45  C   UNL A   1      42.848  28.772  33.860  1.00  0.00     0.074 A 
ATOM     46  C   UNL A   1      43.458  27.655  33.176  1.00  0.00     0.031 C 
ATOM     47  C   UNL A   1      38.366  30.743  29.688  1.00  0.00     0.029 A 
ATOM     48  C   UNL A   1      38.636  31.278  31.018  1.00  0.00     0.049 A 
ATOM     49  H   UNL A   1      40.104  30.656  32.360  1.00  0.00     0.167 HD
ATOM     50  C   UNL A   1      43.209  29.204  35.092  1.00  0.00     0.037 A 
ATOM     51  C   UNL A   1      37.959  32.285  31.605  1.00  0.00     0.037 A 
ATOM     52  C   UNL A   1      42.606  30.329  35.761  1.00  0.00     0.049 A 
ATOM     53  C   UNL A   1      38.383  32.749  32.972  1.00  0.00     0.074 A 
ATOM     54  C   UNL A   1      42.937  30.881  36.985  1.00  0.00     0.029 A 
ATOM     55  N   UNL A   1      41.542  31.069  35.264  1.00  0.00    -0.354 N 
ATOM     56  N   UNL A   1      39.349  32.294  33.735  1.00  0.00    -0.248 NA
ATOM     57  C   UNL A   1      37.633  33.871  33.554  1.00  0.00     0.031 C 
ATOM     58  C   UNL A   1      42.040  31.921  37.253  1.00  0.00     0.029 A 
ATOM     59  C   UNL A   1      41.189  32.058  36.168  1.00  0.00     0.049 A 
ATOM     60  H   UNL A   1      41.103  30.915  34.396  1.00  0.00     0.167 HD
ATOM     61  C   UNL A   1      39.341  33.092  34.875  1.00  0.00     0.074 A 
ATOM     62  C   UNL A   1      38.287  34.067  34.691  1.00  0.00     0.031 C 
ATOM     63  C   UNL A   1      40.136  33.025  35.972  1.00  0.00     0.037 A 
BRANCH  50  64
ATOM     64  C   UNL A   1      44.312  28.460  35.798  1.00  0.00     0.058 A 
ATOM     65  C   UNL A   1      45.665  28.794  35.615  1.00  0.00     0.135 A 
ATOM     66  C   UNL A   1      44.014  27.426  36.701  1.00  0.00     0.135 A 
ATOM     67  F   UNL A   1      46.011  29.764  34.753  1.00  0.00    -0.206 F 
ATOM     68  C   UNL A   1      46.681  28.112  36.276  1.00  0.00     0.059 A 
ATOM     69  C   UNL A   1      45.013  26.751  37.397  1.00  0.00     0.059 A 
ATOM     70  F   UNL A   1      42.740  27.063  36.915  1.00  0.00    -0.206 F 
ATOM     71  C   UNL A   1      46.345  27.092  37.167  1.00  0.00     0.060 A 
BRANCH  71  72
ATOM     72  S   UNL A   1      47.676  26.225  38.024  1.00  0.00     0.124 S 
ATOM     73  O   UNL A   1      46.926  25.361  38.930  1.00  0.00    -0.237 OA
ATOM     74  O   UNL A   1      48.363  25.549  36.929  1.00  0.00    -0.237 OA
ATOM     75  O   UNL A   1      48.427  27.301  38.663  1.00  0.00    -0.744 OA
ENDBRANCH  71  72
ENDBRANCH  50  64
BRANCH  51  76
ATOM     76  C   UNL A   1      36.831  32.940  30.888  1.00  0.00     0.058 A 
ATOM     77  C   UNL A   1      37.065  33.835  29.833  1.00  0.00     0.135 A 
ATOM     78  C   UNL A   1      35.497  32.675  31.234  1.00  0.00     0.135 A 
ATOM     79  F   UNL A   1      38.323  34.125  29.466  1.00  0.00    -0.206 F 
ATOM     80  C   UNL A   1      36.019  34.459  29.160  1.00  0.00     0.059 A 
ATOM     81  C   UNL A   1      34.434  33.264  30.558  1.00  0.00     0.059 A 
ATOM     82  F   UNL A   1      35.217  31.813  32.224  1.00  0.00    -0.206 F 
ATOM     83  C   UNL A   1      34.706  34.165  29.528  1.00  0.00     0.060 A 
BRANCH  83  84
ATOM     84  S   UNL A   1      33.355  34.945  28.619  1.00  0.00     0.124 S 
ATOM     85  O   UNL A   1      32.537  35.475  29.704  1.00  0.00    -0.237 OA
ATOM     86  O   UNL A   1      34.062  35.934  27.811  1.00  0.00    -0.237 OA
ATOM     87  O   UNL A   1      32.770  33.837  27.870  1.00  0.00    -0.744 OA
ENDBRANCH  83  84
ENDBRANCH  51  76
BRANCH  63  88
ATOM     88  C   UNL A   1      39.920  34.057  37.046  1.00  0.00     0.058 A 
ATOM     89  C   UNL A   1      40.434  35.359  36.939  1.00  0.00     0.135 A 
ATOM     90  C   UNL A   1      39.161  33.745  38.186  1.00  0.00     0.135 A 
ATOM     91  F   UNL A   1      41.170  35.710  35.872  1.00  0.00    -0.206 F 
ATOM     92  C   UNL A   1      40.235  36.304  37.941  1.00  0.00     0.059 A 
ATOM     93  C   UNL A   1      38.921  34.684  39.184  1.00  0.00     0.059 A 
ATOM     94  F   UNL A   1      38.636  32.519  38.335  1.00  0.00    -0.206 F 
ATOM     95  C   UNL A   1      39.477  35.956  39.061  1.00  0.00     0.060 A 
BRANCH  95  96
ATOM     96  S   UNL A   1      39.217  37.194  40.348  1.00  0.00     0.124 S 
ATOM     97  O   UNL A   1      38.586  38.273  39.595  1.00  0.00    -0.237 OA
ATOM     98  O   UNL A   1      38.352  36.489  41.290  1.00  0.00    -0.237 OA
ATOM     99  O   UNL A   1      40.566  37.471  40.831  1.00  0.00    -0.744 OA
ENDBRANCH  95  96
ENDBRANCH  63  88
ENDBRANCH  37  38
ENDBRANCH  29  32
ENDBRANCH  27  28
ENDBRANCH   1  27
TORSDOF 16
ENDMDL
MODEL 2
REMARK VINA RESULT:     -12.0      6.475     12.051
REMARK SMILES CN(C)C(=O)[C@@H]1CC=CC[C@H]1C(=O)N1CCC(C(=O)NCCCCNC(=O)c2ccc(-c3c4nc(c(-c5c(F)cc(S(=O)(=O)[O-])cc5F)c5ccc([nH]5)c(-c5c(F)cc(S(=O)(=O)[O-])cc5F)c5nc(c(-c6c(F)cc(S(=O)(=O)[O-])cc6F)c6ccc3[nH]6)C=C5)C=C4)cc2)CC1
REMARK SMILES IDX 23 1 22 2 21 3 20 4 18 5 19 6 17 8 12 9 13 10 14 11 15 12
REMARK SMILES IDX 95 13 16 14 94 15 11 16 6 17 7 18 8 19 10 20 9 21 4 22 1 23
REMARK SMILES IDX 2 24 3 25 5 26 24 27 25 28 26 29 27 31 28 32 29 33 93 34
REMARK SMILES IDX 30 35 92 36 31 37 32 38 33 39 86 40 34 41 91 42 85 43 87 44
REMARK SMILES IDX 35 45 90 46 84 47 83 48 36 50 70 51 49 52 69 53 50 54 53 55
REMARK SMILES IDX 68 56 88 57 51 58 52 59 67 61 89 62 54 63 37 64 38 65 47 66
REMARK SMILES IDX 39 67 40 68 46 69 48 70 41 71 42 72 43 73 44 74 45 75 71 76
REMARK SMILES IDX 72 77 81 78 73 79 74 80 80 81 82 82 75 83 76 84 77 85 78 86
REMARK SMILES IDX 79 87 55 88 56 89 65 90 57 91 58 92 64 93 66 94 59 95 60 96
REMARK SMILES IDX 61 97 62 98 63 99
REMARK H PARENT 20 7 25 30 87 49 53 60
REMARK Flexibility Score: inf
ROOT
ATOM      1  C   UNL A   1      34.816  30.791  27.252  1.00  0.00     0.023 C 
ENDROOT
BRANCH   1   2
ATOM      2  C   UNL A   1      33.289  30.792  27.248  1.00  0.00     0.023 C 
BRANCH   2   3
ATOM      3  C   UNL A   1      32.663  29.666  26.428  1.00  0.00     0.116 C 
BRANCH   3   4
ATOM      4  N   UNL A   1      33.096  29.712  25.039  1.00  0.00    -0.356 N 
ATOM      5  C   UNL A   1      33.348  28.706  24.156  1.00  0.00     0.223 C 
ATOM      6  O   UNL A   1      33.744  29.006  23.027  1.00  0.00    -0.275 OA
ATOM      7  H   UNL A   1      33.228  30.618  24.680  1.00  0.00     0.163 HD
BRANCH   5   8
ATOM      8  C   UNL A   1      33.111  27.249  24.524  1.00  0.00     0.082 C 
ATOM      9  C   UNL A   1      35.251  23.797  23.960  1.00  0.00     0.226 C 
ATOM     10  O   UNL A   1      35.649  23.944  22.799  1.00  0.00    -0.275 OA
ATOM     11  N   UNL A   1      34.227  24.587  24.454  1.00  0.00    -0.342 N 
ATOM     12  C   UNL A   1      33.089  24.885  23.596  1.00  0.00     0.120 C 
ATOM     13  C   UNL A   1      34.259  25.290  25.724  1.00  0.00     0.120 C 
ATOM     14  C   UNL A   1      32.961  26.363  23.282  1.00  0.00     0.035 C 
ATOM     15  C   UNL A   1      34.158  26.799  25.549  1.00  0.00     0.035 C 
BRANCH   9  16
ATOM     16  C   UNL A   1      35.632  22.503  24.718  1.00  0.00     0.095 C 
ATOM     17  C   UNL A   1      34.701  21.287  24.602  1.00  0.00     0.095 C 
ATOM     18  C   UNL A   1      35.280  19.903  24.965  1.00  0.00     0.041 C 
ATOM     19  C   UNL A   1      36.769  19.807  24.981  1.00  0.00    -0.030 C 
ATOM     20  C   UNL A   1      37.092  22.192  24.331  1.00  0.00     0.041 C 
ATOM     21  C   UNL A   1      37.581  20.830  24.702  1.00  0.00    -0.030 C 
BRANCH  17  22
ATOM     22  C   UNL A   1      33.368  21.485  25.331  1.00  0.00     0.226 C 
ATOM     23  C   UNL A   1      31.046  22.215  25.369  1.00  0.00     0.146 C 
ATOM     24  N   UNL A   1      32.204  21.750  24.619  1.00  0.00    -0.349 N 
ATOM     25  C   UNL A   1      31.945  21.399  23.228  1.00  0.00     0.146 C 
ATOM     26  O   UNL A   1      33.374  21.463  26.566  1.00  0.00    -0.275 OA
ENDBRANCH  17  22
ENDBRANCH   9  16
ENDBRANCH   5   8
ENDBRANCH   3   4
ENDBRANCH   2   3
ENDBRANCH   1   2
BRANCH   1  27
ATOM     27  C   UNL A   1      35.452  29.704  28.110  1.00  0.00     0.116 C 
BRANCH  27  28
ATOM     28  N   UNL A   1      35.427  30.017  29.530  1.00  0.00    -0.352 N 
ATOM     29  C   UNL A   1      36.458  30.010  30.438  1.00  0.00     0.251 C 
ATOM     30  H   UNL A   1      34.546  30.271  29.891  1.00  0.00     0.163 HD
ATOM     31  O   UNL A   1      36.225  30.155  31.631  1.00  0.00    -0.269 OA
BRANCH  29  32
ATOM     32  C   UNL A   1      37.844  29.792  29.969  1.00  0.00     0.039 A 
ATOM     33  C   UNL A   1      38.814  29.417  30.899  1.00  0.00     0.014 A 
ATOM     34  C   UNL A   1      38.183  29.941  28.621  1.00  0.00     0.014 A 
ATOM     35  C   UNL A   1      40.111  29.135  30.466  1.00  0.00     0.010 A 
ATOM     36  C   UNL A   1      39.451  29.574  28.180  1.00  0.00     0.010 A 
ATOM     37  C   UNL A   1      40.432  29.175  29.098  1.00  0.00    -0.014 A 
BRANCH  37  38
ATOM     38  C   UNL A   1      41.789  28.792  28.627  1.00  0.00     0.031 A 
ATOM     39  C   UNL A   1      42.886  29.820  28.546  1.00  0.00     0.074 A 
ATOM     40  C   UNL A   1      42.020  27.522  28.241  1.00  0.00     0.049 A 
ATOM     41  N   UNL A   1      44.131  29.666  28.175  1.00  0.00    -0.248 NA
ATOM     42  C   UNL A   1      42.536  31.204  28.904  1.00  0.00     0.031 C 
ATOM     43  C   UNL A   1      41.019  26.452  28.211  1.00  0.00     0.029 A 
ATOM     44  N   UNL A   1      43.168  26.911  27.802  1.00  0.00    -0.354 N 
ATOM     45  C   UNL A   1      44.709  30.929  28.250  1.00  0.00     0.074 A 
ATOM     46  C   UNL A   1      43.663  31.847  28.639  1.00  0.00     0.031 C 
ATOM     47  C   UNL A   1      41.606  25.311  27.818  1.00  0.00     0.029 A 
ATOM     48  C   UNL A   1      43.011  25.572  27.530  1.00  0.00     0.049 A 
ATOM     49  H   UNL A   1      44.023  27.387  27.693  1.00  0.00     0.167 HD
ATOM     50  C   UNL A   1      46.000  31.283  28.042  1.00  0.00     0.037 A 
ATOM     51  C   UNL A   1      43.901  24.657  27.098  1.00  0.00     0.037 A 
ATOM     52  C   UNL A   1      47.039  30.358  27.669  1.00  0.00     0.049 A 
ATOM     53  C   UNL A   1      45.330  25.075  26.879  1.00  0.00     0.074 A 
ATOM     54  C   UNL A   1      48.389  30.607  27.489  1.00  0.00     0.029 A 
ATOM     55  N   UNL A   1      46.845  29.008  27.412  1.00  0.00    -0.354 N 
ATOM     56  N   UNL A   1      45.876  26.258  27.031  1.00  0.00    -0.248 NA
ATOM     57  C   UNL A   1      46.267  24.031  26.440  1.00  0.00     0.031 C 
ATOM     58  C   UNL A   1      49.000  29.420  27.071  1.00  0.00     0.029 A 
ATOM     59  C   UNL A   1      48.045  28.416  27.052  1.00  0.00     0.049 A 
ATOM     60  H   UNL A   1      45.981  28.540  27.478  1.00  0.00     0.167 HD
ATOM     61  C   UNL A   1      47.226  26.096  26.735  1.00  0.00     0.074 A 
ATOM     62  C   UNL A   1      47.413  24.696  26.412  1.00  0.00     0.031 C 
ATOM     63  C   UNL A   1      48.218  27.020  26.733  1.00  0.00     0.037 A 
BRANCH  50  64
ATOM     64  C   UNL A   1      46.363  32.735  28.216  1.00  0.00     0.058 A 
ATOM     65  C   UNL A   1      46.285  33.650  27.152  1.00  0.00     0.135 A 
ATOM     66  C   UNL A   1      46.758  33.229  29.471  1.00  0.00     0.135 A 
ATOM     67  F   UNL A   1      45.929  33.233  25.926  1.00  0.00    -0.206 F 
ATOM     68  C   UNL A   1      46.612  34.991  27.318  1.00  0.00     0.059 A 
ATOM     69  C   UNL A   1      47.058  34.573  29.667  1.00  0.00     0.059 A 
ATOM     70  F   UNL A   1      46.851  32.401  30.523  1.00  0.00    -0.206 F 
ATOM     71  C   UNL A   1      46.996  35.445  28.581  1.00  0.00     0.060 A 
BRANCH  71  72
ATOM     72  S   UNL A   1      47.407  37.192  28.780  1.00  0.00     0.124 S 
ATOM     73  O   UNL A   1      48.382  37.140  29.864  1.00  0.00    -0.237 OA
ATOM     74  O   UNL A   1      47.938  37.538  27.466  1.00  0.00    -0.237 OA
ATOM     75  O   UNL A   1      46.127  37.806  29.117  1.00  0.00    -0.744 OA
ENDBRANCH  71  72
ENDBRANCH  50  64
BRANCH  51  76
ATOM     76  C   UNL A   1      43.471  23.249  26.876  1.00  0.00     0.058 A 
ATOM     77  C   UNL A   1      43.184  22.400  27.955  1.00  0.00     0.135 A 
ATOM     78  C   UNL A   1      43.326  22.728  25.581  1.00  0.00     0.135 A 
ATOM     79  F   UNL A   1      43.311  22.848  29.214  1.00  0.00    -0.206 F 
ATOM     80  C   UNL A   1      42.788  21.080  27.760  1.00  0.00     0.059 A 
ATOM     81  C   UNL A   1      42.904  21.421  25.359  1.00  0.00     0.059 A 
ATOM     82  F   UNL A   1      43.571  23.504  24.513  1.00  0.00    -0.206 F 
ATOM     83  C   UNL A   1      42.648  20.600  26.457  1.00  0.00     0.060 A 
BRANCH  83  84
ATOM     84  S   UNL A   1      42.090  18.900  26.215  1.00  0.00     0.124 S 
ATOM     85  O   UNL A   1      40.710  19.102  25.786  1.00  0.00    -0.237 OA
ATOM     86  O   UNL A   1      43.013  18.419  25.191  1.00  0.00    -0.237 OA
ATOM     87  O   UNL A   1      42.260  18.300  27.535  1.00  0.00    -0.744 OA
ENDBRANCH  83  84
ENDBRANCH  51  76
BRANCH  63  88
ATOM     88  C   UNL A   1      49.607  26.541  26.404  1.00  0.00     0.058 A 
ATOM     89  C   UNL A   1      50.165  26.699  25.126  1.00  0.00     0.135 A 
ATOM     90  C   UNL A   1      50.402  25.941  27.395  1.00  0.00     0.135 A 
ATOM     91  F   UNL A   1      49.447  27.263  24.140  1.00  0.00    -0.206 F 
ATOM     92  C   UNL A   1      51.447  26.246  24.831  1.00  0.00     0.059 A 
ATOM     93  C   UNL A   1      51.699  25.512  27.131  1.00  0.00     0.059 A 
ATOM     94  F   UNL A   1      49.924  25.776  28.639  1.00  0.00    -0.206 F 
ATOM     95  C   UNL A   1      52.206  25.652  25.841  1.00  0.00     0.060 A 
BRANCH  95  96
ATOM     96  S   UNL A   1      53.872  25.079  25.448  1.00  0.00     0.124 S 
ATOM     97  O   UNL A   1      53.653  23.650  25.251  1.00  0.00    -0.237 OA
ATOM     98  O   UNL A   1      54.189  25.843  24.244  1.00  0.00    -0.237 OA
ATOM     99  O   UNL A   1      54.644  25.440  26.633  1.00  0.00    -0.744 OA
ENDBRANCH  95  96
ENDBRANCH  63  88
ENDBRANCH  37  38
ENDBRANCH  29  32
ENDBRANCH  27  28
ENDBRANCH   1  27
TORSDOF 16
ENDMDL
MODEL 3
REMARK VINA RESULT:     -11.6      6.311     11.888
REMARK SMILES CN(C)C(=O)[C@@H]1CC=CC[C@H]1C(=O)N1CCC(C(=O)NCCCCNC(=O)c2ccc(-c3c4nc(c(-c5c(F)cc(S(=O)(=O)[O-])cc5F)c5ccc([nH]5)c(-c5c(F)cc(S(=O)(=O)[O-])cc5F)c5nc(c(-c6c(F)cc(S(=O)(=O)[O-])cc6F)c6ccc3[nH]6)C=C5)C=C4)cc2)CC1
REMARK SMILES IDX 23 1 22 2 21 3 20 4 18 5 19 6 17 8 12 9 13 10 14 11 15 12
REMARK SMILES IDX 95 13 16 14 94 15 11 16 6 17 7 18 8 19 10 20 9 21 4 22 1 23
REMARK SMILES IDX 2 24 3 25 5 26 24 27 25 28 26 29 27 31 28 32 29 33 93 34
REMARK SMILES IDX 30 35 92 36 31 37 32 38 33 39 86 40 34 41 91 42 85 43 87 44
REMARK SMILES IDX 35 45 90 46 84 47 83 48 36 50 70 51 49 52 69 53 50 54 53 55
REMARK SMILES IDX 68 56 88 57 51 58 52 59 67 61 89 62 54 63 37 64 38 65 47 66
REMARK SMILES IDX 39 67 40 68 46 69 48 70 41 71 42 72 43 73 44 74 45 75 71 76
REMARK SMILES IDX 72 77 81 78 73 79 74 80 80 81 82 82 75 83 76 84 77 85 78 86
REMARK SMILES IDX 79 87 55 88 56 89 65 90 57 91 58 92 64 93 66 94 59 95 60 96
REMARK SMILES IDX 61 97 62 98 63 99
REMARK H PARENT 20 7 25 30 87 49 53 60
REMARK Flexibility Score: inf
ROOT
ATOM      1  C   UNL A   1      35.601  33.646  29.388  1.00  0.00     0.023 C 
ENDROOT
BRANCH   1   2
ATOM      2  C   UNL A   1      35.340  33.021  28.019  1.00  0.00     0.023 C 
BRANCH   2   3
ATOM      3  C   UNL A   1      34.559  31.710  28.067  1.00  0.00     0.116 C 
BRANCH   3   4
ATOM      4  N   UNL A   1      33.270  31.831  27.400  1.00  0.00    -0.356 N 
ATOM      5  C   UNL A   1      32.449  30.878  26.879  1.00  0.00     0.223 C 
ATOM      6  O   UNL A   1      31.410  31.242  26.324  1.00  0.00    -0.275 OA
ATOM      7  H   UNL A   1      32.938  32.753  27.312  1.00  0.00     0.163 HD
BRANCH   5   8
ATOM      8  C   UNL A   1      32.773  29.396  27.006  1.00  0.00     0.082 C 
ATOM      9  C   UNL A   1      31.865  26.090  24.756  1.00  0.00     0.226 C 
ATOM     10  O   UNL A   1      30.681  26.305  24.476  1.00  0.00    -0.275 OA
ATOM     11  N   UNL A   1      32.484  26.804  25.769  1.00  0.00    -0.342 N 
ATOM     12  C   UNL A   1      31.746  27.073  26.995  1.00  0.00     0.120 C 
ATOM     13  C   UNL A   1      33.776  27.457  25.655  1.00  0.00     0.120 C 
ATOM     14  C   UNL A   1      31.511  28.553  27.225  1.00  0.00     0.035 C 
ATOM     15  C   UNL A   1      33.677  28.963  25.848  1.00  0.00     0.035 C 
BRANCH   9  16
ATOM     16  C   UNL A   1      32.527  24.790  24.242  1.00  0.00     0.095 C 
ATOM     17  C   UNL A   1      31.842  23.450  24.549  1.00  0.00     0.095 C 
ATOM     18  C   UNL A   1      32.231  22.232  23.684  1.00  0.00     0.041 C 
ATOM     19  C   UNL A   1      32.897  22.543  22.386  1.00  0.00    -0.030 C 
ATOM     20  C   UNL A   1      32.794  25.009  22.739  1.00  0.00     0.041 C 
ATOM     21  C   UNL A   1      33.153  23.784  21.964  1.00  0.00    -0.030 C 
BRANCH  17  22
ATOM     22  C   UNL A   1      31.919  23.066  26.029  1.00  0.00     0.226 C 
ATOM     23  C   UNL A   1      33.149  22.222  27.953  1.00  0.00     0.146 C 
ATOM     24  N   UNL A   1      33.148  22.864  26.646  1.00  0.00    -0.349 N 
ATOM     25  C   UNL A   1      34.426  23.427  26.227  1.00  0.00     0.146 C 
ATOM     26  O   UNL A   1      30.859  22.883  26.637  1.00  0.00    -0.275 OA
ENDBRANCH  17  22
ENDBRANCH   9  16
ENDBRANCH   5   8
ENDBRANCH   3   4
ENDBRANCH   2   3
ENDBRANCH   1   2
BRANCH   1  27
ATOM     27  C   UNL A   1      36.722  32.993  30.186  1.00  0.00     0.116 C 
BRANCH  27  28
ATOM     28  N   UNL A   1      36.274  31.839  30.949  1.00  0.00    -0.352 N 
ATOM     29  C   UNL A   1      36.868  30.607  31.087  1.00  0.00     0.251 C 
ATOM     30  H   UNL A   1      35.426  31.957  31.435  1.00  0.00     0.163 HD
ATOM     31  O   UNL A   1      36.271  29.699  31.650  1.00  0.00    -0.269 OA
BRANCH  29  32
ATOM     32  C   UNL A   1      38.217  30.379  30.524  1.00  0.00     0.039 A 
ATOM     33  C   UNL A   1      39.294  30.242  31.401  1.00  0.00     0.014 A 
ATOM     34  C   UNL A   1      38.418  30.284  29.145  1.00  0.00     0.014 A 
ATOM     35  C   UNL A   1      40.562  29.952  30.895  1.00  0.00     0.010 A 
ATOM     36  C   UNL A   1      39.663  29.907  28.649  1.00  0.00     0.010 A 
ATOM     37  C   UNL A   1      40.751  29.746  29.517  1.00  0.00    -0.014 A 
BRANCH  37  38
ATOM     38  C   UNL A   1      42.083  29.353  28.986  1.00  0.00     0.031 A 
ATOM     39  C   UNL A   1      42.328  27.947  28.506  1.00  0.00     0.074 A 
ATOM     40  C   UNL A   1      43.080  30.259  28.967  1.00  0.00     0.049 A 
ATOM     41  N   UNL A   1      43.417  27.430  27.997  1.00  0.00    -0.248 NA
ATOM     42  C   UNL A   1      41.216  26.991  28.635  1.00  0.00     0.031 C 
ATOM     43  C   UNL A   1      42.983  31.634  29.467  1.00  0.00     0.029 A 
ATOM     44  N   UNL A   1      44.370  30.166  28.509  1.00  0.00    -0.354 N 
ATOM     45  C   UNL A   1      43.124  26.093  27.752  1.00  0.00     0.074 A 
ATOM     46  C   UNL A   1      41.778  25.864  28.226  1.00  0.00     0.031 C 
ATOM     47  C   UNL A   1      44.148  32.264  29.250  1.00  0.00     0.029 A 
ATOM     48  C   UNL A   1      45.087  31.333  28.635  1.00  0.00     0.049 A 
ATOM     49  H   UNL A   1      44.747  29.341  28.127  1.00  0.00     0.167 HD
ATOM     50  C   UNL A   1      43.896  25.151  27.158  1.00  0.00     0.037 A 
ATOM     51  C   UNL A   1      46.357  31.622  28.290  1.00  0.00     0.037 A 
ATOM     52  C   UNL A   1      45.231  25.393  26.674  1.00  0.00     0.049 A 
ATOM     53  C   UNL A   1      47.193  30.560  27.628  1.00  0.00     0.074 A 
ATOM     54  C   UNL A   1      46.075  24.522  26.008  1.00  0.00     0.029 A 
ATOM     55  N   UNL A   1      45.919  26.591  26.810  1.00  0.00    -0.354 N 
ATOM     56  N   UNL A   1      46.872  29.323  27.332  1.00  0.00    -0.248 NA
ATOM     57  C   UNL A   1      48.560  30.936  27.243  1.00  0.00     0.031 C 
ATOM     58  C   UNL A   1      47.293  25.176  25.789  1.00  0.00     0.029 A 
ATOM     59  C   UNL A   1      47.186  26.474  26.261  1.00  0.00     0.049 A 
ATOM     60  H   UNL A   1      45.559  27.404  27.232  1.00  0.00     0.167 HD
ATOM     61  C   UNL A   1      47.987  28.781  26.700  1.00  0.00     0.074 A 
ATOM     62  C   UNL A   1      48.982  29.832  26.642  1.00  0.00     0.031 C 
ATOM     63  C   UNL A   1      48.168  27.530  26.210  1.00  0.00     0.037 A 
BRANCH  50  64
ATOM     64  C   UNL A   1      43.315  23.771  26.995  1.00  0.00     0.058 A 
ATOM     65  C   UNL A   1      42.920  23.279  25.739  1.00  0.00     0.135 A 
ATOM     66  C   UNL A   1      43.186  22.913  28.100  1.00  0.00     0.135 A 
ATOM     67  F   UNL A   1      43.006  24.059  24.649  1.00  0.00    -0.206 F 
ATOM     68  C   UNL A   1      42.394  22.000  25.589  1.00  0.00     0.059 A 
ATOM     69  C   UNL A   1      42.691  21.619  27.968  1.00  0.00     0.059 A 
ATOM     70  F   UNL A   1      43.545  23.330  29.324  1.00  0.00    -0.206 F 
ATOM     71  C   UNL A   1      42.284  21.176  26.711  1.00  0.00     0.060 A 
BRANCH  71  72
ATOM     72  S   UNL A   1      41.607  19.516  26.496  1.00  0.00     0.124 S 
ATOM     73  O   UNL A   1      41.978  18.884  27.758  1.00  0.00    -0.237 OA
ATOM     74  O   UNL A   1      40.184  19.781  26.314  1.00  0.00    -0.237 OA
ATOM     75  O   UNL A   1      42.305  19.014  25.316  1.00  0.00    -0.744 OA
ENDBRANCH  71  72
ENDBRANCH  50  64
BRANCH  51  76
ATOM     76  C   UNL A   1      46.903  32.984  28.537  1.00  0.00     0.058 A 
ATOM     77  C   UNL A   1      46.769  34.003  27.582  1.00  0.00     0.135 A 
ATOM     78  C   UNL A   1      47.558  33.299  29.738  1.00  0.00     0.135 A 
ATOM     79  F   UNL A   1      46.154  33.753  26.416  1.00  0.00    -0.206 F 
ATOM     80  C   UNL A   1      47.281  35.279  27.799  1.00  0.00     0.059 A 
ATOM     81  C   UNL A   1      48.054  34.574  29.990  1.00  0.00     0.059 A 
ATOM     82  F   UNL A   1      47.698  32.366  30.693  1.00  0.00    -0.206 F 
ATOM     83  C   UNL A   1      47.920  35.556  29.009  1.00  0.00     0.060 A 
BRANCH  83  84
ATOM     84  S   UNL A   1      48.541  37.226  29.298  1.00  0.00     0.124 S 
ATOM     85  O   UNL A   1      48.463  37.321  30.752  1.00  0.00    -0.237 OA
ATOM     86  O   UNL A   1      49.885  37.155  28.734  1.00  0.00    -0.237 OA
ATOM     87  O   UNL A   1      47.603  38.066  28.560  1.00  0.00    -0.744 OA
ENDBRANCH  83  84
ENDBRANCH  51  76
BRANCH  63  88
ATOM     88  C   UNL A   1      49.482  27.236  25.535  1.00  0.00     0.058 A 
ATOM     89  C   UNL A   1      49.653  27.376  24.149  1.00  0.00     0.135 A 
ATOM     90  C   UNL A   1      50.594  26.837  26.295  1.00  0.00     0.135 A 
ATOM     91  F   UNL A   1      48.621  27.750  23.375  1.00  0.00    -0.206 F 
ATOM     92  C   UNL A   1      50.869  27.095  23.535  1.00  0.00     0.059 A 
ATOM     93  C   UNL A   1      51.829  26.585  25.705  1.00  0.00     0.059 A 
ATOM     94  F   UNL A   1      50.491  26.700  27.626  1.00  0.00    -0.206 F 
ATOM     95  C   UNL A   1      51.952  26.698  24.322  1.00  0.00     0.060 A 
BRANCH  95  96
ATOM     96  S   UNL A   1      53.527  26.348  23.514  1.00  0.00     0.124 S 
ATOM     97  O   UNL A   1      54.237  27.610  23.693  1.00  0.00    -0.237 OA
ATOM     98  O   UNL A   1      54.033  25.220  24.290  1.00  0.00    -0.237 OA
ATOM     99  O   UNL A   1      53.142  26.034  22.141  1.00  0.00    -0.744 OA
ENDBRANCH  95  96
ENDBRANCH  63  88
ENDBRANCH  37  38
ENDBRANCH  29  32
ENDBRANCH  27  28
ENDBRANCH   1  27
TORSDOF 16
ENDMDL
