MODEL 1
REMARK VINA RESULT:     -11.8      0.000      0.000
REMARK SMILES CN(C(=O)c1cccn1CC(=O)NCCCCNC(=O)c1ccc(-c2c3nc(c(-c4c(F)cc(S(=O)(=O)[O-])cc4F)c4ccc([nH]4)c(-c4c(F)cc(S(=O)(=O)[O-])cc4F)c4nc(c(-c5c(F)cc(S(=O)(=O)[O-])cc5F)c5ccc2[nH]5)C=C4)C=C3)cc1)C1CCC(C)(C)CC1
REMARK SMILES IDX 15 1 14 2 13 3 11 4 12 5 10 7 9 8 5 9 6 10 7 11 8 12 3 13
REMARK SMILES IDX 4 14 2 15 1 16 87 17 88 18 94 19 89 20 93 21 90 22 91 23
REMARK SMILES IDX 92 24 16 25 17 26 18 27 19 28 20 30 21 31 22 32 86 33 23 34
REMARK SMILES IDX 85 35 24 36 25 37 26 38 79 39 27 40 84 41 78 42 80 43 28 44
REMARK SMILES IDX 83 45 77 46 76 47 29 49 63 50 42 51 62 52 43 53 46 54 61 55
REMARK SMILES IDX 81 56 44 57 45 58 60 60 82 61 47 62 30 63 31 64 40 65 32 66
REMARK SMILES IDX 33 67 39 68 41 69 34 70 35 71 36 72 37 73 38 74 64 75 65 76
REMARK SMILES IDX 74 77 66 78 67 79 73 80 75 81 68 82 69 83 70 84 71 85 72 86
REMARK SMILES IDX 48 87 49 88 58 89 50 90 51 91 57 92 59 93 52 94 53 95 54 96
REMARK SMILES IDX 55 97 56 98
REMARK H PARENT 13 6 18 29 80 48 46 59
REMARK Flexibility Score: inf
ROOT
ATOM      1  C   UNL A   1      32.379  29.382  26.052  1.00  0.00     0.023 C 
ENDROOT
BRANCH   1   2
ATOM      2  C   UNL A   1      33.712  28.765  25.633  1.00  0.00     0.116 C 
BRANCH   2   3
ATOM      3  N   UNL A   1      33.972  28.917  24.217  1.00  0.00    -0.355 N 
ATOM      4  C   UNL A   1      33.754  28.021  23.209  1.00  0.00     0.239 C 
ATOM      5  O   UNL A   1      34.070  28.341  22.061  1.00  0.00    -0.273 OA
ATOM      6  H   UNL A   1      34.357  29.782  23.944  1.00  0.00     0.163 HD
BRANCH   4   7
ATOM      7  C   UNL A   1      33.114  26.676  23.502  1.00  0.00     0.222 C 
BRANCH   7   8
ATOM      8  N   UNL A   1      31.665  26.752  23.644  1.00  0.00    -0.334 N 
ATOM      9  C   UNL A   1      30.894  26.065  24.571  1.00  0.00     0.107 A 
ATOM     10  C   UNL A   1      29.591  26.514  24.403  1.00  0.00     0.033 A 
ATOM     11  C   UNL A   1      29.564  27.415  23.313  1.00  0.00     0.020 A 
ATOM     12  C   UNL A   1      30.858  27.559  22.877  1.00  0.00     0.087 A 
BRANCH   9  13
ATOM     13  C   UNL A   1      31.440  25.161  25.577  1.00  0.00     0.270 C 
ATOM     14  O   UNL A   1      31.531  25.564  26.731  1.00  0.00    -0.267 OA
BRANCH  13  15
ATOM     15  N   UNL A   1      31.916  23.894  25.166  1.00  0.00    -0.337 N 
ATOM     16  C   UNL A   1      31.231  23.150  24.109  1.00  0.00     0.147 C 
BRANCH  15  17
ATOM     17  C   UNL A   1      32.870  23.101  26.013  1.00  0.00     0.085 C 
ATOM     18  C   UNL A   1      33.270  21.737  25.380  1.00  0.00     0.026 C 
ATOM     19  C   UNL A   1      34.196  23.775  26.434  1.00  0.00     0.026 C 
ATOM     20  C   UNL A   1      34.220  21.902  24.179  1.00  0.00     0.008 C 
ATOM     21  C   UNL A   1      35.158  23.977  25.266  1.00  0.00     0.008 C 
ATOM     22  C   UNL A   1      35.518  22.663  24.546  1.00  0.00    -0.035 C 
ATOM     23  C   UNL A   1      36.331  23.017  23.292  1.00  0.00     0.011 C 
ATOM     24  C   UNL A   1      36.426  21.766  25.411  1.00  0.00     0.011 C 
ENDBRANCH  15  17
ENDBRANCH  13  15
ENDBRANCH   9  13
ENDBRANCH   7   8
ENDBRANCH   4   7
ENDBRANCH   2   3
ENDBRANCH   1   2
BRANCH   1  25
ATOM     25  C   UNL A   1      32.497  30.695  26.837  1.00  0.00     0.023 C 
BRANCH  25  26
ATOM     26  C   UNL A   1      33.880  30.961  27.439  1.00  0.00     0.116 C 
BRANCH  26  27
ATOM     27  N   UNL A   1      33.863  32.064  28.389  1.00  0.00    -0.352 N 
ATOM     28  C   UNL A   1      34.650  32.282  29.495  1.00  0.00     0.251 C 
ATOM     29  H   UNL A   1      33.187  32.759  28.213  1.00  0.00     0.163 HD
ATOM     30  O   UNL A   1      34.257  33.068  30.356  1.00  0.00    -0.269 OA
BRANCH  28  31
ATOM     31  C   UNL A   1      35.950  31.597  29.674  1.00  0.00     0.039 A 
ATOM     32  C   UNL A   1      37.026  31.950  28.853  1.00  0.00     0.014 A 
ATOM     33  C   UNL A   1      36.091  30.543  30.577  1.00  0.00     0.014 A 
ATOM     34  C   UNL A   1      38.251  31.294  28.993  1.00  0.00     0.010 A 
ATOM     35  C   UNL A   1      37.308  29.879  30.719  1.00  0.00     0.010 A 
ATOM     36  C   UNL A   1      38.398  30.273  29.944  1.00  0.00    -0.014 A 
BRANCH  36  37
ATOM     37  C   UNL A   1      39.761  29.772  30.256  1.00  0.00     0.031 A 
ATOM     38  C   UNL A   1      40.545  30.787  31.112  1.00  0.00     0.074 A 
ATOM     39  C   UNL A   1      40.135  28.568  29.724  1.00  0.00     0.049 A 
ATOM     40  N   UNL A   1      41.804  31.100  31.106  1.00  0.00    -0.248 NA
ATOM     41  C   UNL A   1      39.783  31.670  32.040  1.00  0.00     0.031 C 
ATOM     42  C   UNL A   1      39.235  27.664  28.976  1.00  0.00     0.029 A 
ATOM     43  N   UNL A   1      41.319  27.856  29.693  1.00  0.00    -0.354 N 
ATOM     44  C   UNL A   1      42.014  32.069  32.118  1.00  0.00     0.074 A 
ATOM     45  C   UNL A   1      40.715  32.464  32.570  1.00  0.00     0.031 C 
ATOM     46  C   UNL A   1      39.908  26.593  28.506  1.00  0.00     0.029 A 
ATOM     47  C   UNL A   1      41.305  26.682  28.887  1.00  0.00     0.049 A 
ATOM     48  H   UNL A   1      42.117  28.140  30.193  1.00  0.00     0.167 HD
ATOM     49  C   UNL A   1      43.247  32.408  32.601  1.00  0.00     0.037 A 
ATOM     50  C   UNL A   1      42.352  25.881  28.501  1.00  0.00     0.037 A 
ATOM     51  C   UNL A   1      44.249  31.650  31.931  1.00  0.00     0.049 A 
ATOM     52  C   UNL A   1      43.532  26.446  29.173  1.00  0.00     0.074 A 
ATOM     53  C   UNL A   1      44.790  31.727  30.676  1.00  0.00     0.029 A 
ATOM     54  N   UNL A   1      44.583  30.441  32.491  1.00  0.00    -0.354 N 
ATOM     55  N   UNL A   1      43.809  26.323  30.437  1.00  0.00    -0.248 NA
ATOM     56  C   UNL A   1      44.435  27.297  28.385  1.00  0.00     0.031 C 
ATOM     57  C   UNL A   1      45.050  30.383  30.341  1.00  0.00     0.029 A 
ATOM     58  C   UNL A   1      44.820  29.569  31.457  1.00  0.00     0.049 A 
ATOM     59  H   UNL A   1      44.640  30.237  33.453  1.00  0.00     0.167 HD
ATOM     60  C   UNL A   1      44.723  27.329  30.638  1.00  0.00     0.074 A 
ATOM     61  C   UNL A   1      45.282  27.652  29.346  1.00  0.00     0.031 C 
ATOM     62  C   UNL A   1      44.587  28.163  31.695  1.00  0.00     0.037 A 
BRANCH  49  63
ATOM     63  C   UNL A   1      43.696  33.217  33.792  1.00  0.00     0.058 A 
ATOM     64  C   UNL A   1      43.397  32.722  35.088  1.00  0.00     0.135 A 
ATOM     65  C   UNL A   1      44.099  34.559  33.729  1.00  0.00     0.135 A 
ATOM     66  F   UNL A   1      43.070  31.432  35.274  1.00  0.00    -0.206 F 
ATOM     67  C   UNL A   1      43.358  33.534  36.217  1.00  0.00     0.059 A 
ATOM     68  C   UNL A   1      44.110  35.384  34.861  1.00  0.00     0.059 A 
ATOM     69  F   UNL A   1      44.419  35.130  32.560  1.00  0.00    -0.206 F 
ATOM     70  C   UNL A   1      43.683  34.876  36.087  1.00  0.00     0.060 A 
BRANCH  70  71
ATOM     71  S   UNL A   1      43.498  35.943  37.532  1.00  0.00     0.124 S 
ATOM     72  O   UNL A   1      44.003  35.088  38.600  1.00  0.00    -0.237 OA
ATOM     73  O   UNL A   1      44.341  37.083  37.185  1.00  0.00    -0.237 OA
ATOM     74  O   UNL A   1      42.066  36.221  37.564  1.00  0.00    -0.744 OA
ENDBRANCH  70  71
ENDBRANCH  49  63
BRANCH  50  75
ATOM     75  C   UNL A   1      42.623  24.761  27.505  1.00  0.00     0.058 A 
ATOM     76  C   UNL A   1      42.624  24.866  26.108  1.00  0.00     0.135 A 
ATOM     77  C   UNL A   1      43.018  23.474  27.981  1.00  0.00     0.135 A 
ATOM     78  F   UNL A   1      42.123  25.944  25.495  1.00  0.00    -0.206 F 
ATOM     79  C   UNL A   1      43.142  23.855  25.272  1.00  0.00     0.059 A 
ATOM     80  C   UNL A   1      43.575  22.477  27.183  1.00  0.00     0.059 A 
ATOM     81  F   UNL A   1      42.904  23.128  29.270  1.00  0.00    -0.206 F 
ATOM     82  C   UNL A   1      43.670  22.689  25.825  1.00  0.00     0.060 A 
BRANCH  82  83
ATOM     83  S   UNL A   1      44.588  21.504  24.815  1.00  0.00     0.124 S 
ATOM     84  O   UNL A   1      43.812  20.283  24.995  1.00  0.00    -0.237 OA
ATOM     85  O   UNL A   1      44.528  22.107  23.488  1.00  0.00    -0.237 OA
ATOM     86  O   UNL A   1      45.915  21.505  25.428  1.00  0.00    -0.744 OA
ENDBRANCH  82  83
ENDBRANCH  50  75
BRANCH  62  87
ATOM     87  C   UNL A   1      43.847  27.568  32.874  1.00  0.00     0.058 A 
ATOM     88  C   UNL A   1      42.519  27.947  33.119  1.00  0.00     0.135 A 
ATOM     89  C   UNL A   1      44.430  26.702  33.817  1.00  0.00     0.135 A 
ATOM     90  F   UNL A   1      41.897  28.783  32.272  1.00  0.00    -0.206 F 
ATOM     91  C   UNL A   1      41.803  27.479  34.222  1.00  0.00     0.059 A 
ATOM     92  C   UNL A   1      43.733  26.207  34.923  1.00  0.00     0.059 A 
ATOM     93  F   UNL A   1      45.704  26.323  33.692  1.00  0.00    -0.206 F 
ATOM     94  C   UNL A   1      42.415  26.602  35.118  1.00  0.00     0.060 A 
BRANCH  94  95
ATOM     95  S   UNL A   1      41.456  25.976  36.516  1.00  0.00     0.124 S 
ATOM     96  O   UNL A   1      40.423  25.185  35.856  1.00  0.00    -0.237 OA
ATOM     97  O   UNL A   1      42.457  25.217  37.257  1.00  0.00    -0.237 OA
ATOM     98  O   UNL A   1      40.978  27.189  37.178  1.00  0.00    -0.744 OA
ENDBRANCH  94  95
ENDBRANCH  62  87
ENDBRANCH  36  37
ENDBRANCH  28  31
ENDBRANCH  26  27
ENDBRANCH  25  26
ENDBRANCH   1  25
TORSDOF 18
ENDMDL
MODEL 2
REMARK VINA RESULT:     -11.8      1.804      2.446
REMARK SMILES CN(C(=O)c1cccn1CC(=O)NCCCCNC(=O)c1ccc(-c2c3nc(c(-c4c(F)cc(S(=O)(=O)[O-])cc4F)c4ccc([nH]4)c(-c4c(F)cc(S(=O)(=O)[O-])cc4F)c4nc(c(-c5c(F)cc(S(=O)(=O)[O-])cc5F)c5ccc2[nH]5)C=C4)C=C3)cc1)C1CCC(C)(C)CC1
REMARK SMILES IDX 15 1 14 2 13 3 11 4 12 5 10 7 9 8 5 9 6 10 7 11 8 12 3 13
REMARK SMILES IDX 4 14 2 15 1 16 87 17 88 18 94 19 89 20 93 21 90 22 91 23
REMARK SMILES IDX 92 24 16 25 17 26 18 27 19 28 20 30 21 31 22 32 86 33 23 34
REMARK SMILES IDX 85 35 24 36 25 37 26 38 79 39 27 40 84 41 78 42 80 43 28 44
REMARK SMILES IDX 83 45 77 46 76 47 29 49 63 50 42 51 62 52 43 53 46 54 61 55
REMARK SMILES IDX 81 56 44 57 45 58 60 60 82 61 47 62 30 63 31 64 40 65 32 66
REMARK SMILES IDX 33 67 39 68 41 69 34 70 35 71 36 72 37 73 38 74 64 75 65 76
REMARK SMILES IDX 74 77 66 78 67 79 73 80 75 81 68 82 69 83 70 84 71 85 72 86
REMARK SMILES IDX 48 87 49 88 58 89 50 90 51 91 57 92 59 93 52 94 53 95 54 96
REMARK SMILES IDX 55 97 56 98
REMARK H PARENT 13 6 18 29 80 48 46 59
REMARK Flexibility Score: inf
ROOT
ATOM      1  C   UNL A   1      33.275  29.370  24.900  1.00  0.00     0.023 C 
ENDROOT
BRANCH   1   2
ATOM      2  C   UNL A   1      33.375  28.864  23.462  1.00  0.00     0.116 C 
BRANCH   2   3
ATOM      3  N   UNL A   1      32.133  29.018  22.734  1.00  0.00    -0.355 N 
ATOM      4  C   UNL A   1      31.064  28.169  22.683  1.00  0.00     0.239 C 
ATOM      5  O   UNL A   1      30.102  28.479  21.977  1.00  0.00    -0.273 OA
ATOM      6  H   UNL A   1      32.048  29.845  22.205  1.00  0.00     0.163 HD
BRANCH   4   7
ATOM      7  C   UNL A   1      31.059  26.890  23.500  1.00  0.00     0.222 C 
BRANCH   7   8
ATOM      8  N   UNL A   1      31.818  25.811  22.877  1.00  0.00    -0.334 N 
ATOM      9  C   UNL A   1      32.136  24.591  23.456  1.00  0.00     0.107 A 
ATOM     10  C   UNL A   1      32.778  23.850  22.472  1.00  0.00     0.033 A 
ATOM     11  C   UNL A   1      32.919  24.659  21.321  1.00  0.00     0.020 A 
ATOM     12  C   UNL A   1      32.301  25.856  21.590  1.00  0.00     0.087 A 
BRANCH   9  13
ATOM     13  C   UNL A   1      31.729  24.193  24.799  1.00  0.00     0.270 C 
ATOM     14  O   UNL A   1      30.983  24.938  25.424  1.00  0.00    -0.267 OA
BRANCH  13  15
ATOM     15  N   UNL A   1      32.274  23.011  25.352  1.00  0.00    -0.337 N 
ATOM     16  C   UNL A   1      31.492  21.776  25.387  1.00  0.00     0.147 C 
BRANCH  15  17
ATOM     17  C   UNL A   1      33.481  23.048  26.246  1.00  0.00     0.085 C 
ATOM     18  C   UNL A   1      34.364  21.771  26.144  1.00  0.00     0.026 C 
ATOM     19  C   UNL A   1      34.451  24.243  26.104  1.00  0.00     0.026 C 
ATOM     20  C   UNL A   1      35.148  21.702  24.820  1.00  0.00     0.008 C 
ATOM     21  C   UNL A   1      35.232  24.224  24.793  1.00  0.00     0.008 C 
ATOM     22  C   UNL A   1      36.057  22.935  24.601  1.00  0.00    -0.035 C 
ATOM     23  C   UNL A   1      36.639  22.954  23.179  1.00  0.00     0.011 C 
ATOM     24  C   UNL A   1      37.262  22.879  25.561  1.00  0.00     0.011 C 
ENDBRANCH  15  17
ENDBRANCH  13  15
ENDBRANCH   9  13
ENDBRANCH   7   8
ENDBRANCH   4   7
ENDBRANCH   2   3
ENDBRANCH   1   2
BRANCH   1  25
ATOM     25  C   UNL A   1      33.789  28.390  25.963  1.00  0.00     0.023 C 
BRANCH  25  26
ATOM     26  C   UNL A   1      33.411  28.749  27.404  1.00  0.00     0.116 C 
BRANCH  26  27
ATOM     27  N   UNL A   1      33.578  30.169  27.678  1.00  0.00    -0.352 N 
ATOM     28  C   UNL A   1      34.607  30.826  28.310  1.00  0.00     0.251 C 
ATOM     29  H   UNL A   1      32.844  30.746  27.363  1.00  0.00     0.163 HD
ATOM     30  O   UNL A   1      34.406  31.955  28.754  1.00  0.00    -0.269 OA
BRANCH  28  31
ATOM     31  C   UNL A   1      35.944  30.209  28.467  1.00  0.00     0.039 A 
ATOM     32  C   UNL A   1      36.814  30.175  27.373  1.00  0.00     0.014 A 
ATOM     33  C   UNL A   1      36.311  29.580  29.657  1.00  0.00     0.014 A 
ATOM     34  C   UNL A   1      38.068  29.574  27.500  1.00  0.00     0.010 A 
ATOM     35  C   UNL A   1      37.558  28.971  29.790  1.00  0.00     0.010 A 
ATOM     36  C   UNL A   1      38.449  28.992  28.718  1.00  0.00    -0.014 A 
BRANCH  36  37
ATOM     37  C   UNL A   1      39.867  28.594  28.912  1.00  0.00     0.031 A 
ATOM     38  C   UNL A   1      40.713  29.779  29.421  1.00  0.00     0.074 A 
ATOM     39  C   UNL A   1      40.221  27.315  28.578  1.00  0.00     0.049 A 
ATOM     40  N   UNL A   1      41.940  30.110  29.161  1.00  0.00    -0.248 NA
ATOM     41  C   UNL A   1      40.049  30.815  30.260  1.00  0.00     0.031 C 
ATOM     42  C   UNL A   1      39.270  26.259  28.171  1.00  0.00     0.029 A 
ATOM     43  N   UNL A   1      41.423  26.637  28.510  1.00  0.00    -0.354 N 
ATOM     44  C   UNL A   1      42.244  31.269  29.918  1.00  0.00     0.074 A 
ATOM     45  C   UNL A   1      41.006  31.721  30.474  1.00  0.00     0.031 C 
ATOM     46  C   UNL A   1      39.923  25.129  27.826  1.00  0.00     0.029 A 
ATOM     47  C   UNL A   1      41.354  25.324  27.964  1.00  0.00     0.049 A 
ATOM     48  H   UNL A   1      42.270  27.034  28.817  1.00  0.00     0.167 HD
ATOM     49  C   UNL A   1      43.515  31.726  30.130  1.00  0.00     0.037 A 
ATOM     50  C   UNL A   1      42.373  24.483  27.590  1.00  0.00     0.037 A 
ATOM     51  C   UNL A   1      44.447  30.869  29.479  1.00  0.00     0.049 A 
ATOM     52  C   UNL A   1      43.608  25.198  27.950  1.00  0.00     0.074 A 
ATOM     53  C   UNL A   1      44.796  30.700  28.166  1.00  0.00     0.029 A 
ATOM     54  N   UNL A   1      44.920  29.807  30.210  1.00  0.00    -0.354 N 
ATOM     55  N   UNL A   1      44.071  25.341  29.155  1.00  0.00    -0.248 NA
ATOM     56  C   UNL A   1      44.343  25.890  26.880  1.00  0.00     0.031 C 
ATOM     57  C   UNL A   1      45.074  29.321  28.069  1.00  0.00     0.029 A 
ATOM     58  C   UNL A   1      45.050  28.748  29.346  1.00  0.00     0.049 A 
ATOM     59  H   UNL A   1      45.127  29.805  31.173  1.00  0.00     0.167 HD
ATOM     60  C   UNL A   1      44.951  26.386  29.011  1.00  0.00     0.074 A 
ATOM     61  C   UNL A   1      45.300  26.451  27.612  1.00  0.00     0.031 C 
ATOM     62  C   UNL A   1      44.927  27.415  29.891  1.00  0.00     0.037 A 
BRANCH  49  63
ATOM     63  C   UNL A   1      44.089  32.770  31.055  1.00  0.00     0.058 A 
ATOM     64  C   UNL A   1      43.909  32.597  32.452  1.00  0.00     0.135 A 
ATOM     65  C   UNL A   1      44.504  34.045  30.646  1.00  0.00     0.135 A 
ATOM     66  F   UNL A   1      43.583  31.398  32.962  1.00  0.00    -0.206 F 
ATOM     67  C   UNL A   1      43.992  33.648  33.360  1.00  0.00     0.059 A 
ATOM     68  C   UNL A   1      44.636  35.108  31.549  1.00  0.00     0.059 A 
ATOM     69  F   UNL A   1      44.718  34.320  29.351  1.00  0.00    -0.206 F 
ATOM     70  C   UNL A   1      44.322  34.911  32.893  1.00  0.00     0.060 A 
BRANCH  70  71
ATOM     71  S   UNL A   1      44.295  36.288  34.061  1.00  0.00     0.124 S 
ATOM     72  O   UNL A   1      45.416  35.960  34.935  1.00  0.00    -0.237 OA
ATOM     73  O   UNL A   1      44.492  37.441  33.186  1.00  0.00    -0.237 OA
ATOM     74  O   UNL A   1      42.969  36.190  34.665  1.00  0.00    -0.744 OA
ENDBRANCH  70  71
ENDBRANCH  49  63
BRANCH  50  75
ATOM     75  C   UNL A   1      42.556  23.190  26.807  1.00  0.00     0.058 A 
ATOM     76  C   UNL A   1      43.222  23.040  25.584  1.00  0.00     0.135 A 
ATOM     77  C   UNL A   1      42.110  21.955  27.368  1.00  0.00     0.135 A 
ATOM     78  F   UNL A   1      43.557  24.103  24.843  1.00  0.00    -0.206 F 
ATOM     79  C   UNL A   1      43.574  21.778  25.061  1.00  0.00     0.059 A 
ATOM     80  C   UNL A   1      42.482  20.697  26.899  1.00  0.00     0.059 A 
ATOM     81  F   UNL A   1      41.300  21.912  28.435  1.00  0.00    -0.206 F 
ATOM     82  C   UNL A   1      43.250  20.615  25.758  1.00  0.00     0.060 A 
BRANCH  82  83
ATOM     83  S   UNL A   1      43.921  19.010  25.268  1.00  0.00     0.124 S 
ATOM     84  O   UNL A   1      43.050  18.084  25.981  1.00  0.00    -0.237 OA
ATOM     85  O   UNL A   1      43.774  19.036  23.817  1.00  0.00    -0.237 OA
ATOM     86  O   UNL A   1      45.302  19.070  25.744  1.00  0.00    -0.744 OA
ENDBRANCH  82  83
ENDBRANCH  50  75
BRANCH  62  87
ATOM     87  C   UNL A   1      44.397  27.057  31.262  1.00  0.00     0.058 A 
ATOM     88  C   UNL A   1      45.143  26.209  32.093  1.00  0.00     0.135 A 
ATOM     89  C   UNL A   1      43.138  27.455  31.751  1.00  0.00     0.135 A 
ATOM     90  F   UNL A   1      46.349  25.774  31.690  1.00  0.00    -0.206 F 
ATOM     91  C   UNL A   1      44.681  25.794  33.343  1.00  0.00     0.059 A 
ATOM     92  C   UNL A   1      42.656  27.066  33.004  1.00  0.00     0.059 A 
ATOM     93  F   UNL A   1      42.338  28.225  31.012  1.00  0.00    -0.206 F 
ATOM     94  C   UNL A   1      43.437  26.233  33.796  1.00  0.00     0.060 A 
BRANCH  94  95
ATOM     95  S   UNL A   1      42.877  25.718  35.435  1.00  0.00     0.124 S 
ATOM     96  O   UNL A   1      41.486  26.157  35.442  1.00  0.00    -0.237 OA
ATOM     97  O   UNL A   1      43.083  24.275  35.388  1.00  0.00    -0.237 OA
ATOM     98  O   UNL A   1      43.760  26.444  36.347  1.00  0.00    -0.744 OA
ENDBRANCH  94  95
ENDBRANCH  62  87
ENDBRANCH  36  37
ENDBRANCH  28  31
ENDBRANCH  26  27
ENDBRANCH  25  26
ENDBRANCH   1  25
TORSDOF 18
ENDMDL
MODEL 3
REMARK VINA RESULT:     -11.7      1.185      1.698
REMARK SMILES CN(C(=O)c1cccn1CC(=O)NCCCCNC(=O)c1ccc(-c2c3nc(c(-c4c(F)cc(S(=O)(=O)[O-])cc4F)c4ccc([nH]4)c(-c4c(F)cc(S(=O)(=O)[O-])cc4F)c4nc(c(-c5c(F)cc(S(=O)(=O)[O-])cc5F)c5ccc2[nH]5)C=C4)C=C3)cc1)C1CCC(C)(C)CC1
REMARK SMILES IDX 15 1 14 2 13 3 11 4 12 5 10 7 9 8 5 9 6 10 7 11 8 12 3 13
REMARK SMILES IDX 4 14 2 15 1 16 87 17 88 18 94 19 89 20 93 21 90 22 91 23
REMARK SMILES IDX 92 24 16 25 17 26 18 27 19 28 20 30 21 31 22 32 86 33 23 34
REMARK SMILES IDX 85 35 24 36 25 37 26 38 79 39 27 40 84 41 78 42 80 43 28 44
REMARK SMILES IDX 83 45 77 46 76 47 29 49 63 50 42 51 62 52 43 53 46 54 61 55
REMARK SMILES IDX 81 56 44 57 45 58 60 60 82 61 47 62 30 63 31 64 40 65 32 66
REMARK SMILES IDX 33 67 39 68 41 69 34 70 35 71 36 72 37 73 38 74 64 75 65 76
REMARK SMILES IDX 74 77 66 78 67 79 73 80 75 81 68 82 69 83 70 84 71 85 72 86
REMARK SMILES IDX 48 87 49 88 58 89 50 90 51 91 57 92 59 93 52 94 53 95 54 96
REMARK SMILES IDX 55 97 56 98
REMARK H PARENT 13 6 18 29 80 48 46 59
REMARK Flexibility Score: inf
ROOT
ATOM      1  C   UNL A   1      35.108  30.347  27.561  1.00  0.00     0.023 C 
ENDROOT
BRANCH   1   2
ATOM      2  C   UNL A   1      34.603  28.963  27.157  1.00  0.00     0.116 C 
BRANCH   2   3
ATOM      3  N   UNL A   1      33.295  28.670  27.704  1.00  0.00    -0.355 N 
ATOM      4  C   UNL A   1      32.291  27.920  27.158  1.00  0.00     0.239 C 
ATOM      5  O   UNL A   1      31.233  27.814  27.783  1.00  0.00    -0.273 OA
ATOM      6  H   UNL A   1      33.103  29.065  28.586  1.00  0.00     0.163 HD
BRANCH   4   7
ATOM      7  C   UNL A   1      32.492  27.219  25.828  1.00  0.00     0.222 C 
BRANCH   7   8
ATOM      8  N   UNL A   1      31.353  27.362  24.928  1.00  0.00    -0.334 N 
ATOM      9  C   UNL A   1      30.341  26.434  24.731  1.00  0.00     0.107 A 
ATOM     10  C   UNL A   1      29.430  27.029  23.868  1.00  0.00     0.033 A 
ATOM     11  C   UNL A   1      29.938  28.290  23.480  1.00  0.00     0.020 A 
ATOM     12  C   UNL A   1      31.114  28.480  24.163  1.00  0.00     0.087 A 
BRANCH   9  13
ATOM     13  C   UNL A   1      30.258  25.156  25.429  1.00  0.00     0.270 C 
ATOM     14  O   UNL A   1      29.699  25.126  26.519  1.00  0.00    -0.267 OA
BRANCH  13  15
ATOM     15  N   UNL A   1      30.894  24.028  24.860  1.00  0.00    -0.337 N 
ATOM     16  C   UNL A   1      30.690  23.690  23.451  1.00  0.00     0.147 C 
BRANCH  15  17
ATOM     17  C   UNL A   1      31.476  22.940  25.717  1.00  0.00     0.085 C 
ATOM     18  C   UNL A   1      32.142  21.797  24.897  1.00  0.00     0.026 C 
ATOM     19  C   UNL A   1      32.509  23.341  26.795  1.00  0.00     0.026 C 
ATOM     20  C   UNL A   1      33.475  22.230  24.260  1.00  0.00     0.008 C 
ATOM     21  C   UNL A   1      33.839  23.799  26.203  1.00  0.00     0.008 C 
ATOM     22  C   UNL A   1      34.499  22.732  25.307  1.00  0.00    -0.035 C 
ATOM     23  C   UNL A   1      35.720  23.373  24.630  1.00  0.00     0.011 C 
ATOM     24  C   UNL A   1      35.036  21.544  26.130  1.00  0.00     0.011 C 
ENDBRANCH  15  17
ENDBRANCH  13  15
ENDBRANCH   9  13
ENDBRANCH   7   8
ENDBRANCH   4   7
ENDBRANCH   2   3
ENDBRANCH   1   2
BRANCH   1  25
ATOM     25  C   UNL A   1      34.028  31.434  27.623  1.00  0.00     0.023 C 
BRANCH  25  26
ATOM     26  C   UNL A   1      34.540  32.829  27.995  1.00  0.00     0.116 C 
BRANCH  26  27
ATOM     27  N   UNL A   1      34.212  33.186  29.368  1.00  0.00    -0.352 N 
ATOM     28  C   UNL A   1      34.730  32.705  30.547  1.00  0.00     0.251 C 
ATOM     29  H   UNL A   1      33.516  33.876  29.466  1.00  0.00     0.163 HD
ATOM     30  O   UNL A   1      34.088  32.865  31.585  1.00  0.00    -0.269 OA
BRANCH  28  31
ATOM     31  C   UNL A   1      36.032  32.002  30.598  1.00  0.00     0.039 A 
ATOM     32  C   UNL A   1      37.101  32.490  29.839  1.00  0.00     0.014 A 
ATOM     33  C   UNL A   1      36.181  30.813  31.311  1.00  0.00     0.014 A 
ATOM     34  C   UNL A   1      38.327  31.823  29.857  1.00  0.00     0.010 A 
ATOM     35  C   UNL A   1      37.400  30.137  31.329  1.00  0.00     0.010 A 
ATOM     36  C   UNL A   1      38.484  30.657  30.622  1.00  0.00    -0.014 A 
BRANCH  36  37
ATOM     37  C   UNL A   1      39.849  30.114  30.834  1.00  0.00     0.031 A 
ATOM     38  C   UNL A   1      40.708  31.080  31.675  1.00  0.00     0.074 A 
ATOM     39  C   UNL A   1      40.160  28.921  30.241  1.00  0.00     0.049 A 
ATOM     40  N   UNL A   1      41.972  31.363  31.603  1.00  0.00    -0.248 NA
ATOM     41  C   UNL A   1      40.026  31.948  32.676  1.00  0.00     0.031 C 
ATOM     42  C   UNL A   1      39.194  28.065  29.520  1.00  0.00     0.029 A 
ATOM     43  N   UNL A   1      41.321  28.182  30.115  1.00  0.00    -0.354 N 
ATOM     44  C   UNL A   1      42.267  32.292  32.632  1.00  0.00     0.074 A 
ATOM     45  C   UNL A   1      41.008  32.702  33.174  1.00  0.00     0.031 C 
ATOM     46  C   UNL A   1      39.811  26.994  28.975  1.00  0.00     0.029 A 
ATOM     47  C   UNL A   1      41.230  27.038  29.274  1.00  0.00     0.049 A 
ATOM     48  H   UNL A   1      42.155  28.431  30.576  1.00  0.00     0.167 HD
ATOM     49  C   UNL A   1      43.535  32.585  33.050  1.00  0.00     0.037 A 
ATOM     50  C   UNL A   1      42.231  26.227  28.798  1.00  0.00     0.037 A 
ATOM     51  C   UNL A   1      44.475  31.828  32.296  1.00  0.00     0.049 A 
ATOM     52  C   UNL A   1      43.464  26.740  29.417  1.00  0.00     0.074 A 
ATOM     53  C   UNL A   1      44.942  31.935  31.014  1.00  0.00     0.029 A 
ATOM     54  N   UNL A   1      44.811  30.593  32.795  1.00  0.00    -0.354 N 
ATOM     55  N   UNL A   1      43.812  26.567  30.657  1.00  0.00    -0.248 NA
ATOM     56  C   UNL A   1      44.340  27.597  28.604  1.00  0.00     0.031 C 
ATOM     57  C   UNL A   1      45.147  30.598  30.620  1.00  0.00     0.029 A 
ATOM     58  C   UNL A   1      44.964  29.752  31.721  1.00  0.00     0.049 A 
ATOM     59  H   UNL A   1      44.921  30.355  33.745  1.00  0.00     0.167 HD
ATOM     60  C   UNL A   1      44.762  27.544  30.835  1.00  0.00     0.074 A 
ATOM     61  C   UNL A   1      45.250  27.898  29.523  1.00  0.00     0.031 C 
ATOM     62  C   UNL A   1      44.710  28.345  31.926  1.00  0.00     0.037 A 
BRANCH  49  63
ATOM     63  C   UNL A   1      44.075  33.342  34.238  1.00  0.00     0.058 A 
ATOM     64  C   UNL A   1      43.724  32.887  35.537  1.00  0.00     0.135 A 
ATOM     65  C   UNL A   1      44.625  34.630  34.171  1.00  0.00     0.135 A 
ATOM     66  F   UNL A   1      43.256  31.642  35.727  1.00  0.00    -0.206 F 
ATOM     67  C   UNL A   1      43.779  33.701  36.663  1.00  0.00     0.059 A 
ATOM     68  C   UNL A   1      44.730  35.452  35.300  1.00  0.00     0.059 A 
ATOM     69  F   UNL A   1      45.004  35.159  32.999  1.00  0.00    -0.206 F 
ATOM     70  C   UNL A   1      44.252  34.998  36.528  1.00  0.00     0.060 A 
BRANCH  70  71
ATOM     71  S   UNL A   1      44.192  36.083  37.971  1.00  0.00     0.124 S 
ATOM     72  O   UNL A   1      43.876  35.141  39.039  1.00  0.00    -0.237 OA
ATOM     73  O   UNL A   1      45.542  36.639  37.997  1.00  0.00    -0.237 OA
ATOM     74  O   UNL A   1      43.138  37.035  37.632  1.00  0.00    -0.744 OA
ENDBRANCH  70  71
ENDBRANCH  49  63
BRANCH  50  75
ATOM     75  C   UNL A   1      42.415  25.136  27.752  1.00  0.00     0.058 A 
ATOM     76  C   UNL A   1      42.412  25.302  26.361  1.00  0.00     0.135 A 
ATOM     77  C   UNL A   1      42.721  23.804  28.166  1.00  0.00     0.135 A 
ATOM     78  F   UNL A   1      41.983  26.439  25.801  1.00  0.00    -0.206 F 
ATOM     79  C   UNL A   1      42.849  24.295  25.476  1.00  0.00     0.059 A 
ATOM     80  C   UNL A   1      43.200  22.807  27.319  1.00  0.00     0.059 A 
ATOM     81  F   UNL A   1      42.594  23.410  29.441  1.00  0.00    -0.206 F 
ATOM     82  C   UNL A   1      43.298  23.071  25.971  1.00  0.00     0.060 A 
BRANCH  82  83
ATOM     83  S   UNL A   1      44.121  21.871  24.900  1.00  0.00     0.124 S 
ATOM     84  O   UNL A   1      43.994  22.494  23.588  1.00  0.00    -0.237 OA
ATOM     85  O   UNL A   1      45.469  21.825  25.456  1.00  0.00    -0.237 OA
ATOM     86  O   UNL A   1      43.335  20.655  25.100  1.00  0.00    -0.744 OA
ENDBRANCH  82  83
ENDBRANCH  50  75
BRANCH  62  87
ATOM     87  C   UNL A   1      44.027  27.727  33.126  1.00  0.00     0.058 A 
ATOM     88  C   UNL A   1      44.684  26.727  33.858  1.00  0.00     0.135 A 
ATOM     89  C   UNL A   1      42.712  28.028  33.529  1.00  0.00     0.135 A 
ATOM     90  F   UNL A   1      45.936  26.372  33.526  1.00  0.00    -0.206 F 
ATOM     91  C   UNL A   1      44.083  26.077  34.937  1.00  0.00     0.059 A 
ATOM     92  C   UNL A   1      42.091  27.404  34.614  1.00  0.00     0.059 A 
ATOM     93  F   UNL A   1      41.992  28.934  32.864  1.00  0.00    -0.206 F 
ATOM     94  C   UNL A   1      42.787  26.426  35.315  1.00  0.00     0.060 A 
BRANCH  94  95
ATOM     95  S   UNL A   1      42.044  25.602  36.742  1.00  0.00     0.124 S 
ATOM     96  O   UNL A   1      42.354  26.523  37.830  1.00  0.00    -0.237 OA
ATOM     97  O   UNL A   1      40.639  25.531  36.355  1.00  0.00    -0.237 OA
ATOM     98  O   UNL A   1      42.740  24.317  36.800  1.00  0.00    -0.744 OA
ENDBRANCH  94  95
ENDBRANCH  62  87
ENDBRANCH  36  37
ENDBRANCH  28  31
ENDBRANCH  26  27
ENDBRANCH  25  26
ENDBRANCH   1  25
TORSDOF 18
ENDMDL
