MODEL 1
REMARK VINA RESULT:     -12.2      0.000      0.000
REMARK SMILES O=C(NCCCCNC(=O)c1ccncc1-c1ccc(F)cc1F)c1ccc(-c2c3nc(c(-c4c(F)cc(S(=O)(=O)[O-])cc4F)c4ccc([nH]4)c(-c4c(F)cc(S(=O)(=O)[O-])cc4F)c4nc(c(-c5c(F)cc(S(=O)(=O)[O-])cc5F)c5ccc2[nH]5)C=C4)C=C3)cc1
REMARK SMILES IDX 4 1 3 2 1 3 2 4 25 6 26 7 90 8 27 9 89 10 28 11 29 12 30 13
REMARK SMILES IDX 83 14 31 15 88 16 82 17 84 18 32 19 87 20 81 21 80 22 33 24
REMARK SMILES IDX 67 25 46 26 66 27 47 28 50 29 65 30 85 31 48 32 49 33 64 35
REMARK SMILES IDX 86 36 51 37 34 38 35 39 44 40 36 41 37 42 43 43 45 44 38 45
REMARK SMILES IDX 39 46 40 47 41 48 42 49 68 50 69 51 78 52 70 53 71 54 77 55
REMARK SMILES IDX 79 56 72 57 73 58 74 59 75 60 76 61 52 62 53 63 62 64 54 65
REMARK SMILES IDX 55 66 61 67 63 68 56 69 57 70 58 71 59 72 60 73 5 74 6 75
REMARK SMILES IDX 7 76 8 77 9 78 10 80 11 81 12 82 16 83 13 84 15 85 14 86
REMARK SMILES IDX 17 87 18 88 23 89 19 90 22 91 24 92 20 93 21 94
REMARK H PARENT 3 5 84 23 50 34 8 79
REMARK Flexibility Score: inf
ROOT
ATOM      1  C   UNL A   1      38.199  24.088  26.553  1.00  0.00     0.116 C 
ENDROOT
BRANCH   1   2
ATOM      2  N   UNL A   1      39.579  24.051  26.097  1.00  0.00    -0.352 N 
ATOM      3  O   UNL A   1      41.712  24.736  25.871  1.00  0.00    -0.269 OA
ATOM      4  C   UNL A   1      40.641  24.845  26.462  1.00  0.00     0.251 C 
ATOM      5  H   UNL A   1      39.784  23.355  25.431  1.00  0.00     0.163 HD
BRANCH   4   6
ATOM      6  C   UNL A   1      40.484  25.848  27.539  1.00  0.00     0.039 A 
ATOM      7  C   UNL A   1      41.270  27.003  27.562  1.00  0.00     0.014 A 
ATOM      8  C   UNL A   1      39.534  25.628  28.542  1.00  0.00     0.014 A 
ATOM      9  C   UNL A   1      41.212  27.856  28.660  1.00  0.00     0.010 A 
ATOM     10  C   UNL A   1      39.421  26.530  29.604  1.00  0.00     0.010 A 
ATOM     11  C   UNL A   1      40.282  27.635  29.689  1.00  0.00    -0.014 A 
BRANCH  11  12
ATOM     12  C   UNL A   1      40.197  28.603  30.813  1.00  0.00     0.031 A 
ATOM     13  C   UNL A   1      41.134  28.521  31.987  1.00  0.00     0.074 A 
ATOM     14  C   UNL A   1      39.279  29.588  30.747  1.00  0.00     0.049 A 
ATOM     15  N   UNL A   1      41.204  29.297  33.038  1.00  0.00    -0.248 NA
ATOM     16  C   UNL A   1      42.117  27.426  31.986  1.00  0.00     0.031 C 
ATOM     17  C   UNL A   1      38.312  29.763  29.661  1.00  0.00     0.029 A 
ATOM     18  N   UNL A   1      39.022  30.637  31.592  1.00  0.00    -0.354 N 
ATOM     19  C   UNL A   1      42.223  28.780  33.830  1.00  0.00     0.074 A 
ATOM     20  C   UNL A   1      42.730  27.608  33.149  1.00  0.00     0.031 C 
ATOM     21  C   UNL A   1      37.602  30.878  29.878  1.00  0.00     0.029 A 
ATOM     22  C   UNL A   1      38.020  31.466  31.147  1.00  0.00     0.049 A 
ATOM     23  H   UNL A   1      39.507  30.782  32.435  1.00  0.00     0.167 HD
ATOM     24  C   UNL A   1      42.695  29.247  35.012  1.00  0.00     0.037 A 
ATOM     25  C   UNL A   1      37.486  32.572  31.700  1.00  0.00     0.037 A 
ATOM     26  C   UNL A   1      42.195  30.425  35.674  1.00  0.00     0.049 A 
ATOM     27  C   UNL A   1      38.016  33.058  33.016  1.00  0.00     0.074 A 
ATOM     28  C   UNL A   1      42.624  30.991  36.864  1.00  0.00     0.029 A 
ATOM     29  N   UNL A   1      41.157  31.220  35.208  1.00  0.00    -0.354 N 
ATOM     30  N   UNL A   1      38.987  32.560  33.745  1.00  0.00    -0.248 NA
ATOM     31  C   UNL A   1      37.376  34.247  33.592  1.00  0.00     0.031 C 
ATOM     32  C   UNL A   1      41.822  32.105  37.134  1.00  0.00     0.029 A 
ATOM     33  C   UNL A   1      40.920  32.259  36.093  1.00  0.00     0.049 A 
ATOM     34  H   UNL A   1      40.661  31.067  34.372  1.00  0.00     0.167 HD
ATOM     35  C   UNL A   1      39.079  33.380  34.863  1.00  0.00     0.074 A 
ATOM     36  C   UNL A   1      38.079  34.417  34.705  1.00  0.00     0.031 C 
ATOM     37  C   UNL A   1      39.916  33.279  35.925  1.00  0.00     0.037 A 
BRANCH  24  38
ATOM     38  C   UNL A   1      43.805  28.481  35.677  1.00  0.00     0.058 A 
ATOM     39  C   UNL A   1      43.516  27.484  36.624  1.00  0.00     0.135 A 
ATOM     40  C   UNL A   1      45.155  28.770  35.424  1.00  0.00     0.135 A 
ATOM     41  F   UNL A   1      42.241  27.168  36.903  1.00  0.00    -0.206 F 
ATOM     42  C   UNL A   1      44.524  26.802  37.301  1.00  0.00     0.059 A 
ATOM     43  C   UNL A   1      46.179  28.087  36.073  1.00  0.00     0.059 A 
ATOM     44  F   UNL A   1      45.488  29.704  34.518  1.00  0.00    -0.206 F 
ATOM     45  C   UNL A   1      45.853  27.104  37.010  1.00  0.00     0.060 A 
BRANCH  45  46
ATOM     46  S   UNL A   1      47.196  26.232  37.845  1.00  0.00     0.124 S 
ATOM     47  O   UNL A   1      48.357  27.003  37.412  1.00  0.00    -0.237 OA
ATOM     48  O   UNL A   1      46.831  26.371  39.251  1.00  0.00    -0.237 OA
ATOM     49  O   UNL A   1      47.108  24.877  37.308  1.00  0.00    -0.744 OA
ENDBRANCH  45  46
ENDBRANCH  24  38
BRANCH  25  50
ATOM     50  C   UNL A   1      36.388  33.282  30.997  1.00  0.00     0.058 A 
ATOM     51  C   UNL A   1      36.641  34.056  29.853  1.00  0.00     0.135 A 
ATOM     52  C   UNL A   1      35.075  33.246  31.487  1.00  0.00     0.135 A 
ATOM     53  F   UNL A   1      37.886  34.136  29.357  1.00  0.00    -0.206 F 
ATOM     54  C   UNL A   1      35.638  34.792  29.233  1.00  0.00     0.059 A 
ATOM     55  C   UNL A   1      34.050  33.954  30.870  1.00  0.00     0.059 A 
ATOM     56  F   UNL A   1      34.785  32.515  32.575  1.00  0.00    -0.206 F 
ATOM     57  C   UNL A   1      34.343  34.732  29.747  1.00  0.00     0.060 A 
BRANCH  57  58
ATOM     58  S   UNL A   1      33.021  35.708  29.001  1.00  0.00     0.124 S 
ATOM     59  O   UNL A   1      32.384  34.724  28.134  1.00  0.00    -0.237 OA
ATOM     60  O   UNL A   1      32.250  36.125  30.169  1.00  0.00    -0.237 OA
ATOM     61  O   UNL A   1      33.740  36.780  28.318  1.00  0.00    -0.744 OA
ENDBRANCH  57  58
ENDBRANCH  25  50
BRANCH  37  62
ATOM     62  C   UNL A   1      39.792  34.322  36.997  1.00  0.00     0.058 A 
ATOM     63  C   UNL A   1      39.035  34.072  38.152  1.00  0.00     0.135 A 
ATOM     64  C   UNL A   1      40.379  35.589  36.856  1.00  0.00     0.135 A 
ATOM     65  F   UNL A   1      38.449  32.878  38.330  1.00  0.00    -0.206 F 
ATOM     66  C   UNL A   1      38.856  35.045  39.131  1.00  0.00     0.059 A 
ATOM     67  C   UNL A   1      40.230  36.569  37.830  1.00  0.00     0.059 A 
ATOM     68  F   UNL A   1      41.120  35.873  35.772  1.00  0.00    -0.206 F 
ATOM     69  C   UNL A   1      39.465  36.288  38.964  1.00  0.00     0.060 A 
BRANCH  69  70
ATOM     70  S   UNL A   1      39.250  37.583  40.203  1.00  0.00     0.124 S 
ATOM     71  O   UNL A   1      38.837  36.810  41.369  1.00  0.00    -0.237 OA
ATOM     72  O   UNL A   1      40.583  38.173  40.273  1.00  0.00    -0.237 OA
ATOM     73  O   UNL A   1      38.222  38.441  39.622  1.00  0.00    -0.744 OA
ENDBRANCH  69  70
ENDBRANCH  37  62
ENDBRANCH  11  12
ENDBRANCH   4   6
ENDBRANCH   1   2
BRANCH   1  74
ATOM     74  C   UNL A   1      37.213  23.536  25.531  1.00  0.00     0.023 C 
BRANCH  74  75
ATOM     75  C   UNL A   1      35.831  24.188  25.524  1.00  0.00     0.023 C 
BRANCH  75  76
ATOM     76  C   UNL A   1      34.650  23.226  25.438  1.00  0.00     0.116 C 
BRANCH  76  77
ATOM     77  N   UNL A   1      33.720  23.361  26.548  1.00  0.00    -0.352 N 
ATOM     78  C   UNL A   1      32.423  23.810  26.556  1.00  0.00     0.252 C 
ATOM     79  H   UNL A   1      34.075  23.090  27.426  1.00  0.00     0.163 HD
ATOM     80  O   UNL A   1      31.789  23.865  27.605  1.00  0.00    -0.269 OA
BRANCH  78  81
ATOM     81  C   UNL A   1      31.789  24.228  25.288  1.00  0.00     0.050 A 
ATOM     82  C   UNL A   1      31.166  23.242  24.515  1.00  0.00     0.034 A 
ATOM     83  C   UNL A   1      31.761  25.576  24.898  1.00  0.00     0.016 A 
ATOM     84  C   UNL A   1      30.601  23.616  23.315  1.00  0.00     0.112 A 
ATOM     85  C   UNL A   1      31.155  25.824  23.665  1.00  0.00     0.120 A 
ATOM     86  N   UNL A   1      30.600  24.883  22.861  1.00  0.00    -0.264 NA
BRANCH  83  87
ATOM     87  C   UNL A   1      32.283  26.691  25.704  1.00  0.00     0.020 A 
ATOM     88  C   UNL A   1      31.534  27.275  26.741  1.00  0.00     0.015 A 
ATOM     89  C   UNL A   1      33.565  27.214  25.452  1.00  0.00     0.134 A 
ATOM     90  C   UNL A   1      32.053  28.343  27.481  1.00  0.00     0.040 A 
ATOM     91  C   UNL A   1      34.089  28.273  26.183  1.00  0.00     0.079 A 
ATOM     92  F   UNL A   1      34.325  26.681  24.481  1.00  0.00    -0.206 F 
ATOM     93  C   UNL A   1      33.324  28.831  27.195  1.00  0.00     0.126 A 
ATOM     94  F   UNL A   1      33.819  29.848  27.911  1.00  0.00    -0.207 F 
ENDBRANCH  83  87
ENDBRANCH  78  81
ENDBRANCH  76  77
ENDBRANCH  75  76
ENDBRANCH  74  75
ENDBRANCH   1  74
TORSDOF 15
ENDMDL
MODEL 2
REMARK VINA RESULT:     -12.2      1.465      2.502
REMARK SMILES O=C(NCCCCNC(=O)c1ccncc1-c1ccc(F)cc1F)c1ccc(-c2c3nc(c(-c4c(F)cc(S(=O)(=O)[O-])cc4F)c4ccc([nH]4)c(-c4c(F)cc(S(=O)(=O)[O-])cc4F)c4nc(c(-c5c(F)cc(S(=O)(=O)[O-])cc5F)c5ccc2[nH]5)C=C4)C=C3)cc1
REMARK SMILES IDX 4 1 3 2 1 3 2 4 25 6 26 7 90 8 27 9 89 10 28 11 29 12 30 13
REMARK SMILES IDX 83 14 31 15 88 16 82 17 84 18 32 19 87 20 81 21 80 22 33 24
REMARK SMILES IDX 67 25 46 26 66 27 47 28 50 29 65 30 85 31 48 32 49 33 64 35
REMARK SMILES IDX 86 36 51 37 34 38 35 39 44 40 36 41 37 42 43 43 45 44 38 45
REMARK SMILES IDX 39 46 40 47 41 48 42 49 68 50 69 51 78 52 70 53 71 54 77 55
REMARK SMILES IDX 79 56 72 57 73 58 74 59 75 60 76 61 52 62 53 63 62 64 54 65
REMARK SMILES IDX 55 66 61 67 63 68 56 69 57 70 58 71 59 72 60 73 5 74 6 75
REMARK SMILES IDX 7 76 8 77 9 78 10 80 11 81 12 82 16 83 13 84 15 85 14 86
REMARK SMILES IDX 17 87 18 88 23 89 19 90 22 91 24 92 20 93 21 94
REMARK H PARENT 3 5 84 23 50 34 8 79
REMARK Flexibility Score: inf
ROOT
ATOM      1  C   UNL A   1      38.166  24.075  26.553  1.00  0.00     0.116 C 
ENDROOT
BRANCH   1   2
ATOM      2  N   UNL A   1      39.549  24.036  26.106  1.00  0.00    -0.352 N 
ATOM      3  O   UNL A   1      41.683  24.721  25.887  1.00  0.00    -0.269 OA
ATOM      4  C   UNL A   1      40.608  24.832  26.471  1.00  0.00     0.251 C 
ATOM      5  H   UNL A   1      39.758  23.335  25.445  1.00  0.00     0.163 HD
BRANCH   4   6
ATOM      6  C   UNL A   1      40.445  25.843  27.540  1.00  0.00     0.039 A 
ATOM      7  C   UNL A   1      41.195  27.021  27.534  1.00  0.00     0.014 A 
ATOM      8  C   UNL A   1      39.525  25.605  28.567  1.00  0.00     0.014 A 
ATOM      9  C   UNL A   1      41.136  27.884  28.623  1.00  0.00     0.010 A 
ATOM     10  C   UNL A   1      39.408  26.515  29.622  1.00  0.00     0.010 A 
ATOM     11  C   UNL A   1      40.236  27.647  29.676  1.00  0.00    -0.014 A 
BRANCH  11  12
ATOM     12  C   UNL A   1      40.147  28.624  30.791  1.00  0.00     0.031 A 
ATOM     13  C   UNL A   1      41.081  28.554  31.968  1.00  0.00     0.074 A 
ATOM     14  C   UNL A   1      39.227  29.607  30.714  1.00  0.00     0.049 A 
ATOM     15  N   UNL A   1      41.148  29.339  33.012  1.00  0.00    -0.248 NA
ATOM     16  C   UNL A   1      42.067  27.461  31.979  1.00  0.00     0.031 C 
ATOM     17  C   UNL A   1      38.262  29.771  29.624  1.00  0.00     0.029 A 
ATOM     18  N   UNL A   1      38.966  30.663  31.549  1.00  0.00    -0.354 N 
ATOM     19  C   UNL A   1      42.166  28.832  33.810  1.00  0.00     0.074 A 
ATOM     20  C   UNL A   1      42.677  27.654  33.141  1.00  0.00     0.031 C 
ATOM     21  C   UNL A   1      37.549  30.886  29.831  1.00  0.00     0.029 A 
ATOM     22  C   UNL A   1      37.964  31.486  31.095  1.00  0.00     0.049 A 
ATOM     23  H   UNL A   1      39.449  30.816  32.393  1.00  0.00     0.167 HD
ATOM     24  C   UNL A   1      42.634  29.310  34.989  1.00  0.00     0.037 A 
ATOM     25  C   UNL A   1      37.427  32.595  31.637  1.00  0.00     0.037 A 
ATOM     26  C   UNL A   1      42.131  30.493  35.640  1.00  0.00     0.049 A 
ATOM     27  C   UNL A   1      37.952  33.094  32.951  1.00  0.00     0.074 A 
ATOM     28  C   UNL A   1      42.556  31.070  36.826  1.00  0.00     0.029 A 
ATOM     29  N   UNL A   1      41.092  31.281  35.165  1.00  0.00    -0.354 N 
ATOM     30  N   UNL A   1      38.923  32.604  33.685  1.00  0.00    -0.248 NA
ATOM     31  C   UNL A   1      37.309  34.287  33.515  1.00  0.00     0.031 C 
ATOM     32  C   UNL A   1      41.751  32.184  37.085  1.00  0.00     0.029 A 
ATOM     33  C   UNL A   1      40.851  32.327  36.041  1.00  0.00     0.049 A 
ATOM     34  H   UNL A   1      40.598  31.119  34.329  1.00  0.00     0.167 HD
ATOM     35  C   UNL A   1      39.011  33.434  34.796  1.00  0.00     0.074 A 
ATOM     36  C   UNL A   1      38.009  34.467  34.627  1.00  0.00     0.031 C 
ATOM     37  C   UNL A   1      39.846  33.344  35.861  1.00  0.00     0.037 A 
BRANCH  24  38
ATOM     38  C   UNL A   1      43.745  28.551  35.663  1.00  0.00     0.058 A 
ATOM     39  C   UNL A   1      45.087  28.828  35.355  1.00  0.00     0.135 A 
ATOM     40  C   UNL A   1      43.483  27.511  36.570  1.00  0.00     0.135 A 
ATOM     41  F   UNL A   1      45.393  29.811  34.494  1.00  0.00    -0.206 F 
ATOM     42  C   UNL A   1      46.133  28.100  35.917  1.00  0.00     0.059 A 
ATOM     43  C   UNL A   1      44.512  26.785  37.160  1.00  0.00     0.059 A 
ATOM     44  F   UNL A   1      42.218  27.214  36.910  1.00  0.00    -0.206 F 
ATOM     45  C   UNL A   1      45.835  27.087  36.827  1.00  0.00     0.060 A 
BRANCH  45  46
ATOM     46  S   UNL A   1      47.157  26.130  37.600  1.00  0.00     0.124 S 
ATOM     47  O   UNL A   1      47.937  27.181  38.245  1.00  0.00    -0.237 OA
ATOM     48  O   UNL A   1      46.419  25.247  38.498  1.00  0.00    -0.237 OA
ATOM     49  O   UNL A   1      47.806  25.471  36.471  1.00  0.00    -0.744 OA
ENDBRANCH  45  46
ENDBRANCH  24  38
BRANCH  25  50
ATOM     50  C   UNL A   1      36.329  33.297  30.926  1.00  0.00     0.058 A 
ATOM     51  C   UNL A   1      36.586  34.081  29.790  1.00  0.00     0.135 A 
ATOM     52  C   UNL A   1      35.011  33.243  31.400  1.00  0.00     0.135 A 
ATOM     53  F   UNL A   1      37.836  34.178  29.308  1.00  0.00    -0.206 F 
ATOM     54  C   UNL A   1      35.582  34.809  29.162  1.00  0.00     0.059 A 
ATOM     55  C   UNL A   1      33.985  33.944  30.776  1.00  0.00     0.059 A 
ATOM     56  F   UNL A   1      34.716  32.502  32.480  1.00  0.00    -0.206 F 
ATOM     57  C   UNL A   1      34.282  34.731  29.661  1.00  0.00     0.060 A 
BRANCH  57  58
ATOM     58  S   UNL A   1      32.957  35.697  28.905  1.00  0.00     0.124 S 
ATOM     59  O   UNL A   1      32.360  34.719  28.003  1.00  0.00    -0.237 OA
ATOM     60  O   UNL A   1      32.152  36.073  30.063  1.00  0.00    -0.237 OA
ATOM     61  O   UNL A   1      33.669  36.797  28.262  1.00  0.00    -0.744 OA
ENDBRANCH  57  58
ENDBRANCH  25  50
BRANCH  37  62
ATOM     62  C   UNL A   1      39.718  34.396  36.924  1.00  0.00     0.058 A 
ATOM     63  C   UNL A   1      40.399  35.618  36.803  1.00  0.00     0.135 A 
ATOM     64  C   UNL A   1      38.964  34.175  38.086  1.00  0.00     0.135 A 
ATOM     65  F   UNL A   1      41.139  35.874  35.713  1.00  0.00    -0.206 F 
ATOM     66  C   UNL A   1      40.345  36.584  37.803  1.00  0.00     0.059 A 
ATOM     67  C   UNL A   1      38.879  35.134  39.088  1.00  0.00     0.059 A 
ATOM     68  F   UNL A   1      38.287  33.025  38.243  1.00  0.00    -0.206 F 
ATOM     69  C   UNL A   1      39.575  36.335  38.938  1.00  0.00     0.060 A 
BRANCH  69  70
ATOM     70  S   UNL A   1      39.485  37.556  40.266  1.00  0.00     0.124 S 
ATOM     71  O   UNL A   1      38.574  38.543  39.696  1.00  0.00    -0.237 OA
ATOM     72  O   UNL A   1      38.955  36.771  41.377  1.00  0.00    -0.237 OA
ATOM     73  O   UNL A   1      40.869  37.993  40.419  1.00  0.00    -0.744 OA
ENDBRANCH  69  70
ENDBRANCH  37  62
ENDBRANCH  11  12
ENDBRANCH   4   6
ENDBRANCH   1   2
BRANCH   1  74
ATOM     74  C   UNL A   1      37.190  23.478  25.546  1.00  0.00     0.023 C 
BRANCH  74  75
ATOM     75  C   UNL A   1      37.496  22.052  25.092  1.00  0.00     0.023 C 
BRANCH  75  76
ATOM     76  C   UNL A   1      36.412  21.020  25.387  1.00  0.00     0.116 C 
BRANCH  76  77
ATOM     77  N   UNL A   1      35.457  21.464  26.389  1.00  0.00    -0.352 N 
ATOM     78  C   UNL A   1      34.093  21.306  26.432  1.00  0.00     0.252 C 
ATOM     79  H   UNL A   1      35.846  21.951  27.152  1.00  0.00     0.163 HD
ATOM     80  O   UNL A   1      33.443  21.765  27.365  1.00  0.00    -0.269 OA
BRANCH  78  81
ATOM     81  C   UNL A   1      33.410  20.577  25.344  1.00  0.00     0.050 A 
ATOM     82  C   UNL A   1      33.170  19.210  25.526  1.00  0.00     0.034 A 
ATOM     83  C   UNL A   1      32.965  21.241  24.191  1.00  0.00     0.016 A 
ATOM     84  C   UNL A   1      32.564  18.514  24.503  1.00  0.00     0.112 A 
ATOM     85  C   UNL A   1      32.361  20.424  23.232  1.00  0.00     0.120 A 
ATOM     86  N   UNL A   1      32.172  19.086  23.349  1.00  0.00    -0.264 NA
BRANCH  83  87
ATOM     87  C   UNL A   1      33.066  22.692  23.969  1.00  0.00     0.020 A 
ATOM     88  C   UNL A   1      34.183  23.275  23.346  1.00  0.00     0.015 A 
ATOM     89  C   UNL A   1      32.029  23.549  24.385  1.00  0.00     0.134 A 
ATOM     90  C   UNL A   1      34.253  24.660  23.160  1.00  0.00     0.040 A 
ATOM     91  C   UNL A   1      32.090  24.926  24.203  1.00  0.00     0.079 A 
ATOM     92  F   UNL A   1      30.935  23.039  24.973  1.00  0.00    -0.206 F 
ATOM     93  C   UNL A   1      33.208  25.470  23.591  1.00  0.00     0.126 A 
ATOM     94  F   UNL A   1      33.277  26.795  23.404  1.00  0.00    -0.207 F 
ENDBRANCH  83  87
ENDBRANCH  78  81
ENDBRANCH  76  77
ENDBRANCH  75  76
ENDBRANCH  74  75
ENDBRANCH   1  74
TORSDOF 15
ENDMDL
MODEL 3
REMARK VINA RESULT:     -12.0      6.843     12.133
REMARK SMILES O=C(NCCCCNC(=O)c1ccncc1-c1ccc(F)cc1F)c1ccc(-c2c3nc(c(-c4c(F)cc(S(=O)(=O)[O-])cc4F)c4ccc([nH]4)c(-c4c(F)cc(S(=O)(=O)[O-])cc4F)c4nc(c(-c5c(F)cc(S(=O)(=O)[O-])cc5F)c5ccc2[nH]5)C=C4)C=C3)cc1
REMARK SMILES IDX 4 1 3 2 1 3 2 4 25 6 26 7 90 8 27 9 89 10 28 11 29 12 30 13
REMARK SMILES IDX 83 14 31 15 88 16 82 17 84 18 32 19 87 20 81 21 80 22 33 24
REMARK SMILES IDX 67 25 46 26 66 27 47 28 50 29 65 30 85 31 48 32 49 33 64 35
REMARK SMILES IDX 86 36 51 37 34 38 35 39 44 40 36 41 37 42 43 43 45 44 38 45
REMARK SMILES IDX 39 46 40 47 41 48 42 49 68 50 69 51 78 52 70 53 71 54 77 55
REMARK SMILES IDX 79 56 72 57 73 58 74 59 75 60 76 61 52 62 53 63 62 64 54 65
REMARK SMILES IDX 55 66 61 67 63 68 56 69 57 70 58 71 59 72 60 73 5 74 6 75
REMARK SMILES IDX 7 76 8 77 9 78 10 80 11 81 12 82 16 83 13 84 15 85 14 86
REMARK SMILES IDX 17 87 18 88 23 89 19 90 22 91 24 92 20 93 21 94
REMARK H PARENT 3 5 84 23 50 34 8 79
REMARK Flexibility Score: inf
ROOT
ATOM      1  C   UNL A   1      35.221  29.397  27.693  1.00  0.00     0.116 C 
ENDROOT
BRANCH   1   2
ATOM      2  N   UNL A   1      35.275  30.129  28.948  1.00  0.00    -0.352 N 
ATOM      3  O   UNL A   1      36.157  30.884  30.877  1.00  0.00    -0.269 OA
ATOM      4  C   UNL A   1      36.339  30.336  29.794  1.00  0.00     0.251 C 
ATOM      5  H   UNL A   1      34.425  30.538  29.233  1.00  0.00     0.163 HD
BRANCH   4   6
ATOM      6  C   UNL A   1      37.692  29.869  29.415  1.00  0.00     0.039 A 
ATOM      7  C   UNL A   1      38.579  29.383  30.379  1.00  0.00     0.014 A 
ATOM      8  C   UNL A   1      38.079  29.920  28.071  1.00  0.00     0.014 A 
ATOM      9  C   UNL A   1      39.892  29.092  30.025  1.00  0.00     0.010 A 
ATOM     10  C   UNL A   1      39.376  29.550  27.706  1.00  0.00     0.010 A 
ATOM     11  C   UNL A   1      40.305  29.163  28.684  1.00  0.00    -0.014 A 
BRANCH  11  12
ATOM     12  C   UNL A   1      41.695  28.779  28.329  1.00  0.00     0.031 A 
ATOM     13  C   UNL A   1      42.819  29.776  28.382  1.00  0.00     0.074 A 
ATOM     14  C   UNL A   1      41.942  27.497  27.989  1.00  0.00     0.049 A 
ATOM     15  N   UNL A   1      44.089  29.598  28.122  1.00  0.00    -0.248 NA
ATOM     16  C   UNL A   1      42.477  31.154  28.772  1.00  0.00     0.031 C 
ATOM     17  C   UNL A   1      40.929  26.443  27.896  1.00  0.00     0.029 A 
ATOM     18  N   UNL A   1      43.115  26.858  27.681  1.00  0.00    -0.354 N 
ATOM     19  C   UNL A   1      44.695  30.836  28.301  1.00  0.00     0.074 A 
ATOM     20  C   UNL A   1      43.650  31.766  28.670  1.00  0.00     0.031 C 
ATOM     21  C   UNL A   1      41.529  25.281  27.604  1.00  0.00     0.029 A 
ATOM     22  C   UNL A   1      42.958  25.516  27.430  1.00  0.00     0.049 A 
ATOM     23  H   UNL A   1      43.985  27.316  27.642  1.00  0.00     0.167 HD
ATOM     24  C   UNL A   1      46.005  31.162  28.175  1.00  0.00     0.037 A 
ATOM     25  C   UNL A   1      43.860  24.576  27.087  1.00  0.00     0.037 A 
ATOM     26  C   UNL A   1      47.042  30.225  27.823  1.00  0.00     0.049 A 
ATOM     27  C   UNL A   1      45.301  24.968  26.938  1.00  0.00     0.074 A 
ATOM     28  C   UNL A   1      48.402  30.456  27.693  1.00  0.00     0.029 A 
ATOM     29  N   UNL A   1      46.839  28.881  27.544  1.00  0.00    -0.354 N 
ATOM     30  N   UNL A   1      45.855  26.142  27.122  1.00  0.00    -0.248 NA
ATOM     31  C   UNL A   1      46.237  23.913  26.530  1.00  0.00     0.031 C 
ATOM     32  C   UNL A   1      49.014  29.261  27.301  1.00  0.00     0.029 A 
ATOM     33  C   UNL A   1      48.043  28.274  27.226  1.00  0.00     0.049 A 
ATOM     34  H   UNL A   1      45.966  28.426  27.568  1.00  0.00     0.167 HD
ATOM     35  C   UNL A   1      47.208  25.967  26.857  1.00  0.00     0.074 A 
ATOM     36  C   UNL A   1      47.390  24.569  26.520  1.00  0.00     0.031 C 
ATOM     37  C   UNL A   1      48.206  26.883  26.887  1.00  0.00     0.037 A 
BRANCH  24  38
ATOM     38  C   UNL A   1      46.398  32.595  28.410  1.00  0.00     0.058 A 
ATOM     39  C   UNL A   1      46.414  33.513  27.347  1.00  0.00     0.135 A 
ATOM     40  C   UNL A   1      46.816  33.047  29.671  1.00  0.00     0.135 A 
ATOM     41  F   UNL A   1      46.024  33.132  26.120  1.00  0.00    -0.206 F 
ATOM     42  C   UNL A   1      46.832  34.830  27.522  1.00  0.00     0.059 A 
ATOM     43  C   UNL A   1      47.218  34.363  29.875  1.00  0.00     0.059 A 
ATOM     44  F   UNL A   1      46.807  32.215  30.724  1.00  0.00    -0.206 F 
ATOM     45  C   UNL A   1      47.223  35.248  28.794  1.00  0.00     0.060 A 
BRANCH  45  46
ATOM     46  S   UNL A   1      47.753  36.951  29.077  1.00  0.00     0.124 S 
ATOM     47  O   UNL A   1      47.132  37.238  30.366  1.00  0.00    -0.237 OA
ATOM     48  O   UNL A   1      49.207  36.827  29.087  1.00  0.00    -0.237 OA
ATOM     49  O   UNL A   1      47.196  37.675  27.938  1.00  0.00    -0.744 OA
ENDBRANCH  45  46
ENDBRANCH  24  38
BRANCH  25  50
ATOM     50  C   UNL A   1      43.410  23.180  26.864  1.00  0.00     0.058 A 
ATOM     51  C   UNL A   1      43.084  22.342  27.942  1.00  0.00     0.135 A 
ATOM     52  C   UNL A   1      43.350  22.639  25.572  1.00  0.00     0.135 A 
ATOM     53  F   UNL A   1      43.143  22.810  29.199  1.00  0.00    -0.206 F 
ATOM     54  C   UNL A   1      42.740  21.008  27.753  1.00  0.00     0.059 A 
ATOM     55  C   UNL A   1      42.986  21.314  25.355  1.00  0.00     0.059 A 
ATOM     56  F   UNL A   1      43.648  23.404  24.509  1.00  0.00    -0.206 F 
ATOM     57  C   UNL A   1      42.689  20.504  26.453  1.00  0.00     0.060 A 
BRANCH  57  58
ATOM     58  S   UNL A   1      42.293  18.766  26.166  1.00  0.00     0.124 S 
ATOM     59  O   UNL A   1      42.512  18.194  27.489  1.00  0.00    -0.237 OA
ATOM     60  O   UNL A   1      40.904  18.838  25.723  1.00  0.00    -0.237 OA
ATOM     61  O   UNL A   1      43.251  18.368  25.139  1.00  0.00    -0.744 OA
ENDBRANCH  57  58
ENDBRANCH  25  50
BRANCH  37  62
ATOM     62  C   UNL A   1      49.589  26.402  26.556  1.00  0.00     0.058 A 
ATOM     63  C   UNL A   1      50.456  25.967  27.571  1.00  0.00     0.135 A 
ATOM     64  C   UNL A   1      50.075  26.422  25.240  1.00  0.00     0.135 A 
ATOM     65  F   UNL A   1      50.039  25.937  28.847  1.00  0.00    -0.206 F 
ATOM     66  C   UNL A   1      51.762  25.575  27.296  1.00  0.00     0.059 A 
ATOM     67  C   UNL A   1      51.369  26.015  24.939  1.00  0.00     0.059 A 
ATOM     68  F   UNL A   1      49.281  26.821  24.233  1.00  0.00    -0.206 F 
ATOM     69  C   UNL A   1      52.206  25.595  25.975  1.00  0.00     0.060 A 
BRANCH  69  70
ATOM     70  S   UNL A   1      53.897  25.104  25.573  1.00  0.00     0.124 S 
ATOM     71  O   UNL A   1      54.627  25.581  26.743  1.00  0.00    -0.237 OA
ATOM     72  O   UNL A   1      53.780  23.655  25.446  1.00  0.00    -0.237 OA
ATOM     73  O   UNL A   1      54.171  25.816  24.329  1.00  0.00    -0.744 OA
ENDBRANCH  69  70
ENDBRANCH  37  62
ENDBRANCH  11  12
ENDBRANCH   4   6
ENDBRANCH   1   2
BRANCH   1  74
ATOM     74  C   UNL A   1      33.810  28.979  27.300  1.00  0.00     0.023 C 
BRANCH  74  75
ATOM     75  C   UNL A   1      32.848  30.119  26.972  1.00  0.00     0.023 C 
BRANCH  75  76
ATOM     76  C   UNL A   1      31.814  29.819  25.890  1.00  0.00     0.116 C 
BRANCH  76  77
ATOM     77  N   UNL A   1      32.392  29.721  24.559  1.00  0.00    -0.352 N 
ATOM     78  C   UNL A   1      31.995  28.964  23.484  1.00  0.00     0.252 C 
ATOM     79  H   UNL A   1      33.186  30.282  24.406  1.00  0.00     0.163 HD
ATOM     80  O   UNL A   1      32.621  29.004  22.430  1.00  0.00    -0.269 OA
BRANCH  78  81
ATOM     81  C   UNL A   1      30.805  28.097  23.604  1.00  0.00     0.050 A 
ATOM     82  C   UNL A   1      29.567  28.636  23.233  1.00  0.00     0.034 A 
ATOM     83  C   UNL A   1      30.915  26.762  24.020  1.00  0.00     0.016 A 
ATOM     84  C   UNL A   1      28.446  27.847  23.373  1.00  0.00     0.112 A 
ATOM     85  C   UNL A   1      29.708  26.068  24.115  1.00  0.00     0.120 A 
ATOM     86  N   UNL A   1      28.485  26.580  23.826  1.00  0.00    -0.264 NA
BRANCH  83  87
ATOM     87  C   UNL A   1      32.186  26.079  24.313  1.00  0.00     0.020 A 
ATOM     88  C   UNL A   1      32.725  26.031  25.610  1.00  0.00     0.015 A 
ATOM     89  C   UNL A   1      32.909  25.449  23.282  1.00  0.00     0.134 A 
ATOM     90  C   UNL A   1      33.941  25.383  25.853  1.00  0.00     0.040 A 
ATOM     91  C   UNL A   1      34.117  24.802  23.515  1.00  0.00     0.079 A 
ATOM     92  F   UNL A   1      32.429  25.456  22.028  1.00  0.00    -0.206 F 
ATOM     93  C   UNL A   1      34.624  24.777  24.804  1.00  0.00     0.126 A 
ATOM     94  F   UNL A   1      35.784  24.152  25.043  1.00  0.00    -0.207 F 
ENDBRANCH  83  87
ENDBRANCH  78  81
ENDBRANCH  76  77
ENDBRANCH  75  76
ENDBRANCH  74  75
ENDBRANCH   1  74
TORSDOF 15
ENDMDL
