MODEL 1
REMARK VINA RESULT:     -10.5      0.000      0.000
REMARK SMILES COc1cc(C(C)C)cc([C@H]([NH3+])C(=O)NCCCCNC(=O)c2ccc(-c3c4nc(c(-c5c(F)cc(S(=O)(=O)[O-])cc5F)c5ccc([nH]5)c(-c5c(F)cc(S(=O)(=O)[O-])cc5F)c5nc(c(-c6c(F)cc(S(=O)(=O)[O-])cc6F)c6ccc3[nH]6)C=C5)C=C4)cc2)c1O
REMARK SMILES IDX 18 1 17 2 16 3 15 4 13 5 14 6 11 8 10 9 3 10 4 11 89 12 5 13
REMARK SMILES IDX 9 14 2 15 1 16 90 17 6 19 7 20 8 21 12 22 19 26 20 27 21 28
REMARK SMILES IDX 22 30 23 31 24 32 88 33 25 34 87 35 26 36 27 37 28 38 81 39
REMARK SMILES IDX 29 40 86 41 80 42 82 43 30 44 85 45 79 46 78 47 31 49 65 50
REMARK SMILES IDX 44 51 64 52 45 53 48 54 63 55 83 56 46 57 47 58 62 60 84 61
REMARK SMILES IDX 49 62 32 63 33 64 42 65 34 66 35 67 41 68 43 69 36 70 37 71
REMARK SMILES IDX 38 72 39 73 40 74 66 75 67 76 76 77 68 78 69 79 75 80 77 81
REMARK SMILES IDX 70 82 71 83 72 84 73 85 74 86 50 87 51 88 60 89 52 90 53 91
REMARK SMILES IDX 59 92 61 93 54 94 55 95 56 96 57 97 58 98
REMARK H PARENT 15 7 90 18 12 23 12 24 12 25 20 29 82 48 48 59
REMARK Flexibility Score: inf
ROOT
ATOM      1  C   UNL A   1      35.571  33.207  28.313  1.00  0.00     0.023 C 
ENDROOT
BRANCH   1   2
ATOM      2  C   UNL A   1      34.138  33.719  28.443  1.00  0.00     0.023 C 
BRANCH   2   3
ATOM      3  C   UNL A   1      33.975  34.973  29.293  1.00  0.00     0.116 C 
BRANCH   3   4
ATOM      4  N   UNL A   1      33.082  34.778  30.418  1.00  0.00    -0.351 N 
ATOM      5  C   UNL A   1      33.264  35.100  31.734  1.00  0.00     0.283 C 
ATOM      6  O   UNL A   1      32.338  34.843  32.511  1.00  0.00    -0.268 OA
ATOM      7  H   UNL A   1      32.221  34.351  30.204  1.00  0.00     0.163 HD
BRANCH   5   8
ATOM      8  C   UNL A   1      34.586  35.750  32.250  1.00  0.00     0.306 C 
BRANCH   8   9
ATOM      9  C   UNL A   1      35.669  34.710  32.517  1.00  0.00     0.065 A 
ATOM     10  C   UNL A   1      36.753  33.181  34.090  1.00  0.00     0.161 A 
ATOM     11  C   UNL A   1      37.828  33.053  33.203  1.00  0.00     0.054 A 
ATOM     12  C   UNL A   1      35.695  34.029  33.748  1.00  0.00     0.167 A 
ATOM     13  C   UNL A   1      37.840  33.715  31.969  1.00  0.00    -0.041 A 
ATOM     14  C   UNL A   1      36.729  34.491  31.619  1.00  0.00     0.018 A 
BRANCH  10  15
ATOM     15  O   UNL A   1      36.918  32.483  35.255  1.00  0.00    -0.493 OA
ATOM     16  C   UNL A   1      38.021  31.589  35.343  1.00  0.00     0.278 C 
ENDBRANCH  10  15
BRANCH  12  17
ATOM     17  O   UNL A   1      34.666  34.277  34.614  1.00  0.00    -0.504 OA
ATOM     18  H   UNL A   1      33.831  33.873  34.478  1.00  0.00     0.293 HD
ENDBRANCH  12  17
BRANCH  13  19
ATOM     19  C   UNL A   1      39.045  33.675  31.044  1.00  0.00     0.013 C 
ATOM     20  C   UNL A   1      38.815  34.527  29.789  1.00  0.00     0.012 C 
ATOM     21  C   UNL A   1      40.328  34.087  31.763  1.00  0.00     0.012 C 
ENDBRANCH  13  19
ENDBRANCH   8   9
BRANCH   8  22
ATOM     22  N   UNL A   1      34.284  36.644  33.397  1.00  0.00    -0.343 N 
ATOM     23  H   UNL A   1      33.457  37.202  33.185  1.00  0.00     0.345 HD
ATOM     24  H   UNL A   1      35.078  37.264  33.563  1.00  0.00     0.345 HD
ATOM     25  H   UNL A   1      34.112  36.082  34.230  1.00  0.00     0.345 HD
ENDBRANCH   8  22
ENDBRANCH   5   8
ENDBRANCH   3   4
ENDBRANCH   2   3
ENDBRANCH   1   2
BRANCH   1  26
ATOM     26  C   UNL A   1      35.749  31.703  28.492  1.00  0.00     0.116 C 
BRANCH  26  27
ATOM     27  N   UNL A   1      35.524  31.254  29.859  1.00  0.00    -0.352 N 
ATOM     28  C   UNL A   1      36.394  30.624  30.717  1.00  0.00     0.251 C 
ATOM     29  H   UNL A   1      34.623  31.425  30.218  1.00  0.00     0.163 HD
ATOM     30  O   UNL A   1      35.995  30.215  31.805  1.00  0.00    -0.269 OA
BRANCH  28  31
ATOM     31  C   UNL A   1      37.798  30.407  30.308  1.00  0.00     0.039 A 
ATOM     32  C   UNL A   1      38.742  30.073  31.282  1.00  0.00     0.014 A 
ATOM     33  C   UNL A   1      38.174  30.498  28.965  1.00  0.00     0.014 A 
ATOM     34  C   UNL A   1      40.047  29.752  30.898  1.00  0.00     0.010 A 
ATOM     35  C   UNL A   1      39.453  30.108  28.578  1.00  0.00     0.010 A 
ATOM     36  C   UNL A   1      40.401  29.724  29.539  1.00  0.00    -0.014 A 
BRANCH  36  37
ATOM     37  C   UNL A   1      41.751  29.290  29.100  1.00  0.00     0.031 A 
ATOM     38  C   UNL A   1      42.879  30.283  29.031  1.00  0.00     0.074 A 
ATOM     39  C   UNL A   1      41.943  28.020  28.691  1.00  0.00     0.049 A 
ATOM     40  N   UNL A   1      44.099  30.118  28.590  1.00  0.00    -0.248 NA
ATOM     41  C   UNL A   1      42.587  31.649  29.494  1.00  0.00     0.031 C 
ATOM     42  C   UNL A   1      40.918  26.975  28.660  1.00  0.00     0.029 A 
ATOM     43  N   UNL A   1      43.066  27.394  28.209  1.00  0.00    -0.354 N 
ATOM     44  C   UNL A   1      44.714  31.359  28.705  1.00  0.00     0.074 A 
ATOM     45  C   UNL A   1      43.718  32.278  29.210  1.00  0.00     0.031 C 
ATOM     46  C   UNL A   1      41.463  25.835  28.205  1.00  0.00     0.029 A 
ATOM     47  C   UNL A   1      42.865  26.074  27.877  1.00  0.00     0.049 A 
ATOM     48  H   UNL A   1      43.934  27.848  28.109  1.00  0.00     0.167 HD
ATOM     49  C   UNL A   1      45.998  31.698  28.434  1.00  0.00     0.037 A 
ATOM     50  C   UNL A   1      43.712  25.163  27.362  1.00  0.00     0.037 A 
ATOM     51  C   UNL A   1      46.994  30.773  27.960  1.00  0.00     0.049 A 
ATOM     52  C   UNL A   1      45.136  25.558  27.082  1.00  0.00     0.074 A 
ATOM     53  C   UNL A   1      48.335  31.005  27.711  1.00  0.00     0.029 A 
ATOM     54  N   UNL A   1      46.758  29.438  27.667  1.00  0.00    -0.354 N 
ATOM     55  N   UNL A   1      45.715  26.723  27.247  1.00  0.00    -0.248 NA
ATOM     56  C   UNL A   1      46.024  24.515  26.550  1.00  0.00     0.031 C 
ATOM     57  C   UNL A   1      48.904  29.818  27.237  1.00  0.00     0.029 A 
ATOM     58  C   UNL A   1      47.926  28.836  27.227  1.00  0.00     0.049 A 
ATOM     59  H   UNL A   1      45.890  28.984  27.757  1.00  0.00     0.167 HD
ATOM     60  C   UNL A   1      47.040  26.548  26.864  1.00  0.00     0.074 A 
ATOM     61  C   UNL A   1      47.180  25.162  26.467  1.00  0.00     0.031 C 
ATOM     62  C   UNL A   1      48.049  27.452  26.845  1.00  0.00     0.037 A 
BRANCH  49  63
ATOM     63  C   UNL A   1      46.396  33.130  28.655  1.00  0.00     0.058 A 
ATOM     64  C   UNL A   1      46.860  33.579  29.902  1.00  0.00     0.135 A 
ATOM     65  C   UNL A   1      46.335  34.061  27.605  1.00  0.00     0.135 A 
ATOM     66  F   UNL A   1      46.923  32.735  30.944  1.00  0.00    -0.206 F 
ATOM     67  C   UNL A   1      47.214  34.908  30.110  1.00  0.00     0.059 A 
ATOM     68  C   UNL A   1      46.710  35.389  27.784  1.00  0.00     0.059 A 
ATOM     69  F   UNL A   1      45.900  33.685  26.392  1.00  0.00    -0.206 F 
ATOM     70  C   UNL A   1      47.132  35.806  29.047  1.00  0.00     0.060 A 
BRANCH  70  71
ATOM     71  S   UNL A   1      47.589  37.529  29.334  1.00  0.00     0.124 S 
ATOM     72  O   UNL A   1      46.460  38.232  28.731  1.00  0.00    -0.237 OA
ATOM     73  O   UNL A   1      47.671  37.594  30.789  1.00  0.00    -0.237 OA
ATOM     74  O   UNL A   1      48.861  37.665  28.631  1.00  0.00    -0.744 OA
ENDBRANCH  70  71
ENDBRANCH  49  63
BRANCH  50  75
ATOM     75  C   UNL A   1      43.243  23.776  27.105  1.00  0.00     0.058 A 
ATOM     76  C   UNL A   1      43.091  22.862  28.158  1.00  0.00     0.135 A 
ATOM     77  C   UNL A   1      42.926  23.340  25.810  1.00  0.00     0.135 A 
ATOM     78  F   UNL A   1      43.388  23.233  29.414  1.00  0.00    -0.206 F 
ATOM     79  C   UNL A   1      42.652  21.561  27.938  1.00  0.00     0.059 A 
ATOM     80  C   UNL A   1      42.465  22.050  25.566  1.00  0.00     0.059 A 
ATOM     81  F   UNL A   1      43.040  24.181  24.770  1.00  0.00    -0.206 F 
ATOM     82  C   UNL A   1      42.341  21.164  26.637  1.00  0.00     0.060 A 
BRANCH  82  83
ATOM     83  S   UNL A   1      41.723  19.488  26.366  1.00  0.00     0.124 S 
ATOM     84  O   UNL A   1      42.412  19.118  25.135  1.00  0.00    -0.237 OA
ATOM     85  O   UNL A   1      42.163  18.799  27.576  1.00  0.00    -0.237 OA
ATOM     86  O   UNL A   1      40.281  19.678  26.252  1.00  0.00    -0.744 OA
ENDBRANCH  82  83
ENDBRANCH  50  75
BRANCH  62  87
ATOM     87  C   UNL A   1      49.404  26.966  26.409  1.00  0.00     0.058 A 
ATOM     88  C   UNL A   1      50.282  26.337  27.304  1.00  0.00     0.135 A 
ATOM     89  C   UNL A   1      49.803  27.085  25.068  1.00  0.00     0.135 A 
ATOM     90  F   UNL A   1      49.949  26.204  28.597  1.00  0.00    -0.206 F 
ATOM     91  C   UNL A   1      51.521  25.859  26.888  1.00  0.00     0.059 A 
ATOM     92  C   UNL A   1      51.027  26.595  24.626  1.00  0.00     0.059 A 
ATOM     93  F   UNL A   1      48.993  27.672  24.172  1.00  0.00    -0.206 F 
ATOM     94  C   UNL A   1      51.884  25.993  25.546  1.00  0.00     0.060 A 
BRANCH  94  95
ATOM     95  S   UNL A   1      53.479  25.337  25.009  1.00  0.00     0.124 S 
ATOM     96  O   UNL A   1      53.356  23.931  25.379  1.00  0.00    -0.237 OA
ATOM     97  O   UNL A   1      53.468  25.618  23.577  1.00  0.00    -0.237 OA
ATOM     98  O   UNL A   1      54.442  26.111  25.787  1.00  0.00    -0.744 OA
ENDBRANCH  94  95
ENDBRANCH  62  87
ENDBRANCH  36  37
ENDBRANCH  28  31
ENDBRANCH  26  27
ENDBRANCH   1  26
TORSDOF 19
ENDMDL
MODEL 2
REMARK VINA RESULT:     -10.4      6.791     13.201
REMARK SMILES COc1cc(C(C)C)cc([C@H]([NH3+])C(=O)NCCCCNC(=O)c2ccc(-c3c4nc(c(-c5c(F)cc(S(=O)(=O)[O-])cc5F)c5ccc([nH]5)c(-c5c(F)cc(S(=O)(=O)[O-])cc5F)c5nc(c(-c6c(F)cc(S(=O)(=O)[O-])cc6F)c6ccc3[nH]6)C=C5)C=C4)cc2)c1O
REMARK SMILES IDX 18 1 17 2 16 3 15 4 13 5 14 6 11 8 10 9 3 10 4 11 89 12 5 13
REMARK SMILES IDX 9 14 2 15 1 16 90 17 6 19 7 20 8 21 12 22 19 26 20 27 21 28
REMARK SMILES IDX 22 30 23 31 24 32 88 33 25 34 87 35 26 36 27 37 28 38 81 39
REMARK SMILES IDX 29 40 86 41 80 42 82 43 30 44 85 45 79 46 78 47 31 49 65 50
REMARK SMILES IDX 44 51 64 52 45 53 48 54 63 55 83 56 46 57 47 58 62 60 84 61
REMARK SMILES IDX 49 62 32 63 33 64 42 65 34 66 35 67 41 68 43 69 36 70 37 71
REMARK SMILES IDX 38 72 39 73 40 74 66 75 67 76 76 77 68 78 69 79 75 80 77 81
REMARK SMILES IDX 70 82 71 83 72 84 73 85 74 86 50 87 51 88 60 89 52 90 53 91
REMARK SMILES IDX 59 92 61 93 54 94 55 95 56 96 57 97 58 98
REMARK H PARENT 15 7 90 18 12 23 12 24 12 25 20 29 82 48 48 59
REMARK Flexibility Score: inf
ROOT
ATOM      1  C   UNL A   1      37.251  23.704  25.320  1.00  0.00     0.023 C 
ENDROOT
BRANCH   1   2
ATOM      2  C   UNL A   1      35.786  24.100  25.487  1.00  0.00     0.023 C 
BRANCH   2   3
ATOM      3  C   UNL A   1      34.799  22.939  25.488  1.00  0.00     0.116 C 
BRANCH   3   4
ATOM      4  N   UNL A   1      34.116  22.783  26.757  1.00  0.00    -0.351 N 
ATOM      5  C   UNL A   1      32.775  22.786  27.024  1.00  0.00     0.283 C 
ATOM      6  O   UNL A   1      32.435  22.617  28.201  1.00  0.00    -0.268 OA
ATOM      7  H   UNL A   1      34.701  22.657  27.538  1.00  0.00     0.163 HD
BRANCH   5   8
ATOM      8  C   UNL A   1      31.710  23.009  25.906  1.00  0.00     0.306 C 
BRANCH   8   9
ATOM      9  C   UNL A   1      31.442  24.489  25.658  1.00  0.00     0.065 A 
ATOM     10  C   UNL A   1      30.616  26.239  24.159  1.00  0.00     0.161 A 
ATOM     11  C   UNL A   1      31.227  27.202  24.970  1.00  0.00     0.054 A 
ATOM     12  C   UNL A   1      30.751  24.889  24.499  1.00  0.00     0.167 A 
ATOM     13  C   UNL A   1      31.924  26.844  26.131  1.00  0.00    -0.041 A 
ATOM     14  C   UNL A   1      31.972  25.491  26.489  1.00  0.00     0.018 A 
BRANCH  10  15
ATOM     15  O   UNL A   1      29.998  26.764  23.058  1.00  0.00    -0.493 OA
ATOM     16  C   UNL A   1      30.127  28.160  22.825  1.00  0.00     0.278 C 
ENDBRANCH  10  15
BRANCH  12  17
ATOM     17  O   UNL A   1      30.266  23.896  23.694  1.00  0.00    -0.504 OA
ATOM     18  H   UNL A   1      29.916  23.113  24.074  1.00  0.00     0.293 HD
ENDBRANCH  12  17
BRANCH  13  19
ATOM     19  C   UNL A   1      32.686  27.864  26.961  1.00  0.00     0.013 C 
ATOM     20  C   UNL A   1      33.994  28.279  26.277  1.00  0.00     0.012 C 
ATOM     21  C   UNL A   1      31.827  29.082  27.295  1.00  0.00     0.012 C 
ENDBRANCH  13  19
ENDBRANCH   8   9
BRANCH   8  22
ATOM     22  N   UNL A   1      30.502  22.197  26.203  1.00  0.00    -0.343 N 
ATOM     23  H   UNL A   1      30.776  21.233  26.386  1.00  0.00     0.345 HD
ATOM     24  H   UNL A   1      29.869  22.223  25.402  1.00  0.00     0.345 HD
ATOM     25  H   UNL A   1      30.029  22.578  27.022  1.00  0.00     0.345 HD
ENDBRANCH   8  22
ENDBRANCH   5   8
ENDBRANCH   3   4
ENDBRANCH   2   3
ENDBRANCH   1   2
BRANCH   1  26
ATOM     26  C   UNL A   1      38.169  24.084  26.477  1.00  0.00     0.116 C 
BRANCH  26  27
ATOM     27  N   UNL A   1      39.582  23.898  26.178  1.00  0.00    -0.352 N 
ATOM     28  C   UNL A   1      40.661  24.637  26.601  1.00  0.00     0.251 C 
ATOM     29  H   UNL A   1      39.794  23.137  25.590  1.00  0.00     0.163 HD
ATOM     30  O   UNL A   1      41.781  24.400  26.157  1.00  0.00    -0.269 OA
BRANCH  28  31
ATOM     31  C   UNL A   1      40.460  25.743  27.562  1.00  0.00     0.039 A 
ATOM     32  C   UNL A   1      39.507  25.596  28.573  1.00  0.00     0.014 A 
ATOM     33  C   UNL A   1      41.231  26.906  27.486  1.00  0.00     0.014 A 
ATOM     34  C   UNL A   1      39.385  26.580  29.557  1.00  0.00     0.010 A 
ATOM     35  C   UNL A   1      41.158  27.851  28.505  1.00  0.00     0.010 A 
ATOM     36  C   UNL A   1      40.240  27.695  29.555  1.00  0.00    -0.014 A 
BRANCH  36  37
ATOM     37  C   UNL A   1      40.197  28.704  30.644  1.00  0.00     0.031 A 
ATOM     38  C   UNL A   1      41.099  28.562  31.840  1.00  0.00     0.074 A 
ATOM     39  C   UNL A   1      39.295  29.704  30.592  1.00  0.00     0.049 A 
ATOM     40  N   UNL A   1      41.146  29.286  32.929  1.00  0.00    -0.248 NA
ATOM     41  C   UNL A   1      42.053  27.443  31.821  1.00  0.00     0.031 C 
ATOM     42  C   UNL A   1      38.330  29.920  29.511  1.00  0.00     0.029 A 
ATOM     43  N   UNL A   1      39.032  30.720  31.477  1.00  0.00    -0.354 N 
ATOM     44  C   UNL A   1      42.119  28.701  33.730  1.00  0.00     0.074 A 
ATOM     45  C   UNL A   1      42.602  27.535  33.023  1.00  0.00     0.031 C 
ATOM     46  C   UNL A   1      37.596  31.011  29.787  1.00  0.00     0.029 A 
ATOM     47  C   UNL A   1      38.011  31.551  31.078  1.00  0.00     0.049 A 
ATOM     48  H   UNL A   1      39.527  30.842  32.320  1.00  0.00     0.167 HD
ATOM     49  C   UNL A   1      42.584  29.110  34.935  1.00  0.00     0.037 A 
ATOM     50  C   UNL A   1      37.468  32.624  31.685  1.00  0.00     0.037 A 
ATOM     51  C   UNL A   1      42.122  30.289  35.621  1.00  0.00     0.049 A 
ATOM     52  C   UNL A   1      38.009  33.067  33.017  1.00  0.00     0.074 A 
ATOM     53  C   UNL A   1      42.569  30.819  36.818  1.00  0.00     0.029 A 
ATOM     54  N   UNL A   1      41.109  31.121  35.168  1.00  0.00    -0.354 N 
ATOM     55  N   UNL A   1      38.967  32.533  33.735  1.00  0.00    -0.248 NA
ATOM     56  C   UNL A   1      37.399  34.261  33.619  1.00  0.00     0.031 C 
ATOM     57  C   UNL A   1      41.806  31.956  37.105  1.00  0.00     0.029 A 
ATOM     58  C   UNL A   1      40.909  32.155  36.068  1.00  0.00     0.049 A 
ATOM     59  H   UNL A   1      40.607  30.997  34.331  1.00  0.00     0.167 HD
ATOM     60  C   UNL A   1      39.093  33.339  34.861  1.00  0.00     0.074 A 
ATOM     61  C   UNL A   1      38.119  34.403  34.724  1.00  0.00     0.031 C 
ATOM     62  C   UNL A   1      39.940  33.211  35.912  1.00  0.00     0.037 A 
BRANCH  49  63
ATOM     63  C   UNL A   1      43.655  28.278  35.582  1.00  0.00     0.058 A 
ATOM     64  C   UNL A   1      45.018  28.520  35.343  1.00  0.00     0.135 A 
ATOM     65  C   UNL A   1      43.320  27.239  36.466  1.00  0.00     0.135 A 
ATOM     66  F   UNL A   1      45.393  29.490  34.495  1.00  0.00    -0.206 F 
ATOM     67  C   UNL A   1      46.008  27.740  35.930  1.00  0.00     0.059 A 
ATOM     68  C   UNL A   1      44.296  26.464  37.085  1.00  0.00     0.059 A 
ATOM     69  F   UNL A   1      42.032  26.965  36.730  1.00  0.00    -0.206 F 
ATOM     70  C   UNL A   1      45.638  26.712  36.796  1.00  0.00     0.060 A 
BRANCH  70  71
ATOM     71  S   UNL A   1      46.935  25.703  37.545  1.00  0.00     0.124 S 
ATOM     72  O   UNL A   1      46.901  24.514  36.698  1.00  0.00    -0.237 OA
ATOM     73  O   UNL A   1      48.114  26.550  37.401  1.00  0.00    -0.237 OA
ATOM     74  O   UNL A   1      46.467  25.512  38.915  1.00  0.00    -0.744 OA
ENDBRANCH  70  71
ENDBRANCH  49  63
BRANCH  50  75
ATOM     75  C   UNL A   1      36.366  33.371  31.025  1.00  0.00     0.058 A 
ATOM     76  C   UNL A   1      36.601  34.119  29.862  1.00  0.00     0.135 A 
ATOM     77  C   UNL A   1      35.057  33.344  31.531  1.00  0.00     0.135 A 
ATOM     78  F   UNL A   1      37.838  34.181  29.345  1.00  0.00    -0.206 F 
ATOM     79  C   UNL A   1      35.583  34.825  29.230  1.00  0.00     0.059 A 
ATOM     80  C   UNL A   1      34.017  34.023  30.905  1.00  0.00     0.059 A 
ATOM     81  F   UNL A   1      34.777  32.630  32.633  1.00  0.00    -0.206 F 
ATOM     82  C   UNL A   1      34.293  34.770  29.759  1.00  0.00     0.060 A 
BRANCH  82  83
ATOM     83  S   UNL A   1      32.966  35.646  28.903  1.00  0.00     0.124 S 
ATOM     84  O   UNL A   1      33.703  36.711  28.231  1.00  0.00    -0.237 OA
ATOM     85  O   UNL A   1      32.417  34.606  28.037  1.00  0.00    -0.237 OA
ATOM     86  O   UNL A   1      32.090  36.071  29.990  1.00  0.00    -0.744 OA
ENDBRANCH  82  83
ENDBRANCH  50  75
BRANCH  62  87
ATOM     87  C   UNL A   1      39.875  34.263  36.983  1.00  0.00     0.058 A 
ATOM     88  C   UNL A   1      40.482  35.518  36.821  1.00  0.00     0.135 A 
ATOM     89  C   UNL A   1      39.151  34.030  38.164  1.00  0.00     0.135 A 
ATOM     90  F   UNL A   1      41.191  35.787  35.714  1.00  0.00    -0.206 F 
ATOM     91  C   UNL A   1      40.391  36.499  37.802  1.00  0.00     0.059 A 
ATOM     92  C   UNL A   1      39.028  35.005  39.148  1.00  0.00     0.059 A 
ATOM     93  F   UNL A   1      38.544  32.848  38.362  1.00  0.00    -0.206 F 
ATOM     94  C   UNL A   1      39.660  36.233  38.963  1.00  0.00     0.060 A 
BRANCH  94  95
ATOM     95  S   UNL A   1      39.517  37.527  40.214  1.00  0.00     0.124 S 
ATOM     96  O   UNL A   1      38.574  38.443  39.581  1.00  0.00    -0.237 OA
ATOM     97  O   UNL A   1      39.010  36.793  41.369  1.00  0.00    -0.237 OA
ATOM     98  O   UNL A   1      40.884  38.023  40.345  1.00  0.00    -0.744 OA
ENDBRANCH  94  95
ENDBRANCH  62  87
ENDBRANCH  36  37
ENDBRANCH  28  31
ENDBRANCH  26  27
ENDBRANCH   1  26
TORSDOF 19
ENDMDL
MODEL 3
REMARK VINA RESULT:     -10.3      4.874      6.989
REMARK SMILES COc1cc(C(C)C)cc([C@H]([NH3+])C(=O)NCCCCNC(=O)c2ccc(-c3c4nc(c(-c5c(F)cc(S(=O)(=O)[O-])cc5F)c5ccc([nH]5)c(-c5c(F)cc(S(=O)(=O)[O-])cc5F)c5nc(c(-c6c(F)cc(S(=O)(=O)[O-])cc6F)c6ccc3[nH]6)C=C5)C=C4)cc2)c1O
REMARK SMILES IDX 18 1 17 2 16 3 15 4 13 5 14 6 11 8 10 9 3 10 4 11 89 12 5 13
REMARK SMILES IDX 9 14 2 15 1 16 90 17 6 19 7 20 8 21 12 22 19 26 20 27 21 28
REMARK SMILES IDX 22 30 23 31 24 32 88 33 25 34 87 35 26 36 27 37 28 38 81 39
REMARK SMILES IDX 29 40 86 41 80 42 82 43 30 44 85 45 79 46 78 47 31 49 65 50
REMARK SMILES IDX 44 51 64 52 45 53 48 54 63 55 83 56 46 57 47 58 62 60 84 61
REMARK SMILES IDX 49 62 32 63 33 64 42 65 34 66 35 67 41 68 43 69 36 70 37 71
REMARK SMILES IDX 38 72 39 73 40 74 66 75 67 76 76 77 68 78 69 79 75 80 77 81
REMARK SMILES IDX 70 82 71 83 72 84 73 85 74 86 50 87 51 88 60 89 52 90 53 91
REMARK SMILES IDX 59 92 61 93 54 94 55 95 56 96 57 97 58 98
REMARK H PARENT 15 7 90 18 12 23 12 24 12 25 20 29 82 48 48 59
REMARK Flexibility Score: inf
ROOT
ATOM      1  C   UNL A   1      32.425  27.894  26.257  1.00  0.00     0.023 C 
ENDROOT
BRANCH   1   2
ATOM      2  C   UNL A   1      31.702  28.996  25.487  1.00  0.00     0.023 C 
BRANCH   2   3
ATOM      3  C   UNL A   1      31.358  28.656  24.042  1.00  0.00     0.116 C 
BRANCH   3   4
ATOM      4  N   UNL A   1      32.530  28.526  23.200  1.00  0.00    -0.351 N 
ATOM      5  C   UNL A   1      32.868  27.523  22.335  1.00  0.00     0.283 C 
ATOM      6  O   UNL A   1      33.928  27.651  21.711  1.00  0.00    -0.268 OA
ATOM      7  H   UNL A   1      33.176  29.267  23.260  1.00  0.00     0.163 HD
BRANCH   5   8
ATOM      8  C   UNL A   1      31.974  26.259  22.146  1.00  0.00     0.306 C 
BRANCH   8   9
ATOM      9  C   UNL A   1      32.428  25.100  23.027  1.00  0.00     0.065 A 
ATOM     10  C   UNL A   1      31.857  23.372  24.664  1.00  0.00     0.161 A 
ATOM     11  C   UNL A   1      33.220  23.192  24.928  1.00  0.00     0.054 A 
ATOM     12  C   UNL A   1      31.475  24.344  23.733  1.00  0.00     0.167 A 
ATOM     13  C   UNL A   1      34.200  23.926  24.248  1.00  0.00    -0.041 A 
ATOM     14  C   UNL A   1      33.789  24.832  23.263  1.00  0.00     0.018 A 
BRANCH  10  15
ATOM     15  O   UNL A   1      31.042  22.588  25.434  1.00  0.00    -0.493 OA
ATOM     16  C   UNL A   1      30.533  23.143  26.640  1.00  0.00     0.278 C 
ENDBRANCH  10  15
BRANCH  12  17
ATOM     17  O   UNL A   1      30.160  24.639  23.505  1.00  0.00    -0.504 OA
ATOM     18  H   UNL A   1      29.920  25.184  22.781  1.00  0.00     0.293 HD
ENDBRANCH  12  17
BRANCH  13  19
ATOM     19  C   UNL A   1      35.674  23.823  24.600  1.00  0.00     0.013 C 
ATOM     20  C   UNL A   1      35.873  23.390  26.057  1.00  0.00     0.012 C 
ATOM     21  C   UNL A   1      36.424  22.900  23.643  1.00  0.00     0.012 C 
ENDBRANCH  13  19
ENDBRANCH   8   9
BRANCH   8  22
ATOM     22  N   UNL A   1      31.868  25.938  20.699  1.00  0.00    -0.343 N 
ATOM     23  H   UNL A   1      31.224  25.158  20.571  1.00  0.00     0.345 HD
ATOM     24  H   UNL A   1      32.788  25.681  20.339  1.00  0.00     0.345 HD
ATOM     25  H   UNL A   1      31.520  26.753  20.195  1.00  0.00     0.345 HD
ENDBRANCH   8  22
ENDBRANCH   5   8
ENDBRANCH   3   4
ENDBRANCH   2   3
ENDBRANCH   1   2
BRANCH   1  26
ATOM     26  C   UNL A   1      33.616  28.352  27.092  1.00  0.00     0.116 C 
BRANCH  26  27
ATOM     27  N   UNL A   1      33.539  29.750  27.491  1.00  0.00    -0.352 N 
ATOM     28  C   UNL A   1      34.504  30.540  28.070  1.00  0.00     0.251 C 
ATOM     29  H   UNL A   1      32.675  30.192  27.322  1.00  0.00     0.163 HD
ATOM     30  O   UNL A   1      34.225  31.677  28.442  1.00  0.00    -0.269 OA
BRANCH  28  31
ATOM     31  C   UNL A   1      35.865  30.000  28.277  1.00  0.00     0.039 A 
ATOM     32  C   UNL A   1      36.789  30.076  27.233  1.00  0.00     0.014 A 
ATOM     33  C   UNL A   1      36.237  29.453  29.508  1.00  0.00     0.014 A 
ATOM     34  C   UNL A   1      38.111  29.677  27.449  1.00  0.00     0.010 A 
ATOM     35  C   UNL A   1      37.569  29.124  29.743  1.00  0.00     0.010 A 
ATOM     36  C   UNL A   1      38.521  29.239  28.719  1.00  0.00    -0.014 A 
BRANCH  36  37
ATOM     37  C   UNL A   1      39.941  28.904  29.000  1.00  0.00     0.031 A 
ATOM     38  C   UNL A   1      40.860  29.943  29.583  1.00  0.00     0.074 A 
ATOM     39  C   UNL A   1      40.421  27.692  28.660  1.00  0.00     0.049 A 
ATOM     40  N   UNL A   1      42.145  29.872  29.815  1.00  0.00    -0.248 NA
ATOM     41  C   UNL A   1      40.259  31.242  29.924  1.00  0.00     0.031 C 
ATOM     42  C   UNL A   1      39.644  26.616  28.040  1.00  0.00     0.029 A 
ATOM     43  N   UNL A   1      41.682  27.162  28.775  1.00  0.00    -0.354 N 
ATOM     44  C   UNL A   1      42.510  31.117  30.311  1.00  0.00     0.074 A 
ATOM     45  C   UNL A   1      41.320  31.941  30.300  1.00  0.00     0.031 C 
ATOM     46  C   UNL A   1      40.440  25.550  27.850  1.00  0.00     0.029 A 
ATOM     47  C   UNL A   1      41.789  25.877  28.298  1.00  0.00     0.049 A 
ATOM     48  H   UNL A   1      42.440  27.658  29.163  1.00  0.00     0.167 HD
ATOM     49  C   UNL A   1      43.721  31.532  30.755  1.00  0.00     0.037 A 
ATOM     50  C   UNL A   1      42.855  25.056  28.226  1.00  0.00     0.037 A 
ATOM     51  C   UNL A   1      44.895  30.700  30.794  1.00  0.00     0.049 A 
ATOM     52  C   UNL A   1      44.187  25.533  28.738  1.00  0.00     0.074 A 
ATOM     53  C   UNL A   1      46.154  31.008  31.278  1.00  0.00     0.029 A 
ATOM     54  N   UNL A   1      44.954  29.394  30.330  1.00  0.00    -0.354 N 
ATOM     55  N   UNL A   1      44.501  26.698  29.254  1.00  0.00    -0.248 NA
ATOM     56  C   UNL A   1      45.307  24.586  28.662  1.00  0.00     0.031 C 
ATOM     57  C   UNL A   1      46.983  29.899  31.081  1.00  0.00     0.029 A 
ATOM     58  C   UNL A   1      46.231  28.886  30.507  1.00  0.00     0.049 A 
ATOM     59  H   UNL A   1      44.201  28.900  29.935  1.00  0.00     0.167 HD
ATOM     60  C   UNL A   1      45.848  26.614  29.588  1.00  0.00     0.074 A 
ATOM     61  C   UNL A   1      46.287  25.282  29.224  1.00  0.00     0.031 C 
ATOM     62  C   UNL A   1      46.648  27.554  30.147  1.00  0.00     0.037 A 
BRANCH  49  63
ATOM     63  C   UNL A   1      43.830  32.949  31.246  1.00  0.00     0.058 A 
ATOM     64  C   UNL A   1      44.280  33.983  30.409  1.00  0.00     0.135 A 
ATOM     65  C   UNL A   1      43.461  33.282  32.559  1.00  0.00     0.135 A 
ATOM     66  F   UNL A   1      44.661  33.717  29.150  1.00  0.00    -0.206 F 
ATOM     67  C   UNL A   1      44.395  35.291  30.868  1.00  0.00     0.059 A 
ATOM     68  C   UNL A   1      43.542  34.589  33.030  1.00  0.00     0.059 A 
ATOM     69  F   UNL A   1      43.022  32.332  33.400  1.00  0.00    -0.206 F 
ATOM     70  C   UNL A   1      44.028  35.583  32.181  1.00  0.00     0.060 A 
BRANCH  70  71
ATOM     71  S   UNL A   1      44.188  37.285  32.765  1.00  0.00     0.124 S 
ATOM     72  O   UNL A   1      43.850  38.036  31.560  1.00  0.00    -0.237 OA
ATOM     73  O   UNL A   1      43.207  37.341  33.843  1.00  0.00    -0.237 OA
ATOM     74  O   UNL A   1      45.583  37.369  33.186  1.00  0.00    -0.744 OA
ENDBRANCH  70  71
ENDBRANCH  49  63
BRANCH  50  75
ATOM     75  C   UNL A   1      42.700  23.686  27.672  1.00  0.00     0.058 A 
ATOM     76  C   UNL A   1      42.465  22.592  28.517  1.00  0.00     0.135 A 
ATOM     77  C   UNL A   1      42.769  23.443  26.292  1.00  0.00     0.135 A 
ATOM     78  F   UNL A   1      42.398  22.774  29.846  1.00  0.00    -0.206 F 
ATOM     79  C   UNL A   1      42.317  21.302  28.018  1.00  0.00     0.059 A 
ATOM     80  C   UNL A   1      42.602  22.166  25.765  1.00  0.00     0.059 A 
ATOM     81  F   UNL A   1      42.976  24.459  25.439  1.00  0.00    -0.206 F 
ATOM     82  C   UNL A   1      42.386  21.099  26.639  1.00  0.00     0.060 A 
BRANCH  82  83
ATOM     83  S   UNL A   1      42.141  19.430  25.994  1.00  0.00     0.124 S 
ATOM     84  O   UNL A   1      42.649  18.615  27.091  1.00  0.00    -0.237 OA
ATOM     85  O   UNL A   1      40.696  19.390  25.785  1.00  0.00    -0.237 OA
ATOM     86  O   UNL A   1      42.942  19.421  24.775  1.00  0.00    -0.744 OA
ENDBRANCH  82  83
ENDBRANCH  50  75
BRANCH  62  87
ATOM     87  C   UNL A   1      48.074  27.168  30.430  1.00  0.00     0.058 A 
ATOM     88  C   UNL A   1      49.098  27.408  29.503  1.00  0.00     0.135 A 
ATOM     89  C   UNL A   1      48.423  26.600  31.666  1.00  0.00     0.135 A 
ATOM     90  F   UNL A   1      48.814  27.942  28.305  1.00  0.00    -0.206 F 
ATOM     91  C   UNL A   1      50.421  27.078  29.782  1.00  0.00     0.059 A 
ATOM     92  C   UNL A   1      49.741  26.284  31.975  1.00  0.00     0.059 A 
ATOM     93  F   UNL A   1      47.479  26.360  32.590  1.00  0.00    -0.206 F 
ATOM     94  C   UNL A   1      50.732  26.517  31.023  1.00  0.00     0.060 A 
BRANCH  94  95
ATOM     95  S   UNL A   1      52.457  26.128  31.390  1.00  0.00     0.124 S 
ATOM     96  O   UNL A   1      53.060  26.188  30.063  1.00  0.00    -0.237 OA
ATOM     97  O   UNL A   1      52.833  27.200  32.306  1.00  0.00    -0.237 OA
ATOM     98  O   UNL A   1      52.383  24.798  31.988  1.00  0.00    -0.744 OA
ENDBRANCH  94  95
ENDBRANCH  62  87
ENDBRANCH  36  37
ENDBRANCH  28  31
ENDBRANCH  26  27
ENDBRANCH   1  26
TORSDOF 19
ENDMDL
