MODEL 1
REMARK VINA RESULT:     -10.9      0.000      0.000
REMARK SMILES CCC[C@]1(C(=O)NC[C@@H]2CC[C@H](C(=O)NCCCCNC(=O)c3ccc(-c4c5nc(c(-c6c(F)cc(S(=O)(=O)[O-])cc6F)c6ccc([nH]6)c(-c6c(F)cc(S(=O)(=O)[O-])cc6F)c6nc(c(-c7c(F)cc(S(=O)(=O)[O-])cc7F)c7ccc4[nH]7)C=C6)C=C5)cc3)O2)CCC[NH2+]C1
REMARK SMILES IDX 16 1 15 2 13 3 14 4 12 6 9 7 10 8 89 9 11 10 8 11 7 12 5 13
REMARK SMILES IDX 6 14 4 16 90 17 94 18 91 19 93 20 92 21 3 24 2 25 1 26 17 27
REMARK SMILES IDX 18 28 19 29 20 30 21 31 22 33 23 34 24 35 88 36 25 37 87 38
REMARK SMILES IDX 26 39 27 40 28 41 81 42 29 43 86 44 80 45 82 46 30 47 85 48
REMARK SMILES IDX 79 49 78 50 31 52 65 53 44 54 64 55 45 56 48 57 63 58 83 59
REMARK SMILES IDX 46 60 47 61 62 63 84 64 49 65 32 66 33 67 42 68 34 69 35 70
REMARK SMILES IDX 41 71 43 72 36 73 37 74 38 75 39 76 40 77 66 78 67 79 76 80
REMARK SMILES IDX 68 81 69 82 75 83 77 84 70 85 71 86 72 87 73 88 74 89 50 90
REMARK SMILES IDX 51 91 60 92 52 93 53 94 59 95 61 96 54 97 55 98 56 99 57 100
REMARK SMILES IDX 58 101
REMARK H PARENT 15 5 7 15 93 22 93 23 20 32 82 51 48 62
REMARK Flexibility Score: inf
ROOT
ATOM      1  C   UNL A   1      31.403  29.411  24.950  1.00  0.00     0.116 C 
ENDROOT
BRANCH   1   2
ATOM      2  N   UNL A   1      30.752  28.544  23.994  1.00  0.00    -0.354 N 
ATOM      3  C   UNL A   1      30.404  27.230  24.127  1.00  0.00     0.249 C 
ATOM      4  O   UNL A   1      29.749  26.708  23.220  1.00  0.00    -0.272 OA
ATOM      5  H   UNL A   1      30.529  28.958  23.128  1.00  0.00     0.163 HD
BRANCH   3   6
ATOM      6  C   UNL A   1      30.845  26.392  25.351  1.00  0.00     0.207 C 
ATOM      7  C   UNL A   1      31.592  24.241  25.849  1.00  0.00     0.138 C 
ATOM      8  C   UNL A   1      30.087  24.211  26.056  1.00  0.00     0.037 C 
ATOM      9  O   UNL A   1      31.854  25.421  25.080  1.00  0.00    -0.363 OA
ATOM     10  C   UNL A   1      29.704  25.678  26.065  1.00  0.00     0.045 C 
BRANCH   7  11
ATOM     11  C   UNL A   1      32.225  22.993  25.195  1.00  0.00     0.147 C 
BRANCH  11  12
ATOM     12  N   UNL A   1      33.084  23.260  24.042  1.00  0.00    -0.353 N 
ATOM     13  C   UNL A   1      34.409  23.111  23.766  1.00  0.00     0.232 C 
ATOM     14  O   UNL A   1      34.713  23.484  22.626  1.00  0.00    -0.274 OA
ATOM     15  H   UNL A   1      32.584  23.639  23.284  1.00  0.00     0.163 HD
BRANCH  13  16
ATOM     16  C   UNL A   1      35.464  22.484  24.714  1.00  0.00     0.098 C 
ATOM     17  C   UNL A   1      36.750  22.045  23.991  1.00  0.00     0.028 C 
ATOM     18  C   UNL A   1      35.824  23.591  25.748  1.00  0.00     0.277 C 
ATOM     19  C   UNL A   1      37.899  21.724  24.943  1.00  0.00     0.063 C 
ATOM     20  N   UNL A   1      36.923  23.219  26.646  1.00  0.00    -0.345 N 
ATOM     21  C   UNL A   1      38.136  22.887  25.902  1.00  0.00     0.260 C 
ATOM     22  H   UNL A   1      37.121  24.001  27.270  1.00  0.00     0.346 HD
ATOM     23  H   UNL A   1      36.638  22.394  27.175  1.00  0.00     0.346 HD
BRANCH  16  24
ATOM     24  C   UNL A   1      34.849  21.285  25.538  1.00  0.00     0.022 C 
BRANCH  24  25
ATOM     25  C   UNL A   1      34.647  19.898  24.908  1.00  0.00    -0.002 C 
ATOM     26  C   UNL A   1      33.260  19.288  24.938  1.00  0.00     0.004 C 
ENDBRANCH  24  25
ENDBRANCH  16  24
ENDBRANCH  13  16
ENDBRANCH  11  12
ENDBRANCH   7  11
ENDBRANCH   3   6
ENDBRANCH   1   2
BRANCH   1  27
ATOM     27  C   UNL A   1      32.924  29.403  24.847  1.00  0.00     0.023 C 
BRANCH  27  28
ATOM     28  C   UNL A   1      33.616  28.443  25.818  1.00  0.00     0.023 C 
BRANCH  28  29
ATOM     29  C   UNL A   1      33.379  28.716  27.305  1.00  0.00     0.116 C 
BRANCH  29  30
ATOM     30  N   UNL A   1      33.393  30.125  27.668  1.00  0.00    -0.352 N 
ATOM     31  C   UNL A   1      34.454  30.856  28.174  1.00  0.00     0.251 C 
ATOM     32  H   UNL A   1      32.551  30.617  27.536  1.00  0.00     0.163 HD
ATOM     33  O   UNL A   1      34.327  32.020  28.498  1.00  0.00    -0.269 OA
BRANCH  31  34
ATOM     34  C   UNL A   1      35.746  30.157  28.353  1.00  0.00     0.039 A 
ATOM     35  C   UNL A   1      36.689  30.188  27.327  1.00  0.00     0.014 A 
ATOM     36  C   UNL A   1      36.048  29.561  29.578  1.00  0.00     0.014 A 
ATOM     37  C   UNL A   1      37.979  29.708  27.571  1.00  0.00     0.010 A 
ATOM     38  C   UNL A   1      37.348  29.142  29.842  1.00  0.00     0.010 A 
ATOM     39  C   UNL A   1      38.336  29.239  28.850  1.00  0.00    -0.014 A 
BRANCH  39  40
ATOM     40  C   UNL A   1      39.748  28.918  29.188  1.00  0.00     0.031 A 
ATOM     41  C   UNL A   1      40.635  29.947  29.829  1.00  0.00     0.074 A 
ATOM     42  C   UNL A   1      40.252  27.717  28.836  1.00  0.00     0.049 A 
ATOM     43  N   UNL A   1      41.912  29.877  30.107  1.00  0.00    -0.248 NA
ATOM     44  C   UNL A   1      40.012  31.232  30.186  1.00  0.00     0.031 C 
ATOM     45  C   UNL A   1      39.508  26.650  28.161  1.00  0.00     0.029 A 
ATOM     46  N   UNL A   1      41.513  27.192  28.983  1.00  0.00    -0.354 N 
ATOM     47  C   UNL A   1      42.248  31.105  30.665  1.00  0.00     0.074 A 
ATOM     48  C   UNL A   1      41.050  31.919  30.641  1.00  0.00     0.031 C 
ATOM     49  C   UNL A   1      40.317  25.595  27.974  1.00  0.00     0.029 A 
ATOM     50  C   UNL A   1      41.648  25.921  28.475  1.00  0.00     0.049 A 
ATOM     51  H   UNL A   1      42.252  27.682  29.412  1.00  0.00     0.167 HD
ATOM     52  C   UNL A   1      43.438  31.507  31.172  1.00  0.00     0.037 A 
ATOM     53  C   UNL A   1      42.723  25.113  28.407  1.00  0.00     0.037 A 
ATOM     54  C   UNL A   1      44.622  30.690  31.206  1.00  0.00     0.049 A 
ATOM     55  C   UNL A   1      44.038  25.590  28.964  1.00  0.00     0.074 A 
ATOM     56  C   UNL A   1      45.868  31.000  31.726  1.00  0.00     0.029 A 
ATOM     57  N   UNL A   1      44.709  29.399  30.707  1.00  0.00    -0.354 N 
ATOM     58  N   UNL A   1      44.323  26.738  29.530  1.00  0.00    -0.248 NA
ATOM     59  C   UNL A   1      45.176  24.665  28.873  1.00  0.00     0.031 C 
ATOM     60  C   UNL A   1      46.715  29.908  31.514  1.00  0.00     0.029 A 
ATOM     61  C   UNL A   1      45.988  28.902  30.898  1.00  0.00     0.049 A 
ATOM     62  H   UNL A   1      43.970  28.908  30.278  1.00  0.00     0.167 HD
ATOM     63  C   UNL A   1      45.663  26.659  29.894  1.00  0.00     0.074 A 
ATOM     64  C   UNL A   1      46.132  25.351  29.486  1.00  0.00     0.031 C 
ATOM     65  C   UNL A   1      46.432  27.587  30.512  1.00  0.00     0.037 A 
BRANCH  52  66
ATOM     66  C   UNL A   1      43.514  32.895  31.748  1.00  0.00     0.058 A 
ATOM     67  C   UNL A   1      43.709  34.016  30.925  1.00  0.00     0.135 A 
ATOM     68  C   UNL A   1      43.351  33.113  33.125  1.00  0.00     0.135 A 
ATOM     69  F   UNL A   1      43.883  33.862  29.603  1.00  0.00    -0.206 F 
ATOM     70  C   UNL A   1      43.767  35.302  31.451  1.00  0.00     0.059 A 
ATOM     71  C   UNL A   1      43.380  34.395  33.669  1.00  0.00     0.059 A 
ATOM     72  F   UNL A   1      43.158  32.077  33.957  1.00  0.00    -0.206 F 
ATOM     73  C   UNL A   1      43.603  35.481  32.825  1.00  0.00     0.060 A 
BRANCH  73  74
ATOM     74  S   UNL A   1      43.676  37.158  33.489  1.00  0.00     0.124 S 
ATOM     75  O   UNL A   1      42.348  37.296  34.080  1.00  0.00    -0.237 OA
ATOM     76  O   UNL A   1      44.783  37.074  34.435  1.00  0.00    -0.237 OA
ATOM     77  O   UNL A   1      43.925  37.981  32.309  1.00  0.00    -0.744 OA
ENDBRANCH  73  74
ENDBRANCH  52  66
BRANCH  53  78
ATOM     78  C   UNL A   1      42.605  23.758  27.804  1.00  0.00     0.058 A 
ATOM     79  C   UNL A   1      42.422  22.625  28.611  1.00  0.00     0.135 A 
ATOM     80  C   UNL A   1      42.675  23.566  26.416  1.00  0.00     0.135 A 
ATOM     81  F   UNL A   1      42.353  22.756  29.944  1.00  0.00    -0.206 F 
ATOM     82  C   UNL A   1      42.340  21.348  28.067  1.00  0.00     0.059 A 
ATOM     83  C   UNL A   1      42.572  22.301  25.846  1.00  0.00     0.059 A 
ATOM     84  F   UNL A   1      42.830  24.620  25.599  1.00  0.00    -0.206 F 
ATOM     85  C   UNL A   1      42.419  21.196  26.681  1.00  0.00     0.060 A 
BRANCH  85  86
ATOM     86  S   UNL A   1      42.286  19.537  25.981  1.00  0.00     0.124 S 
ATOM     87  O   UNL A   1      40.853  19.439  25.730  1.00  0.00    -0.237 OA
ATOM     88  O   UNL A   1      43.136  19.630  24.799  1.00  0.00    -0.237 OA
ATOM     89  O   UNL A   1      42.800  18.682  27.048  1.00  0.00    -0.744 OA
ENDBRANCH  85  86
ENDBRANCH  53  78
BRANCH  65  90
ATOM     90  C   UNL A   1      47.851  27.214  30.835  1.00  0.00     0.058 A 
ATOM     91  C   UNL A   1      48.211  26.701  32.089  1.00  0.00     0.135 A 
ATOM     92  C   UNL A   1      48.846  27.295  29.847  1.00  0.00     0.135 A 
ATOM     93  F   UNL A   1      47.300  26.612  33.071  1.00  0.00    -0.206 F 
ATOM     94  C   UNL A   1      49.511  26.283  32.356  1.00  0.00     0.059 A 
ATOM     95  C   UNL A   1      50.147  26.864  30.083  1.00  0.00     0.059 A 
ATOM     96  F   UNL A   1      48.550  27.775  28.628  1.00  0.00    -0.206 F 
ATOM     97  C   UNL A   1      50.471  26.362  31.344  1.00  0.00     0.060 A 
BRANCH  97  98
ATOM     98  S   UNL A   1      52.137  25.753  31.679  1.00  0.00     0.124 S 
ATOM     99  O   UNL A   1      52.502  26.524  32.862  1.00  0.00    -0.237 OA
ATOM    100  O   UNL A   1      51.911  24.327  31.898  1.00  0.00    -0.237 OA
ATOM    101  O   UNL A   1      52.872  26.084  30.462  1.00  0.00    -0.744 OA
ENDBRANCH  97  98
ENDBRANCH  65  90
ENDBRANCH  39  40
ENDBRANCH  31  34
ENDBRANCH  29  30
ENDBRANCH  28  29
ENDBRANCH  27  28
ENDBRANCH   1  27
TORSDOF 19
ENDMDL
MODEL 2
REMARK VINA RESULT:     -10.4      2.757      3.635
REMARK SMILES CCC[C@]1(C(=O)NC[C@@H]2CC[C@H](C(=O)NCCCCNC(=O)c3ccc(-c4c5nc(c(-c6c(F)cc(S(=O)(=O)[O-])cc6F)c6ccc([nH]6)c(-c6c(F)cc(S(=O)(=O)[O-])cc6F)c6nc(c(-c7c(F)cc(S(=O)(=O)[O-])cc7F)c7ccc4[nH]7)C=C6)C=C5)cc3)O2)CCC[NH2+]C1
REMARK SMILES IDX 16 1 15 2 13 3 14 4 12 6 9 7 10 8 89 9 11 10 8 11 7 12 5 13
REMARK SMILES IDX 6 14 4 16 90 17 94 18 91 19 93 20 92 21 3 24 2 25 1 26 17 27
REMARK SMILES IDX 18 28 19 29 20 30 21 31 22 33 23 34 24 35 88 36 25 37 87 38
REMARK SMILES IDX 26 39 27 40 28 41 81 42 29 43 86 44 80 45 82 46 30 47 85 48
REMARK SMILES IDX 79 49 78 50 31 52 65 53 44 54 64 55 45 56 48 57 63 58 83 59
REMARK SMILES IDX 46 60 47 61 62 63 84 64 49 65 32 66 33 67 42 68 34 69 35 70
REMARK SMILES IDX 41 71 43 72 36 73 37 74 38 75 39 76 40 77 66 78 67 79 76 80
REMARK SMILES IDX 68 81 69 82 75 83 77 84 70 85 71 86 72 87 73 88 74 89 50 90
REMARK SMILES IDX 51 91 60 92 52 93 53 94 59 95 61 96 54 97 55 98 56 99 57 100
REMARK SMILES IDX 58 101
REMARK H PARENT 15 5 7 15 93 22 93 23 20 32 82 51 48 62
REMARK Flexibility Score: inf
ROOT
ATOM      1  C   UNL A   1      32.491  29.489  25.236  1.00  0.00     0.116 C 
ENDROOT
BRANCH   1   2
ATOM      2  N   UNL A   1      32.752  28.661  24.081  1.00  0.00    -0.354 N 
ATOM      3  C   UNL A   1      32.298  27.400  23.810  1.00  0.00     0.249 C 
ATOM      4  O   UNL A   1      32.552  26.917  22.703  1.00  0.00    -0.272 OA
ATOM      5  H   UNL A   1      33.335  29.059  23.394  1.00  0.00     0.163 HD
BRANCH   3   6
ATOM      6  C   UNL A   1      31.524  26.572  24.863  1.00  0.00     0.207 C 
ATOM      7  C   UNL A   1      31.801  24.658  26.164  1.00  0.00     0.138 C 
ATOM      8  C   UNL A   1      31.081  24.199  24.907  1.00  0.00     0.037 C 
ATOM      9  O   UNL A   1      32.340  25.948  25.852  1.00  0.00    -0.363 OA
ATOM     10  C   UNL A   1      30.620  25.497  24.273  1.00  0.00     0.045 C 
BRANCH   7  11
ATOM     11  C   UNL A   1      32.890  23.713  26.719  1.00  0.00     0.147 C 
BRANCH  11  12
ATOM     12  N   UNL A   1      32.975  22.407  26.065  1.00  0.00    -0.353 N 
ATOM     13  C   UNL A   1      33.907  21.758  25.314  1.00  0.00     0.232 C 
ATOM     14  O   UNL A   1      33.544  20.632  24.955  1.00  0.00    -0.274 OA
ATOM     15  H   UNL A   1      32.162  21.868  26.201  1.00  0.00     0.163 HD
BRANCH  13  16
ATOM     16  C   UNL A   1      35.321  22.295  24.969  1.00  0.00     0.098 C 
ATOM     17  C   UNL A   1      35.878  23.267  26.025  1.00  0.00     0.028 C 
ATOM     18  C   UNL A   1      36.249  21.046  24.900  1.00  0.00     0.277 C 
ATOM     19  C   UNL A   1      37.369  23.549  25.859  1.00  0.00     0.063 C 
ATOM     20  N   UNL A   1      37.667  21.380  24.723  1.00  0.00    -0.345 N 
ATOM     21  C   UNL A   1      38.154  22.242  25.796  1.00  0.00     0.260 C 
ATOM     22  H   UNL A   1      38.212  20.518  24.717  1.00  0.00     0.346 HD
ATOM     23  H   UNL A   1      37.770  21.881  23.840  1.00  0.00     0.346 HD
BRANCH  16  24
ATOM     24  C   UNL A   1      35.348  22.953  23.534  1.00  0.00     0.022 C 
BRANCH  24  25
ATOM     25  C   UNL A   1      34.240  23.913  23.070  1.00  0.00    -0.002 C 
ATOM     26  C   UNL A   1      33.276  23.438  22.002  1.00  0.00     0.004 C 
ENDBRANCH  24  25
ENDBRANCH  16  24
ENDBRANCH  13  16
ENDBRANCH  11  12
ENDBRANCH   7  11
ENDBRANCH   3   6
ENDBRANCH   1   2
BRANCH   1  27
ATOM     27  C   UNL A   1      33.403  29.190  26.421  1.00  0.00     0.023 C 
BRANCH  27  28
ATOM     28  C   UNL A   1      33.803  30.423  27.235  1.00  0.00     0.023 C 
BRANCH  28  29
ATOM     29  C   UNL A   1      35.194  30.375  27.873  1.00  0.00     0.116 C 
BRANCH  29  30
ATOM     30  N   UNL A   1      35.256  30.917  29.222  1.00  0.00    -0.352 N 
ATOM     31  C   UNL A   1      36.287  30.791  30.136  1.00  0.00     0.251 C 
ATOM     32  H   UNL A   1      34.473  31.435  29.519  1.00  0.00     0.163 HD
ATOM     33  O   UNL A   1      36.198  31.240  31.262  1.00  0.00    -0.269 OA
BRANCH  31  34
ATOM     34  C   UNL A   1      37.494  30.047  29.711  1.00  0.00     0.039 A 
ATOM     35  C   UNL A   1      37.888  30.086  28.375  1.00  0.00     0.014 A 
ATOM     36  C   UNL A   1      38.281  29.401  30.666  1.00  0.00     0.014 A 
ATOM     37  C   UNL A   1      39.131  29.560  28.014  1.00  0.00     0.010 A 
ATOM     38  C   UNL A   1      39.545  28.934  30.318  1.00  0.00     0.010 A 
ATOM     39  C   UNL A   1      39.996  29.036  28.994  1.00  0.00    -0.014 A 
BRANCH  39  40
ATOM     40  C   UNL A   1      41.397  28.660  28.666  1.00  0.00     0.031 A 
ATOM     41  C   UNL A   1      42.481  29.700  28.636  1.00  0.00     0.074 A 
ATOM     42  C   UNL A   1      41.672  27.388  28.312  1.00  0.00     0.049 A 
ATOM     43  N   UNL A   1      43.735  29.574  28.281  1.00  0.00    -0.248 NA
ATOM     44  C   UNL A   1      42.105  31.065  29.038  1.00  0.00     0.031 C 
ATOM     45  C   UNL A   1      40.696  26.296  28.251  1.00  0.00     0.029 A 
ATOM     46  N   UNL A   1      42.849  26.796  27.923  1.00  0.00    -0.354 N 
ATOM     47  C   UNL A   1      44.295  30.840  28.409  1.00  0.00     0.074 A 
ATOM     48  C   UNL A   1      43.232  31.730  28.828  1.00  0.00     0.031 C 
ATOM     49  C   UNL A   1      41.318  25.168  27.872  1.00  0.00     0.029 A 
ATOM     50  C   UNL A   1      42.725  25.460  27.621  1.00  0.00     0.049 A 
ATOM     51  H   UNL A   1      43.703  27.284  27.865  1.00  0.00     0.167 HD
ATOM     52  C   UNL A   1      45.581  31.219  28.218  1.00  0.00     0.037 A 
ATOM     53  C   UNL A   1      43.637  24.572  27.179  1.00  0.00     0.037 A 
ATOM     54  C   UNL A   1      46.638  30.329  27.815  1.00  0.00     0.049 A 
ATOM     55  C   UNL A   1      45.056  25.023  26.960  1.00  0.00     0.074 A 
ATOM     56  C   UNL A   1      47.979  30.615  27.623  1.00  0.00     0.029 A 
ATOM     57  N   UNL A   1      46.476  28.978  27.546  1.00  0.00    -0.354 N 
ATOM     58  N   UNL A   1      45.576  26.214  27.133  1.00  0.00    -0.248 NA
ATOM     59  C   UNL A   1      46.012  24.012  26.487  1.00  0.00     0.031 C 
ATOM     60  C   UNL A   1      48.622  29.443  27.210  1.00  0.00     0.029 A 
ATOM     61  C   UNL A   1      47.690  28.418  27.182  1.00  0.00     0.049 A 
ATOM     62  H   UNL A   1      45.623  28.488  27.603  1.00  0.00     0.167 HD
ATOM     63  C   UNL A   1      46.926  26.087  26.823  1.00  0.00     0.074 A 
ATOM     64  C   UNL A   1      47.143  24.704  26.454  1.00  0.00     0.031 C 
ATOM     65  C   UNL A   1      47.896  27.032  26.845  1.00  0.00     0.037 A 
BRANCH  52  66
ATOM     66  C   UNL A   1      45.923  32.664  28.461  1.00  0.00     0.058 A 
ATOM     67  C   UNL A   1      46.341  33.111  29.724  1.00  0.00     0.135 A 
ATOM     68  C   UNL A   1      45.873  33.601  27.417  1.00  0.00     0.135 A 
ATOM     69  F   UNL A   1      46.395  32.260  30.760  1.00  0.00    -0.206 F 
ATOM     70  C   UNL A   1      46.671  34.444  29.951  1.00  0.00     0.059 A 
ATOM     71  C   UNL A   1      46.224  34.934  27.615  1.00  0.00     0.059 A 
ATOM     72  F   UNL A   1      45.483  33.226  26.188  1.00  0.00    -0.206 F 
ATOM     73  C   UNL A   1      46.608  35.348  28.890  1.00  0.00     0.060 A 
BRANCH  73  74
ATOM     74  S   UNL A   1      47.045  37.072  29.201  1.00  0.00     0.124 S 
ATOM     75  O   UNL A   1      48.484  36.970  29.431  1.00  0.00    -0.237 OA
ATOM     76  O   UNL A   1      46.649  37.726  27.958  1.00  0.00    -0.237 OA
ATOM     77  O   UNL A   1      46.246  37.419  30.371  1.00  0.00    -0.744 OA
ENDBRANCH  73  74
ENDBRANCH  52  66
BRANCH  53  78
ATOM     78  C   UNL A   1      43.245  23.159  26.928  1.00  0.00     0.058 A 
ATOM     79  C   UNL A   1      43.028  22.273  27.994  1.00  0.00     0.135 A 
ATOM     80  C   UNL A   1      43.085  22.665  25.625  1.00  0.00     0.135 A 
ATOM     81  F   UNL A   1      43.174  22.697  29.259  1.00  0.00    -0.206 F 
ATOM     82  C   UNL A   1      42.692  20.941  27.779  1.00  0.00     0.059 A 
ATOM     83  C   UNL A   1      42.725  21.342  25.384  1.00  0.00     0.059 A 
ATOM     84  F   UNL A   1      43.262  23.477  24.571  1.00  0.00    -0.206 F 
ATOM     85  C   UNL A   1      42.545  20.484  26.467  1.00  0.00     0.060 A 
BRANCH  85  86
ATOM     86  S   UNL A   1      42.083  18.759  26.196  1.00  0.00     0.124 S 
ATOM     87  O   UNL A   1      42.279  18.191  27.524  1.00  0.00    -0.237 OA
ATOM     88  O   UNL A   1      40.699  18.877  25.749  1.00  0.00    -0.237 OA
ATOM     89  O   UNL A   1      43.027  18.318  25.174  1.00  0.00    -0.744 OA
ENDBRANCH  85  86
ENDBRANCH  53  78
BRANCH  65  90
ATOM     90  C   UNL A   1      49.296  26.603  26.510  1.00  0.00     0.058 A 
ATOM     91  C   UNL A   1      49.791  26.660  25.199  1.00  0.00     0.135 A 
ATOM     92  C   UNL A   1      50.177  26.209  27.530  1.00  0.00     0.135 A 
ATOM     93  F   UNL A   1      48.986  27.020  24.187  1.00  0.00    -0.206 F 
ATOM     94  C   UNL A   1      51.113  26.336  24.909  1.00  0.00     0.059 A 
ATOM     95  C   UNL A   1      51.508  25.902  27.267  1.00  0.00     0.059 A 
ATOM     96  F   UNL A   1      49.753  26.144  28.802  1.00  0.00    -0.206 F 
ATOM     97  C   UNL A   1      51.966  25.964  25.951  1.00  0.00     0.060 A 
BRANCH  97  98
ATOM     98  S   UNL A   1      53.696  25.615  25.572  1.00  0.00     0.124 S 
ATOM     99  O   UNL A   1      54.139  26.887  25.012  1.00  0.00    -0.237 OA
ATOM    100  O   UNL A   1      54.242  25.274  26.883  1.00  0.00    -0.237 OA
ATOM    101  O   UNL A   1      53.619  24.505  24.626  1.00  0.00    -0.744 OA
ENDBRANCH  97  98
ENDBRANCH  65  90
ENDBRANCH  39  40
ENDBRANCH  31  34
ENDBRANCH  29  30
ENDBRANCH  28  29
ENDBRANCH  27  28
ENDBRANCH   1  27
TORSDOF 19
ENDMDL
MODEL 3
REMARK VINA RESULT:     -10.3      3.572      6.937
REMARK SMILES CCC[C@]1(C(=O)NC[C@@H]2CC[C@H](C(=O)NCCCCNC(=O)c3ccc(-c4c5nc(c(-c6c(F)cc(S(=O)(=O)[O-])cc6F)c6ccc([nH]6)c(-c6c(F)cc(S(=O)(=O)[O-])cc6F)c6nc(c(-c7c(F)cc(S(=O)(=O)[O-])cc7F)c7ccc4[nH]7)C=C6)C=C5)cc3)O2)CCC[NH2+]C1
REMARK SMILES IDX 16 1 15 2 13 3 14 4 12 6 9 7 10 8 89 9 11 10 8 11 7 12 5 13
REMARK SMILES IDX 6 14 4 16 90 17 94 18 91 19 93 20 92 21 3 24 2 25 1 26 17 27
REMARK SMILES IDX 18 28 19 29 20 30 21 31 22 33 23 34 24 35 88 36 25 37 87 38
REMARK SMILES IDX 26 39 27 40 28 41 81 42 29 43 86 44 80 45 82 46 30 47 85 48
REMARK SMILES IDX 79 49 78 50 31 52 65 53 44 54 64 55 45 56 48 57 63 58 83 59
REMARK SMILES IDX 46 60 47 61 62 63 84 64 49 65 32 66 33 67 42 68 34 69 35 70
REMARK SMILES IDX 41 71 43 72 36 73 37 74 38 75 39 76 40 77 66 78 67 79 76 80
REMARK SMILES IDX 68 81 69 82 75 83 77 84 70 85 71 86 72 87 73 88 74 89 50 90
REMARK SMILES IDX 51 91 60 92 52 93 53 94 59 95 61 96 54 97 55 98 56 99 57 100
REMARK SMILES IDX 58 101
REMARK H PARENT 15 5 7 15 93 22 93 23 20 32 82 51 48 62
REMARK Flexibility Score: inf
ROOT
ATOM      1  C   UNL A   1      36.370  33.643  33.148  1.00  0.00     0.116 C 
ENDROOT
BRANCH   1   2
ATOM      2  N   UNL A   1      36.550  33.465  34.571  1.00  0.00    -0.354 N 
ATOM      3  C   UNL A   1      37.351  32.574  35.228  1.00  0.00     0.249 C 
ATOM      4  O   UNL A   1      37.441  32.670  36.456  1.00  0.00    -0.272 OA
ATOM      5  H   UNL A   1      36.026  34.070  35.145  1.00  0.00     0.163 HD
BRANCH   3   6
ATOM      6  C   UNL A   1      38.097  31.445  34.479  1.00  0.00     0.207 C 
ATOM      7  C   UNL A   1      40.061  30.202  34.650  1.00  0.00     0.138 C 
ATOM      8  C   UNL A   1      40.393  31.369  33.736  1.00  0.00     0.037 C 
ATOM      9  O   UNL A   1      38.845  30.564  35.315  1.00  0.00    -0.363 OA
ATOM     10  C   UNL A   1      39.032  31.933  33.379  1.00  0.00     0.045 C 
BRANCH   7  11
ATOM     11  C   UNL A   1      41.152  29.786  35.663  1.00  0.00     0.147 C 
BRANCH  11  12
ATOM     12  N   UNL A   1      40.943  28.491  36.309  1.00  0.00    -0.353 N 
ATOM     13  C   UNL A   1      41.435  27.233  36.139  1.00  0.00     0.232 C 
ATOM     14  O   UNL A   1      40.960  26.413  36.935  1.00  0.00    -0.274 OA
ATOM     15  H   UNL A   1      40.289  28.541  37.043  1.00  0.00     0.163 HD
BRANCH  13  16
ATOM     16  C   UNL A   1      42.527  26.821  35.118  1.00  0.00     0.098 C 
ATOM     17  C   UNL A   1      42.349  27.478  33.737  1.00  0.00     0.028 C 
ATOM     18  C   UNL A   1      43.881  27.293  35.725  1.00  0.00     0.277 C 
ATOM     19  C   UNL A   1      43.573  27.333  32.837  1.00  0.00     0.063 C 
ATOM     20  N   UNL A   1      45.023  27.113  34.820  1.00  0.00    -0.345 N 
ATOM     21  C   UNL A   1      44.826  27.822  33.559  1.00  0.00     0.260 C 
ATOM     22  H   UNL A   1      45.865  27.471  35.274  1.00  0.00     0.346 HD
ATOM     23  H   UNL A   1      45.115  26.117  34.617  1.00  0.00     0.346 HD
BRANCH  16  24
ATOM     24  C   UNL A   1      42.620  25.250  34.982  1.00  0.00     0.022 C 
BRANCH  24  25
ATOM     25  C   UNL A   1      43.438  24.407  35.972  1.00  0.00    -0.002 C 
ATOM     26  C   UNL A   1      44.394  23.370  35.418  1.00  0.00     0.004 C 
ENDBRANCH  24  25
ENDBRANCH  16  24
ENDBRANCH  13  16
ENDBRANCH  11  12
ENDBRANCH   7  11
ENDBRANCH   3   6
ENDBRANCH   1   2
BRANCH   1  27
ATOM     27  C   UNL A   1      35.194  32.858  32.578  1.00  0.00     0.023 C 
BRANCH  27  28
ATOM     28  C   UNL A   1      34.760  33.300  31.178  1.00  0.00     0.023 C 
BRANCH  28  29
ATOM     29  C   UNL A   1      35.399  32.541  30.013  1.00  0.00     0.116 C 
BRANCH  29  30
ATOM     30  N   UNL A   1      34.447  31.928  29.099  1.00  0.00    -0.352 N 
ATOM     31  C   UNL A   1      34.632  30.802  28.317  1.00  0.00     0.251 C 
ATOM     32  H   UNL A   1      33.567  32.365  29.031  1.00  0.00     0.163 HD
ATOM     33  O   UNL A   1      33.778  30.418  27.542  1.00  0.00    -0.269 OA
BRANCH  31  34
ATOM     34  C   UNL A   1      35.931  30.100  28.421  1.00  0.00     0.039 A 
ATOM     35  C   UNL A   1      36.827  30.153  27.355  1.00  0.00     0.014 A 
ATOM     36  C   UNL A   1      36.287  29.478  29.619  1.00  0.00     0.014 A 
ATOM     37  C   UNL A   1      38.126  29.669  27.530  1.00  0.00     0.010 A 
ATOM     38  C   UNL A   1      37.598  29.053  29.813  1.00  0.00     0.010 A 
ATOM     39  C   UNL A   1      38.540  29.172  28.780  1.00  0.00    -0.014 A 
BRANCH  39  40
ATOM     40  C   UNL A   1      39.965  28.844  29.047  1.00  0.00     0.031 A 
ATOM     41  C   UNL A   1      40.898  29.881  29.605  1.00  0.00     0.074 A 
ATOM     42  C   UNL A   1      40.436  27.627  28.703  1.00  0.00     0.049 A 
ATOM     43  N   UNL A   1      42.189  29.803  29.811  1.00  0.00    -0.248 NA
ATOM     44  C   UNL A   1      40.311  31.183  29.958  1.00  0.00     0.031 C 
ATOM     45  C   UNL A   1      39.643  26.550  28.105  1.00  0.00     0.029 A 
ATOM     46  N   UNL A   1      41.698  27.092  28.794  1.00  0.00    -0.354 N 
ATOM     47  C   UNL A   1      42.569  31.043  30.312  1.00  0.00     0.074 A 
ATOM     48  C   UNL A   1      41.381  31.871  30.331  1.00  0.00     0.031 C 
ATOM     49  C   UNL A   1      40.429  25.480  27.904  1.00  0.00     0.029 A 
ATOM     50  C   UNL A   1      41.790  25.804  28.318  1.00  0.00     0.049 A 
ATOM     51  H   UNL A   1      42.466  27.584  29.165  1.00  0.00     0.167 HD
ATOM     52  C   UNL A   1      43.790  31.446  30.737  1.00  0.00     0.037 A 
ATOM     53  C   UNL A   1      42.851  24.981  28.214  1.00  0.00     0.037 A 
ATOM     54  C   UNL A   1      44.966  30.615  30.729  1.00  0.00     0.049 A 
ATOM     55  C   UNL A   1      44.200  25.459  28.680  1.00  0.00     0.074 A 
ATOM     56  C   UNL A   1      46.242  30.926  31.167  1.00  0.00     0.029 A 
ATOM     57  N   UNL A   1      45.010  29.309  30.265  1.00  0.00    -0.354 N 
ATOM     58  N   UNL A   1      44.529  26.619  29.194  1.00  0.00    -0.248 NA
ATOM     59  C   UNL A   1      45.322  24.517  28.553  1.00  0.00     0.031 C 
ATOM     60  C   UNL A   1      47.065  29.817  30.940  1.00  0.00     0.029 A 
ATOM     61  C   UNL A   1      46.293  28.803  30.398  1.00  0.00     0.049 A 
ATOM     62  H   UNL A   1      44.243  28.815  29.894  1.00  0.00     0.167 HD
ATOM     63  C   UNL A   1      45.887  26.535  29.483  1.00  0.00     0.074 A 
ATOM     64  C   UNL A   1      46.318  25.210  29.088  1.00  0.00     0.031 C 
ATOM     65  C   UNL A   1      46.700  27.471  30.027  1.00  0.00     0.037 A 
BRANCH  52  66
ATOM     66  C   UNL A   1      43.914  32.849  31.265  1.00  0.00     0.058 A 
ATOM     67  C   UNL A   1      43.774  33.126  32.635  1.00  0.00     0.135 A 
ATOM     68  C   UNL A   1      44.215  33.918  30.408  1.00  0.00     0.135 A 
ATOM     69  F   UNL A   1      43.474  32.143  33.497  1.00  0.00    -0.206 F 
ATOM     70  C   UNL A   1      43.901  34.420  33.131  1.00  0.00     0.059 A 
ATOM     71  C   UNL A   1      44.372  35.217  30.886  1.00  0.00     0.059 A 
ATOM     72  F   UNL A   1      44.363  33.708  29.089  1.00  0.00    -0.206 F 
ATOM     73  C   UNL A   1      44.199  35.459  32.248  1.00  0.00     0.060 A 
BRANCH  73  74
ATOM     74  S   UNL A   1      44.365  37.130  32.910  1.00  0.00     0.124 S 
ATOM     75  O   UNL A   1      43.553  37.046  34.120  1.00  0.00    -0.237 OA
ATOM     76  O   UNL A   1      45.804  37.243  33.122  1.00  0.00    -0.237 OA
ATOM     77  O   UNL A   1      43.823  37.972  31.848  1.00  0.00    -0.744 OA
ENDBRANCH  73  74
ENDBRANCH  52  66
BRANCH  53  78
ATOM     78  C   UNL A   1      42.683  23.610  27.660  1.00  0.00     0.058 A 
ATOM     79  C   UNL A   1      42.454  22.516  28.507  1.00  0.00     0.135 A 
ATOM     80  C   UNL A   1      42.754  23.365  26.280  1.00  0.00     0.135 A 
ATOM     81  F   UNL A   1      42.384  22.698  29.834  1.00  0.00    -0.206 F 
ATOM     82  C   UNL A   1      42.326  21.223  28.010  1.00  0.00     0.059 A 
ATOM     83  C   UNL A   1      42.604  22.085  25.756  1.00  0.00     0.059 A 
ATOM     84  F   UNL A   1      42.952  24.381  25.426  1.00  0.00    -0.206 F 
ATOM     85  C   UNL A   1      42.406  21.017  26.631  1.00  0.00     0.060 A 
BRANCH  85  86
ATOM     86  S   UNL A   1      42.213  19.340  25.991  1.00  0.00     0.124 S 
ATOM     87  O   UNL A   1      43.039  19.387  24.791  1.00  0.00    -0.237 OA
ATOM     88  O   UNL A   1      42.726  18.529  27.089  1.00  0.00    -0.237 OA
ATOM     89  O   UNL A   1      40.774  19.234  25.763  1.00  0.00    -0.744 OA
ENDBRANCH  85  86
ENDBRANCH  53  78
BRANCH  65  90
ATOM     90  C   UNL A   1      48.131  27.090  30.280  1.00  0.00     0.058 A 
ATOM     91  C   UNL A   1      49.144  27.365  29.350  1.00  0.00     0.135 A 
ATOM     92  C   UNL A   1      48.503  26.517  31.508  1.00  0.00     0.135 A 
ATOM     93  F   UNL A   1      48.839  27.903  28.158  1.00  0.00    -0.206 F 
ATOM     94  C   UNL A   1      50.478  27.082  29.625  1.00  0.00     0.059 A 
ATOM     95  C   UNL A   1      49.832  26.245  31.814  1.00  0.00     0.059 A 
ATOM     96  F   UNL A   1      47.571  26.239  32.434  1.00  0.00    -0.206 F 
ATOM     97  C   UNL A   1      50.813  26.527  30.863  1.00  0.00     0.060 A 
BRANCH  97  98
ATOM     98  S   UNL A   1      52.554  26.229  31.236  1.00  0.00     0.124 S 
ATOM     99  O   UNL A   1      52.494  24.941  31.917  1.00  0.00    -0.237 OA
ATOM    100  O   UNL A   1      53.161  26.215  29.907  1.00  0.00    -0.237 OA
ATOM    101  O   UNL A   1      52.922  27.366  32.073  1.00  0.00    -0.744 OA
ENDBRANCH  97  98
ENDBRANCH  65  90
ENDBRANCH  39  40
ENDBRANCH  31  34
ENDBRANCH  29  30
ENDBRANCH  28  29
ENDBRANCH  27  28
ENDBRANCH   1  27
TORSDOF 19
ENDMDL
