MODEL 1
REMARK VINA RESULT:     -11.9      0.000      0.000
REMARK SMILES COC(=O)[C@H]1Sc2nnc(CCC(=O)NCCCCNC(=O)c3ccc(-c4c5nc(c(-c6c(F)cc(S(=O)(=O)[O-])cc6F)c6ccc([nH]6)c(-c6c(F)cc(S(=O)(=O)[O-])cc6F)c6nc(c(-c7c(F)cc(S(=O)(=O)[O-])cc7F)c7ccc4[nH]7)C=C6)C=C5)cc3)c(=O)n2N=C1C
REMARK SMILES IDX 17 1 16 2 15 3 13 4 14 5 12 7 11 8 10 9 5 10 6 11 93 12 7 13
REMARK SMILES IDX 92 14 94 15 8 16 91 17 9 18 89 19 90 20 3 21 4 22 2 23 1 24
REMARK SMILES IDX 18 25 19 26 20 27 21 28 22 30 23 31 24 32 88 33 25 34 87 35
REMARK SMILES IDX 26 36 27 37 28 38 81 39 29 40 86 41 80 42 82 43 30 44 85 45
REMARK SMILES IDX 79 46 78 47 31 49 65 50 44 51 64 52 45 53 48 54 63 55 83 56
REMARK SMILES IDX 46 57 47 58 62 60 84 61 49 62 32 63 33 64 42 65 34 66 35 67
REMARK SMILES IDX 41 68 43 69 36 70 37 71 38 72 39 73 40 74 66 75 67 76 76 77
REMARK SMILES IDX 68 78 69 79 75 80 77 81 70 82 71 83 72 84 73 85 74 86 50 87
REMARK SMILES IDX 51 88 60 89 52 90 53 91 59 92 61 93 54 94 55 95 56 96 57 97
REMARK SMILES IDX 58 98
REMARK H PARENT 15 6 20 29 82 48 48 59
REMARK Flexibility Score: inf
ROOT
ATOM      1  C   UNL A   1      31.516  29.408  26.158  1.00  0.00     0.023 C 
ENDROOT
BRANCH   1   2
ATOM      2  C   UNL A   1      31.973  29.367  24.709  1.00  0.00     0.116 C 
BRANCH   2   3
ATOM      3  N   UNL A   1      30.916  29.858  23.850  1.00  0.00    -0.356 N 
ATOM      4  C   UNL A   1      30.104  29.158  23.012  1.00  0.00     0.220 C 
ATOM      5  O   UNL A   1      29.392  29.778  22.221  1.00  0.00    -0.275 OA
ATOM      6  H   UNL A   1      30.764  30.830  23.875  1.00  0.00     0.163 HD
BRANCH   4   7
ATOM      7  C   UNL A   1      30.072  27.643  23.071  1.00  0.00     0.106 C 
BRANCH   7   8
ATOM      8  C   UNL A   1      31.067  27.001  22.108  1.00  0.00     0.074 C 
BRANCH   8   9
ATOM      9  C   UNL A   1      31.453  25.586  22.491  1.00  0.00     0.131 A 
ATOM     10  C   UNL A   1      34.334  21.827  24.320  1.00  0.00     0.210 C 
ATOM     11  S   UNL A   1      32.703  21.498  23.604  1.00  0.00    -0.063 SA
ATOM     12  C   UNL A   1      35.091  22.790  23.429  1.00  0.00     0.061 C 
ATOM     13  C   UNL A   1      32.262  23.156  23.276  1.00  0.00     0.214 A 
ATOM     14  N   UNL A   1      34.566  23.709  22.672  1.00  0.00    -0.171 NA
ATOM     15  C   UNL A   1      36.605  22.725  23.395  1.00  0.00     0.065 C 
ATOM     16  N   UNL A   1      31.042  23.529  23.498  1.00  0.00    -0.123 NA
ATOM     17  N   UNL A   1      33.214  23.950  22.695  1.00  0.00    -0.169 N 
ATOM     18  N   UNL A   1      30.661  24.855  23.214  1.00  0.00    -0.147 NA
ATOM     19  C   UNL A   1      32.786  25.071  22.007  1.00  0.00     0.296 A 
ATOM     20  O   UNL A   1      33.362  25.661  21.116  1.00  0.00    -0.265 OA
BRANCH  10  21
ATOM     21  C   UNL A   1      34.126  22.260  25.759  1.00  0.00     0.325 C 
ATOM     22  O   UNL A   1      33.700  21.536  26.654  1.00  0.00    -0.250 OA
BRANCH  21  23
ATOM     23  O   UNL A   1      34.503  23.571  25.897  1.00  0.00    -0.468 OA
ATOM     24  C   UNL A   1      33.490  24.515  26.279  1.00  0.00     0.282 C 
ENDBRANCH  21  23
ENDBRANCH  10  21
ENDBRANCH   8   9
ENDBRANCH   7   8
ENDBRANCH   4   7
ENDBRANCH   2   3
ENDBRANCH   1   2
BRANCH   1  25
ATOM     25  C   UNL A   1      32.164  28.370  27.062  1.00  0.00     0.023 C 
BRANCH  25  26
ATOM     26  C   UNL A   1      33.628  28.656  27.369  1.00  0.00     0.116 C 
BRANCH  26  27
ATOM     27  N   UNL A   1      33.857  30.067  27.653  1.00  0.00    -0.352 N 
ATOM     28  C   UNL A   1      34.855  30.669  28.367  1.00  0.00     0.251 C 
ATOM     29  H   UNL A   1      33.191  30.683  27.270  1.00  0.00     0.163 HD
ATOM     30  O   UNL A   1      34.655  31.742  28.925  1.00  0.00    -0.269 OA
BRANCH  28  31
ATOM     31  C   UNL A   1      36.167  30.077  28.575  1.00  0.00     0.039 A 
ATOM     32  C   UNL A   1      37.062  30.146  27.494  1.00  0.00     0.014 A 
ATOM     33  C   UNL A   1      36.520  29.462  29.767  1.00  0.00     0.014 A 
ATOM     34  C   UNL A   1      38.355  29.709  27.655  1.00  0.00     0.010 A 
ATOM     35  C   UNL A   1      37.843  29.162  29.980  1.00  0.00     0.010 A 
ATOM     36  C   UNL A   1      38.753  29.295  28.924  1.00  0.00    -0.014 A 
BRANCH  36  37
ATOM     37  C   UNL A   1      40.140  28.922  29.170  1.00  0.00     0.031 A 
ATOM     38  C   UNL A   1      41.027  29.967  29.749  1.00  0.00     0.074 A 
ATOM     39  C   UNL A   1      40.536  27.701  28.781  1.00  0.00     0.049 A 
ATOM     40  N   UNL A   1      42.321  29.975  29.846  1.00  0.00    -0.248 NA
ATOM     41  C   UNL A   1      40.371  31.201  30.228  1.00  0.00     0.031 C 
ATOM     42  C   UNL A   1      39.667  26.668  28.199  1.00  0.00     0.029 A 
ATOM     43  N   UNL A   1      41.767  27.118  28.809  1.00  0.00    -0.354 N 
ATOM     44  C   UNL A   1      42.639  31.222  30.364  1.00  0.00     0.074 A 
ATOM     45  C   UNL A   1      41.413  31.970  30.499  1.00  0.00     0.031 C 
ATOM     46  C   UNL A   1      40.392  25.565  27.959  1.00  0.00     0.029 A 
ATOM     47  C   UNL A   1      41.777  25.837  28.313  1.00  0.00     0.049 A 
ATOM     48  H   UNL A   1      42.571  27.571  29.151  1.00  0.00     0.167 HD
ATOM     49  C   UNL A   1      43.861  31.670  30.719  1.00  0.00     0.037 A 
ATOM     50  C   UNL A   1      42.816  25.000  28.160  1.00  0.00     0.037 A 
ATOM     51  C   UNL A   1      45.032  30.848  30.594  1.00  0.00     0.049 A 
ATOM     52  C   UNL A   1      44.163  25.521  28.576  1.00  0.00     0.074 A 
ATOM     53  C   UNL A   1      46.339  31.145  30.915  1.00  0.00     0.029 A 
ATOM     54  N   UNL A   1      45.014  29.539  30.119  1.00  0.00    -0.354 N 
ATOM     55  N   UNL A   1      44.470  26.708  29.055  1.00  0.00    -0.248 NA
ATOM     56  C   UNL A   1      45.301  24.613  28.430  1.00  0.00     0.031 C 
ATOM     57  C   UNL A   1      47.115  30.019  30.614  1.00  0.00     0.029 A 
ATOM     58  C   UNL A   1      46.286  29.008  30.140  1.00  0.00     0.049 A 
ATOM     59  H   UNL A   1      44.208  29.061  29.812  1.00  0.00     0.167 HD
ATOM     60  C   UNL A   1      45.836  26.689  29.280  1.00  0.00     0.074 A 
ATOM     61  C   UNL A   1      46.291  25.361  28.900  1.00  0.00     0.031 C 
ATOM     62  C   UNL A   1      46.652  27.667  29.746  1.00  0.00     0.037 A 
BRANCH  49  63
ATOM     63  C   UNL A   1      43.951  33.067  31.259  1.00  0.00     0.058 A 
ATOM     64  C   UNL A   1      43.951  33.321  32.641  1.00  0.00     0.135 A 
ATOM     65  C   UNL A   1      43.990  34.170  30.393  1.00  0.00     0.135 A 
ATOM     66  F   UNL A   1      43.873  32.305  33.516  1.00  0.00    -0.206 F 
ATOM     67  C   UNL A   1      43.955  34.617  33.145  1.00  0.00     0.059 A 
ATOM     68  C   UNL A   1      44.023  35.476  30.875  1.00  0.00     0.059 A 
ATOM     69  F   UNL A   1      43.968  33.987  29.063  1.00  0.00    -0.206 F 
ATOM     70  C   UNL A   1      43.991  35.689  32.254  1.00  0.00     0.060 A 
BRANCH  70  71
ATOM     71  S   UNL A   1      43.994  37.363  32.927  1.00  0.00     0.124 S 
ATOM     72  O   UNL A   1      43.845  38.165  31.717  1.00  0.00    -0.237 OA
ATOM     73  O   UNL A   1      42.838  37.341  33.818  1.00  0.00    -0.237 OA
ATOM     74  O   UNL A   1      45.292  37.461  33.589  1.00  0.00    -0.744 OA
ENDBRANCH  70  71
ENDBRANCH  49  63
BRANCH  50  75
ATOM     75  C   UNL A   1      42.601  23.624  27.645  1.00  0.00     0.058 A 
ATOM     76  C   UNL A   1      42.627  23.367  26.268  1.00  0.00     0.135 A 
ATOM     77  C   UNL A   1      42.439  22.527  28.507  1.00  0.00     0.135 A 
ATOM     78  F   UNL A   1      42.791  24.378  25.401  1.00  0.00    -0.206 F 
ATOM     79  C   UNL A   1      42.489  22.078  25.760  1.00  0.00     0.059 A 
ATOM     80  C   UNL A   1      42.321  21.225  28.027  1.00  0.00     0.059 A 
ATOM     81  F   UNL A   1      42.437  22.711  29.838  1.00  0.00    -0.206 F 
ATOM     82  C   UNL A   1      42.340  21.011  26.650  1.00  0.00     0.060 A 
BRANCH  82  83
ATOM     83  S   UNL A   1      42.214  19.340  25.976  1.00  0.00     0.124 S 
ATOM     84  O   UNL A   1      42.768  18.541  27.063  1.00  0.00    -0.237 OA
ATOM     85  O   UNL A   1      40.777  19.209  25.755  1.00  0.00    -0.237 OA
ATOM     86  O   UNL A   1      43.026  19.403  24.763  1.00  0.00    -0.744 OA
ENDBRANCH  82  83
ENDBRANCH  50  75
BRANCH  62  87
ATOM     87  C   UNL A   1      48.100  27.318  29.874  1.00  0.00     0.058 A 
ATOM     88  C   UNL A   1      48.969  27.429  28.780  1.00  0.00     0.135 A 
ATOM     89  C   UNL A   1      48.633  26.967  31.124  1.00  0.00     0.135 A 
ATOM     90  F   UNL A   1      48.494  27.756  27.568  1.00  0.00    -0.206 F 
ATOM     91  C   UNL A   1      50.328  27.195  28.919  1.00  0.00     0.059 A 
ATOM     92  C   UNL A   1      49.995  26.755  31.291  1.00  0.00     0.059 A 
ATOM     93  F   UNL A   1      47.834  26.863  32.196  1.00  0.00    -0.206 F 
ATOM     94  C   UNL A   1      50.832  26.868  30.181  1.00  0.00     0.060 A 
BRANCH  94  95
ATOM     95  S   UNL A   1      52.610  26.634  30.358  1.00  0.00     0.124 S 
ATOM     96  O   UNL A   1      53.006  27.886  30.995  1.00  0.00    -0.237 OA
ATOM     97  O   UNL A   1      52.685  25.442  31.195  1.00  0.00    -0.237 OA
ATOM     98  O   UNL A   1      53.067  26.458  28.982  1.00  0.00    -0.744 OA
ENDBRANCH  94  95
ENDBRANCH  62  87
ENDBRANCH  36  37
ENDBRANCH  28  31
ENDBRANCH  26  27
ENDBRANCH  25  26
ENDBRANCH   1  25
TORSDOF 18
ENDMDL
MODEL 2
REMARK VINA RESULT:     -11.6      3.505      9.723
REMARK SMILES COC(=O)[C@H]1Sc2nnc(CCC(=O)NCCCCNC(=O)c3ccc(-c4c5nc(c(-c6c(F)cc(S(=O)(=O)[O-])cc6F)c6ccc([nH]6)c(-c6c(F)cc(S(=O)(=O)[O-])cc6F)c6nc(c(-c7c(F)cc(S(=O)(=O)[O-])cc7F)c7ccc4[nH]7)C=C6)C=C5)cc3)c(=O)n2N=C1C
REMARK SMILES IDX 17 1 16 2 15 3 13 4 14 5 12 7 11 8 10 9 5 10 6 11 93 12 7 13
REMARK SMILES IDX 92 14 94 15 8 16 91 17 9 18 89 19 90 20 3 21 4 22 2 23 1 24
REMARK SMILES IDX 18 25 19 26 20 27 21 28 22 30 23 31 24 32 88 33 25 34 87 35
REMARK SMILES IDX 26 36 27 37 28 38 81 39 29 40 86 41 80 42 82 43 30 44 85 45
REMARK SMILES IDX 79 46 78 47 31 49 65 50 44 51 64 52 45 53 48 54 63 55 83 56
REMARK SMILES IDX 46 57 47 58 62 60 84 61 49 62 32 63 33 64 42 65 34 66 35 67
REMARK SMILES IDX 41 68 43 69 36 70 37 71 38 72 39 73 40 74 66 75 67 76 76 77
REMARK SMILES IDX 68 78 69 79 75 80 77 81 70 82 71 83 72 84 73 85 74 86 50 87
REMARK SMILES IDX 51 88 60 89 52 90 53 91 59 92 61 93 54 94 55 95 56 96 57 97
REMARK SMILES IDX 58 98
REMARK H PARENT 15 6 20 29 82 48 48 59
REMARK Flexibility Score: inf
ROOT
ATOM      1  C   UNL A   1      36.189  21.391  25.056  1.00  0.00     0.023 C 
ENDROOT
BRANCH   1   2
ATOM      2  C   UNL A   1      34.952  21.448  25.938  1.00  0.00     0.116 C 
BRANCH   2   3
ATOM      3  N   UNL A   1      34.216  20.206  25.826  1.00  0.00    -0.356 N 
ATOM      4  C   UNL A   1      32.963  19.998  25.339  1.00  0.00     0.220 C 
ATOM      5  O   UNL A   1      32.437  18.898  25.504  1.00  0.00    -0.275 OA
ATOM      6  H   UNL A   1      34.686  19.403  26.146  1.00  0.00     0.163 HD
BRANCH   4   7
ATOM      7  C   UNL A   1      32.241  21.106  24.594  1.00  0.00     0.106 C 
BRANCH   7   8
ATOM      8  C   UNL A   1      31.256  21.860  25.482  1.00  0.00     0.074 C 
BRANCH   8   9
ATOM      9  C   UNL A   1      31.016  23.291  25.040  1.00  0.00     0.131 A 
ATOM     10  C   UNL A   1      31.496  28.345  24.996  1.00  0.00     0.210 C 
ATOM     11  S   UNL A   1      30.357  27.498  23.869  1.00  0.00    -0.063 SA
ATOM     12  C   UNL A   1      31.354  27.762  26.388  1.00  0.00     0.061 C 
ATOM     13  C   UNL A   1      30.745  25.862  24.343  1.00  0.00     0.214 A 
ATOM     14  N   UNL A   1      31.012  26.542  26.677  1.00  0.00    -0.171 NA
ATOM     15  C   UNL A   1      31.641  28.645  27.586  1.00  0.00     0.065 C 
ATOM     16  N   UNL A   1      30.829  24.953  23.424  1.00  0.00    -0.123 NA
ATOM     17  N   UNL A   1      30.834  25.608  25.685  1.00  0.00    -0.169 N 
ATOM     18  N   UNL A   1      31.114  23.624  23.790  1.00  0.00    -0.147 NA
ATOM     19  C   UNL A   1      30.668  24.301  26.106  1.00  0.00     0.296 A 
ATOM     20  O   UNL A   1      30.310  23.911  27.198  1.00  0.00    -0.265 OA
BRANCH  10  21
ATOM     21  C   UNL A   1      32.881  28.287  24.379  1.00  0.00     0.325 C 
ATOM     22  O   UNL A   1      33.913  28.038  24.997  1.00  0.00    -0.250 OA
BRANCH  21  23
ATOM     23  O   UNL A   1      32.791  28.540  23.035  1.00  0.00    -0.468 OA
ATOM     24  C   UNL A   1      33.623  27.763  22.158  1.00  0.00     0.282 C 
ENDBRANCH  21  23
ENDBRANCH  10  21
ENDBRANCH   8   9
ENDBRANCH   7   8
ENDBRANCH   4   7
ENDBRANCH   2   3
ENDBRANCH   1   2
BRANCH   1  25
ATOM     25  C   UNL A   1      36.584  22.717  24.423  1.00  0.00     0.023 C 
BRANCH  25  26
ATOM     26  C   UNL A   1      37.499  23.564  25.297  1.00  0.00     0.116 C 
BRANCH  26  27
ATOM     27  N   UNL A   1      38.711  22.845  25.670  1.00  0.00    -0.352 N 
ATOM     28  C   UNL A   1      39.890  23.314  26.174  1.00  0.00     0.251 C 
ATOM     29  H   UNL A   1      38.673  21.870  25.539  1.00  0.00     0.163 HD
ATOM     30  O   UNL A   1      40.936  22.707  25.969  1.00  0.00    -0.269 OA
BRANCH  28  31
ATOM     31  C   UNL A   1      40.012  24.563  26.910  1.00  0.00     0.039 A 
ATOM     32  C   UNL A   1      39.312  24.643  28.125  1.00  0.00     0.014 A 
ATOM     33  C   UNL A   1      40.764  25.629  26.439  1.00  0.00     0.014 A 
ATOM     34  C   UNL A   1      39.470  25.747  28.929  1.00  0.00     0.010 A 
ATOM     35  C   UNL A   1      41.042  26.663  27.298  1.00  0.00     0.010 A 
ATOM     36  C   UNL A   1      40.398  26.711  28.541  1.00  0.00    -0.014 A 
BRANCH  36  37
ATOM     37  C   UNL A   1      40.678  27.846  29.409  1.00  0.00     0.031 A 
ATOM     38  C   UNL A   1      41.912  27.775  30.237  1.00  0.00     0.074 A 
ATOM     39  C   UNL A   1      39.766  28.830  29.463  1.00  0.00     0.049 A 
ATOM     40  N   UNL A   1      42.266  28.521  31.239  1.00  0.00    -0.248 NA
ATOM     41  C   UNL A   1      42.848  26.673  29.936  1.00  0.00     0.031 C 
ATOM     42  C   UNL A   1      38.540  28.902  28.656  1.00  0.00     0.029 A 
ATOM     43  N   UNL A   1      39.721  29.955  30.230  1.00  0.00    -0.354 N 
ATOM     44  C   UNL A   1      43.444  27.962  31.710  1.00  0.00     0.074 A 
ATOM     45  C   UNL A   1      43.713  26.777  30.932  1.00  0.00     0.031 C 
ATOM     46  C   UNL A   1      37.884  30.033  28.949  1.00  0.00     0.029 A 
ATOM     47  C   UNL A   1      38.610  30.729  30.001  1.00  0.00     0.049 A 
ATOM     48  H   UNL A   1      40.418  30.189  30.885  1.00  0.00     0.167 HD
ATOM     49  C   UNL A   1      44.235  28.436  32.695  1.00  0.00     0.037 A 
ATOM     50  C   UNL A   1      38.238  31.870  30.604  1.00  0.00     0.037 A 
ATOM     51  C   UNL A   1      43.922  29.648  33.397  1.00  0.00     0.049 A 
ATOM     52  C   UNL A   1      39.145  32.381  31.688  1.00  0.00     0.074 A 
ATOM     53  C   UNL A   1      44.618  30.269  34.411  1.00  0.00     0.029 A 
ATOM     54  N   UNL A   1      42.805  30.436  33.125  1.00  0.00    -0.354 N 
ATOM     55  N   UNL A   1      40.257  31.846  32.146  1.00  0.00    -0.248 NA
ATOM     56  C   UNL A   1      38.759  33.632  32.342  1.00  0.00     0.031 C 
ATOM     57  C   UNL A   1      43.910  31.425  34.765  1.00  0.00     0.029 A 
ATOM     58  C   UNL A   1      42.792  31.542  33.948  1.00  0.00     0.049 A 
ATOM     59  H   UNL A   1      42.123  30.232  32.443  1.00  0.00     0.167 HD
ATOM     60  C   UNL A   1      40.713  32.699  33.137  1.00  0.00     0.074 A 
ATOM     61  C   UNL A   1      39.761  33.798  33.195  1.00  0.00     0.031 C 
ATOM     62  C   UNL A   1      41.804  32.596  33.936  1.00  0.00     0.037 A 
BRANCH  49  63
ATOM     63  C   UNL A   1      45.467  27.647  33.027  1.00  0.00     0.058 A 
ATOM     64  C   UNL A   1      46.695  27.902  32.392  1.00  0.00     0.135 A 
ATOM     65  C   UNL A   1      45.417  26.593  33.952  1.00  0.00     0.135 A 
ATOM     66  F   UNL A   1      46.790  28.872  31.468  1.00  0.00    -0.206 F 
ATOM     67  C   UNL A   1      47.820  27.123  32.639  1.00  0.00     0.059 A 
ATOM     68  C   UNL A   1      46.538  25.817  34.236  1.00  0.00     0.059 A 
ATOM     69  F   UNL A   1      44.265  26.289  34.570  1.00  0.00    -0.206 F 
ATOM     70  C   UNL A   1      47.732  26.082  33.563  1.00  0.00     0.060 A 
BRANCH  70  71
ATOM     71  S   UNL A   1      49.202  25.081  33.869  1.00  0.00     0.124 S 
ATOM     72  O   UNL A   1      49.822  25.060  32.547  1.00  0.00    -0.237 OA
ATOM     73  O   UNL A   1      49.903  25.862  34.884  1.00  0.00    -0.237 OA
ATOM     74  O   UNL A   1      48.658  23.806  34.326  1.00  0.00    -0.744 OA
ENDBRANCH  70  71
ENDBRANCH  49  63
BRANCH  50  75
ATOM     75  C   UNL A   1      37.011  32.583  30.168  1.00  0.00     0.058 A 
ATOM     76  C   UNL A   1      35.780  32.330  30.788  1.00  0.00     0.135 A 
ATOM     77  C   UNL A   1      37.046  33.580  29.178  1.00  0.00     0.135 A 
ATOM     78  F   UNL A   1      35.695  31.396  31.748  1.00  0.00    -0.206 F 
ATOM     79  C   UNL A   1      34.627  33.028  30.440  1.00  0.00     0.059 A 
ATOM     80  C   UNL A   1      35.911  34.308  28.827  1.00  0.00     0.059 A 
ATOM     81  F   UNL A   1      38.205  33.886  28.572  1.00  0.00    -0.206 F 
ATOM     82  C   UNL A   1      34.704  34.019  29.460  1.00  0.00     0.060 A 
BRANCH  82  83
ATOM     83  S   UNL A   1      33.209  34.950  29.057  1.00  0.00     0.124 S 
ATOM     84  O   UNL A   1      32.602  34.103  28.036  1.00  0.00    -0.237 OA
ATOM     85  O   UNL A   1      32.521  34.992  30.344  1.00  0.00    -0.237 OA
ATOM     86  O   UNL A   1      33.727  36.232  28.587  1.00  0.00    -0.744 OA
ENDBRANCH  82  83
ENDBRANCH  50  75
BRANCH  62  87
ATOM     87  C   UNL A   1      42.015  33.704  34.917  1.00  0.00     0.058 A 
ATOM     88  C   UNL A   1      41.589  33.582  36.247  1.00  0.00     0.135 A 
ATOM     89  C   UNL A   1      42.735  34.849  34.543  1.00  0.00     0.135 A 
ATOM     90  F   UNL A   1      40.892  32.504  36.638  1.00  0.00    -0.206 F 
ATOM     91  C   UNL A   1      41.866  34.569  37.180  1.00  0.00     0.059 A 
ATOM     92  C   UNL A   1      43.047  35.836  35.468  1.00  0.00     0.059 A 
ATOM     93  F   UNL A   1      43.170  34.994  33.282  1.00  0.00    -0.206 F 
ATOM     94  C   UNL A   1      42.603  35.688  36.782  1.00  0.00     0.060 A 
BRANCH  94  95
ATOM     95  S   UNL A   1      43.013  36.928  38.024  1.00  0.00     0.124 S 
ATOM     96  O   UNL A   1      41.686  37.330  38.482  1.00  0.00    -0.237 OA
ATOM     97  O   UNL A   1      43.810  36.162  38.976  1.00  0.00    -0.237 OA
ATOM     98  O   UNL A   1      43.748  37.936  37.266  1.00  0.00    -0.744 OA
ENDBRANCH  94  95
ENDBRANCH  62  87
ENDBRANCH  36  37
ENDBRANCH  28  31
ENDBRANCH  26  27
ENDBRANCH  25  26
ENDBRANCH   1  25
TORSDOF 18
ENDMDL
MODEL 3
REMARK VINA RESULT:     -11.3      4.772     10.578
REMARK SMILES COC(=O)[C@H]1Sc2nnc(CCC(=O)NCCCCNC(=O)c3ccc(-c4c5nc(c(-c6c(F)cc(S(=O)(=O)[O-])cc6F)c6ccc([nH]6)c(-c6c(F)cc(S(=O)(=O)[O-])cc6F)c6nc(c(-c7c(F)cc(S(=O)(=O)[O-])cc7F)c7ccc4[nH]7)C=C6)C=C5)cc3)c(=O)n2N=C1C
REMARK SMILES IDX 17 1 16 2 15 3 13 4 14 5 12 7 11 8 10 9 5 10 6 11 93 12 7 13
REMARK SMILES IDX 92 14 94 15 8 16 91 17 9 18 89 19 90 20 3 21 4 22 2 23 1 24
REMARK SMILES IDX 18 25 19 26 20 27 21 28 22 30 23 31 24 32 88 33 25 34 87 35
REMARK SMILES IDX 26 36 27 37 28 38 81 39 29 40 86 41 80 42 82 43 30 44 85 45
REMARK SMILES IDX 79 46 78 47 31 49 65 50 44 51 64 52 45 53 48 54 63 55 83 56
REMARK SMILES IDX 46 57 47 58 62 60 84 61 49 62 32 63 33 64 42 65 34 66 35 67
REMARK SMILES IDX 41 68 43 69 36 70 37 71 38 72 39 73 40 74 66 75 67 76 76 77
REMARK SMILES IDX 68 78 69 79 75 80 77 81 70 82 71 83 72 84 73 85 74 86 50 87
REMARK SMILES IDX 51 88 60 89 52 90 53 91 59 92 61 93 54 94 55 95 56 96 57 97
REMARK SMILES IDX 58 98
REMARK H PARENT 15 6 20 29 82 48 48 59
REMARK Flexibility Score: inf
ROOT
ATOM      1  C   UNL A   1      37.212  21.799  25.552  1.00  0.00     0.023 C 
ENDROOT
BRANCH   1   2
ATOM      2  C   UNL A   1      35.763  21.445  25.846  1.00  0.00     0.116 C 
BRANCH   2   3
ATOM      3  N   UNL A   1      35.397  20.247  25.119  1.00  0.00    -0.356 N 
ATOM      4  C   UNL A   1      34.156  19.776  24.821  1.00  0.00     0.220 C 
ATOM      5  O   UNL A   1      34.048  18.639  24.361  1.00  0.00    -0.275 OA
ATOM      6  H   UNL A   1      36.149  19.698  24.798  1.00  0.00     0.163 HD
BRANCH   4   7
ATOM      7  C   UNL A   1      32.936  20.650  25.042  1.00  0.00     0.106 C 
BRANCH   7   8
ATOM      8  C   UNL A   1      32.661  21.577  23.863  1.00  0.00     0.074 C 
BRANCH   8   9
ATOM      9  C   UNL A   1      32.341  23.001  24.274  1.00  0.00     0.131 A 
ATOM     10  C   UNL A   1      31.820  28.029  23.805  1.00  0.00     0.210 C 
ATOM     11  S   UNL A   1      31.485  27.192  25.376  1.00  0.00    -0.063 SA
ATOM     12  C   UNL A   1      33.110  27.497  23.215  1.00  0.00     0.061 C 
ATOM     13  C   UNL A   1      31.766  25.558  24.826  1.00  0.00     0.214 A 
ATOM     14  N   UNL A   1      33.591  26.300  23.377  1.00  0.00    -0.171 NA
ATOM     15  C   UNL A   1      33.945  28.405  22.334  1.00  0.00     0.065 C 
ATOM     16  N   UNL A   1      30.979  24.618  25.244  1.00  0.00    -0.123 NA
ATOM     17  N   UNL A   1      32.879  25.343  24.058  1.00  0.00    -0.169 N 
ATOM     18  N   UNL A   1      31.206  23.291  24.832  1.00  0.00    -0.147 NA
ATOM     19  C   UNL A   1      33.385  24.057  24.004  1.00  0.00     0.296 A 
ATOM     20  O   UNL A   1      34.522  23.715  23.749  1.00  0.00    -0.265 OA
BRANCH  10  21
ATOM     21  C   UNL A   1      30.580  27.900  22.941  1.00  0.00     0.325 C 
ATOM     22  O   UNL A   1      30.587  27.656  21.738  1.00  0.00    -0.250 OA
BRANCH  21  23
ATOM     23  O   UNL A   1      29.464  28.082  23.717  1.00  0.00    -0.468 OA
ATOM     24  C   UNL A   1      28.215  28.297  23.041  1.00  0.00     0.282 C 
ENDBRANCH  21  23
ENDBRANCH  10  21
ENDBRANCH   8   9
ENDBRANCH   7   8
ENDBRANCH   4   7
ENDBRANCH   2   3
ENDBRANCH   1   2
BRANCH   1  25
ATOM     25  C   UNL A   1      37.448  23.249  25.158  1.00  0.00     0.023 C 
BRANCH  25  26
ATOM     26  C   UNL A   1      38.139  24.072  26.238  1.00  0.00     0.116 C 
BRANCH  26  27
ATOM     27  N   UNL A   1      39.573  23.816  26.279  1.00  0.00    -0.352 N 
ATOM     28  C   UNL A   1      40.602  24.637  26.647  1.00  0.00     0.251 C 
ATOM     29  H   UNL A   1      39.844  22.912  26.000  1.00  0.00     0.163 HD
ATOM     30  O   UNL A   1      41.721  24.476  26.174  1.00  0.00    -0.269 OA
BRANCH  28  31
ATOM     31  C   UNL A   1      40.446  25.770  27.545  1.00  0.00     0.039 A 
ATOM     32  C   UNL A   1      39.587  25.586  28.642  1.00  0.00     0.014 A 
ATOM     33  C   UNL A   1      41.094  26.978  27.331  1.00  0.00     0.014 A 
ATOM     34  C   UNL A   1      39.479  26.572  29.593  1.00  0.00     0.010 A 
ATOM     35  C   UNL A   1      41.106  27.902  28.347  1.00  0.00     0.010 A 
ATOM     36  C   UNL A   1      40.303  27.689  29.474  1.00  0.00    -0.014 A 
BRANCH  36  37
ATOM     37  C   UNL A   1      40.301  28.712  30.512  1.00  0.00     0.031 A 
ATOM     38  C   UNL A   1      41.279  28.550  31.621  1.00  0.00     0.074 A 
ATOM     39  C   UNL A   1      39.368  29.674  30.437  1.00  0.00     0.049 A 
ATOM     40  N   UNL A   1      41.329  29.170  32.761  1.00  0.00    -0.248 NA
ATOM     41  C   UNL A   1      42.304  27.501  31.452  1.00  0.00     0.031 C 
ATOM     42  C   UNL A   1      38.393  29.834  29.349  1.00  0.00     0.029 A 
ATOM     43  N   UNL A   1      39.079  30.696  31.291  1.00  0.00    -0.354 N 
ATOM     44  C   UNL A   1      42.365  28.567  33.458  1.00  0.00     0.074 A 
ATOM     45  C   UNL A   1      42.875  27.489  32.645  1.00  0.00     0.031 C 
ATOM     46  C   UNL A   1      37.638  30.916  29.589  1.00  0.00     0.029 A 
ATOM     47  C   UNL A   1      38.037  31.483  30.868  1.00  0.00     0.049 A 
ATOM     48  H   UNL A   1      39.572  30.854  32.129  1.00  0.00     0.167 HD
ATOM     49  C   UNL A   1      42.853  28.923  34.664  1.00  0.00     0.037 A 
ATOM     50  C   UNL A   1      37.474  32.538  31.480  1.00  0.00     0.037 A 
ATOM     51  C   UNL A   1      42.319  30.038  35.395  1.00  0.00     0.049 A 
ATOM     52  C   UNL A   1      38.046  32.920  32.817  1.00  0.00     0.074 A 
ATOM     53  C   UNL A   1      42.702  30.536  36.621  1.00  0.00     0.029 A 
ATOM     54  N   UNL A   1      41.281  30.844  34.931  1.00  0.00    -0.354 N 
ATOM     55  N   UNL A   1      39.021  32.342  33.486  1.00  0.00    -0.248 NA
ATOM     56  C   UNL A   1      37.453  34.078  33.486  1.00  0.00     0.031 C 
ATOM     57  C   UNL A   1      41.880  31.633  36.908  1.00  0.00     0.029 A 
ATOM     58  C   UNL A   1      41.009  31.840  35.844  1.00  0.00     0.049 A 
ATOM     59  H   UNL A   1      40.809  30.719  34.074  1.00  0.00     0.167 HD
ATOM     60  C   UNL A   1      39.168  33.071  34.654  1.00  0.00     0.074 A 
ATOM     61  C   UNL A   1      38.191  34.147  34.587  1.00  0.00     0.031 C 
ATOM     62  C   UNL A   1      40.017  32.880  35.695  1.00  0.00     0.037 A 
BRANCH  49  63
ATOM     63  C   UNL A   1      43.986  28.110  35.215  1.00  0.00     0.058 A 
ATOM     64  C   UNL A   1      45.320  28.370  34.854  1.00  0.00     0.135 A 
ATOM     65  C   UNL A   1      43.743  27.029  36.074  1.00  0.00     0.135 A 
ATOM     66  F   UNL A   1      45.607  29.367  34.001  1.00  0.00    -0.206 F 
ATOM     67  C   UNL A   1      46.366  27.571  35.300  1.00  0.00     0.059 A 
ATOM     68  C   UNL A   1      44.778  26.231  36.557  1.00  0.00     0.059 A 
ATOM     69  F   UNL A   1      42.487  26.719  36.433  1.00  0.00    -0.206 F 
ATOM     70  C   UNL A   1      46.085  26.502  36.151  1.00  0.00     0.060 A 
BRANCH  70  71
ATOM     71  S   UNL A   1      47.456  25.475  36.718  1.00  0.00     0.124 S 
ATOM     72  O   UNL A   1      48.597  26.140  36.095  1.00  0.00    -0.237 OA
ATOM     73  O   UNL A   1      47.362  25.606  38.169  1.00  0.00    -0.237 OA
ATOM     74  O   UNL A   1      47.134  24.154  36.188  1.00  0.00    -0.744 OA
ENDBRANCH  70  71
ENDBRANCH  49  63
BRANCH  50  75
ATOM     75  C   UNL A   1      36.376  33.289  30.822  1.00  0.00     0.058 A 
ATOM     76  C   UNL A   1      35.070  33.231  31.326  1.00  0.00     0.135 A 
ATOM     77  C   UNL A   1      36.611  34.136  29.725  1.00  0.00     0.135 A 
ATOM     78  F   UNL A   1      34.794  32.447  32.379  1.00  0.00    -0.206 F 
ATOM     79  C   UNL A   1      34.034  33.972  30.765  1.00  0.00     0.059 A 
ATOM     80  C   UNL A   1      35.596  34.905  29.160  1.00  0.00     0.059 A 
ATOM     81  F   UNL A   1      37.850  34.254  29.220  1.00  0.00    -0.206 F 
ATOM     82  C   UNL A   1      34.308  34.811  29.683  1.00  0.00     0.060 A 
BRANCH  82  83
ATOM     83  S   UNL A   1      32.963  35.805  29.000  1.00  0.00     0.124 S 
ATOM     84  O   UNL A   1      32.223  36.165  30.205  1.00  0.00    -0.237 OA
ATOM     85  O   UNL A   1      33.688  36.890  28.347  1.00  0.00    -0.237 OA
ATOM     86  O   UNL A   1      32.285  34.878  28.098  1.00  0.00    -0.744 OA
ENDBRANCH  82  83
ENDBRANCH  50  75
BRANCH  62  87
ATOM     87  C   UNL A   1      39.921  33.861  36.819  1.00  0.00     0.058 A 
ATOM     88  C   UNL A   1      40.583  35.095  36.758  1.00  0.00     0.135 A 
ATOM     89  C   UNL A   1      39.080  33.601  37.912  1.00  0.00     0.135 A 
ATOM     90  F   UNL A   1      41.400  35.376  35.731  1.00  0.00    -0.206 F 
ATOM     91  C   UNL A   1      40.420  36.044  37.756  1.00  0.00     0.059 A 
ATOM     92  C   UNL A   1      38.882  34.547  38.907  1.00  0.00     0.059 A 
ATOM     93  F   UNL A   1      38.421  32.436  37.996  1.00  0.00    -0.206 F 
ATOM     94  C   UNL A   1      39.560  35.763  38.821  1.00  0.00     0.060 A 
BRANCH  94  95
ATOM     95  S   UNL A   1      39.307  37.034  40.074  1.00  0.00     0.124 S 
ATOM     96  O   UNL A   1      40.682  37.348  40.451  1.00  0.00    -0.237 OA
ATOM     97  O   UNL A   1      38.601  38.069  39.327  1.00  0.00    -0.237 OA
ATOM     98  O   UNL A   1      38.515  36.353  41.094  1.00  0.00    -0.744 OA
ENDBRANCH  94  95
ENDBRANCH  62  87
ENDBRANCH  36  37
ENDBRANCH  28  31
ENDBRANCH  26  27
ENDBRANCH  25  26
ENDBRANCH   1  25
TORSDOF 18
ENDMDL
