MODEL 1
REMARK VINA RESULT:     -12.6      0.000      0.000
REMARK SMILES O=C(NCCCCNC(=O)[C@H](c1cnn(Cc2ccccc2)c1)[NH+]1CCOCC1)c1ccc(-c2c3nc(c(-c4c(F)cc(S(=O)(=O)[O-])cc4F)c4ccc([nH]4)c(-c4c(F)cc(S(=O)(=O)[O-])cc4F)c4nc(c(-c5c(F)cc(S(=O)(=O)[O-])cc5F)c5ccc2[nH]5)C=C4)C=C3)cc1
REMARK SMILES IDX 5 1 4 2 3 3 1 4 2 5 30 7 31 8 95 9 32 10 94 11 33 12 34 13
REMARK SMILES IDX 35 14 88 15 36 16 93 17 87 18 89 19 37 20 92 21 86 22 85 23
REMARK SMILES IDX 38 25 72 26 51 27 71 28 52 29 55 30 70 31 90 32 53 33 54 34
REMARK SMILES IDX 69 36 91 37 56 38 39 39 40 40 49 41 41 42 42 43 48 44 50 45
REMARK SMILES IDX 43 46 44 47 45 48 46 49 47 50 73 51 74 52 83 53 75 54 76 55
REMARK SMILES IDX 82 56 84 57 77 58 78 59 79 60 80 61 81 62 57 63 58 64 67 65
REMARK SMILES IDX 59 66 60 67 66 68 68 69 61 70 62 71 63 72 64 73 65 74 6 75
REMARK SMILES IDX 7 76 8 77 9 78 10 80 11 81 24 82 25 83 29 84 26 86 28 87
REMARK SMILES IDX 27 88 12 89 13 90 23 91 14 92 15 93 16 94 17 95 18 96 22 97
REMARK SMILES IDX 19 98 21 99 20 100
REMARK H PARENT 3 6 89 24 55 35 8 79 24 85
REMARK Flexibility Score: inf
ROOT
ATOM      1  C   UNL A   1      36.178  23.446  24.355  1.00  0.00     0.023 C 
ENDROOT
BRANCH   1   2
ATOM      2  C   UNL A   1      36.631  22.903  25.718  1.00  0.00     0.116 C 
BRANCH   2   3
ATOM      3  N   UNL A   1      37.820  22.071  25.734  1.00  0.00    -0.352 N 
ATOM      4  O   UNL A   1      39.701  21.122  26.418  1.00  0.00    -0.269 OA
ATOM      5  C   UNL A   1      39.037  22.161  26.364  1.00  0.00     0.251 C 
ATOM      6  H   UNL A   1      37.735  21.268  25.172  1.00  0.00     0.163 HD
BRANCH   5   7
ATOM      7  C   UNL A   1      39.629  23.418  26.899  1.00  0.00     0.039 A 
ATOM      8  C   UNL A   1      40.812  23.495  27.628  1.00  0.00     0.014 A 
ATOM      9  C   UNL A   1      38.893  24.601  26.696  1.00  0.00     0.014 A 
ATOM     10  C   UNL A   1      41.174  24.674  28.268  1.00  0.00     0.010 A 
ATOM     11  C   UNL A   1      39.281  25.803  27.289  1.00  0.00     0.010 A 
ATOM     12  C   UNL A   1      40.397  25.824  28.122  1.00  0.00    -0.014 A 
BRANCH  12  13
ATOM     13  C   UNL A   1      40.882  27.041  28.774  1.00  0.00     0.031 A 
ATOM     14  C   UNL A   1      42.109  27.646  28.172  1.00  0.00     0.074 A 
ATOM     15  C   UNL A   1      40.235  27.679  29.768  1.00  0.00     0.049 A 
ATOM     16  N   UNL A   1      43.253  27.891  28.726  1.00  0.00    -0.248 NA
ATOM     17  C   UNL A   1      42.067  27.937  26.731  1.00  0.00     0.031 C 
ATOM     18  C   UNL A   1      38.886  27.418  30.274  1.00  0.00     0.029 A 
ATOM     19  N   UNL A   1      40.623  28.786  30.465  1.00  0.00    -0.354 N 
ATOM     20  C   UNL A   1      44.014  28.548  27.759  1.00  0.00     0.074 A 
ATOM     21  C   UNL A   1      43.289  28.426  26.521  1.00  0.00     0.031 C 
ATOM     22  C   UNL A   1      38.487  28.467  31.026  1.00  0.00     0.029 A 
ATOM     23  C   UNL A   1      39.591  29.404  31.157  1.00  0.00     0.049 A 
ATOM     24  H   UNL A   1      41.550  29.116  30.478  1.00  0.00     0.167 HD
ATOM     25  C   UNL A   1      45.094  29.317  28.076  1.00  0.00     0.037 A 
ATOM     26  C   UNL A   1      39.615  30.637  31.721  1.00  0.00     0.037 A 
ATOM     27  C   UNL A   1      45.618  28.990  29.377  1.00  0.00     0.049 A 
ATOM     28  C   UNL A   1      41.035  31.019  31.930  1.00  0.00     0.074 A 
ATOM     29  C   UNL A   1      46.125  27.847  29.968  1.00  0.00     0.029 A 
ATOM     30  N   UNL A   1      45.409  29.872  30.407  1.00  0.00    -0.354 N 
ATOM     31  N   UNL A   1      41.837  30.448  32.785  1.00  0.00    -0.248 NA
ATOM     32  C   UNL A   1      41.687  31.826  30.909  1.00  0.00     0.031 C 
ATOM     33  C   UNL A   1      45.742  27.932  31.339  1.00  0.00     0.029 A 
ATOM     34  C   UNL A   1      45.044  29.129  31.500  1.00  0.00     0.049 A 
ATOM     35  H   UNL A   1      45.503  30.851  30.368  1.00  0.00     0.167 HD
ATOM     36  C   UNL A   1      43.085  30.484  32.183  1.00  0.00     0.074 A 
ATOM     37  C   UNL A   1      42.953  31.445  31.093  1.00  0.00     0.031 C 
ATOM     38  C   UNL A   1      44.031  29.536  32.448  1.00  0.00     0.037 A 
BRANCH  25  39
ATOM     39  C   UNL A   1      45.466  30.599  27.356  1.00  0.00     0.058 A 
ATOM     40  C   UNL A   1      46.797  30.788  26.918  1.00  0.00     0.135 A 
ATOM     41  C   UNL A   1      44.661  31.760  27.356  1.00  0.00     0.135 A 
ATOM     42  F   UNL A   1      47.651  29.754  26.861  1.00  0.00    -0.206 F 
ATOM     43  C   UNL A   1      47.315  32.049  26.621  1.00  0.00     0.059 A 
ATOM     44  C   UNL A   1      45.144  33.018  27.009  1.00  0.00     0.059 A 
ATOM     45  F   UNL A   1      43.395  31.756  27.789  1.00  0.00    -0.206 F 
ATOM     46  C   UNL A   1      46.485  33.162  26.702  1.00  0.00     0.060 A 
BRANCH  46  47
ATOM     47  S   UNL A   1      47.187  34.809  26.498  1.00  0.00     0.124 S 
ATOM     48  O   UNL A   1      48.151  34.844  27.592  1.00  0.00    -0.237 OA
ATOM     49  O   UNL A   1      47.746  34.740  25.152  1.00  0.00    -0.237 OA
ATOM     50  O   UNL A   1      46.028  35.685  26.646  1.00  0.00    -0.744 OA
ENDBRANCH  46  47
ENDBRANCH  25  39
BRANCH  26  51
ATOM     51  C   UNL A   1      38.503  31.619  31.796  1.00  0.00     0.058 A 
ATOM     52  C   UNL A   1      37.971  32.213  30.639  1.00  0.00     0.135 A 
ATOM     53  C   UNL A   1      37.761  31.796  32.982  1.00  0.00     0.135 A 
ATOM     54  F   UNL A   1      38.594  32.069  29.459  1.00  0.00    -0.206 F 
ATOM     55  C   UNL A   1      36.759  32.912  30.649  1.00  0.00     0.059 A 
ATOM     56  C   UNL A   1      36.562  32.502  33.022  1.00  0.00     0.059 A 
ATOM     57  F   UNL A   1      38.133  31.208  34.129  1.00  0.00    -0.206 F 
ATOM     58  C   UNL A   1      36.053  33.037  31.846  1.00  0.00     0.060 A 
BRANCH  58  59
ATOM     59  S   UNL A   1      34.413  33.797  31.839  1.00  0.00     0.124 S 
ATOM     60  O   UNL A   1      33.672  32.922  32.740  1.00  0.00    -0.237 OA
ATOM     61  O   UNL A   1      34.693  35.139  32.338  1.00  0.00    -0.237 OA
ATOM     62  O   UNL A   1      34.014  33.729  30.435  1.00  0.00    -0.744 OA
ENDBRANCH  58  59
ENDBRANCH  26  51
BRANCH  38  63
ATOM     63  C   UNL A   1      43.848  28.661  33.660  1.00  0.00     0.058 A 
ATOM     64  C   UNL A   1      44.338  28.977  34.938  1.00  0.00     0.135 A 
ATOM     65  C   UNL A   1      43.007  27.542  33.553  1.00  0.00     0.135 A 
ATOM     66  F   UNL A   1      45.057  30.090  35.146  1.00  0.00    -0.206 F 
ATOM     67  C   UNL A   1      44.040  28.191  36.052  1.00  0.00     0.059 A 
ATOM     68  C   UNL A   1      42.670  26.763  34.657  1.00  0.00     0.059 A 
ATOM     69  F   UNL A   1      42.454  27.226  32.370  1.00  0.00    -0.206 F 
ATOM     70  C   UNL A   1      43.199  27.089  35.903  1.00  0.00     0.060 A 
BRANCH  70  71
ATOM     71  S   UNL A   1      42.725  26.140  37.365  1.00  0.00     0.124 S 
ATOM     72  O   UNL A   1      41.315  26.495  37.517  1.00  0.00    -0.237 OA
ATOM     73  O   UNL A   1      42.984  24.761  36.948  1.00  0.00    -0.237 OA
ATOM     74  O   UNL A   1      43.612  26.642  38.404  1.00  0.00    -0.744 OA
ENDBRANCH  70  71
ENDBRANCH  38  63
ENDBRANCH  12  13
ENDBRANCH   5   7
ENDBRANCH   2   3
ENDBRANCH   1   2
BRANCH   1  75
ATOM     75  C   UNL A   1      34.686  23.372  24.025  1.00  0.00     0.023 C 
BRANCH  75  76
ATOM     76  C   UNL A   1      33.877  24.620  24.329  1.00  0.00     0.116 C 
BRANCH  76  77
ATOM     77  N   UNL A   1      33.528  25.426  23.182  1.00  0.00    -0.351 N 
ATOM     78  C   UNL A   1      32.851  26.623  23.183  1.00  0.00     0.283 C 
ATOM     79  H   UNL A   1      33.806  25.081  22.303  1.00  0.00     0.163 HD
ATOM     80  O   UNL A   1      32.953  27.315  22.166  1.00  0.00    -0.268 OA
BRANCH  78  81
ATOM     81  C   UNL A   1      32.009  27.047  24.430  1.00  0.00     0.308 C 
BRANCH  81  82
ATOM     82  N   UNL A   1      32.377  28.345  25.022  1.00  0.00    -0.317 N 
ATOM     83  C   UNL A   1      33.776  28.758  25.063  1.00  0.00     0.292 C 
ATOM     84  C   UNL A   1      31.636  28.784  26.201  1.00  0.00     0.292 C 
ATOM     85  H   UNL A   1      32.012  28.882  24.235  1.00  0.00     0.349 HD
ATOM     86  C   UNL A   1      34.456  28.434  26.399  1.00  0.00     0.221 C 
ATOM     87  C   UNL A   1      32.362  28.569  27.537  1.00  0.00     0.221 C 
ATOM     88  O   UNL A   1      33.733  28.982  27.508  1.00  0.00    -0.370 OA
ENDBRANCH  81  82
BRANCH  81  89
ATOM     89  C   UNL A   1      30.535  27.133  24.094  1.00  0.00     0.057 A 
ATOM     90  C   UNL A   1      29.522  26.180  24.366  1.00  0.00     0.145 A 
ATOM     91  C   UNL A   1      29.854  28.149  23.444  1.00  0.00     0.119 A 
ATOM     92  N   UNL A   1      28.313  26.566  23.952  1.00  0.00    -0.181 NA
ATOM     93  N   UNL A   1      28.544  27.756  23.358  1.00  0.00    -0.268 N 
BRANCH  93  94
ATOM     94  C   UNL A   1      27.428  28.538  22.835  1.00  0.00     0.179 C 
BRANCH  94  95
ATOM     95  C   UNL A   1      27.799  29.972  22.530  1.00  0.00    -0.027 A 
ATOM     96  C   UNL A   1      27.890  30.926  23.554  1.00  0.00     0.005 A 
ATOM     97  C   UNL A   1      28.025  30.384  21.207  1.00  0.00     0.005 A 
ATOM     98  C   UNL A   1      28.207  32.256  23.259  1.00  0.00     0.000 A 
ATOM     99  C   UNL A   1      28.346  31.710  20.914  1.00  0.00     0.000 A 
ATOM    100  C   UNL A   1      28.436  32.646  21.942  1.00  0.00     0.000 A 
ENDBRANCH  94  95
ENDBRANCH  93  94
ENDBRANCH  81  89
ENDBRANCH  78  81
ENDBRANCH  76  77
ENDBRANCH  75  76
ENDBRANCH   1  75
TORSDOF 18
ENDMDL
MODEL 2
REMARK VINA RESULT:     -12.5      2.641      4.434
REMARK SMILES O=C(NCCCCNC(=O)[C@H](c1cnn(Cc2ccccc2)c1)[NH+]1CCOCC1)c1ccc(-c2c3nc(c(-c4c(F)cc(S(=O)(=O)[O-])cc4F)c4ccc([nH]4)c(-c4c(F)cc(S(=O)(=O)[O-])cc4F)c4nc(c(-c5c(F)cc(S(=O)(=O)[O-])cc5F)c5ccc2[nH]5)C=C4)C=C3)cc1
REMARK SMILES IDX 5 1 4 2 3 3 1 4 2 5 30 7 31 8 95 9 32 10 94 11 33 12 34 13
REMARK SMILES IDX 35 14 88 15 36 16 93 17 87 18 89 19 37 20 92 21 86 22 85 23
REMARK SMILES IDX 38 25 72 26 51 27 71 28 52 29 55 30 70 31 90 32 53 33 54 34
REMARK SMILES IDX 69 36 91 37 56 38 39 39 40 40 49 41 41 42 42 43 48 44 50 45
REMARK SMILES IDX 43 46 44 47 45 48 46 49 47 50 73 51 74 52 83 53 75 54 76 55
REMARK SMILES IDX 82 56 84 57 77 58 78 59 79 60 80 61 81 62 57 63 58 64 67 65
REMARK SMILES IDX 59 66 60 67 66 68 68 69 61 70 62 71 63 72 64 73 65 74 6 75
REMARK SMILES IDX 7 76 8 77 9 78 10 80 11 81 24 82 25 83 29 84 26 86 28 87
REMARK SMILES IDX 27 88 12 89 13 90 23 91 14 92 15 93 16 94 17 95 18 96 22 97
REMARK SMILES IDX 19 98 21 99 20 100
REMARK H PARENT 3 6 89 24 55 35 8 79 24 85
REMARK Flexibility Score: inf
ROOT
ATOM      1  C   UNL A   1      39.515  21.382  26.198  1.00  0.00     0.023 C 
ENDROOT
BRANCH   1   2
ATOM      2  C   UNL A   1      40.739  20.524  26.546  1.00  0.00     0.116 C 
BRANCH   2   3
ATOM      3  N   UNL A   1      41.928  20.709  25.734  1.00  0.00    -0.352 N 
ATOM      4  O   UNL A   1      43.980  21.280  25.129  1.00  0.00    -0.269 OA
ATOM      5  C   UNL A   1      42.972  21.599  25.764  1.00  0.00     0.251 C 
ATOM      6  H   UNL A   1      42.000  20.054  25.004  1.00  0.00     0.163 HD
BRANCH   5   7
ATOM      7  C   UNL A   1      42.938  22.932  26.428  1.00  0.00     0.039 A 
ATOM      8  C   UNL A   1      43.394  23.193  27.717  1.00  0.00     0.014 A 
ATOM      9  C   UNL A   1      42.338  23.983  25.708  1.00  0.00     0.014 A 
ATOM     10  C   UNL A   1      43.127  24.410  28.330  1.00  0.00     0.010 A 
ATOM     11  C   UNL A   1      42.116  25.227  26.299  1.00  0.00     0.010 A 
ATOM     12  C   UNL A   1      42.464  25.422  27.633  1.00  0.00    -0.014 A 
BRANCH  12  13
ATOM     13  C   UNL A   1      42.279  26.697  28.328  1.00  0.00     0.031 A 
ATOM     14  C   UNL A   1      43.413  27.662  28.210  1.00  0.00     0.074 A 
ATOM     15  C   UNL A   1      41.137  27.071  28.936  1.00  0.00     0.049 A 
ATOM     16  N   UNL A   1      44.121  28.207  29.147  1.00  0.00    -0.248 NA
ATOM     17  C   UNL A   1      43.865  27.994  26.850  1.00  0.00     0.031 C 
ATOM     18  C   UNL A   1      39.835  26.402  28.892  1.00  0.00     0.029 A 
ATOM     19  N   UNL A   1      40.880  28.210  29.643  1.00  0.00    -0.354 N 
ATOM     20  C   UNL A   1      44.979  29.102  28.509  1.00  0.00     0.074 A 
ATOM     21  C   UNL A   1      44.873  28.829  27.099  1.00  0.00     0.031 C 
ATOM     22  C   UNL A   1      38.888  27.252  29.345  1.00  0.00     0.029 A 
ATOM     23  C   UNL A   1      39.529  28.465  29.826  1.00  0.00     0.049 A 
ATOM     24  H   UNL A   1      41.590  28.796  29.992  1.00  0.00     0.167 HD
ATOM     25  C   UNL A   1      45.575  30.139  29.164  1.00  0.00     0.037 A 
ATOM     26  C   UNL A   1      38.973  29.623  30.257  1.00  0.00     0.037 A 
ATOM     27  C   UNL A   1      45.610  29.921  30.586  1.00  0.00     0.049 A 
ATOM     28  C   UNL A   1      40.018  30.396  30.976  1.00  0.00     0.074 A 
ATOM     29  C   UNL A   1      46.145  28.952  31.414  1.00  0.00     0.029 A 
ATOM     30  N   UNL A   1      44.765  30.654  31.381  1.00  0.00    -0.354 N 
ATOM     31  N   UNL A   1      40.542  30.047  32.118  1.00  0.00    -0.248 NA
ATOM     32  C   UNL A   1      40.760  31.404  30.234  1.00  0.00     0.031 C 
ATOM     33  C   UNL A   1      45.243  28.858  32.515  1.00  0.00     0.029 A 
ATOM     34  C   UNL A   1      44.227  29.788  32.298  1.00  0.00     0.049 A 
ATOM     35  H   UNL A   1      44.581  31.619  31.308  1.00  0.00     0.167 HD
ATOM     36  C   UNL A   1      41.859  30.476  32.052  1.00  0.00     0.074 A 
ATOM     37  C   UNL A   1      41.899  31.404  30.928  1.00  0.00     0.031 C 
ATOM     38  C   UNL A   1      42.851  29.836  32.739  1.00  0.00     0.037 A 
BRANCH  25  39
ATOM     39  C   UNL A   1      45.816  31.506  28.551  1.00  0.00     0.058 A 
ATOM     40  C   UNL A   1      44.725  32.228  28.018  1.00  0.00     0.135 A 
ATOM     41  C   UNL A   1      47.093  31.989  28.192  1.00  0.00     0.135 A 
ATOM     42  F   UNL A   1      43.462  31.871  28.302  1.00  0.00    -0.206 F 
ATOM     43  C   UNL A   1      44.892  33.271  27.105  1.00  0.00     0.059 A 
ATOM     44  C   UNL A   1      47.282  33.063  27.328  1.00  0.00     0.059 A 
ATOM     45  F   UNL A   1      48.224  31.386  28.576  1.00  0.00    -0.206 F 
ATOM     46  C   UNL A   1      46.178  33.658  26.743  1.00  0.00     0.060 A 
BRANCH  46  47
ATOM     47  S   UNL A   1      46.403  34.875  25.433  1.00  0.00     0.124 S 
ATOM     48  O   UNL A   1      46.111  36.114  26.145  1.00  0.00    -0.237 OA
ATOM     49  O   UNL A   1      47.796  34.665  25.056  1.00  0.00    -0.237 OA
ATOM     50  O   UNL A   1      45.420  34.472  24.432  1.00  0.00    -0.744 OA
ENDBRANCH  46  47
ENDBRANCH  25  39
BRANCH  26  51
ATOM     51  C   UNL A   1      37.691  30.230  29.815  1.00  0.00     0.058 A 
ATOM     52  C   UNL A   1      36.822  30.853  30.727  1.00  0.00     0.135 A 
ATOM     53  C   UNL A   1      37.415  30.444  28.448  1.00  0.00     0.135 A 
ATOM     54  F   UNL A   1      37.028  30.729  32.047  1.00  0.00    -0.206 F 
ATOM     55  C   UNL A   1      35.764  31.668  30.310  1.00  0.00     0.059 A 
ATOM     56  C   UNL A   1      36.358  31.237  28.009  1.00  0.00     0.059 A 
ATOM     57  F   UNL A   1      38.223  29.963  27.492  1.00  0.00    -0.206 F 
ATOM     58  C   UNL A   1      35.550  31.866  28.946  1.00  0.00     0.060 A 
BRANCH  58  59
ATOM     59  S   UNL A   1      34.289  33.041  28.402  1.00  0.00     0.124 S 
ATOM     60  O   UNL A   1      33.814  33.582  29.672  1.00  0.00    -0.237 OA
ATOM     61  O   UNL A   1      35.059  33.956  27.567  1.00  0.00    -0.237 OA
ATOM     62  O   UNL A   1      33.331  32.203  27.685  1.00  0.00    -0.744 OA
ENDBRANCH  58  59
ENDBRANCH  26  51
BRANCH  38  63
ATOM     63  C   UNL A   1      42.462  28.892  33.845  1.00  0.00     0.058 A 
ATOM     64  C   UNL A   1      42.016  27.576  33.635  1.00  0.00     0.135 A 
ATOM     65  C   UNL A   1      42.705  29.284  35.171  1.00  0.00     0.135 A 
ATOM     66  F   UNL A   1      41.866  27.088  32.395  1.00  0.00    -0.206 F 
ATOM     67  C   UNL A   1      41.782  26.703  34.699  1.00  0.00     0.059 A 
ATOM     68  C   UNL A   1      42.509  28.418  36.246  1.00  0.00     0.059 A 
ATOM     69  F   UNL A   1      43.195  30.507  35.433  1.00  0.00    -0.206 F 
ATOM     70  C   UNL A   1      42.037  27.131  36.001  1.00  0.00     0.060 A 
BRANCH  70  71
ATOM     71  S   UNL A   1      41.840  25.964  37.365  1.00  0.00     0.124 S 
ATOM     72  O   UNL A   1      42.838  26.440  38.323  1.00  0.00    -0.237 OA
ATOM     73  O   UNL A   1      40.445  26.168  37.759  1.00  0.00    -0.237 OA
ATOM     74  O   UNL A   1      42.123  24.673  36.757  1.00  0.00    -0.744 OA
ENDBRANCH  70  71
ENDBRANCH  38  63
ENDBRANCH  12  13
ENDBRANCH   5   7
ENDBRANCH   2   3
ENDBRANCH   1   2
BRANCH   1  75
ATOM     75  C   UNL A   1      38.433  20.749  25.323  1.00  0.00     0.023 C 
BRANCH  75  76
ATOM     76  C   UNL A   1      37.225  21.620  25.027  1.00  0.00     0.116 C 
BRANCH  76  77
ATOM     77  N   UNL A   1      36.316  21.814  26.133  1.00  0.00    -0.351 N 
ATOM     78  C   UNL A   1      34.954  21.622  26.131  1.00  0.00     0.283 C 
ATOM     79  H   UNL A   1      36.715  22.117  26.980  1.00  0.00     0.163 HD
ATOM     80  O   UNL A   1      34.414  21.504  27.236  1.00  0.00    -0.268 OA
BRANCH  78  81
ATOM     81  C   UNL A   1      34.171  21.560  24.781  1.00  0.00     0.308 C 
BRANCH  81  82
ATOM     82  N   UNL A   1      32.958  20.725  24.798  1.00  0.00    -0.317 N 
ATOM     83  C   UNL A   1      32.944  19.474  25.550  1.00  0.00     0.292 C 
ATOM     84  C   UNL A   1      32.180  20.637  23.565  1.00  0.00     0.292 C 
ATOM     85  H   UNL A   1      32.450  21.358  25.416  1.00  0.00     0.349 HD
ATOM     86  C   UNL A   1      33.263  18.251  24.682  1.00  0.00     0.221 C 
ATOM     87  C   UNL A   1      32.408  19.357  22.747  1.00  0.00     0.221 C 
ATOM     88  O   UNL A   1      32.396  18.168  23.544  1.00  0.00    -0.370 OA
ENDBRANCH  81  82
BRANCH  81  89
ATOM     89  C   UNL A   1      33.734  22.939  24.336  1.00  0.00     0.057 A 
ATOM     90  C   UNL A   1      34.165  23.667  23.198  1.00  0.00     0.145 A 
ATOM     91  C   UNL A   1      32.828  23.797  24.939  1.00  0.00     0.119 A 
ATOM     92  N   UNL A   1      33.572  24.856  23.079  1.00  0.00    -0.181 NA
ATOM     93  N   UNL A   1      32.786  24.932  24.174  1.00  0.00    -0.268 N 
BRANCH  93  94
ATOM     94  C   UNL A   1      31.906  26.082  24.361  1.00  0.00     0.179 C 
BRANCH  94  95
ATOM     95  C   UNL A   1      32.378  27.020  25.449  1.00  0.00    -0.027 A 
ATOM     96  C   UNL A   1      33.684  27.533  25.443  1.00  0.00     0.005 A 
ATOM     97  C   UNL A   1      31.526  27.370  26.508  1.00  0.00     0.005 A 
ATOM     98  C   UNL A   1      34.120  28.377  26.468  1.00  0.00     0.000 A 
ATOM     99  C   UNL A   1      31.961  28.217  27.528  1.00  0.00     0.000 A 
ATOM    100  C   UNL A   1      33.259  28.720  27.507  1.00  0.00     0.000 A 
ENDBRANCH  94  95
ENDBRANCH  93  94
ENDBRANCH  81  89
ENDBRANCH  78  81
ENDBRANCH  76  77
ENDBRANCH  75  76
ENDBRANCH   1  75
TORSDOF 18
ENDMDL
MODEL 3
REMARK VINA RESULT:     -12.4      1.337      2.143
REMARK SMILES O=C(NCCCCNC(=O)[C@H](c1cnn(Cc2ccccc2)c1)[NH+]1CCOCC1)c1ccc(-c2c3nc(c(-c4c(F)cc(S(=O)(=O)[O-])cc4F)c4ccc([nH]4)c(-c4c(F)cc(S(=O)(=O)[O-])cc4F)c4nc(c(-c5c(F)cc(S(=O)(=O)[O-])cc5F)c5ccc2[nH]5)C=C4)C=C3)cc1
REMARK SMILES IDX 5 1 4 2 3 3 1 4 2 5 30 7 31 8 95 9 32 10 94 11 33 12 34 13
REMARK SMILES IDX 35 14 88 15 36 16 93 17 87 18 89 19 37 20 92 21 86 22 85 23
REMARK SMILES IDX 38 25 72 26 51 27 71 28 52 29 55 30 70 31 90 32 53 33 54 34
REMARK SMILES IDX 69 36 91 37 56 38 39 39 40 40 49 41 41 42 42 43 48 44 50 45
REMARK SMILES IDX 43 46 44 47 45 48 46 49 47 50 73 51 74 52 83 53 75 54 76 55
REMARK SMILES IDX 82 56 84 57 77 58 78 59 79 60 80 61 81 62 57 63 58 64 67 65
REMARK SMILES IDX 59 66 60 67 66 68 68 69 61 70 62 71 63 72 64 73 65 74 6 75
REMARK SMILES IDX 7 76 8 77 9 78 10 80 11 81 24 82 25 83 29 84 26 86 28 87
REMARK SMILES IDX 27 88 12 89 13 90 23 91 14 92 15 93 16 94 17 95 18 96 22 97
REMARK SMILES IDX 19 98 21 99 20 100
REMARK H PARENT 3 6 89 24 55 35 8 79 24 85
REMARK Flexibility Score: inf
ROOT
ATOM      1  C   UNL A   1      36.914  23.170  25.029  1.00  0.00     0.023 C 
ENDROOT
BRANCH   1   2
ATOM      2  C   UNL A   1      37.598  21.999  25.749  1.00  0.00     0.116 C 
BRANCH   2   3
ATOM      3  N   UNL A   1      39.001  21.773  25.456  1.00  0.00    -0.352 N 
ATOM      4  O   UNL A   1      41.193  21.597  25.723  1.00  0.00    -0.269 OA
ATOM      5  C   UNL A   1      40.174  22.237  25.998  1.00  0.00     0.251 C 
ATOM      6  H   UNL A   1      39.143  21.152  24.706  1.00  0.00     0.163 HD
BRANCH   5   7
ATOM      7  C   UNL A   1      40.306  23.480  26.808  1.00  0.00     0.039 A 
ATOM      8  C   UNL A   1      39.563  24.640  26.614  1.00  0.00     0.014 A 
ATOM      9  C   UNL A   1      41.306  23.486  27.800  1.00  0.00     0.014 A 
ATOM     10  C   UNL A   1      39.902  25.816  27.272  1.00  0.00     0.010 A 
ATOM     11  C   UNL A   1      41.615  24.649  28.506  1.00  0.00     0.010 A 
ATOM     12  C   UNL A   1      40.945  25.831  28.201  1.00  0.00    -0.014 A 
BRANCH  12  13
ATOM     13  C   UNL A   1      41.195  27.093  28.898  1.00  0.00     0.031 A 
ATOM     14  C   UNL A   1      42.323  27.911  28.361  1.00  0.00     0.074 A 
ATOM     15  C   UNL A   1      40.413  27.586  29.879  1.00  0.00     0.049 A 
ATOM     16  N   UNL A   1      43.389  28.327  28.967  1.00  0.00    -0.248 NA
ATOM     17  C   UNL A   1      42.287  28.232  26.926  1.00  0.00     0.031 C 
ATOM     18  C   UNL A   1      39.109  27.089  30.323  1.00  0.00     0.029 A 
ATOM     19  N   UNL A   1      40.583  28.722  30.615  1.00  0.00    -0.354 N 
ATOM     20  C   UNL A   1      44.064  29.130  28.047  1.00  0.00     0.074 A 
ATOM     21  C   UNL A   1      43.416  28.924  26.778  1.00  0.00     0.031 C 
ATOM     22  C   UNL A   1      38.512  28.035  31.080  1.00  0.00     0.029 A 
ATOM     23  C   UNL A   1      39.438  29.139  31.277  1.00  0.00     0.049 A 
ATOM     24  H   UNL A   1      41.441  29.201  30.673  1.00  0.00     0.167 HD
ATOM     25  C   UNL A   1      44.988  30.058  28.425  1.00  0.00     0.037 A 
ATOM     26  C   UNL A   1      39.234  30.342  31.868  1.00  0.00     0.037 A 
ATOM     27  C   UNL A   1      45.511  29.787  29.739  1.00  0.00     0.049 A 
ATOM     28  C   UNL A   1      40.560  30.949  32.144  1.00  0.00     0.074 A 
ATOM     29  C   UNL A   1      46.180  28.728  30.325  1.00  0.00     0.029 A 
ATOM     30  N   UNL A   1      45.119  30.592  30.778  1.00  0.00    -0.354 N 
ATOM     31  N   UNL A   1      41.415  30.496  33.019  1.00  0.00    -0.248 NA
ATOM     32  C   UNL A   1      41.105  31.882  31.169  1.00  0.00     0.031 C 
ATOM     33  C   UNL A   1      45.737  28.709  31.680  1.00  0.00     0.029 A 
ATOM     34  C   UNL A   1      44.843  29.768  31.839  1.00  0.00     0.049 A 
ATOM     35  H   UNL A   1      45.048  31.574  30.765  1.00  0.00     0.167 HD
ATOM     36  C   UNL A   1      42.660  30.757  32.469  1.00  0.00     0.074 A 
ATOM     37  C   UNL A   1      42.409  31.713  31.397  1.00  0.00     0.031 C 
ATOM     38  C   UNL A   1      43.742  29.973  32.753  1.00  0.00     0.037 A 
BRANCH  25  39
ATOM     39  C   UNL A   1      45.166  31.405  27.749  1.00  0.00     0.058 A 
ATOM     40  C   UNL A   1      46.430  31.756  27.226  1.00  0.00     0.135 A 
ATOM     41  C   UNL A   1      44.246  32.470  27.870  1.00  0.00     0.135 A 
ATOM     42  F   UNL A   1      47.381  30.825  27.051  1.00  0.00    -0.206 F 
ATOM     43  C   UNL A   1      46.789  33.078  26.959  1.00  0.00     0.059 A 
ATOM     44  C   UNL A   1      44.566  33.787  27.556  1.00  0.00     0.059 A 
ATOM     45  F   UNL A   1      43.025  32.309  28.393  1.00  0.00    -0.206 F 
ATOM     46  C   UNL A   1      45.856  34.090  27.159  1.00  0.00     0.060 A 
BRANCH  46  47
ATOM     47  S   UNL A   1      46.363  35.811  26.993  1.00  0.00     0.124 S 
ATOM     48  O   UNL A   1      47.360  35.917  28.052  1.00  0.00    -0.237 OA
ATOM     49  O   UNL A   1      46.872  35.850  25.627  1.00  0.00    -0.237 OA
ATOM     50  O   UNL A   1      45.121  36.546  27.215  1.00  0.00    -0.744 OA
ENDBRANCH  46  47
ENDBRANCH  25  39
BRANCH  26  51
ATOM     51  C   UNL A   1      37.970  31.122  31.918  1.00  0.00     0.058 A 
ATOM     52  C   UNL A   1      37.295  31.346  33.130  1.00  0.00     0.135 A 
ATOM     53  C   UNL A   1      37.537  31.886  30.815  1.00  0.00     0.135 A 
ATOM     54  F   UNL A   1      37.662  30.686  34.239  1.00  0.00    -0.206 F 
ATOM     55  C   UNL A   1      36.276  32.297  33.251  1.00  0.00     0.059 A 
ATOM     56  C   UNL A   1      36.513  32.825  30.906  1.00  0.00     0.059 A 
ATOM     57  F   UNL A   1      38.159  31.811  29.629  1.00  0.00    -0.206 F 
ATOM     58  C   UNL A   1      35.903  33.044  32.134  1.00  0.00     0.060 A 
BRANCH  58  59
ATOM     59  S   UNL A   1      34.702  34.382  32.316  1.00  0.00     0.124 S 
ATOM     60  O   UNL A   1      33.616  33.717  33.029  1.00  0.00    -0.237 OA
ATOM     61  O   UNL A   1      35.455  35.371  33.079  1.00  0.00    -0.237 OA
ATOM     62  O   UNL A   1      34.402  34.759  30.937  1.00  0.00    -0.744 OA
ENDBRANCH  58  59
ENDBRANCH  26  51
BRANCH  38  63
ATOM     63  C   UNL A   1      43.664  29.046  33.937  1.00  0.00     0.058 A 
ATOM     64  C   UNL A   1      43.965  29.427  35.255  1.00  0.00     0.135 A 
ATOM     65  C   UNL A   1      43.108  27.771  33.748  1.00  0.00     0.135 A 
ATOM     66  F   UNL A   1      44.396  30.666  35.534  1.00  0.00    -0.206 F 
ATOM     67  C   UNL A   1      43.763  28.564  36.332  1.00  0.00     0.059 A 
ATOM     68  C   UNL A   1      42.866  26.904  34.813  1.00  0.00     0.059 A 
ATOM     69  F   UNL A   1      42.737  27.372  32.520  1.00  0.00    -0.206 F 
ATOM     70  C   UNL A   1      43.207  27.306  36.102  1.00  0.00     0.060 A 
BRANCH  70  71
ATOM     71  S   UNL A   1      42.842  26.234  37.510  1.00  0.00     0.124 S 
ATOM     72  O   UNL A   1      41.405  26.439  37.687  1.00  0.00    -0.237 OA
ATOM     73  O   UNL A   1      43.232  24.914  37.014  1.00  0.00    -0.237 OA
ATOM     74  O   UNL A   1      43.685  26.762  38.572  1.00  0.00    -0.744 OA
ENDBRANCH  70  71
ENDBRANCH  38  63
ENDBRANCH  12  13
ENDBRANCH   5   7
ENDBRANCH   2   3
ENDBRANCH   1   2
BRANCH   1  75
ATOM     75  C   UNL A   1      35.758  23.865  25.748  1.00  0.00     0.023 C 
BRANCH  75  76
ATOM     76  C   UNL A   1      34.742  24.557  24.856  1.00  0.00     0.116 C 
BRANCH  76  77
ATOM     77  N   UNL A   1      34.085  25.703  25.440  1.00  0.00    -0.351 N 
ATOM     78  C   UNL A   1      32.770  26.074  25.284  1.00  0.00     0.283 C 
ATOM     79  H   UNL A   1      34.638  26.281  26.013  1.00  0.00     0.163 HD
ATOM     80  O   UNL A   1      32.317  26.862  26.120  1.00  0.00    -0.268 OA
BRANCH  78  81
ATOM     81  C   UNL A   1      31.928  25.503  24.098  1.00  0.00     0.308 C 
BRANCH  81  82
ATOM     82  N   UNL A   1      31.042  24.379  24.443  1.00  0.00    -0.317 N 
ATOM     83  C   UNL A   1      30.799  24.044  25.842  1.00  0.00     0.292 C 
ATOM     84  C   UNL A   1      31.091  23.193  23.592  1.00  0.00     0.292 C 
ATOM     85  H   UNL A   1      30.192  24.883  24.187  1.00  0.00     0.349 HD
ATOM     86  C   UNL A   1      31.715  22.928  26.359  1.00  0.00     0.221 C 
ATOM     87  C   UNL A   1      31.913  22.025  24.158  1.00  0.00     0.221 C 
ATOM     88  O   UNL A   1      31.637  21.757  25.537  1.00  0.00    -0.370 OA
ENDBRANCH  81  82
BRANCH  81  89
ATOM     89  C   UNL A   1      31.046  26.570  23.486  1.00  0.00     0.057 A 
ATOM     90  C   UNL A   1      31.355  27.451  22.419  1.00  0.00     0.145 A 
ATOM     91  C   UNL A   1      29.754  26.929  23.834  1.00  0.00     0.119 A 
ATOM     92  N   UNL A   1      30.348  28.269  22.105  1.00  0.00    -0.181 NA
ATOM     93  N   UNL A   1      29.392  27.960  23.006  1.00  0.00    -0.268 N 
BRANCH  93  94
ATOM     94  C   UNL A   1      28.086  28.607  22.935  1.00  0.00     0.179 C 
BRANCH  94  95
ATOM     95  C   UNL A   1      28.167  30.068  22.554  1.00  0.00    -0.027 A 
ATOM     96  C   UNL A   1      28.366  31.057  23.530  1.00  0.00     0.005 A 
ATOM     97  C   UNL A   1      28.011  30.468  21.217  1.00  0.00     0.005 A 
ATOM     98  C   UNL A   1      28.412  32.408  23.172  1.00  0.00     0.000 A 
ATOM     99  C   UNL A   1      28.062  31.816  20.861  1.00  0.00     0.000 A 
ATOM    100  C   UNL A   1      28.263  32.786  21.840  1.00  0.00     0.000 A 
ENDBRANCH  94  95
ENDBRANCH  93  94
ENDBRANCH  81  89
ENDBRANCH  78  81
ENDBRANCH  76  77
ENDBRANCH  75  76
ENDBRANCH   1  75
TORSDOF 18
ENDMDL
