MODEL 1
REMARK VINA RESULT:     -11.3      0.000      0.000
REMARK SMILES CCC[NH+]1CCN(c2ccc(C(=O)NCCCCNC(=O)c3ccc(-c4c5nc(c(-c6c(F)cc(S(=O)(=O)[O-])cc6F)c6ccc([nH]6)c(-c6c(F)cc(S(=O)(=O)[O-])cc6F)c6nc(c(-c7c(F)cc(S(=O)(=O)[O-])cc7F)c7ccc4[nH]7)C=C6)C=C5)cc3)cc2NS(=O)(=O)CC)CC1
REMARK SMILES IDX 16 1 15 2 14 3 12 4 13 5 11 7 8 8 9 9 89 10 10 11 88 12 7 13
REMARK SMILES IDX 4 14 5 15 97 16 6 18 96 19 3 20 2 21 1 22 90 23 91 25 92 26
REMARK SMILES IDX 93 27 94 28 95 29 17 30 18 31 19 32 20 33 21 35 22 36 23 37
REMARK SMILES IDX 87 38 24 39 86 40 25 41 26 42 27 43 80 44 28 45 85 46 79 47
REMARK SMILES IDX 81 48 29 49 84 50 78 51 77 52 30 54 64 55 43 56 63 57 44 58
REMARK SMILES IDX 47 59 62 60 82 61 45 62 46 63 61 65 83 66 48 67 31 68 32 69
REMARK SMILES IDX 41 70 33 71 34 72 40 73 42 74 35 75 36 76 37 77 38 78 39 79
REMARK SMILES IDX 65 80 66 81 75 82 67 83 68 84 74 85 76 86 69 87 70 88 71 89
REMARK SMILES IDX 72 90 73 91 49 92 50 93 59 94 51 95 52 96 58 97 60 98 53 99
REMARK SMILES IDX 54 100 55 101 56 102 57 103
REMARK H PARENT 14 6 4 17 90 24 19 34 81 53 47 64
REMARK Flexibility Score: inf
ROOT
ATOM      1  C   UNL A   1      40.459  22.077  27.560  1.00  0.00     0.023 C 
ENDROOT
BRANCH   1   2
ATOM      2  C   UNL A   1      39.393  22.327  26.506  1.00  0.00     0.116 C 
BRANCH   2   3
ATOM      3  N   UNL A   1      38.871  21.181  25.806  1.00  0.00    -0.352 N 
ATOM      4  C   UNL A   1      37.739  21.092  25.018  1.00  0.00     0.251 C 
ATOM      5  O   UNL A   1      37.484  20.013  24.483  1.00  0.00    -0.269 OA
ATOM      6  H   UNL A   1      39.391  20.350  25.903  1.00  0.00     0.163 HD
BRANCH   4   7
ATOM      7  C   UNL A   1      36.753  22.217  24.887  1.00  0.00     0.042 A 
ATOM      8  C   UNL A   1      34.639  24.007  24.356  1.00  0.00     0.062 A 
ATOM      9  C   UNL A   1      35.461  23.566  23.320  1.00  0.00     0.029 A 
ATOM     10  C   UNL A   1      34.905  23.546  25.670  1.00  0.00     0.073 A 
ATOM     11  C   UNL A   1      36.482  22.648  23.577  1.00  0.00     0.016 A 
ATOM     12  C   UNL A   1      36.035  22.786  25.951  1.00  0.00     0.042 A 
BRANCH   8  13
ATOM     13  N   UNL A   1      33.514  24.803  24.143  1.00  0.00    -0.359 N 
ATOM     14  N   UNL A   1      31.167  26.503  23.744  1.00  0.00    -0.332 N 
ATOM     15  C   UNL A   1      31.120  25.043  23.579  1.00  0.00     0.283 C 
ATOM     16  C   UNL A   1      32.278  26.894  24.632  1.00  0.00     0.283 C 
ATOM     17  H   UNL A   1      30.294  26.747  24.212  1.00  0.00     0.348 HD
ATOM     18  C   UNL A   1      32.460  24.348  23.238  1.00  0.00     0.178 C 
ATOM     19  C   UNL A   1      33.655  26.264  24.319  1.00  0.00     0.178 C 
BRANCH  14  20
ATOM     20  C   UNL A   1      31.035  27.310  22.530  1.00  0.00     0.262 C 
BRANCH  20  21
ATOM     21  C   UNL A   1      31.245  28.829  22.585  1.00  0.00     0.058 C 
ATOM     22  C   UNL A   1      29.963  29.646  22.516  1.00  0.00     0.010 C 
ENDBRANCH  20  21
ENDBRANCH  14  20
ENDBRANCH   8  13
BRANCH  10  23
ATOM     23  N   UNL A   1      33.829  23.788  26.572  1.00  0.00    -0.281 N 
ATOM     24  H   UNL A   1      33.822  24.695  26.956  1.00  0.00     0.180 HD
BRANCH  23  25
ATOM     25  S   UNL A   1      32.604  22.838  27.089  1.00  0.00     0.232 S 
ATOM     26  O   UNL A   1      33.115  21.931  28.096  1.00  0.00    -0.207 OA
ATOM     27  O   UNL A   1      31.531  23.761  27.393  1.00  0.00    -0.207 OA
BRANCH  25  28
ATOM     28  C   UNL A   1      32.077  21.878  25.679  1.00  0.00     0.156 C 
ATOM     29  C   UNL A   1      32.974  20.711  25.306  1.00  0.00     0.023 C 
ENDBRANCH  25  28
ENDBRANCH  23  25
ENDBRANCH  10  23
ENDBRANCH   4   7
ENDBRANCH   2   3
ENDBRANCH   1   2
BRANCH   1  30
ATOM     30  C   UNL A   1      41.882  21.952  27.055  1.00  0.00     0.023 C 
BRANCH  30  31
ATOM     31  C   UNL A   1      42.663  23.255  26.951  1.00  0.00     0.116 C 
BRANCH  31  32
ATOM     32  N   UNL A   1      42.229  24.146  25.877  1.00  0.00    -0.352 N 
ATOM     33  C   UNL A   1      41.797  25.455  25.973  1.00  0.00     0.251 C 
ATOM     34  H   UNL A   1      42.246  23.764  24.970  1.00  0.00     0.163 HD
ATOM     35  O   UNL A   1      41.398  26.054  24.980  1.00  0.00    -0.269 OA
BRANCH  33  36
ATOM     36  C   UNL A   1      41.775  26.095  27.304  1.00  0.00     0.039 A 
ATOM     37  C   UNL A   1      42.774  27.010  27.639  1.00  0.00     0.014 A 
ATOM     38  C   UNL A   1      40.685  25.892  28.152  1.00  0.00     0.014 A 
ATOM     39  C   UNL A   1      42.615  27.809  28.774  1.00  0.00     0.010 A 
ATOM     40  C   UNL A   1      40.471  26.770  29.206  1.00  0.00     0.010 A 
ATOM     41  C   UNL A   1      41.432  27.741  29.529  1.00  0.00    -0.014 A 
BRANCH  41  42
ATOM     42  C   UNL A   1      41.172  28.671  30.661  1.00  0.00     0.031 A 
ATOM     43  C   UNL A   1      42.002  28.571  31.914  1.00  0.00     0.074 A 
ATOM     44  C   UNL A   1      40.151  29.550  30.594  1.00  0.00     0.049 A 
ATOM     45  N   UNL A   1      41.888  29.233  33.036  1.00  0.00    -0.248 NA
ATOM     46  C   UNL A   1      43.077  27.565  31.920  1.00  0.00     0.031 C 
ATOM     47  C   UNL A   1      39.236  29.705  29.460  1.00  0.00     0.029 A 
ATOM     48  N   UNL A   1      39.705  30.479  31.502  1.00  0.00    -0.354 N 
ATOM     49  C   UNL A   1      42.865  28.716  33.879  1.00  0.00     0.074 A 
ATOM     50  C   UNL A   1      43.507  27.632  33.171  1.00  0.00     0.031 C 
ATOM     51  C   UNL A   1      38.369  30.696  29.723  1.00  0.00     0.029 A 
ATOM     52  C   UNL A   1      38.632  31.218  31.060  1.00  0.00     0.049 A 
ATOM     53  H   UNL A   1      40.117  30.605  32.387  1.00  0.00     0.167 HD
ATOM     54  C   UNL A   1      43.223  29.130  35.117  1.00  0.00     0.037 A 
ATOM     55  C   UNL A   1      37.937  32.202  31.664  1.00  0.00     0.037 A 
ATOM     56  C   UNL A   1      42.595  30.226  35.807  1.00  0.00     0.049 A 
ATOM     57  C   UNL A   1      38.341  32.634  33.049  1.00  0.00     0.074 A 
ATOM     58  C   UNL A   1      42.915  30.760  37.043  1.00  0.00     0.029 A 
ATOM     59  N   UNL A   1      41.518  30.954  35.322  1.00  0.00    -0.354 N 
ATOM     60  N   UNL A   1      39.313  32.180  33.805  1.00  0.00    -0.248 NA
ATOM     61  C   UNL A   1      37.559  33.717  33.662  1.00  0.00     0.031 C 
ATOM     62  C   UNL A   1      41.997  31.775  37.328  1.00  0.00     0.029 A 
ATOM     63  C   UNL A   1      41.146  31.917  36.245  1.00  0.00     0.049 A 
ATOM     64  H   UNL A   1      41.084  30.808  34.452  1.00  0.00     0.167 HD
ATOM     65  C   UNL A   1      39.279  32.943  34.969  1.00  0.00     0.074 A 
ATOM     66  C   UNL A   1      38.198  33.894  34.810  1.00  0.00     0.031 C 
ATOM     67  C   UNL A   1      40.070  32.863  36.068  1.00  0.00     0.037 A 
BRANCH  54  68
ATOM     68  C   UNL A   1      44.350  28.397  35.794  1.00  0.00     0.058 A 
ATOM     69  C   UNL A   1      44.114  27.304  36.645  1.00  0.00     0.135 A 
ATOM     70  C   UNL A   1      45.684  28.781  35.581  1.00  0.00     0.135 A 
ATOM     71  F   UNL A   1      42.859  26.902  36.900  1.00  0.00    -0.206 F 
ATOM     72  C   UNL A   1      45.155  26.646  37.292  1.00  0.00     0.059 A 
ATOM     73  C   UNL A   1      46.744  28.115  36.191  1.00  0.00     0.059 A 
ATOM     74  F   UNL A   1      45.969  29.819  34.780  1.00  0.00    -0.206 F 
ATOM     75  C   UNL A   1      46.466  27.060  37.059  1.00  0.00     0.060 A 
BRANCH  75  76
ATOM     76  S   UNL A   1      47.803  26.196  37.910  1.00  0.00     0.124 S 
ATOM     77  O   UNL A   1      47.059  25.357  38.843  1.00  0.00    -0.237 OA
ATOM     78  O   UNL A   1      48.466  25.494  36.816  1.00  0.00    -0.237 OA
ATOM     79  O   UNL A   1      48.574  27.276  38.518  1.00  0.00    -0.744 OA
ENDBRANCH  75  76
ENDBRANCH  54  68
BRANCH  55  80
ATOM     80  C   UNL A   1      36.811  32.870  30.955  1.00  0.00     0.058 A 
ATOM     81  C   UNL A   1      35.478  32.536  31.243  1.00  0.00     0.135 A 
ATOM     82  C   UNL A   1      37.039  33.860  29.986  1.00  0.00     0.135 A 
ATOM     83  F   UNL A   1      35.207  31.589  32.155  1.00  0.00    -0.206 F 
ATOM     84  C   UNL A   1      34.413  33.143  30.585  1.00  0.00     0.059 A 
ATOM     85  C   UNL A   1      35.989  34.503  29.335  1.00  0.00     0.059 A 
ATOM     86  F   UNL A   1      38.292  34.229  29.682  1.00  0.00    -0.206 F 
ATOM     87  C   UNL A   1      34.680  34.130  29.634  1.00  0.00     0.060 A 
BRANCH  87  88
ATOM     88  S   UNL A   1      33.287  34.948  28.824  1.00  0.00     0.124 S 
ATOM     89  O   UNL A   1      32.853  33.925  27.881  1.00  0.00    -0.237 OA
ATOM     90  O   UNL A   1      32.390  35.205  29.946  1.00  0.00    -0.237 OA
ATOM     91  O   UNL A   1      33.894  36.137  28.233  1.00  0.00    -0.744 OA
ENDBRANCH  87  88
ENDBRANCH  55  80
BRANCH  67  92
ATOM     92  C   UNL A   1      39.827  33.855  37.172  1.00  0.00     0.058 A 
ATOM     93  C   UNL A   1      39.049  33.537  38.295  1.00  0.00     0.135 A 
ATOM     94  C   UNL A   1      40.432  35.122  37.131  1.00  0.00     0.135 A 
ATOM     95  F   UNL A   1      38.443  32.343  38.383  1.00  0.00    -0.206 F 
ATOM     96  C   UNL A   1      38.856  34.450  39.328  1.00  0.00     0.059 A 
ATOM     97  C   UNL A   1      40.282  36.038  38.167  1.00  0.00     0.059 A 
ATOM     98  F   UNL A   1      41.197  35.474  36.085  1.00  0.00    -0.206 F 
ATOM     99  C   UNL A   1      39.480  35.697  39.256  1.00  0.00     0.060 A 
BRANCH  99 100
ATOM    100  S   UNL A   1      39.252  36.857  40.620  1.00  0.00     0.124 S 
ATOM    101  O   UNL A   1      38.076  36.304  41.283  1.00  0.00    -0.237 OA
ATOM    102  O   UNL A   1      40.510  36.731  41.349  1.00  0.00    -0.237 OA
ATOM    103  O   UNL A   1      39.049  38.138  39.948  1.00  0.00    -0.744 OA
ENDBRANCH  99 100
ENDBRANCH  67  92
ENDBRANCH  41  42
ENDBRANCH  33  36
ENDBRANCH  31  32
ENDBRANCH  30  31
ENDBRANCH   1  30
TORSDOF 20
ENDMDL
MODEL 2
REMARK VINA RESULT:     -10.6      1.518      2.989
REMARK SMILES CCC[NH+]1CCN(c2ccc(C(=O)NCCCCNC(=O)c3ccc(-c4c5nc(c(-c6c(F)cc(S(=O)(=O)[O-])cc6F)c6ccc([nH]6)c(-c6c(F)cc(S(=O)(=O)[O-])cc6F)c6nc(c(-c7c(F)cc(S(=O)(=O)[O-])cc7F)c7ccc4[nH]7)C=C6)C=C5)cc3)cc2NS(=O)(=O)CC)CC1
REMARK SMILES IDX 16 1 15 2 14 3 12 4 13 5 11 7 8 8 9 9 89 10 10 11 88 12 7 13
REMARK SMILES IDX 4 14 5 15 97 16 6 18 96 19 3 20 2 21 1 22 90 23 91 25 92 26
REMARK SMILES IDX 93 27 94 28 95 29 17 30 18 31 19 32 20 33 21 35 22 36 23 37
REMARK SMILES IDX 87 38 24 39 86 40 25 41 26 42 27 43 80 44 28 45 85 46 79 47
REMARK SMILES IDX 81 48 29 49 84 50 78 51 77 52 30 54 64 55 43 56 63 57 44 58
REMARK SMILES IDX 47 59 62 60 82 61 45 62 46 63 61 65 83 66 48 67 31 68 32 69
REMARK SMILES IDX 41 70 33 71 34 72 40 73 42 74 35 75 36 76 37 77 38 78 39 79
REMARK SMILES IDX 65 80 66 81 75 82 67 83 68 84 74 85 76 86 69 87 70 88 71 89
REMARK SMILES IDX 72 90 73 91 49 92 50 93 59 94 51 95 52 96 58 97 60 98 53 99
REMARK SMILES IDX 54 100 55 101 56 102 57 103
REMARK H PARENT 14 6 4 17 90 24 19 34 81 53 47 64
REMARK Flexibility Score: inf
ROOT
ATOM      1  C   UNL A   1      37.495  23.287  25.323  1.00  0.00     0.023 C 
ENDROOT
BRANCH   1   2
ATOM      2  C   UNL A   1      36.147  23.696  24.753  1.00  0.00     0.116 C 
BRANCH   2   3
ATOM      3  N   UNL A   1      35.115  22.692  24.704  1.00  0.00    -0.352 N 
ATOM      4  C   UNL A   1      33.797  22.826  24.308  1.00  0.00     0.251 C 
ATOM      5  O   UNL A   1      33.082  21.824  24.316  1.00  0.00    -0.269 OA
ATOM      6  H   UNL A   1      35.386  21.790  24.991  1.00  0.00     0.163 HD
BRANCH   4   7
ATOM      7  C   UNL A   1      33.180  24.156  23.987  1.00  0.00     0.042 A 
ATOM      8  C   UNL A   1      31.605  26.387  23.280  1.00  0.00     0.062 A 
ATOM      9  C   UNL A   1      31.929  25.426  22.323  1.00  0.00     0.029 A 
ATOM     10  C   UNL A   1      32.099  26.218  24.598  1.00  0.00     0.073 A 
ATOM     11  C   UNL A   1      32.674  24.301  22.684  1.00  0.00     0.016 A 
ATOM     12  C   UNL A   1      32.995  25.201  24.906  1.00  0.00     0.042 A 
BRANCH   8  13
ATOM     13  N   UNL A   1      30.742  27.452  23.022  1.00  0.00    -0.359 N 
ATOM     14  N   UNL A   1      28.891  29.650  22.472  1.00  0.00    -0.332 N 
ATOM     15  C   UNL A   1      30.248  29.601  21.908  1.00  0.00     0.283 C 
ATOM     16  C   UNL A   1      28.421  28.295  22.822  1.00  0.00     0.283 C 
ATOM     17  H   UNL A   1      28.300  29.999  21.719  1.00  0.00     0.348 HD
ATOM     18  C   UNL A   1      31.288  28.768  22.694  1.00  0.00     0.178 C 
ATOM     19  C   UNL A   1      29.400  27.425  23.642  1.00  0.00     0.178 C 
BRANCH  14  20
ATOM     20  C   UNL A   1      28.634  30.672  23.488  1.00  0.00     0.262 C 
BRANCH  20  21
ATOM     21  C   UNL A   1      28.736  32.161  23.130  1.00  0.00     0.058 C 
ATOM     22  C   UNL A   1      28.155  32.523  21.770  1.00  0.00     0.010 C 
ENDBRANCH  20  21
ENDBRANCH  14  20
ENDBRANCH   8  13
BRANCH  10  23
ATOM     23  N   UNL A   1      31.446  27.058  25.548  1.00  0.00    -0.281 N 
ATOM     24  H   UNL A   1      30.465  26.977  25.548  1.00  0.00     0.180 HD
BRANCH  23  25
ATOM     25  S   UNL A   1      32.026  28.130  26.636  1.00  0.00     0.232 S 
ATOM     26  O   UNL A   1      31.189  28.085  27.818  1.00  0.00    -0.207 OA
ATOM     27  O   UNL A   1      33.441  27.841  26.714  1.00  0.00    -0.207 OA
BRANCH  25  28
ATOM     28  C   UNL A   1      31.866  29.745  25.892  1.00  0.00     0.156 C 
ATOM     29  C   UNL A   1      31.901  30.918  26.855  1.00  0.00     0.023 C 
ENDBRANCH  25  28
ENDBRANCH  23  25
ENDBRANCH  10  23
ENDBRANCH   4   7
ENDBRANCH   2   3
ENDBRANCH   1   2
BRANCH   1  30
ATOM     30  C   UNL A   1      37.919  23.982  26.601  1.00  0.00     0.023 C 
BRANCH  30  31
ATOM     31  C   UNL A   1      39.396  23.874  26.953  1.00  0.00     0.116 C 
BRANCH  31  32
ATOM     32  N   UNL A   1      40.304  24.471  25.976  1.00  0.00    -0.352 N 
ATOM     33  C   UNL A   1      41.140  25.558  26.136  1.00  0.00     0.251 C 
ATOM     34  H   UNL A   1      40.322  24.042  25.089  1.00  0.00     0.163 HD
ATOM     35  O   UNL A   1      41.797  25.985  25.193  1.00  0.00    -0.269 OA
BRANCH  33  36
ATOM     36  C   UNL A   1      41.180  26.229  27.453  1.00  0.00     0.039 A 
ATOM     37  C   UNL A   1      42.208  27.132  27.729  1.00  0.00     0.014 A 
ATOM     38  C   UNL A   1      40.120  26.066  28.346  1.00  0.00     0.014 A 
ATOM     39  C   UNL A   1      42.107  27.959  28.850  1.00  0.00     0.010 A 
ATOM     40  C   UNL A   1      39.963  26.971  29.386  1.00  0.00     0.010 A 
ATOM     41  C   UNL A   1      40.953  27.930  29.651  1.00  0.00    -0.014 A 
BRANCH  41  42
ATOM     42  C   UNL A   1      40.754  28.890  30.769  1.00  0.00     0.031 A 
ATOM     43  C   UNL A   1      41.603  28.778  32.008  1.00  0.00     0.074 A 
ATOM     44  C   UNL A   1      39.768  29.809  30.706  1.00  0.00     0.049 A 
ATOM     45  N   UNL A   1      41.538  29.464  33.120  1.00  0.00    -0.248 NA
ATOM     46  C   UNL A   1      42.636  27.729  32.013  1.00  0.00     0.031 C 
ATOM     47  C   UNL A   1      38.838  29.981  29.586  1.00  0.00     0.029 A 
ATOM     48  N   UNL A   1      39.379  30.772  31.605  1.00  0.00    -0.354 N 
ATOM     49  C   UNL A   1      42.509  28.923  33.954  1.00  0.00     0.074 A 
ATOM     50  C   UNL A   1      43.092  27.800  33.254  1.00  0.00     0.031 C 
ATOM     51  C   UNL A   1      38.018  31.012  29.847  1.00  0.00     0.029 A 
ATOM     52  C   UNL A   1      38.328  31.546  31.169  1.00  0.00     0.049 A 
ATOM     53  H   UNL A   1      39.813  30.896  32.479  1.00  0.00     0.167 HD
ATOM     54  C   UNL A   1      42.909  29.343  35.177  1.00  0.00     0.037 A 
ATOM     55  C   UNL A   1      37.686  32.568  31.768  1.00  0.00     0.037 A 
ATOM     56  C   UNL A   1      42.340  30.476  35.858  1.00  0.00     0.049 A 
ATOM     57  C   UNL A   1      38.134  33.009  33.137  1.00  0.00     0.074 A 
ATOM     58  C   UNL A   1      42.705  31.018  37.078  1.00  0.00     0.029 A 
ATOM     59  N   UNL A   1      41.284  31.239  35.380  1.00  0.00    -0.354 N 
ATOM     60  N   UNL A   1      39.102  32.528  33.883  1.00  0.00    -0.248 NA
ATOM     61  C   UNL A   1      37.409  34.133  33.745  1.00  0.00     0.031 C 
ATOM     62  C   UNL A   1      41.836  32.076  37.361  1.00  0.00     0.029 A 
ATOM     63  C   UNL A   1      40.969  32.233  36.292  1.00  0.00     0.049 A 
ATOM     64  H   UNL A   1      40.827  31.096  34.521  1.00  0.00     0.167 HD
ATOM     65  C   UNL A   1      39.121  33.312  35.032  1.00  0.00     0.074 A 
ATOM     66  C   UNL A   1      38.078  34.304  34.877  1.00  0.00     0.031 C 
ATOM     67  C   UNL A   1      39.930  33.219  36.118  1.00  0.00     0.037 A 
BRANCH  54  68
ATOM     68  C   UNL A   1      44.018  28.576  35.846  1.00  0.00     0.058 A 
ATOM     69  C   UNL A   1      45.369  28.904  35.642  1.00  0.00     0.135 A 
ATOM     70  C   UNL A   1      43.730  27.509  36.712  1.00  0.00     0.135 A 
ATOM     71  F   UNL A   1      45.706  29.904  34.811  1.00  0.00    -0.206 F 
ATOM     72  C   UNL A   1      46.394  28.177  36.238  1.00  0.00     0.059 A 
ATOM     73  C   UNL A   1      44.739  26.790  37.347  1.00  0.00     0.059 A 
ATOM     74  F   UNL A   1      42.458  27.151  36.943  1.00  0.00    -0.206 F 
ATOM     75  C   UNL A   1      46.068  27.121  37.088  1.00  0.00     0.060 A 
BRANCH  75  76
ATOM     76  S   UNL A   1      47.412  26.187  37.850  1.00  0.00     0.124 S 
ATOM     77  O   UNL A   1      47.093  24.826  37.431  1.00  0.00    -0.237 OA
ATOM     78  O   UNL A   1      48.593  26.780  37.232  1.00  0.00    -0.237 OA
ATOM     79  O   UNL A   1      47.250  26.458  39.275  1.00  0.00    -0.744 OA
ENDBRANCH  75  76
ENDBRANCH  54  68
BRANCH  55  80
ATOM     80  C   UNL A   1      36.574  33.270  31.068  1.00  0.00     0.058 A 
ATOM     81  C   UNL A   1      36.832  34.140  29.997  1.00  0.00     0.135 A 
ATOM     82  C   UNL A   1      35.235  33.079  31.444  1.00  0.00     0.135 A 
ATOM     83  F   UNL A   1      38.095  34.363  29.605  1.00  0.00    -0.206 F 
ATOM     84  C   UNL A   1      35.807  34.810  29.337  1.00  0.00     0.059 A 
ATOM     85  C   UNL A   1      34.190  33.715  30.779  1.00  0.00     0.059 A 
ATOM     86  F   UNL A   1      34.930  32.246  32.451  1.00  0.00    -0.206 F 
ATOM     87  C   UNL A   1      34.487  34.587  29.733  1.00  0.00     0.060 A 
BRANCH  87  88
ATOM     88  S   UNL A   1      33.162  35.423  28.833  1.00  0.00     0.124 S 
ATOM     89  O   UNL A   1      33.914  36.345  27.990  1.00  0.00    -0.237 OA
ATOM     90  O   UNL A   1      32.513  34.313  28.145  1.00  0.00    -0.237 OA
ATOM     91  O   UNL A   1      32.372  36.039  29.896  1.00  0.00    -0.744 OA
ENDBRANCH  87  88
ENDBRANCH  55  80
BRANCH  67  92
ATOM     92  C   UNL A   1      39.750  34.240  37.208  1.00  0.00     0.058 A 
ATOM     93  C   UNL A   1      38.903  34.012  38.303  1.00  0.00     0.135 A 
ATOM     94  C   UNL A   1      40.482  35.438  37.184  1.00  0.00     0.135 A 
ATOM     95  F   UNL A   1      38.176  32.886  38.374  1.00  0.00    -0.206 F 
ATOM     96  C   UNL A   1      38.767  34.948  39.324  1.00  0.00     0.059 A 
ATOM     97  C   UNL A   1      40.388  36.374  38.209  1.00  0.00     0.059 A 
ATOM     98  F   UNL A   1      41.316  35.702  36.164  1.00  0.00    -0.206 F 
ATOM     99  C   UNL A   1      39.517  36.125  39.269  1.00  0.00     0.060 A 
BRANCH  99 100
ATOM    100  S   UNL A   1      39.359  37.313  40.618  1.00  0.00     0.124 S 
ATOM    101  O   UNL A   1      40.690  37.911  40.641  1.00  0.00    -0.237 OA
ATOM    102  O   UNL A   1      38.283  38.179  40.146  1.00  0.00    -0.237 OA
ATOM    103  O   UNL A   1      39.026  36.480  41.770  1.00  0.00    -0.744 OA
ENDBRANCH  99 100
ENDBRANCH  67  92
ENDBRANCH  41  42
ENDBRANCH  33  36
ENDBRANCH  31  32
ENDBRANCH  30  31
ENDBRANCH   1  30
TORSDOF 20
ENDMDL
MODEL 3
REMARK VINA RESULT:     -10.6      0.809      8.120
REMARK SMILES CCC[NH+]1CCN(c2ccc(C(=O)NCCCCNC(=O)c3ccc(-c4c5nc(c(-c6c(F)cc(S(=O)(=O)[O-])cc6F)c6ccc([nH]6)c(-c6c(F)cc(S(=O)(=O)[O-])cc6F)c6nc(c(-c7c(F)cc(S(=O)(=O)[O-])cc7F)c7ccc4[nH]7)C=C6)C=C5)cc3)cc2NS(=O)(=O)CC)CC1
REMARK SMILES IDX 16 1 15 2 14 3 12 4 13 5 11 7 8 8 9 9 89 10 10 11 88 12 7 13
REMARK SMILES IDX 4 14 5 15 97 16 6 18 96 19 3 20 2 21 1 22 90 23 91 25 92 26
REMARK SMILES IDX 93 27 94 28 95 29 17 30 18 31 19 32 20 33 21 35 22 36 23 37
REMARK SMILES IDX 87 38 24 39 86 40 25 41 26 42 27 43 80 44 28 45 85 46 79 47
REMARK SMILES IDX 81 48 29 49 84 50 78 51 77 52 30 54 64 55 43 56 63 57 44 58
REMARK SMILES IDX 47 59 62 60 82 61 45 62 46 63 61 65 83 66 48 67 31 68 32 69
REMARK SMILES IDX 41 70 33 71 34 72 40 73 42 74 35 75 36 76 37 77 38 78 39 79
REMARK SMILES IDX 65 80 66 81 75 82 67 83 68 84 74 85 76 86 69 87 70 88 71 89
REMARK SMILES IDX 72 90 73 91 49 92 50 93 59 94 51 95 52 96 58 97 60 98 53 99
REMARK SMILES IDX 54 100 55 101 56 102 57 103
REMARK H PARENT 14 6 4 17 90 24 19 34 81 53 47 64
REMARK Flexibility Score: inf
ROOT
ATOM      1  C   UNL A   1      41.254  21.628  26.143  1.00  0.00     0.023 C 
ENDROOT
BRANCH   1   2
ATOM      2  C   UNL A   1      39.737  21.722  26.197  1.00  0.00     0.116 C 
BRANCH   2   3
ATOM      3  N   UNL A   1      38.987  20.557  25.804  1.00  0.00    -0.352 N 
ATOM      4  C   UNL A   1      37.775  20.494  25.141  1.00  0.00     0.251 C 
ATOM      5  O   UNL A   1      37.314  19.384  24.874  1.00  0.00    -0.269 OA
ATOM      6  H   UNL A   1      39.391  19.691  26.040  1.00  0.00     0.163 HD
BRANCH   4   7
ATOM      7  C   UNL A   1      36.950  21.713  24.844  1.00  0.00     0.042 A 
ATOM      8  C   UNL A   1      35.194  23.718  23.922  1.00  0.00     0.062 A 
ATOM      9  C   UNL A   1      36.213  23.245  23.097  1.00  0.00     0.029 A 
ATOM     10  C   UNL A   1      35.080  23.178  25.229  1.00  0.00     0.073 A 
ATOM     11  C   UNL A   1      37.056  22.223  23.539  1.00  0.00     0.016 A 
ATOM     12  C   UNL A   1      36.036  22.302  25.731  1.00  0.00     0.042 A 
BRANCH   8  13
ATOM     13  N   UNL A   1      34.228  24.627  23.490  1.00  0.00    -0.359 N 
ATOM     14  N   UNL A   1      32.206  26.511  22.531  1.00  0.00    -0.332 N 
ATOM     15  C   UNL A   1      33.326  26.924  23.389  1.00  0.00     0.283 C 
ATOM     16  C   UNL A   1      32.538  25.274  21.798  1.00  0.00     0.283 C 
ATOM     17  H   UNL A   1      32.102  27.259  21.846  1.00  0.00     0.348 HD
ATOM     18  C   UNL A   1      33.950  25.825  24.281  1.00  0.00     0.178 C 
ATOM     19  C   UNL A   1      33.129  24.120  22.640  1.00  0.00     0.178 C 
BRANCH  14  20
ATOM     20  C   UNL A   1      30.870  26.532  23.130  1.00  0.00     0.262 C 
BRANCH  20  21
ATOM     21  C   UNL A   1      30.532  27.550  24.227  1.00  0.00     0.058 C 
ATOM     22  C   UNL A   1      30.369  28.980  23.731  1.00  0.00     0.010 C 
ENDBRANCH  20  21
ENDBRANCH  14  20
ENDBRANCH   8  13
BRANCH  10  23
ATOM     23  N   UNL A   1      33.834  23.483  25.850  1.00  0.00    -0.281 N 
ATOM     24  H   UNL A   1      33.556  24.423  25.753  1.00  0.00     0.180 HD
BRANCH  23  25
ATOM     25  S   UNL A   1      32.780  22.562  26.691  1.00  0.00     0.232 S 
ATOM     26  O   UNL A   1      32.370  21.450  25.858  1.00  0.00    -0.207 OA
ATOM     27  O   UNL A   1      33.428  22.338  27.966  1.00  0.00    -0.207 OA
BRANCH  25  28
ATOM     28  C   UNL A   1      31.352  23.586  27.008  1.00  0.00     0.156 C 
ATOM     29  C   UNL A   1      30.005  22.917  26.803  1.00  0.00     0.023 C 
ENDBRANCH  25  28
ENDBRANCH  23  25
ENDBRANCH  10  23
ENDBRANCH   4   7
ENDBRANCH   2   3
ENDBRANCH   1   2
BRANCH   1  30
ATOM     30  C   UNL A   1      42.007  22.339  27.249  1.00  0.00     0.023 C 
BRANCH  30  31
ATOM     31  C   UNL A   1      42.925  23.468  26.802  1.00  0.00     0.116 C 
BRANCH  31  32
ATOM     32  N   UNL A   1      42.349  24.369  25.805  1.00  0.00    -0.352 N 
ATOM     33  C   UNL A   1      41.836  25.637  25.993  1.00  0.00     0.251 C 
ATOM     34  H   UNL A   1      42.324  24.027  24.882  1.00  0.00     0.163 HD
ATOM     35  O   UNL A   1      41.322  26.246  25.062  1.00  0.00    -0.269 OA
BRANCH  33  36
ATOM     36  C   UNL A   1      41.871  26.219  27.352  1.00  0.00     0.039 A 
ATOM     37  C   UNL A   1      42.826  27.191  27.655  1.00  0.00     0.014 A 
ATOM     38  C   UNL A   1      40.867  25.901  28.267  1.00  0.00     0.014 A 
ATOM     39  C   UNL A   1      42.700  27.928  28.834  1.00  0.00     0.010 A 
ATOM     40  C   UNL A   1      40.674  26.716  29.374  1.00  0.00     0.010 A 
ATOM     41  C   UNL A   1      41.586  27.741  29.671  1.00  0.00    -0.014 A 
BRANCH  41  42
ATOM     42  C   UNL A   1      41.349  28.602  30.860  1.00  0.00     0.031 A 
ATOM     43  C   UNL A   1      40.232  29.611  30.841  1.00  0.00     0.074 A 
ATOM     44  C   UNL A   1      42.177  28.529  31.923  1.00  0.00     0.049 A 
ATOM     45  N   UNL A   1      39.909  30.504  31.740  1.00  0.00    -0.248 NA
ATOM     46  C   UNL A   1      39.392  29.649  29.632  1.00  0.00     0.031 C 
ATOM     47  C   UNL A   1      43.333  27.635  32.041  1.00  0.00     0.029 A 
ATOM     48  N   UNL A   1      42.180  29.224  33.108  1.00  0.00    -0.354 N 
ATOM     49  C   UNL A   1      38.840  31.211  31.201  1.00  0.00     0.074 A 
ATOM     50  C   UNL A   1      38.624  30.701  29.866  1.00  0.00     0.031 C 
ATOM     51  C   UNL A   1      43.903  27.806  33.245  1.00  0.00     0.029 A 
ATOM     52  C   UNL A   1      43.188  28.852  33.968  1.00  0.00     0.049 A 
ATOM     53  H   UNL A   1      41.521  29.923  33.322  1.00  0.00     0.167 HD
ATOM     54  C   UNL A   1      38.081  32.173  31.777  1.00  0.00     0.037 A 
ATOM     55  C   UNL A   1      43.501  29.304  35.199  1.00  0.00     0.037 A 
ATOM     56  C   UNL A   1      38.288  32.659  33.117  1.00  0.00     0.049 A 
ATOM     57  C   UNL A   1      42.655  30.388  35.814  1.00  0.00     0.074 A 
ATOM     58  C   UNL A   1      37.545  33.595  33.815  1.00  0.00     0.029 A 
ATOM     59  N   UNL A   1      39.313  32.251  33.958  1.00  0.00    -0.354 N 
ATOM     60  N   UNL A   1      41.605  30.998  35.316  1.00  0.00    -0.248 NA
ATOM     61  C   UNL A   1      43.030  30.841  37.160  1.00  0.00     0.031 C 
ATOM     62  C   UNL A   1      38.153  33.791  35.059  1.00  0.00     0.029 A 
ATOM     63  C   UNL A   1      39.236  32.933  35.161  1.00  0.00     0.049 A 
ATOM     64  H   UNL A   1      39.993  31.576  33.734  1.00  0.00     0.167 HD
ATOM     65  C   UNL A   1      41.177  31.883  36.300  1.00  0.00     0.074 A 
ATOM     66  C   UNL A   1      42.074  31.719  37.425  1.00  0.00     0.031 C 
ATOM     67  C   UNL A   1      40.135  32.753  36.275  1.00  0.00     0.037 A 
BRANCH  54  68
ATOM     68  C   UNL A   1      36.956  32.751  30.962  1.00  0.00     0.058 A 
ATOM     69  C   UNL A   1      37.178  33.760  30.009  1.00  0.00     0.135 A 
ATOM     70  C   UNL A   1      35.642  32.283  31.122  1.00  0.00     0.135 A 
ATOM     71  F   UNL A   1      38.410  34.258  29.824  1.00  0.00    -0.206 F 
ATOM     72  C   UNL A   1      36.132  34.313  29.276  1.00  0.00     0.059 A 
ATOM     73  C   UNL A   1      34.586  32.797  30.375  1.00  0.00     0.059 A 
ATOM     74  F   UNL A   1      35.371  31.321  32.018  1.00  0.00    -0.206 F 
ATOM     75  C   UNL A   1      34.840  33.825  29.467  1.00  0.00     0.060 A 
BRANCH  75  76
ATOM     76  S   UNL A   1      33.497  34.556  28.510  1.00  0.00     0.124 S 
ATOM     77  O   UNL A   1      33.087  33.431  27.676  1.00  0.00    -0.237 OA
ATOM     78  O   UNL A   1      32.552  34.951  29.550  1.00  0.00    -0.237 OA
ATOM     79  O   UNL A   1      34.143  35.658  27.802  1.00  0.00    -0.744 OA
ENDBRANCH  75  76
ENDBRANCH  54  68
BRANCH  55  80
ATOM     80  C   UNL A   1      44.646  28.714  35.946  1.00  0.00     0.058 A 
ATOM     81  C   UNL A   1      44.454  27.638  36.827  1.00  0.00     0.135 A 
ATOM     82  C   UNL A   1      45.953  29.202  35.790  1.00  0.00     0.135 A 
ATOM     83  F   UNL A   1      43.222  27.141  37.018  1.00  0.00    -0.206 F 
ATOM     84  C   UNL A   1      45.509  27.079  37.540  1.00  0.00     0.059 A 
ATOM     85  C   UNL A   1      47.031  28.640  36.470  1.00  0.00     0.059 A 
ATOM     86  F   UNL A   1      46.196  30.218  34.949  1.00  0.00    -0.206 F 
ATOM     87  C   UNL A   1      46.797  27.585  37.351  1.00  0.00     0.060 A 
BRANCH  87  88
ATOM     88  S   UNL A   1      48.167  26.817  38.243  1.00  0.00     0.124 S 
ATOM     89  O   UNL A   1      47.571  25.556  38.669  1.00  0.00    -0.237 OA
ATOM     90  O   UNL A   1      49.190  26.723  37.208  1.00  0.00    -0.237 OA
ATOM     91  O   UNL A   1      48.451  27.774  39.309  1.00  0.00    -0.744 OA
ENDBRANCH  87  88
ENDBRANCH  55  80
BRANCH  67  92
ATOM     92  C   UNL A   1      39.880  33.567  37.514  1.00  0.00     0.058 A 
ATOM     93  C   UNL A   1      40.514  34.799  37.734  1.00  0.00     0.135 A 
ATOM     94  C   UNL A   1      38.942  33.133  38.466  1.00  0.00     0.135 A 
ATOM     95  F   UNL A   1      41.423  35.258  36.860  1.00  0.00    -0.206 F 
ATOM     96  C   UNL A   1      40.247  35.561  38.867  1.00  0.00     0.059 A 
ATOM     97  C   UNL A   1      38.634  33.894  39.589  1.00  0.00     0.059 A 
ATOM     98  F   UNL A   1      38.297  31.967  38.299  1.00  0.00    -0.206 F 
ATOM     99  C   UNL A   1      39.303  35.102  39.787  1.00  0.00     0.060 A 
BRANCH  99 100
ATOM    100  S   UNL A   1      38.939  36.119  41.233  1.00  0.00     0.124 S 
ATOM    101  O   UNL A   1      40.134  35.913  42.045  1.00  0.00    -0.237 OA
ATOM    102  O   UNL A   1      38.791  37.448  40.649  1.00  0.00    -0.237 OA
ATOM    103  O   UNL A   1      37.712  35.532  41.764  1.00  0.00    -0.744 OA
ENDBRANCH  99 100
ENDBRANCH  67  92
ENDBRANCH  41  42
ENDBRANCH  33  36
ENDBRANCH  31  32
ENDBRANCH  30  31
ENDBRANCH   1  30
TORSDOF 20
ENDMDL
