MODEL 1
REMARK VINA RESULT:     -12.1      0.000      0.000
REMARK SMILES O=C(CCc1cncc([C@@H]2CN(c3ccccc3)CCO2)n1)NCCCCNC(=O)c1ccc(-c2c3nc(c(-c4c(F)cc(S(=O)(=O)[O-])cc4F)c4ccc([nH]4)c(-c4c(F)cc(S(=O)(=O)[O-])cc4F)c4nc(c(-c5c(F)cc(S(=O)(=O)[O-])cc5F)c5ccc2[nH]5)C=C4)C=C3)cc1
REMARK SMILES IDX 25 1 24 2 23 3 1 4 2 5 3 7 4 8 5 9 6 10 22 11 7 12 9 13 8 14
REMARK SMILES IDX 10 15 11 16 21 17 12 18 20 19 19 20 13 21 14 22 18 23 15 24
REMARK SMILES IDX 17 25 16 26 26 27 27 28 28 29 29 30 30 32 31 33 32 34 96 35
REMARK SMILES IDX 33 36 95 37 34 38 35 39 36 40 89 41 37 42 94 43 88 44 90 45
REMARK SMILES IDX 38 46 93 47 87 48 86 49 39 51 73 52 52 53 72 54 53 55 56 56
REMARK SMILES IDX 71 57 91 58 54 59 55 60 70 62 92 63 57 64 40 65 41 66 50 67
REMARK SMILES IDX 42 68 43 69 49 70 51 71 44 72 45 73 46 74 47 75 48 76 74 77
REMARK SMILES IDX 75 78 84 79 76 80 77 81 83 82 85 83 78 84 79 85 80 86 81 87
REMARK SMILES IDX 82 88 58 89 59 90 68 91 60 92 61 93 67 94 69 95 62 96 63 97
REMARK SMILES IDX 64 98 65 99 66 100
REMARK H PARENT 23 6 28 31 90 50 56 61
REMARK Flexibility Score: inf
ROOT
ATOM      1  C   UNL A   1      37.412  22.206  24.722  1.00  0.00     0.023 C 
ENDROOT
BRANCH   1   2
ATOM      2  C   UNL A   1      36.611  21.069  25.355  1.00  0.00     0.116 C 
BRANCH   2   3
ATOM      3  N   UNL A   1      35.203  21.163  25.037  1.00  0.00    -0.356 N 
ATOM      4  O   UNL A   1      34.843  18.928  24.639  1.00  0.00    -0.275 OA
ATOM      5  C   UNL A   1      34.420  20.078  24.724  1.00  0.00     0.220 C 
ATOM      6  H   UNL A   1      34.782  22.054  25.045  1.00  0.00     0.163 HD
BRANCH   5   7
ATOM      7  C   UNL A   1      32.970  20.417  24.435  1.00  0.00     0.106 C 
BRANCH   7   8
ATOM      8  C   UNL A   1      32.791  21.783  23.775  1.00  0.00     0.068 C 
BRANCH   8   9
ATOM      9  C   UNL A   1      32.126  22.796  24.667  1.00  0.00     0.060 A 
ATOM     10  C   UNL A   1      31.214  22.421  25.642  1.00  0.00     0.134 A 
ATOM     11  N   UNL A   1      32.384  24.105  24.419  1.00  0.00    -0.252 NA
ATOM     12  N   UNL A   1      30.539  23.321  26.391  1.00  0.00    -0.261 NA
ATOM     13  C   UNL A   1      31.760  25.026  25.204  1.00  0.00     0.090 A 
ATOM     14  C   UNL A   1      30.856  24.621  26.178  1.00  0.00     0.137 A 
BRANCH  13  15
ATOM     15  C   UNL A   1      32.084  26.494  25.017  1.00  0.00     0.188 C 
ATOM     16  C   UNL A   1      31.691  27.318  26.267  1.00  0.00     0.155 C 
ATOM     17  O   UNL A   1      31.399  26.968  23.837  1.00  0.00    -0.368 OA
ATOM     18  N   UNL A   1      31.850  28.760  26.020  1.00  0.00    -0.366 N 
ATOM     19  C   UNL A   1      31.679  28.361  23.605  1.00  0.00     0.182 C 
ATOM     20  C   UNL A   1      31.224  29.242  24.783  1.00  0.00     0.145 C 
BRANCH  18  21
ATOM     21  C   UNL A   1      32.822  29.521  26.633  1.00  0.00     0.037 A 
ATOM     22  C   UNL A   1      34.083  28.973  26.898  1.00  0.00     0.026 A 
ATOM     23  C   UNL A   1      32.603  30.846  27.017  1.00  0.00     0.026 A 
ATOM     24  C   UNL A   1      35.096  29.727  27.502  1.00  0.00     0.002 A 
ATOM     25  C   UNL A   1      33.604  31.606  27.632  1.00  0.00     0.002 A 
ATOM     26  C   UNL A   1      34.855  31.046  27.869  1.00  0.00     0.000 A 
ENDBRANCH  18  21
ENDBRANCH  13  15
ENDBRANCH   8   9
ENDBRANCH   7   8
ENDBRANCH   5   7
ENDBRANCH   2   3
ENDBRANCH   1   2
BRANCH   1  27
ATOM     27  C   UNL A   1      37.111  23.612  25.257  1.00  0.00     0.023 C 
BRANCH  27  28
ATOM     28  C   UNL A   1      38.014  24.109  26.383  1.00  0.00     0.116 C 
BRANCH  28  29
ATOM     29  N   UNL A   1      39.421  23.848  26.141  1.00  0.00    -0.352 N 
ATOM     30  C   UNL A   1      40.531  24.533  26.568  1.00  0.00     0.251 C 
ATOM     31  H   UNL A   1      39.609  23.057  25.585  1.00  0.00     0.163 HD
ATOM     32  O   UNL A   1      41.635  24.238  26.104  1.00  0.00    -0.269 OA
BRANCH  30  33
ATOM     33  C   UNL A   1      40.433  25.623  27.568  1.00  0.00     0.039 A 
ATOM     34  C   UNL A   1      39.417  25.563  28.528  1.00  0.00     0.014 A 
ATOM     35  C   UNL A   1      41.289  26.730  27.540  1.00  0.00     0.014 A 
ATOM     36  C   UNL A   1      39.301  26.570  29.491  1.00  0.00     0.010 A 
ATOM     37  C   UNL A   1      41.197  27.716  28.519  1.00  0.00     0.010 A 
ATOM     38  C   UNL A   1      40.209  27.638  29.510  1.00  0.00    -0.014 A 
BRANCH  38  39
ATOM     39  C   UNL A   1      40.190  28.649  30.595  1.00  0.00     0.031 A 
ATOM     40  C   UNL A   1      41.061  28.488  31.808  1.00  0.00     0.074 A 
ATOM     41  C   UNL A   1      39.306  29.662  30.519  1.00  0.00     0.049 A 
ATOM     42  N   UNL A   1      41.121  29.233  32.882  1.00  0.00    -0.248 NA
ATOM     43  C   UNL A   1      41.965  27.328  31.828  1.00  0.00     0.031 C 
ATOM     44  C   UNL A   1      38.371  29.882  29.413  1.00  0.00     0.029 A 
ATOM     45  N   UNL A   1      39.032  30.682  31.393  1.00  0.00    -0.354 N 
ATOM     46  C   UNL A   1      42.063  28.632  33.710  1.00  0.00     0.074 A 
ATOM     47  C   UNL A   1      42.518  27.437  33.030  1.00  0.00     0.031 C 
ATOM     48  C   UNL A   1      37.632  30.972  29.673  1.00  0.00     0.029 A 
ATOM     49  C   UNL A   1      38.018  31.511  30.973  1.00  0.00     0.049 A 
ATOM     50  H   UNL A   1      39.515  30.809  32.242  1.00  0.00     0.167 HD
ATOM     51  C   UNL A   1      42.515  29.051  34.917  1.00  0.00     0.037 A 
ATOM     52  C   UNL A   1      37.458  32.579  31.571  1.00  0.00     0.037 A 
ATOM     53  C   UNL A   1      42.061  30.249  35.576  1.00  0.00     0.049 A 
ATOM     54  C   UNL A   1      37.978  33.022  32.911  1.00  0.00     0.074 A 
ATOM     55  C   UNL A   1      42.505  30.797  36.768  1.00  0.00     0.029 A 
ATOM     56  N   UNL A   1      41.053  31.080  35.108  1.00  0.00    -0.354 N 
ATOM     57  N   UNL A   1      38.928  32.490  33.643  1.00  0.00    -0.248 NA
ATOM     58  C   UNL A   1      37.358  34.216  33.502  1.00  0.00     0.031 C 
ATOM     59  C   UNL A   1      41.736  31.934  37.042  1.00  0.00     0.029 A 
ATOM     60  C   UNL A   1      40.845  32.122  35.997  1.00  0.00     0.049 A 
ATOM     61  H   UNL A   1      40.559  30.949  34.267  1.00  0.00     0.167 HD
ATOM     62  C   UNL A   1      39.040  33.300  34.766  1.00  0.00     0.074 A 
ATOM     63  C   UNL A   1      38.068  34.362  34.612  1.00  0.00     0.031 C 
ATOM     64  C   UNL A   1      39.876  33.177  35.827  1.00  0.00     0.037 A 
BRANCH  51  65
ATOM     65  C   UNL A   1      43.558  28.212  35.604  1.00  0.00     0.058 A 
ATOM     66  C   UNL A   1      43.212  27.244  36.560  1.00  0.00     0.135 A 
ATOM     67  C   UNL A   1      44.916  28.342  35.268  1.00  0.00     0.135 A 
ATOM     68  F   UNL A   1      41.931  27.084  36.929  1.00  0.00    -0.206 F 
ATOM     69  C   UNL A   1      44.177  26.453  37.178  1.00  0.00     0.059 A 
ATOM     70  C   UNL A   1      45.894  27.543  35.853  1.00  0.00     0.059 A 
ATOM     71  F   UNL A   1      45.304  29.250  34.359  1.00  0.00    -0.206 F 
ATOM     72  C   UNL A   1      45.516  26.611  36.819  1.00  0.00     0.060 A 
BRANCH  72  73
ATOM     73  S   UNL A   1      46.754  25.574  37.627  1.00  0.00     0.124 S 
ATOM     74  O   UNL A   1      45.982  25.009  38.730  1.00  0.00    -0.237 OA
ATOM     75  O   UNL A   1      47.121  24.641  36.566  1.00  0.00    -0.237 OA
ATOM     76  O   UNL A   1      47.794  26.524  38.011  1.00  0.00    -0.744 OA
ENDBRANCH  72  73
ENDBRANCH  51  65
BRANCH  52  77
ATOM     77  C   UNL A   1      36.363  33.317  30.891  1.00  0.00     0.058 A 
ATOM     78  C   UNL A   1      35.040  33.216  31.344  1.00  0.00     0.135 A 
ATOM     79  C   UNL A   1      36.617  34.153  29.792  1.00  0.00     0.135 A 
ATOM     80  F   UNL A   1      34.748  32.427  32.389  1.00  0.00    -0.206 F 
ATOM     81  C   UNL A   1      34.003  33.903  30.723  1.00  0.00     0.059 A 
ATOM     82  C   UNL A   1      35.600  34.869  29.170  1.00  0.00     0.059 A 
ATOM     83  F   UNL A   1      37.870  34.299  29.333  1.00  0.00    -0.206 F 
ATOM     84  C   UNL A   1      34.293  34.730  29.636  1.00  0.00     0.060 A 
BRANCH  84  85
ATOM     85  S   UNL A   1      32.947  35.654  28.868  1.00  0.00     0.124 S 
ATOM     86  O   UNL A   1      32.354  34.643  28.000  1.00  0.00    -0.237 OA
ATOM     87  O   UNL A   1      32.149  36.053  30.024  1.00  0.00    -0.237 OA
ATOM     88  O   UNL A   1      33.636  36.746  28.186  1.00  0.00    -0.744 OA
ENDBRANCH  84  85
ENDBRANCH  52  77
BRANCH  64  89
ATOM     89  C   UNL A   1      39.800  34.236  36.890  1.00  0.00     0.058 A 
ATOM     90  C   UNL A   1      40.438  35.478  36.743  1.00  0.00     0.135 A 
ATOM     91  C   UNL A   1      39.041  34.022  38.053  1.00  0.00     0.135 A 
ATOM     92  F   UNL A   1      41.183  35.730  35.655  1.00  0.00    -0.206 F 
ATOM     93  C   UNL A   1      40.345  36.462  37.722  1.00  0.00     0.059 A 
ATOM     94  C   UNL A   1      38.913  35.002  39.032  1.00  0.00     0.059 A 
ATOM     95  F   UNL A   1      38.404  32.856  38.238  1.00  0.00    -0.206 F 
ATOM     96  C   UNL A   1      39.579  36.215  38.863  1.00  0.00     0.060 A 
BRANCH  96  97
ATOM     97  S   UNL A   1      39.439  37.512  40.110  1.00  0.00     0.124 S 
ATOM     98  O   UNL A   1      40.822  37.961  40.224  1.00  0.00    -0.237 OA
ATOM     99  O   UNL A   1      38.516  38.453  39.482  1.00  0.00    -0.237 OA
ATOM    100  O   UNL A   1      38.908  36.809  41.274  1.00  0.00    -0.744 OA
ENDBRANCH  96  97
ENDBRANCH  64  89
ENDBRANCH  38  39
ENDBRANCH  30  33
ENDBRANCH  28  29
ENDBRANCH  27  28
ENDBRANCH   1  27
TORSDOF 18
ENDMDL
MODEL 2
REMARK VINA RESULT:     -12.1      4.685     10.718
REMARK SMILES O=C(CCc1cncc([C@@H]2CN(c3ccccc3)CCO2)n1)NCCCCNC(=O)c1ccc(-c2c3nc(c(-c4c(F)cc(S(=O)(=O)[O-])cc4F)c4ccc([nH]4)c(-c4c(F)cc(S(=O)(=O)[O-])cc4F)c4nc(c(-c5c(F)cc(S(=O)(=O)[O-])cc5F)c5ccc2[nH]5)C=C4)C=C3)cc1
REMARK SMILES IDX 25 1 24 2 23 3 1 4 2 5 3 7 4 8 5 9 6 10 22 11 7 12 9 13 8 14
REMARK SMILES IDX 10 15 11 16 21 17 12 18 20 19 19 20 13 21 14 22 18 23 15 24
REMARK SMILES IDX 17 25 16 26 26 27 27 28 28 29 29 30 30 32 31 33 32 34 96 35
REMARK SMILES IDX 33 36 95 37 34 38 35 39 36 40 89 41 37 42 94 43 88 44 90 45
REMARK SMILES IDX 38 46 93 47 87 48 86 49 39 51 73 52 52 53 72 54 53 55 56 56
REMARK SMILES IDX 71 57 91 58 54 59 55 60 70 62 92 63 57 64 40 65 41 66 50 67
REMARK SMILES IDX 42 68 43 69 49 70 51 71 44 72 45 73 46 74 47 75 48 76 74 77
REMARK SMILES IDX 75 78 84 79 76 80 77 81 83 82 85 83 78 84 79 85 80 86 81 87
REMARK SMILES IDX 82 88 58 89 59 90 68 91 60 92 61 93 67 94 69 95 62 96 63 97
REMARK SMILES IDX 64 98 65 99 66 100
REMARK H PARENT 23 6 28 31 90 50 56 61
REMARK Flexibility Score: inf
ROOT
ATOM      1  C   UNL A   1      33.670  29.039  24.787  1.00  0.00     0.023 C 
ENDROOT
BRANCH   1   2
ATOM      2  C   UNL A   1      32.653  29.091  23.648  1.00  0.00     0.116 C 
BRANCH   2   3
ATOM      3  N   UNL A   1      31.410  28.443  24.008  1.00  0.00    -0.356 N 
ATOM      4  O   UNL A   1      30.626  28.107  21.873  1.00  0.00    -0.275 OA
ATOM      5  C   UNL A   1      30.500  27.980  23.088  1.00  0.00     0.220 C 
ATOM      6  H   UNL A   1      31.205  28.328  24.964  1.00  0.00     0.163 HD
BRANCH   5   7
ATOM      7  C   UNL A   1      29.273  27.330  23.698  1.00  0.00     0.106 C 
BRANCH   7   8
ATOM      8  C   UNL A   1      29.333  25.804  23.690  1.00  0.00     0.068 C 
BRANCH   8   9
ATOM      9  C   UNL A   1      30.288  25.236  24.704  1.00  0.00     0.060 A 
ATOM     10  C   UNL A   1      30.282  25.657  26.026  1.00  0.00     0.134 A 
ATOM     11  N   UNL A   1      31.222  24.360  24.256  1.00  0.00    -0.252 NA
ATOM     12  N   UNL A   1      31.190  25.228  26.930  1.00  0.00    -0.261 NA
ATOM     13  C   UNL A   1      32.107  23.869  25.165  1.00  0.00     0.090 A 
ATOM     14  C   UNL A   1      32.074  24.303  26.484  1.00  0.00     0.137 A 
BRANCH  13  15
ATOM     15  C   UNL A   1      33.113  22.824  24.724  1.00  0.00     0.188 C 
ATOM     16  C   UNL A   1      32.946  21.511  25.528  1.00  0.00     0.155 C 
ATOM     17  O   UNL A   1      34.441  23.371  24.878  1.00  0.00    -0.368 OA
ATOM     18  N   UNL A   1      34.025  20.562  25.216  1.00  0.00    -0.366 N 
ATOM     19  C   UNL A   1      35.439  22.421  24.464  1.00  0.00     0.182 C 
ATOM     20  C   UNL A   1      35.378  21.125  25.294  1.00  0.00     0.145 C 
BRANCH  18  21
ATOM     21  C   UNL A   1      33.814  19.391  24.520  1.00  0.00     0.037 A 
ATOM     22  C   UNL A   1      32.687  19.252  23.701  1.00  0.00     0.026 A 
ATOM     23  C   UNL A   1      34.691  18.307  24.595  1.00  0.00     0.026 A 
ATOM     24  C   UNL A   1      32.456  18.083  22.966  1.00  0.00     0.002 A 
ATOM     25  C   UNL A   1      34.465  17.129  23.875  1.00  0.00     0.002 A 
ATOM     26  C   UNL A   1      33.347  17.020  23.055  1.00  0.00     0.000 A 
ENDBRANCH  18  21
ENDBRANCH  13  15
ENDBRANCH   8   9
ENDBRANCH   7   8
ENDBRANCH   5   7
ENDBRANCH   2   3
ENDBRANCH   1   2
BRANCH   1  27
ATOM     27  C   UNL A   1      33.514  27.869  25.767  1.00  0.00     0.023 C 
BRANCH  27  28
ATOM     28  C   UNL A   1      33.541  28.229  27.250  1.00  0.00     0.116 C 
BRANCH  28  29
ATOM     29  N   UNL A   1      33.473  29.658  27.491  1.00  0.00    -0.352 N 
ATOM     30  C   UNL A   1      34.403  30.506  28.036  1.00  0.00     0.251 C 
ATOM     31  H   UNL A   1      32.628  30.087  27.221  1.00  0.00     0.163 HD
ATOM     32  O   UNL A   1      34.076  31.664  28.309  1.00  0.00    -0.269 OA
BRANCH  30  33
ATOM     33  C   UNL A   1      35.791  30.063  28.312  1.00  0.00     0.039 A 
ATOM     34  C   UNL A   1      36.720  30.080  27.265  1.00  0.00     0.014 A 
ATOM     35  C   UNL A   1      36.176  29.577  29.566  1.00  0.00     0.014 A 
ATOM     36  C   UNL A   1      38.039  29.676  27.491  1.00  0.00     0.010 A 
ATOM     37  C   UNL A   1      37.498  29.206  29.803  1.00  0.00     0.010 A 
ATOM     38  C   UNL A   1      38.443  29.264  28.769  1.00  0.00    -0.014 A 
BRANCH  38  39
ATOM     39  C   UNL A   1      39.863  28.955  29.068  1.00  0.00     0.031 A 
ATOM     40  C   UNL A   1      40.777  30.010  29.622  1.00  0.00     0.074 A 
ATOM     41  C   UNL A   1      40.341  27.739  28.742  1.00  0.00     0.049 A 
ATOM     42  N   UNL A   1      42.059  29.938  29.875  1.00  0.00    -0.248 NA
ATOM     43  C   UNL A   1      40.180  31.323  29.908  1.00  0.00     0.031 C 
ATOM     44  C   UNL A   1      39.555  26.656  28.145  1.00  0.00     0.029 A 
ATOM     45  N   UNL A   1      41.604  27.214  28.845  1.00  0.00    -0.354 N 
ATOM     46  C   UNL A   1      42.426  31.194  30.343  1.00  0.00     0.074 A 
ATOM     47  C   UNL A   1      41.239  32.021  30.300  1.00  0.00     0.031 C 
ATOM     48  C   UNL A   1      40.352  25.596  27.941  1.00  0.00     0.029 A 
ATOM     49  C   UNL A   1      41.708  25.930  28.364  1.00  0.00     0.049 A 
ATOM     50  H   UNL A   1      42.364  27.710  29.227  1.00  0.00     0.167 HD
ATOM     51  C   UNL A   1      43.639  31.608  30.783  1.00  0.00     0.037 A 
ATOM     52  C   UNL A   1      42.776  25.117  28.267  1.00  0.00     0.037 A 
ATOM     53  C   UNL A   1      44.809  30.769  30.831  1.00  0.00     0.049 A 
ATOM     54  C   UNL A   1      44.111  25.602  28.762  1.00  0.00     0.074 A 
ATOM     55  C   UNL A   1      46.068  31.074  31.323  1.00  0.00     0.029 A 
ATOM     56  N   UNL A   1      44.871  29.465  30.362  1.00  0.00    -0.354 N 
ATOM     57  N   UNL A   1      44.423  26.767  29.280  1.00  0.00    -0.248 NA
ATOM     58  C   UNL A   1      45.235  24.662  28.670  1.00  0.00     0.031 C 
ATOM     59  C   UNL A   1      46.901  29.970  31.111  1.00  0.00     0.029 A 
ATOM     60  C   UNL A   1      46.150  28.959  30.532  1.00  0.00     0.049 A 
ATOM     61  H   UNL A   1      44.117  28.970  29.968  1.00  0.00     0.167 HD
ATOM     62  C   UNL A   1      45.773  26.688  29.602  1.00  0.00     0.074 A 
ATOM     63  C   UNL A   1      46.214  25.361  29.229  1.00  0.00     0.031 C 
ATOM     64  C   UNL A   1      46.573  27.631  30.160  1.00  0.00     0.037 A 
BRANCH  51  65
ATOM     65  C   UNL A   1      43.764  33.032  31.253  1.00  0.00     0.058 A 
ATOM     66  C   UNL A   1      43.537  33.389  32.592  1.00  0.00     0.135 A 
ATOM     67  C   UNL A   1      44.165  34.046  30.366  1.00  0.00     0.135 A 
ATOM     68  F   UNL A   1      43.140  32.464  33.481  1.00  0.00    -0.206 F 
ATOM     69  C   UNL A   1      43.675  34.703  33.029  1.00  0.00     0.059 A 
ATOM     70  C   UNL A   1      44.336  35.361  30.788  1.00  0.00     0.059 A 
ATOM     71  F   UNL A   1      44.399  33.761  29.076  1.00  0.00    -0.206 F 
ATOM     72  C   UNL A   1      44.074  35.683  32.120  1.00  0.00     0.060 A 
BRANCH  72  73
ATOM     73  S   UNL A   1      44.253  37.382  32.704  1.00  0.00     0.124 S 
ATOM     74  O   UNL A   1      43.989  38.137  31.483  1.00  0.00    -0.237 OA
ATOM     75  O   UNL A   1      43.225  37.467  33.737  1.00  0.00    -0.237 OA
ATOM     76  O   UNL A   1      45.629  37.432  33.188  1.00  0.00    -0.744 OA
ENDBRANCH  72  73
ENDBRANCH  51  65
BRANCH  52  77
ATOM     77  C   UNL A   1      42.618  23.751  27.706  1.00  0.00     0.058 A 
ATOM     78  C   UNL A   1      42.506  22.637  28.551  1.00  0.00     0.135 A 
ATOM     79  C   UNL A   1      42.554  23.532  26.321  1.00  0.00     0.135 A 
ATOM     80  F   UNL A   1      42.564  22.797  29.881  1.00  0.00    -0.206 F 
ATOM     81  C   UNL A   1      42.352  21.351  28.044  1.00  0.00     0.059 A 
ATOM     82  C   UNL A   1      42.376  22.258  25.791  1.00  0.00     0.059 A 
ATOM     83  F   UNL A   1      42.636  24.567  25.471  1.00  0.00    -0.206 F 
ATOM     84  C   UNL A   1      42.286  21.172  26.661  1.00  0.00     0.060 A 
BRANCH  84  85
ATOM     85  S   UNL A   1      42.039  19.504  26.016  1.00  0.00     0.124 S 
ATOM     86  O   UNL A   1      42.969  19.482  24.894  1.00  0.00    -0.237 OA
ATOM     87  O   UNL A   1      42.399  18.674  27.162  1.00  0.00    -0.237 OA
ATOM     88  O   UNL A   1      40.622  19.488  25.662  1.00  0.00    -0.744 OA
ENDBRANCH  84  85
ENDBRANCH  52  77
BRANCH  64  89
ATOM     89  C   UNL A   1      48.001  27.249  30.433  1.00  0.00     0.058 A 
ATOM     90  C   UNL A   1      49.024  27.505  29.507  1.00  0.00     0.135 A 
ATOM     91  C   UNL A   1      48.356  26.657  31.656  1.00  0.00     0.135 A 
ATOM     92  F   UNL A   1      48.736  28.060  28.319  1.00  0.00    -0.206 F 
ATOM     93  C   UNL A   1      50.347  27.168  29.775  1.00  0.00     0.059 A 
ATOM     94  C   UNL A   1      49.676  26.337  31.956  1.00  0.00     0.059 A 
ATOM     95  F   UNL A   1      47.417  26.399  32.579  1.00  0.00    -0.206 F 
ATOM     96  C   UNL A   1      50.663  26.586  31.003  1.00  0.00     0.060 A 
BRANCH  96  97
ATOM     97  S   UNL A   1      52.388  26.184  31.353  1.00  0.00     0.124 S 
ATOM     98  O   UNL A   1      52.765  27.267  32.254  1.00  0.00    -0.237 OA
ATOM     99  O   UNL A   1      52.284  24.861  31.962  1.00  0.00    -0.237 OA
ATOM    100  O   UNL A   1      53.017  26.212  30.037  1.00  0.00    -0.744 OA
ENDBRANCH  96  97
ENDBRANCH  64  89
ENDBRANCH  38  39
ENDBRANCH  30  33
ENDBRANCH  28  29
ENDBRANCH  27  28
ENDBRANCH   1  27
TORSDOF 18
ENDMDL
MODEL 3
REMARK VINA RESULT:     -11.8      1.381      2.493
REMARK SMILES O=C(CCc1cncc([C@@H]2CN(c3ccccc3)CCO2)n1)NCCCCNC(=O)c1ccc(-c2c3nc(c(-c4c(F)cc(S(=O)(=O)[O-])cc4F)c4ccc([nH]4)c(-c4c(F)cc(S(=O)(=O)[O-])cc4F)c4nc(c(-c5c(F)cc(S(=O)(=O)[O-])cc5F)c5ccc2[nH]5)C=C4)C=C3)cc1
REMARK SMILES IDX 25 1 24 2 23 3 1 4 2 5 3 7 4 8 5 9 6 10 22 11 7 12 9 13 8 14
REMARK SMILES IDX 10 15 11 16 21 17 12 18 20 19 19 20 13 21 14 22 18 23 15 24
REMARK SMILES IDX 17 25 16 26 26 27 27 28 28 29 29 30 30 32 31 33 32 34 96 35
REMARK SMILES IDX 33 36 95 37 34 38 35 39 36 40 89 41 37 42 94 43 88 44 90 45
REMARK SMILES IDX 38 46 93 47 87 48 86 49 39 51 73 52 52 53 72 54 53 55 56 56
REMARK SMILES IDX 71 57 91 58 54 59 55 60 70 62 92 63 57 64 40 65 41 66 50 67
REMARK SMILES IDX 42 68 43 69 49 70 51 71 44 72 45 73 46 74 47 75 48 76 74 77
REMARK SMILES IDX 75 78 84 79 76 80 77 81 83 82 85 83 78 84 79 85 80 86 81 87
REMARK SMILES IDX 82 88 58 89 59 90 68 91 60 92 61 93 67 94 69 95 62 96 63 97
REMARK SMILES IDX 64 98 65 99 66 100
REMARK H PARENT 23 6 28 31 90 50 56 61
REMARK Flexibility Score: inf
ROOT
ATOM      1  C   UNL A   1      40.400  22.459  27.598  1.00  0.00     0.023 C 
ENDROOT
BRANCH   1   2
ATOM      2  C   UNL A   1      39.639  21.852  26.419  1.00  0.00     0.116 C 
BRANCH   2   3
ATOM      3  N   UNL A   1      38.484  22.645  26.061  1.00  0.00    -0.356 N 
ATOM      4  O   UNL A   1      37.561  21.159  24.569  1.00  0.00    -0.275 OA
ATOM      5  C   UNL A   1      37.519  22.225  25.177  1.00  0.00     0.220 C 
ATOM      6  H   UNL A   1      38.383  23.533  26.473  1.00  0.00     0.163 HD
BRANCH   5   7
ATOM      7  C   UNL A   1      36.396  23.221  24.961  1.00  0.00     0.106 C 
BRANCH   7   8
ATOM      8  C   UNL A   1      35.155  22.602  24.320  1.00  0.00     0.068 C 
BRANCH   8   9
ATOM      9  C   UNL A   1      34.344  23.581  23.515  1.00  0.00     0.060 A 
ATOM     10  C   UNL A   1      33.844  23.257  22.263  1.00  0.00     0.134 A 
ATOM     11  N   UNL A   1      34.198  24.830  24.023  1.00  0.00    -0.252 NA
ATOM     12  N   UNL A   1      33.192  24.151  21.487  1.00  0.00    -0.261 NA
ATOM     13  C   UNL A   1      33.491  25.728  23.283  1.00  0.00     0.090 A 
ATOM     14  C   UNL A   1      32.995  25.374  22.035  1.00  0.00     0.137 A 
BRANCH  13  15
ATOM     15  C   UNL A   1      33.231  27.109  23.851  1.00  0.00     0.188 C 
ATOM     16  C   UNL A   1      33.165  27.075  25.398  1.00  0.00     0.155 C 
ATOM     17  O   UNL A   1      32.005  27.616  23.282  1.00  0.00    -0.368 OA
ATOM     18  N   UNL A   1      32.749  28.379  25.936  1.00  0.00    -0.366 N 
ATOM     19  C   UNL A   1      31.714  28.934  23.782  1.00  0.00     0.182 C 
ATOM     20  C   UNL A   1      31.546  28.944  25.312  1.00  0.00     0.145 C 
BRANCH  18  21
ATOM     21  C   UNL A   1      33.598  29.201  26.645  1.00  0.00     0.037 A 
ATOM     22  C   UNL A   1      33.244  30.533  26.894  1.00  0.00     0.026 A 
ATOM     23  C   UNL A   1      34.829  28.761  27.137  1.00  0.00     0.026 A 
ATOM     24  C   UNL A   1      34.077  31.387  27.627  1.00  0.00     0.002 A 
ATOM     25  C   UNL A   1      35.675  29.608  27.861  1.00  0.00     0.002 A 
ATOM     26  C   UNL A   1      35.295  30.922  28.110  1.00  0.00     0.000 A 
ENDBRANCH  18  21
ENDBRANCH  13  15
ENDBRANCH   8   9
ENDBRANCH   7   8
ENDBRANCH   5   7
ENDBRANCH   2   3
ENDBRANCH   1   2
BRANCH   1  27
ATOM     27  C   UNL A   1      41.922  22.260  27.583  1.00  0.00     0.023 C 
BRANCH  27  28
ATOM     28  C   UNL A   1      42.757  23.504  27.295  1.00  0.00     0.116 C 
BRANCH  28  29
ATOM     29  N   UNL A   1      42.264  24.273  26.167  1.00  0.00    -0.352 N 
ATOM     30  C   UNL A   1      41.627  25.488  26.138  1.00  0.00     0.251 C 
ATOM     31  H   UNL A   1      42.409  23.859  25.285  1.00  0.00     0.163 HD
ATOM     32  O   UNL A   1      41.137  25.886  25.079  1.00  0.00    -0.269 OA
BRANCH  30  33
ATOM     33  C   UNL A   1      41.508  26.331  27.352  1.00  0.00     0.039 A 
ATOM     34  C   UNL A   1      42.492  27.295  27.597  1.00  0.00     0.014 A 
ATOM     35  C   UNL A   1      40.478  26.148  28.281  1.00  0.00     0.014 A 
ATOM     36  C   UNL A   1      42.407  28.113  28.728  1.00  0.00     0.010 A 
ATOM     37  C   UNL A   1      40.371  26.984  29.390  1.00  0.00     0.010 A 
ATOM     38  C   UNL A   1      41.330  27.981  29.616  1.00  0.00    -0.014 A 
BRANCH  38  39
ATOM     39  C   UNL A   1      41.145  28.919  30.751  1.00  0.00     0.031 A 
ATOM     40  C   UNL A   1      41.948  28.767  32.011  1.00  0.00     0.074 A 
ATOM     41  C   UNL A   1      40.174  29.849  30.668  1.00  0.00     0.049 A 
ATOM     42  N   UNL A   1      41.868  29.448  33.125  1.00  0.00    -0.248 NA
ATOM     43  C   UNL A   1      42.956  27.696  32.031  1.00  0.00     0.031 C 
ATOM     44  C   UNL A   1      39.295  30.048  29.513  1.00  0.00     0.029 A 
ATOM     45  N   UNL A   1      39.749  30.786  31.574  1.00  0.00    -0.354 N 
ATOM     46  C   UNL A   1      42.809  28.888  33.982  1.00  0.00     0.074 A 
ATOM     47  C   UNL A   1      43.418  27.783  33.272  1.00  0.00     0.031 C 
ATOM     48  C   UNL A   1      38.440  31.048  29.779  1.00  0.00     0.029 A 
ATOM     49  C   UNL A   1      38.690  31.541  31.129  1.00  0.00     0.049 A 
ATOM     50  H   UNL A   1      40.163  30.906  32.460  1.00  0.00     0.167 HD
ATOM     51  C   UNL A   1      43.140  29.275  35.238  1.00  0.00     0.037 A 
ATOM     52  C   UNL A   1      37.992  32.516  31.744  1.00  0.00     0.037 A 
ATOM     53  C   UNL A   1      42.532  30.384  35.927  1.00  0.00     0.049 A 
ATOM     54  C   UNL A   1      38.381  32.924  33.138  1.00  0.00     0.074 A 
ATOM     55  C   UNL A   1      42.845  30.898  37.175  1.00  0.00     0.029 A 
ATOM     56  N   UNL A   1      41.482  31.145  35.436  1.00  0.00    -0.354 N 
ATOM     57  N   UNL A   1      39.329  32.438  33.904  1.00  0.00    -0.248 NA
ATOM     58  C   UNL A   1      37.614  34.018  33.748  1.00  0.00     0.031 C 
ATOM     59  C   UNL A   1      41.954  31.941  37.455  1.00  0.00     0.029 A 
ATOM     60  C   UNL A   1      41.118  32.109  36.363  1.00  0.00     0.049 A 
ATOM     61  H   UNL A   1      41.057  31.020  34.556  1.00  0.00     0.167 HD
ATOM     62  C   UNL A   1      39.291  33.187  35.074  1.00  0.00     0.074 A 
ATOM     63  C   UNL A   1      38.233  34.163  34.911  1.00  0.00     0.031 C 
ATOM     64  C   UNL A   1      40.065  33.078  36.183  1.00  0.00     0.037 A 
BRANCH  51  65
ATOM     65  C   UNL A   1      44.213  28.496  35.950  1.00  0.00     0.058 A 
ATOM     66  C   UNL A   1      45.571  28.830  35.827  1.00  0.00     0.135 A 
ATOM     67  C   UNL A   1      43.877  27.433  36.806  1.00  0.00     0.135 A 
ATOM     68  F   UNL A   1      45.951  29.829  35.013  1.00  0.00    -0.206 F 
ATOM     69  C   UNL A   1      46.559  28.122  36.504  1.00  0.00     0.059 A 
ATOM     70  C   UNL A   1      44.847  26.729  37.513  1.00  0.00     0.059 A 
ATOM     71  F   UNL A   1      42.594  27.072  36.963  1.00  0.00    -0.206 F 
ATOM     72  C   UNL A   1      46.188  27.072  37.344  1.00  0.00     0.060 A 
BRANCH  72  73
ATOM     73  S   UNL A   1      47.483  26.167  38.218  1.00  0.00     0.124 S 
ATOM     74  O   UNL A   1      47.759  25.081  37.282  1.00  0.00    -0.237 OA
ATOM     75  O   UNL A   1      48.533  27.173  38.351  1.00  0.00    -0.237 OA
ATOM     76  O   UNL A   1      46.838  25.771  39.466  1.00  0.00    -0.744 OA
ENDBRANCH  72  73
ENDBRANCH  51  65
BRANCH  52  77
ATOM     77  C   UNL A   1      36.878  33.190  31.030  1.00  0.00     0.058 A 
ATOM     78  C   UNL A   1      37.135  34.120  30.013  1.00  0.00     0.135 A 
ATOM     79  C   UNL A   1      35.537  32.905  31.334  1.00  0.00     0.135 A 
ATOM     80  F   UNL A   1      38.401  34.426  29.691  1.00  0.00    -0.206 F 
ATOM     81  C   UNL A   1      36.105  34.758  29.331  1.00  0.00     0.059 A 
ATOM     82  C   UNL A   1      34.489  33.511  30.648  1.00  0.00     0.059 A 
ATOM     83  F   UNL A   1      35.238  32.007  32.285  1.00  0.00    -0.206 F 
ATOM     84  C   UNL A   1      34.783  34.445  29.654  1.00  0.00     0.060 A 
BRANCH  84  85
ATOM     85  S   UNL A   1      33.454  35.243  28.730  1.00  0.00     0.124 S 
ATOM     86  O   UNL A   1      32.563  34.119  28.468  1.00  0.00    -0.237 OA
ATOM     87  O   UNL A   1      32.969  36.235  29.685  1.00  0.00    -0.237 OA
ATOM     88  O   UNL A   1      34.139  35.792  27.564  1.00  0.00    -0.744 OA
ENDBRANCH  84  85
ENDBRANCH  52  77
BRANCH  64  89
ATOM     89  C   UNL A   1      39.820  34.061  37.293  1.00  0.00     0.058 A 
ATOM     90  C   UNL A   1      38.967  33.764  38.367  1.00  0.00     0.135 A 
ATOM     91  C   UNL A   1      40.484  35.299  37.305  1.00  0.00     0.135 A 
ATOM     92  F   UNL A   1      38.302  32.598  38.400  1.00  0.00    -0.206 F 
ATOM     93  C   UNL A   1      38.761  34.670  39.404  1.00  0.00     0.059 A 
ATOM     94  C   UNL A   1      40.314  36.208  38.344  1.00  0.00     0.059 A 
ATOM     95  F   UNL A   1      41.317  35.628  36.306  1.00  0.00    -0.206 F 
ATOM     96  C   UNL A   1      39.441  35.889  39.384  1.00  0.00     0.060 A 
BRANCH  96  97
ATOM     97  S   UNL A   1      39.193  37.042  40.750  1.00  0.00     0.124 S 
ATOM     98  O   UNL A   1      38.552  36.186  41.744  1.00  0.00    -0.237 OA
ATOM     99  O   UNL A   1      40.557  37.461  41.058  1.00  0.00    -0.237 OA
ATOM    100  O   UNL A   1      38.343  38.078  40.170  1.00  0.00    -0.744 OA
ENDBRANCH  96  97
ENDBRANCH  64  89
ENDBRANCH  38  39
ENDBRANCH  30  33
ENDBRANCH  28  29
ENDBRANCH  27  28
ENDBRANCH   1  27
TORSDOF 18
ENDMDL
