MODEL 1
REMARK VINA RESULT:     -12.9      0.000      0.000
REMARK SMILES CN1C(=O)/C(=C\c2ccc(-c3ccccc3C(=O)NCCCCNC(=O)c3ccc(-c4c5nc(c(-c6c(F)cc(S(=O)(=O)[O-])cc6F)c6ccc([nH]6)c(-c6c(F)cc(S(=O)(=O)[O-])cc6F)c6nc(c(-c7c(F)cc(S(=O)(=O)[O-])cc7F)c7ccc4[nH]7)C=C6)C=C5)cc3)o2)C(=O)[NH+]=C1S
REMARK SMILES IDX 21 1 20 2 19 3 17 4 18 5 16 7 11 8 12 9 13 10 15 11 14 12
REMARK SMILES IDX 10 13 7 14 8 15 93 16 9 17 6 18 1 19 2 20 3 21 97 22 4 23
REMARK SMILES IDX 5 24 96 25 94 26 95 28 98 29 22 31 23 32 24 33 25 34 26 36
REMARK SMILES IDX 27 37 28 38 92 39 29 40 91 41 30 42 31 43 32 44 85 45 33 46
REMARK SMILES IDX 90 47 84 48 86 49 34 50 89 51 83 52 82 53 35 55 69 56 48 57
REMARK SMILES IDX 68 58 49 59 52 60 67 61 87 62 50 63 51 64 66 66 88 67 53 68
REMARK SMILES IDX 36 69 37 70 46 71 38 72 39 73 45 74 47 75 40 76 41 77 42 78
REMARK SMILES IDX 43 79 44 80 70 81 71 82 80 83 72 84 73 85 79 86 81 87 74 88
REMARK SMILES IDX 75 89 76 90 77 91 78 92 54 93 55 94 64 95 56 96 57 97 63 98
REMARK SMILES IDX 65 99 58 100 59 101 60 102 61 103 62 104
REMARK H PARENT 19 6 96 27 98 30 24 35 86 54 52 65
REMARK Flexibility Score: inf
ROOT
ATOM      1  C   UNL A   1      36.641  23.040  25.657  1.00  0.00     0.023 C 
ENDROOT
BRANCH   1   2
ATOM      2  C   UNL A   1      35.328  23.804  25.641  1.00  0.00     0.116 C 
BRANCH   2   3
ATOM      3  N   UNL A   1      34.322  23.483  26.619  1.00  0.00    -0.352 N 
ATOM      4  C   UNL A   1      33.414  22.441  26.635  1.00  0.00     0.252 C 
ATOM      5  O   UNL A   1      32.761  22.303  27.674  1.00  0.00    -0.269 OA
ATOM      6  H   UNL A   1      34.274  24.095  27.389  1.00  0.00     0.163 HD
BRANCH   4   7
ATOM      7  C   UNL A   1      33.081  21.530  25.477  1.00  0.00     0.050 A 
ATOM      8  C   UNL A   1      32.369  21.806  24.293  1.00  0.00     0.030 A 
ATOM      9  C   UNL A   1      32.175  20.780  23.338  1.00  0.00     0.013 A 
ATOM     10  C   UNL A   1      32.723  19.511  23.503  1.00  0.00     0.001 A 
ATOM     11  C   UNL A   1      33.639  20.234  25.609  1.00  0.00     0.014 A 
ATOM     12  C   UNL A   1      33.472  19.242  24.636  1.00  0.00     0.001 A 
BRANCH   8  13
ATOM     13  C   UNL A   1      31.852  23.101  23.907  1.00  0.00     0.135 A 
ATOM     14  C   UNL A   1      32.151  25.267  23.495  1.00  0.00     0.128 A 
ATOM     15  C   UNL A   1      30.833  24.935  23.181  1.00  0.00     0.051 A 
ATOM     16  O   UNL A   1      32.752  24.125  23.968  1.00  0.00    -0.457 OA
ATOM     17  C   UNL A   1      30.636  23.565  23.472  1.00  0.00     0.051 A 
BRANCH  14  18
ATOM     18  C   UNL A   1      32.865  26.483  23.293  1.00  0.00     0.071 C 
ATOM     19  C   UNL A   1      31.554  28.184  27.560  1.00  0.00     0.301 C 
ATOM     20  N   UNL A   1      32.298  28.386  26.321  1.00  0.00    -0.189 N 
ATOM     21  C   UNL A   1      32.615  27.237  25.637  1.00  0.00     0.349 C 
ATOM     22  C   UNL A   1      32.767  29.587  25.847  1.00  0.00     0.318 C 
ATOM     23  O   UNL A   1      32.635  26.128  26.168  1.00  0.00    -0.240 OA
ATOM     24  C   UNL A   1      33.004  27.436  24.233  1.00  0.00     0.157 C 
ATOM     25  N   UNL A   1      33.388  29.768  24.740  1.00  0.00    -0.200 N 
ATOM     26  C   UNL A   1      33.541  28.756  23.829  1.00  0.00     0.347 C 
ATOM     27  H   UNL A   1      33.764  30.655  24.539  1.00  0.00     0.316 HD
ATOM     28  O   UNL A   1      34.085  28.916  22.751  1.00  0.00    -0.241 OA
BRANCH  22  29
ATOM     29  S   UNL A   1      32.576  31.010  26.844  1.00  0.00    -0.055 SA
ATOM     30  H   UNL A   1      33.383  32.001  26.378  1.00  0.00     0.116 HD
ENDBRANCH  22  29
ENDBRANCH  14  18
ENDBRANCH   8  13
ENDBRANCH   4   7
ENDBRANCH   2   3
ENDBRANCH   1   2
BRANCH   1  31
ATOM     31  C   UNL A   1      37.943  23.837  25.701  1.00  0.00     0.023 C 
BRANCH  31  32
ATOM     32  C   UNL A   1      39.007  23.466  26.733  1.00  0.00     0.116 C 
BRANCH  32  33
ATOM     33  N   UNL A   1      40.395  23.609  26.310  1.00  0.00    -0.352 N 
ATOM     34  C   UNL A   1      41.336  24.548  26.693  1.00  0.00     0.251 C 
ATOM     35  H   UNL A   1      40.707  22.941  25.658  1.00  0.00     0.163 HD
ATOM     36  O   UNL A   1      42.505  24.431  26.336  1.00  0.00    -0.269 OA
BRANCH  34  37
ATOM     37  C   UNL A   1      40.902  25.717  27.496  1.00  0.00     0.039 A 
ATOM     38  C   UNL A   1      39.907  25.553  28.463  1.00  0.00     0.014 A 
ATOM     39  C   UNL A   1      41.572  26.936  27.381  1.00  0.00     0.014 A 
ATOM     40  C   UNL A   1      39.681  26.568  29.402  1.00  0.00     0.010 A 
ATOM     41  C   UNL A   1      41.410  27.904  28.371  1.00  0.00     0.010 A 
ATOM     42  C   UNL A   1      40.483  27.721  29.410  1.00  0.00    -0.014 A 
BRANCH  42  43
ATOM     43  C   UNL A   1      40.412  28.723  30.514  1.00  0.00     0.031 A 
ATOM     44  C   UNL A   1      41.293  28.579  31.727  1.00  0.00     0.074 A 
ATOM     45  C   UNL A   1      39.485  29.704  30.474  1.00  0.00     0.049 A 
ATOM     46  N   UNL A   1      41.299  29.277  32.833  1.00  0.00    -0.248 NA
ATOM     47  C   UNL A   1      42.272  27.481  31.708  1.00  0.00     0.031 C 
ATOM     48  C   UNL A   1      38.522  29.920  29.390  1.00  0.00     0.029 A 
ATOM     49  N   UNL A   1      39.185  30.697  31.377  1.00  0.00    -0.354 N 
ATOM     50  C   UNL A   1      42.263  28.694  33.647  1.00  0.00     0.074 A 
ATOM     51  C   UNL A   1      42.780  27.549  32.930  1.00  0.00     0.031 C 
ATOM     52  C   UNL A   1      37.760  30.987  29.679  1.00  0.00     0.029 A 
ATOM     53  C   UNL A   1      38.147  31.513  30.985  1.00  0.00     0.049 A 
ATOM     54  H   UNL A   1      39.668  30.814  32.227  1.00  0.00     0.167 HD
ATOM     55  C   UNL A   1      42.701  29.090  34.867  1.00  0.00     0.037 A 
ATOM     56  C   UNL A   1      37.565  32.559  31.606  1.00  0.00     0.037 A 
ATOM     57  C   UNL A   1      42.208  30.249  35.565  1.00  0.00     0.049 A 
ATOM     58  C   UNL A   1      38.077  32.988  32.956  1.00  0.00     0.074 A 
ATOM     59  C   UNL A   1      42.632  30.768  36.775  1.00  0.00     0.029 A 
ATOM     60  N   UNL A   1      41.184  31.070  35.113  1.00  0.00    -0.354 N 
ATOM     61  N   UNL A   1      39.038  32.463  33.677  1.00  0.00    -0.248 NA
ATOM     62  C   UNL A   1      37.431  34.156  33.573  1.00  0.00     0.031 C 
ATOM     63  C   UNL A   1      41.837  31.879  37.076  1.00  0.00     0.029 A 
ATOM     64  C   UNL A   1      40.953  32.082  36.030  1.00  0.00     0.049 A 
ATOM     65  H   UNL A   1      40.696  30.950  34.267  1.00  0.00     0.167 HD
ATOM     66  C   UNL A   1      39.132  33.253  34.818  1.00  0.00     0.074 A 
ATOM     67  C   UNL A   1      38.138  34.297  34.687  1.00  0.00     0.031 C 
ATOM     68  C   UNL A   1      39.968  33.124  35.879  1.00  0.00     0.037 A 
BRANCH  55  69
ATOM     69  C   UNL A   1      43.779  28.268  35.520  1.00  0.00     0.058 A 
ATOM     70  C   UNL A   1      43.469  27.201  36.380  1.00  0.00     0.135 A 
ATOM     71  C   UNL A   1      45.134  28.525  35.262  1.00  0.00     0.135 A 
ATOM     72  F   UNL A   1      42.191  26.918  36.674  1.00  0.00    -0.206 F 
ATOM     73  C   UNL A   1      44.465  26.443  36.987  1.00  0.00     0.059 A 
ATOM     74  C   UNL A   1      46.147  27.761  35.835  1.00  0.00     0.059 A 
ATOM     75  F   UNL A   1      45.488  29.532  34.448  1.00  0.00    -0.206 F 
ATOM     76  C   UNL A   1      45.801  26.731  36.710  1.00  0.00     0.060 A 
BRANCH  76  77
ATOM     77  S   UNL A   1      47.080  25.737  37.506  1.00  0.00     0.124 S 
ATOM     78  O   UNL A   1      46.277  24.741  38.208  1.00  0.00    -0.237 OA
ATOM     79  O   UNL A   1      47.846  25.243  36.366  1.00  0.00    -0.237 OA
ATOM     80  O   UNL A   1      47.776  26.696  38.358  1.00  0.00    -0.744 OA
ENDBRANCH  76  77
ENDBRANCH  55  69
BRANCH  56  81
ATOM     81  C   UNL A   1      36.447  33.294  30.950  1.00  0.00     0.058 A 
ATOM     82  C   UNL A   1      36.681  34.110  29.833  1.00  0.00     0.135 A 
ATOM     83  C   UNL A   1      35.130  33.198  31.423  1.00  0.00     0.135 A 
ATOM     84  F   UNL A   1      37.924  34.242  29.348  1.00  0.00    -0.206 F 
ATOM     85  C   UNL A   1      35.654  34.820  29.219  1.00  0.00     0.059 A 
ATOM     86  C   UNL A   1      34.080  33.878  30.809  1.00  0.00     0.059 A 
ATOM     87  F   UNL A   1      34.849  32.420  32.480  1.00  0.00    -0.206 F 
ATOM     88  C   UNL A   1      34.354  34.696  29.714  1.00  0.00     0.060 A 
BRANCH  88  89
ATOM     89  S   UNL A   1      33.021  35.587  28.883  1.00  0.00     0.124 S 
ATOM     90  O   UNL A   1      32.232  36.059  30.015  1.00  0.00    -0.237 OA
ATOM     91  O   UNL A   1      33.752  36.612  28.143  1.00  0.00    -0.237 OA
ATOM     92  O   UNL A   1      32.392  34.559  28.060  1.00  0.00    -0.744 OA
ENDBRANCH  88  89
ENDBRANCH  56  81
BRANCH  68  93
ATOM     93  C   UNL A   1      39.874  34.158  36.967  1.00  0.00     0.058 A 
ATOM     94  C   UNL A   1      40.512  35.403  36.863  1.00  0.00     0.135 A 
ATOM     95  C   UNL A   1      39.086  33.919  38.106  1.00  0.00     0.135 A 
ATOM     96  F   UNL A   1      41.282  35.680  35.798  1.00  0.00    -0.206 F 
ATOM     97  C   UNL A   1      40.389  36.368  37.856  1.00  0.00     0.059 A 
ATOM     98  C   UNL A   1      38.925  34.880  39.098  1.00  0.00     0.059 A 
ATOM     99  F   UNL A   1      38.444  32.748  38.250  1.00  0.00    -0.206 F 
ATOM    100  C   UNL A   1      39.590  36.099  38.969  1.00  0.00     0.060 A 
BRANCH 100 101
ATOM    101  S   UNL A   1      39.406  37.375  40.233  1.00  0.00     0.124 S 
ATOM    102  O   UNL A   1      38.667  36.659  41.268  1.00  0.00    -0.237 OA
ATOM    103  O   UNL A   1      40.792  37.700  40.554  1.00  0.00    -0.237 OA
ATOM    104  O   UNL A   1      38.664  38.429  39.548  1.00  0.00    -0.744 OA
ENDBRANCH 100 101
ENDBRANCH  68  93
ENDBRANCH  42  43
ENDBRANCH  34  37
ENDBRANCH  32  33
ENDBRANCH  31  32
ENDBRANCH   1  31
TORSDOF 17
ENDMDL
MODEL 2
REMARK VINA RESULT:     -12.5      6.197     10.609
REMARK SMILES CN1C(=O)/C(=C\c2ccc(-c3ccccc3C(=O)NCCCCNC(=O)c3ccc(-c4c5nc(c(-c6c(F)cc(S(=O)(=O)[O-])cc6F)c6ccc([nH]6)c(-c6c(F)cc(S(=O)(=O)[O-])cc6F)c6nc(c(-c7c(F)cc(S(=O)(=O)[O-])cc7F)c7ccc4[nH]7)C=C6)C=C5)cc3)o2)C(=O)[NH+]=C1S
REMARK SMILES IDX 21 1 20 2 19 3 17 4 18 5 16 7 11 8 12 9 13 10 15 11 14 12
REMARK SMILES IDX 10 13 7 14 8 15 93 16 9 17 6 18 1 19 2 20 3 21 97 22 4 23
REMARK SMILES IDX 5 24 96 25 94 26 95 28 98 29 22 31 23 32 24 33 25 34 26 36
REMARK SMILES IDX 27 37 28 38 92 39 29 40 91 41 30 42 31 43 32 44 85 45 33 46
REMARK SMILES IDX 90 47 84 48 86 49 34 50 89 51 83 52 82 53 35 55 69 56 48 57
REMARK SMILES IDX 68 58 49 59 52 60 67 61 87 62 50 63 51 64 66 66 88 67 53 68
REMARK SMILES IDX 36 69 37 70 46 71 38 72 39 73 45 74 47 75 40 76 41 77 42 78
REMARK SMILES IDX 43 79 44 80 70 81 71 82 80 83 72 84 73 85 79 86 81 87 74 88
REMARK SMILES IDX 75 89 76 90 77 91 78 92 54 93 55 94 64 95 56 96 57 97 63 98
REMARK SMILES IDX 65 99 58 100 59 101 60 102 61 103 62 104
REMARK H PARENT 19 6 96 27 98 30 24 35 86 54 52 65
REMARK Flexibility Score: inf
ROOT
ATOM      1  C   UNL A   1      36.834  22.314  25.748  1.00  0.00     0.023 C 
ENDROOT
BRANCH   1   2
ATOM      2  C   UNL A   1      36.324  23.572  25.065  1.00  0.00     0.116 C 
BRANCH   2   3
ATOM      3  N   UNL A   1      35.167  24.237  25.602  1.00  0.00    -0.352 N 
ATOM      4  C   UNL A   1      33.859  23.795  25.682  1.00  0.00     0.252 C 
ATOM      5  O   UNL A   1      33.084  24.502  26.334  1.00  0.00    -0.269 OA
ATOM      6  H   UNL A   1      35.329  25.137  25.964  1.00  0.00     0.163 HD
BRANCH   4   7
ATOM      7  C   UNL A   1      33.277  22.595  24.972  1.00  0.00     0.050 A 
ATOM      8  C   UNL A   1      32.729  22.496  23.678  1.00  0.00     0.030 A 
ATOM      9  C   UNL A   1      32.235  21.251  23.221  1.00  0.00     0.013 A 
ATOM     10  C   UNL A   1      32.330  20.097  23.992  1.00  0.00     0.001 A 
ATOM     11  C   UNL A   1      33.374  21.400  25.727  1.00  0.00     0.014 A 
ATOM     12  C   UNL A   1      32.918  20.168  25.244  1.00  0.00     0.001 A 
BRANCH   8  13
ATOM     13  C   UNL A   1      32.677  23.565  22.704  1.00  0.00     0.135 A 
ATOM     14  C   UNL A   1      31.971  25.575  22.064  1.00  0.00     0.128 A 
ATOM     15  C   UNL A   1      32.855  25.090  21.100  1.00  0.00     0.051 A 
ATOM     16  O   UNL A   1      31.855  24.605  23.030  1.00  0.00    -0.457 OA
ATOM     17  C   UNL A   1      33.279  23.799  21.493  1.00  0.00     0.051 A 
BRANCH  14  18
ATOM     18  C   UNL A   1      31.351  26.853  22.180  1.00  0.00     0.071 C 
ATOM     19  C   UNL A   1      33.924  27.958  26.051  1.00  0.00     0.301 C 
ATOM     20  N   UNL A   1      32.914  28.360  25.079  1.00  0.00    -0.189 N 
ATOM     21  C   UNL A   1      32.944  27.675  23.888  1.00  0.00     0.349 C 
ATOM     22  C   UNL A   1      32.022  29.395  25.222  1.00  0.00     0.318 C 
ATOM     23  O   UNL A   1      33.935  27.063  23.494  1.00  0.00    -0.240 OA
ATOM     24  C   UNL A   1      31.724  27.788  23.074  1.00  0.00     0.157 C 
ATOM     25  N   UNL A   1      31.110  29.725  24.384  1.00  0.00    -0.200 N 
ATOM     26  C   UNL A   1      30.848  28.966  23.273  1.00  0.00     0.347 C 
ATOM     27  H   UNL A   1      30.584  30.542  24.540  1.00  0.00     0.316 HD
ATOM     28  O   UNL A   1      29.955  29.232  22.488  1.00  0.00    -0.241 OA
BRANCH  22  29
ATOM     29  S   UNL A   1      32.152  30.419  26.633  1.00  0.00    -0.055 SA
ATOM     30  H   UNL A   1      33.464  30.673  26.889  1.00  0.00     0.116 HD
ENDBRANCH  22  29
ENDBRANCH  14  18
ENDBRANCH   8  13
ENDBRANCH   4   7
ENDBRANCH   2   3
ENDBRANCH   1   2
BRANCH   1  31
ATOM     31  C   UNL A   1      38.091  21.647  25.193  1.00  0.00     0.023 C 
BRANCH  31  32
ATOM     32  C   UNL A   1      39.262  21.370  26.135  1.00  0.00     0.116 C 
BRANCH  32  33
ATOM     33  N   UNL A   1      39.968  20.110  25.934  1.00  0.00    -0.352 N 
ATOM     34  C   UNL A   1      41.305  19.814  26.127  1.00  0.00     0.251 C 
ATOM     35  H   UNL A   1      39.412  19.362  25.617  1.00  0.00     0.163 HD
ATOM     36  O   UNL A   1      41.700  18.653  26.040  1.00  0.00    -0.269 OA
BRANCH  34  37
ATOM     37  C   UNL A   1      42.258  20.919  26.390  1.00  0.00     0.039 A 
ATOM     38  C   UNL A   1      42.785  21.639  25.314  1.00  0.00     0.014 A 
ATOM     39  C   UNL A   1      42.524  21.324  27.699  1.00  0.00     0.014 A 
ATOM     40  C   UNL A   1      43.463  22.842  25.551  1.00  0.00     0.010 A 
ATOM     41  C   UNL A   1      43.116  22.565  27.926  1.00  0.00     0.010 A 
ATOM     42  C   UNL A   1      43.568  23.353  26.856  1.00  0.00    -0.014 A 
BRANCH  42  43
ATOM     43  C   UNL A   1      44.096  24.723  27.125  1.00  0.00     0.031 A 
ATOM     44  C   UNL A   1      43.163  25.826  27.547  1.00  0.00     0.074 A 
ATOM     45  C   UNL A   1      45.397  25.000  26.892  1.00  0.00     0.049 A 
ATOM     46  N   UNL A   1      43.410  27.099  27.718  1.00  0.00    -0.248 NA
ATOM     47  C   UNL A   1      41.757  25.455  27.773  1.00  0.00     0.031 C 
ATOM     48  C   UNL A   1      46.398  24.042  26.415  1.00  0.00     0.029 A 
ATOM     49  N   UNL A   1      46.101  26.177  27.005  1.00  0.00    -0.354 N 
ATOM     50  C   UNL A   1      42.193  27.683  28.050  1.00  0.00     0.074 A 
ATOM     51  C   UNL A   1      41.197  26.634  28.000  1.00  0.00     0.031 C 
ATOM     52  C   UNL A   1      47.586  24.660  26.302  1.00  0.00     0.029 A 
ATOM     53  C   UNL A   1      47.430  26.067  26.657  1.00  0.00     0.049 A 
ATOM     54  H   UNL A   1      45.693  27.020  27.307  1.00  0.00     0.167 HD
ATOM     55  C   UNL A   1      41.929  28.967  28.394  1.00  0.00     0.037 A 
ATOM     56  C   UNL A   1      48.409  26.992  26.619  1.00  0.00     0.037 A 
ATOM     57  C   UNL A   1      42.927  30.002  28.475  1.00  0.00     0.049 A 
ATOM     58  C   UNL A   1      48.096  28.410  27.018  1.00  0.00     0.074 A 
ATOM     59  C   UNL A   1      42.770  31.317  28.876  1.00  0.00     0.029 A 
ATOM     60  N   UNL A   1      44.267  29.838  28.154  1.00  0.00    -0.354 N 
ATOM     61  N   UNL A   1      46.950  28.926  27.396  1.00  0.00    -0.248 NA
ATOM     62  C   UNL A   1      49.208  29.372  26.993  1.00  0.00     0.031 C 
ATOM     63  C   UNL A   1      44.007  31.960  28.757  1.00  0.00     0.029 A 
ATOM     64  C   UNL A   1      44.944  31.034  28.332  1.00  0.00     0.049 A 
ATOM     65  H   UNL A   1      44.675  28.997  27.845  1.00  0.00     0.167 HD
ATOM     66  C   UNL A   1      47.210  30.262  27.681  1.00  0.00     0.074 A 
ATOM     67  C   UNL A   1      48.622  30.474  27.443  1.00  0.00     0.031 C 
ATOM     68  C   UNL A   1      46.354  31.226  28.103  1.00  0.00     0.037 A 
BRANCH  55  69
ATOM     69  C   UNL A   1      40.504  29.321  28.722  1.00  0.00     0.058 A 
ATOM     70  C   UNL A   1      39.532  29.464  27.718  1.00  0.00     0.135 A 
ATOM     71  C   UNL A   1      40.094  29.490  30.055  1.00  0.00     0.135 A 
ATOM     72  F   UNL A   1      39.871  29.329  26.426  1.00  0.00    -0.206 F 
ATOM     73  C   UNL A   1      38.216  29.795  28.020  1.00  0.00     0.059 A 
ATOM     74  C   UNL A   1      38.776  29.791  30.382  1.00  0.00     0.059 A 
ATOM     75  F   UNL A   1      40.981  29.364  31.055  1.00  0.00    -0.206 F 
ATOM     76  C   UNL A   1      37.847  29.958  29.355  1.00  0.00     0.060 A 
BRANCH  76  77
ATOM     77  S   UNL A   1      36.134  30.387  29.729  1.00  0.00     0.124 S 
ATOM     78  O   UNL A   1      35.934  29.701  31.001  1.00  0.00    -0.237 OA
ATOM     79  O   UNL A   1      36.186  31.845  29.798  1.00  0.00    -0.237 OA
ATOM     80  O   UNL A   1      35.391  29.842  28.597  1.00  0.00    -0.744 OA
ENDBRANCH  76  77
ENDBRANCH  55  69
BRANCH  56  81
ATOM     81  C   UNL A   1      49.790  26.607  26.212  1.00  0.00     0.058 A 
ATOM     82  C   UNL A   1      50.229  26.791  24.892  1.00  0.00     0.135 A 
ATOM     83  C   UNL A   1      50.695  26.049  27.128  1.00  0.00     0.135 A 
ATOM     84  F   UNL A   1      49.399  27.313  23.977  1.00  0.00    -0.206 F 
ATOM     85  C   UNL A   1      51.508  26.420  24.489  1.00  0.00     0.059 A 
ATOM     86  C   UNL A   1      51.989  25.693  26.755  1.00  0.00     0.059 A 
ATOM     87  F   UNL A   1      50.331  25.864  28.406  1.00  0.00    -0.206 F 
ATOM     88  C   UNL A   1      52.382  25.872  25.429  1.00  0.00     0.060 A 
BRANCH  88  89
ATOM     89  S   UNL A   1      54.054  25.433  24.905  1.00  0.00     0.124 S 
ATOM     90  O   UNL A   1      54.866  26.125  25.900  1.00  0.00    -0.237 OA
ATOM     91  O   UNL A   1      54.033  23.976  25.000  1.00  0.00    -0.237 OA
ATOM     92  O   UNL A   1      54.131  25.963  23.547  1.00  0.00    -0.744 OA
ENDBRANCH  88  89
ENDBRANCH  56  81
BRANCH  68  93
ATOM     93  C   UNL A   1      46.925  32.591  28.374  1.00  0.00     0.058 A 
ATOM     94  C   UNL A   1      47.455  32.937  29.626  1.00  0.00     0.135 A 
ATOM     95  C   UNL A   1      46.992  33.547  27.346  1.00  0.00     0.135 A 
ATOM     96  F   UNL A   1      47.410  32.062  30.643  1.00  0.00    -0.206 F 
ATOM     97  C   UNL A   1      48.016  34.189  29.856  1.00  0.00     0.059 A 
ATOM     98  C   UNL A   1      47.573  34.795  27.547  1.00  0.00     0.059 A 
ATOM     99  F   UNL A   1      46.508  33.264  26.126  1.00  0.00    -0.206 F 
ATOM    100  C   UNL A   1      48.073  35.110  28.810  1.00  0.00     0.060 A 
BRANCH 100 101
ATOM    101  S   UNL A   1      48.839  36.718  29.110  1.00  0.00     0.124 S 
ATOM    102  O   UNL A   1      48.467  36.965  30.500  1.00  0.00    -0.237 OA
ATOM    103  O   UNL A   1      50.253  36.440  28.872  1.00  0.00    -0.237 OA
ATOM    104  O   UNL A   1      48.203  37.588  28.126  1.00  0.00    -0.744 OA
ENDBRANCH 100 101
ENDBRANCH  68  93
ENDBRANCH  42  43
ENDBRANCH  34  37
ENDBRANCH  32  33
ENDBRANCH  31  32
ENDBRANCH   1  31
TORSDOF 17
ENDMDL
MODEL 3
REMARK VINA RESULT:     -12.4      1.075      8.097
REMARK SMILES CN1C(=O)/C(=C\c2ccc(-c3ccccc3C(=O)NCCCCNC(=O)c3ccc(-c4c5nc(c(-c6c(F)cc(S(=O)(=O)[O-])cc6F)c6ccc([nH]6)c(-c6c(F)cc(S(=O)(=O)[O-])cc6F)c6nc(c(-c7c(F)cc(S(=O)(=O)[O-])cc7F)c7ccc4[nH]7)C=C6)C=C5)cc3)o2)C(=O)[NH+]=C1S
REMARK SMILES IDX 21 1 20 2 19 3 17 4 18 5 16 7 11 8 12 9 13 10 15 11 14 12
REMARK SMILES IDX 10 13 7 14 8 15 93 16 9 17 6 18 1 19 2 20 3 21 97 22 4 23
REMARK SMILES IDX 5 24 96 25 94 26 95 28 98 29 22 31 23 32 24 33 25 34 26 36
REMARK SMILES IDX 27 37 28 38 92 39 29 40 91 41 30 42 31 43 32 44 85 45 33 46
REMARK SMILES IDX 90 47 84 48 86 49 34 50 89 51 83 52 82 53 35 55 69 56 48 57
REMARK SMILES IDX 68 58 49 59 52 60 67 61 87 62 50 63 51 64 66 66 88 67 53 68
REMARK SMILES IDX 36 69 37 70 46 71 38 72 39 73 45 74 47 75 40 76 41 77 42 78
REMARK SMILES IDX 43 79 44 80 70 81 71 82 80 83 72 84 73 85 79 86 81 87 74 88
REMARK SMILES IDX 75 89 76 90 77 91 78 92 54 93 55 94 64 95 56 96 57 97 63 98
REMARK SMILES IDX 65 99 58 100 59 101 60 102 61 103 62 104
REMARK H PARENT 19 6 96 27 98 30 24 35 86 54 52 65
REMARK Flexibility Score: inf
ROOT
ATOM      1  C   UNL A   1      37.107  22.536  24.876  1.00  0.00     0.023 C 
ENDROOT
BRANCH   1   2
ATOM      2  C   UNL A   1      36.337  23.711  24.296  1.00  0.00     0.116 C 
BRANCH   2   3
ATOM      3  N   UNL A   1      35.257  24.281  25.057  1.00  0.00    -0.352 N 
ATOM      4  C   UNL A   1      33.972  23.809  25.246  1.00  0.00     0.252 C 
ATOM      5  O   UNL A   1      33.286  24.413  26.077  1.00  0.00    -0.269 OA
ATOM      6  H   UNL A   1      35.464  25.131  25.507  1.00  0.00     0.163 HD
BRANCH   4   7
ATOM      7  C   UNL A   1      33.306  22.697  24.470  1.00  0.00     0.050 A 
ATOM      8  C   UNL A   1      32.656  22.740  23.220  1.00  0.00     0.030 A 
ATOM      9  C   UNL A   1      32.096  21.557  22.683  1.00  0.00     0.013 A 
ATOM     10  C   UNL A   1      32.221  20.329  23.325  1.00  0.00     0.001 A 
ATOM     11  C   UNL A   1      33.431  21.430  25.091  1.00  0.00     0.014 A 
ATOM     12  C   UNL A   1      32.906  20.262  24.526  1.00  0.00     0.001 A 
BRANCH   8  13
ATOM     13  C   UNL A   1      32.555  23.902  22.365  1.00  0.00     0.135 A 
ATOM     14  C   UNL A   1      31.787  25.950  21.954  1.00  0.00     0.128 A 
ATOM     15  C   UNL A   1      32.659  25.591  20.926  1.00  0.00     0.051 A 
ATOM     16  O   UNL A   1      31.717  24.881  22.816  1.00  0.00    -0.457 OA
ATOM     17  C   UNL A   1      33.123  24.277  21.173  1.00  0.00     0.051 A 
BRANCH  14  18
ATOM     18  C   UNL A   1      31.140  27.192  22.218  1.00  0.00     0.071 C 
ATOM     19  C   UNL A   1      33.971  28.090  25.959  1.00  0.00     0.301 C 
ATOM     20  N   UNL A   1      32.877  28.528  25.100  1.00  0.00    -0.189 N 
ATOM     21  C   UNL A   1      32.835  27.938  23.860  1.00  0.00     0.349 C 
ATOM     22  C   UNL A   1      31.969  29.517  25.391  1.00  0.00     0.318 C 
ATOM     23  O   UNL A   1      33.810  27.394  23.346  1.00  0.00    -0.240 OA
ATOM     24  C   UNL A   1      31.553  28.069  23.152  1.00  0.00     0.157 C 
ATOM     25  N   UNL A   1      30.985  29.877  24.652  1.00  0.00    -0.200 N 
ATOM     26  C   UNL A   1      30.660  29.196  23.508  1.00  0.00     0.347 C 
ATOM     27  H   UNL A   1      30.449  30.660  24.912  1.00  0.00     0.316 HD
ATOM     28  O   UNL A   1      29.702  29.489  22.815  1.00  0.00    -0.241 OA
BRANCH  22  29
ATOM     29  S   UNL A   1      32.177  30.435  26.865  1.00  0.00    -0.055 SA
ATOM     30  H   UNL A   1      32.864  29.687  27.771  1.00  0.00     0.116 HD
ENDBRANCH  22  29
ENDBRANCH  14  18
ENDBRANCH   8  13
ENDBRANCH   4   7
ENDBRANCH   2   3
ENDBRANCH   1   2
BRANCH   1  31
ATOM     31  C   UNL A   1      37.972  22.775  26.112  1.00  0.00     0.023 C 
BRANCH  31  32
ATOM     32  C   UNL A   1      38.733  24.094  26.241  1.00  0.00     0.116 C 
BRANCH  32  33
ATOM     33  N   UNL A   1      40.186  24.012  26.148  1.00  0.00    -0.352 N 
ATOM     34  C   UNL A   1      41.150  24.698  26.864  1.00  0.00     0.251 C 
ATOM     35  H   UNL A   1      40.530  23.377  25.479  1.00  0.00     0.163 HD
ATOM     36  O   UNL A   1      42.336  24.398  26.748  1.00  0.00    -0.269 OA
BRANCH  34  37
ATOM     37  C   UNL A   1      40.738  25.828  27.732  1.00  0.00     0.039 A 
ATOM     38  C   UNL A   1      39.679  25.652  28.627  1.00  0.00     0.014 A 
ATOM     39  C   UNL A   1      41.481  27.009  27.751  1.00  0.00     0.014 A 
ATOM     40  C   UNL A   1      39.456  26.604  29.630  1.00  0.00     0.010 A 
ATOM     41  C   UNL A   1      41.316  27.906  28.804  1.00  0.00     0.010 A 
ATOM     42  C   UNL A   1      40.320  27.702  29.774  1.00  0.00    -0.014 A 
BRANCH  42  43
ATOM     43  C   UNL A   1      40.242  28.620  30.948  1.00  0.00     0.031 A 
ATOM     44  C   UNL A   1      39.264  29.765  30.951  1.00  0.00     0.074 A 
ATOM     45  C   UNL A   1      41.119  28.487  31.966  1.00  0.00     0.049 A 
ATOM     46  N   UNL A   1      39.123  30.730  31.823  1.00  0.00    -0.248 NA
ATOM     47  C   UNL A   1      38.346  29.856  29.805  1.00  0.00     0.031 C 
ATOM     48  C   UNL A   1      42.164  27.463  32.059  1.00  0.00     0.029 A 
ATOM     49  N   UNL A   1      41.287  29.228  33.113  1.00  0.00    -0.354 N 
ATOM     50  C   UNL A   1      38.119  31.552  31.322  1.00  0.00     0.074 A 
ATOM     51  C   UNL A   1      37.726  31.002  30.043  1.00  0.00     0.031 C 
ATOM     52  C   UNL A   1      42.843  27.626  33.207  1.00  0.00     0.029 A 
ATOM     53  C   UNL A   1      42.314  28.786  33.916  1.00  0.00     0.049 A 
ATOM     54  H   UNL A   1      40.723  30.003  33.338  1.00  0.00     0.167 HD
ATOM     55  C   UNL A   1      37.554  32.646  31.887  1.00  0.00     0.037 A 
ATOM     56  C   UNL A   1      42.785  29.264  35.086  1.00  0.00     0.037 A 
ATOM     57  C   UNL A   1      37.924  33.172  33.175  1.00  0.00     0.049 A 
ATOM     58  C   UNL A   1      42.133  30.474  35.701  1.00  0.00     0.074 A 
ATOM     59  C   UNL A   1      37.367  34.238  33.861  1.00  0.00     0.029 A 
ATOM     60  N   UNL A   1      38.942  32.671  33.973  1.00  0.00    -0.354 N 
ATOM     61  N   UNL A   1      41.137  31.195  35.243  1.00  0.00    -0.248 NA
ATOM     62  C   UNL A   1      42.661  30.932  36.994  1.00  0.00     0.031 C 
ATOM     63  C   UNL A   1      38.075  34.407  35.055  1.00  0.00     0.029 A 
ATOM     64  C   UNL A   1      39.039  33.416  35.137  1.00  0.00     0.049 A 
ATOM     65  H   UNL A   1      39.510  31.900  33.746  1.00  0.00     0.167 HD
ATOM     66  C   UNL A   1      40.901  32.172  36.205  1.00  0.00     0.074 A 
ATOM     67  C   UNL A   1      41.850  31.944  37.273  1.00  0.00     0.031 C 
ATOM     68  C   UNL A   1      39.981  33.169  36.201  1.00  0.00     0.037 A 
BRANCH  55  69
ATOM     69  C   UNL A   1      36.463  33.342  31.117  1.00  0.00     0.058 A 
ATOM     70  C   UNL A   1      36.743  34.093  29.963  1.00  0.00     0.135 A 
ATOM     71  C   UNL A   1      35.122  33.234  31.516  1.00  0.00     0.135 A 
ATOM     72  F   UNL A   1      38.009  34.242  29.544  1.00  0.00    -0.206 F 
ATOM     73  C   UNL A   1      35.736  34.739  29.254  1.00  0.00     0.059 A 
ATOM     74  C   UNL A   1      34.095  33.847  30.805  1.00  0.00     0.059 A 
ATOM     75  F   UNL A   1      34.797  32.528  32.612  1.00  0.00    -0.206 F 
ATOM     76  C   UNL A   1      34.415  34.611  29.683  1.00  0.00     0.060 A 
BRANCH  76  77
ATOM     77  S   UNL A   1      33.122  35.456  28.750  1.00  0.00     0.124 S 
ATOM     78  O   UNL A   1      33.901  36.424  27.985  1.00  0.00    -0.237 OA
ATOM     79  O   UNL A   1      32.532  34.366  27.978  1.00  0.00    -0.237 OA
ATOM     80  O   UNL A   1      32.265  36.020  29.788  1.00  0.00    -0.744 OA
ENDBRANCH  76  77
ENDBRANCH  55  69
BRANCH  56  81
ATOM     81  C   UNL A   1      43.919  28.584  35.772  1.00  0.00     0.058 A 
ATOM     82  C   UNL A   1      43.687  27.554  36.697  1.00  0.00     0.135 A 
ATOM     83  C   UNL A   1      45.251  28.946  35.522  1.00  0.00     0.135 A 
ATOM     84  F   UNL A   1      42.432  27.176  36.979  1.00  0.00    -0.206 F 
ATOM     85  C   UNL A   1      44.733  26.920  37.362  1.00  0.00     0.059 A 
ATOM     86  C   UNL A   1      46.316  28.309  36.154  1.00  0.00     0.059 A 
ATOM     87  F   UNL A   1      45.529  29.915  34.635  1.00  0.00    -0.206 F 
ATOM     88  C   UNL A   1      46.045  27.304  37.083  1.00  0.00     0.060 A 
BRANCH  88  89
ATOM     89  S   UNL A   1      47.397  26.446  37.919  1.00  0.00     0.124 S 
ATOM     90  O   UNL A   1      47.770  25.446  36.926  1.00  0.00    -0.237 OA
ATOM     91  O   UNL A   1      48.359  27.524  38.133  1.00  0.00    -0.237 OA
ATOM     92  O   UNL A   1      46.768  25.929  39.130  1.00  0.00    -0.744 OA
ENDBRANCH  88  89
ENDBRANCH  56  81
BRANCH  68  93
ATOM     93  C   UNL A   1      39.924  34.067  37.405  1.00  0.00     0.058 A 
ATOM     94  C   UNL A   1      40.678  35.248  37.484  1.00  0.00     0.135 A 
ATOM     95  C   UNL A   1      39.058  33.769  38.471  1.00  0.00     0.135 A 
ATOM     96  F   UNL A   1      41.525  35.575  36.496  1.00  0.00    -0.206 F 
ATOM     97  C   UNL A   1      40.590  36.093  38.586  1.00  0.00     0.059 A 
ATOM     98  C   UNL A   1      38.934  34.614  39.568  1.00  0.00     0.059 A 
ATOM     99  F   UNL A   1      38.306  32.658  38.441  1.00  0.00    -0.206 F 
ATOM    100  C   UNL A   1      39.713  35.769  39.622  1.00  0.00     0.060 A 
BRANCH 100 101
ATOM    101  S   UNL A   1      39.578  36.895  41.028  1.00  0.00     0.124 S 
ATOM    102  O   UNL A   1      38.689  37.923  40.497  1.00  0.00    -0.237 OA
ATOM    103  O   UNL A   1      39.009  36.036  42.062  1.00  0.00    -0.237 OA
ATOM    104  O   UNL A   1      40.957  37.316  41.260  1.00  0.00    -0.744 OA
ENDBRANCH 100 101
ENDBRANCH  68  93
ENDBRANCH  42  43
ENDBRANCH  34  37
ENDBRANCH  32  33
ENDBRANCH  31  32
ENDBRANCH   1  31
TORSDOF 17
ENDMDL
