MODEL 1
REMARK VINA RESULT:     -11.9      0.000      0.000
REMARK SMILES COc1ccc([C@H]2CC(c3ccc(S(C)(=O)=O)cc3)=NN2c2ccc(C(=O)NCCCCNC(=O)c3ccc(-c4c5nc(c(-c6c(F)cc(S(=O)(=O)[O-])cc6F)c6ccc([nH]6)c(-c6c(F)cc(S(=O)(=O)[O-])cc6F)c6nc(c(-c7c(F)cc(S(=O)(=O)[O-])cc7F)c7ccc4[nH]7)C=C6)C=C5)cc3)cc2)cc1OC
REMARK SMILES IDX 30 1 29 2 28 3 26 4 27 5 25 7 22 8 23 9 103 10 24 11 102 12
REMARK SMILES IDX 21 13 7 14 8 15 9 16 20 17 6 18 3 19 4 20 105 21 5 22 104 23
REMARK SMILES IDX 2 24 1 25 106 26 107 27 10 28 11 29 19 30 12 31 18 32 13 33
REMARK SMILES IDX 14 34 15 35 16 36 17 37 31 38 32 39 33 40 34 41 35 43 36 44
REMARK SMILES IDX 37 45 101 46 38 47 100 48 39 49 40 50 41 51 94 52 42 53
REMARK SMILES IDX 99 54 93 55 95 56 43 57 98 58 92 59 91 60 44 62 78 63 57 64
REMARK SMILES IDX 77 65 58 66 61 67 76 68 96 69 59 70 60 71 75 73 97 74 62 75
REMARK SMILES IDX 45 76 46 77 55 78 47 79 48 80 54 81 56 82 49 83 50 84 51 85
REMARK SMILES IDX 52 86 53 87 79 88 80 89 89 90 81 91 82 92 88 93 90 94 83 95
REMARK SMILES IDX 84 96 85 97 86 98 87 99 63 100 64 101 73 102 65 103 66 104
REMARK SMILES IDX 72 105 74 106 67 107 68 108 69 109 70 110 71 111
REMARK H PARENT 28 6 33 42 95 61 61 72
REMARK Flexibility Score: inf
ROOT
ATOM      1  C   UNL A   1      40.310  26.488  26.942  1.00  0.00     0.023 C 
ENDROOT
BRANCH   1   2
ATOM      2  C   UNL A   1      39.185  25.569  27.425  1.00  0.00     0.116 C 
BRANCH   2   3
ATOM      3  N   UNL A   1      39.524  24.188  27.161  1.00  0.00    -0.352 N 
ATOM      4  C   UNL A   1      38.889  23.204  26.449  1.00  0.00     0.251 C 
ATOM      5  O   UNL A   1      39.422  22.095  26.415  1.00  0.00    -0.269 OA
ATOM      6  H   UNL A   1      40.373  23.899  27.569  1.00  0.00     0.163 HD
BRANCH   4   7
ATOM      7  C   UNL A   1      37.632  23.427  25.676  1.00  0.00     0.039 A 
ATOM      8  C   UNL A   1      35.134  23.838  24.412  1.00  0.00     0.060 A 
ATOM      9  C   UNL A   1      35.335  24.216  25.743  1.00  0.00     0.029 A 
ATOM     10  C   UNL A   1      36.211  23.304  23.706  1.00  0.00     0.029 A 
ATOM     11  C   UNL A   1      36.559  23.995  26.376  1.00  0.00     0.016 A 
ATOM     12  C   UNL A   1      37.459  23.142  24.320  1.00  0.00     0.016 A 
BRANCH   8  13
ATOM     13  N   UNL A   1      33.909  24.041  23.810  1.00  0.00    -0.257 N 
ATOM     14  C   UNL A   1      33.273  23.137  22.854  1.00  0.00     0.144 C 
ATOM     15  C   UNL A   1      32.030  23.935  22.424  1.00  0.00     0.091 C 
ATOM     16  C   UNL A   1      32.226  25.186  23.235  1.00  0.00     0.071 C 
ATOM     17  N   UNL A   1      33.277  25.223  23.989  1.00  0.00    -0.176 NA
BRANCH  14  18
ATOM     18  C   UNL A   1      32.925  21.803  23.501  1.00  0.00    -0.019 A 
ATOM     19  C   UNL A   1      32.436  19.291  24.692  1.00  0.00     0.160 A 
ATOM     20  C   UNL A   1      32.097  19.523  23.350  1.00  0.00     0.051 A 
ATOM     21  C   UNL A   1      33.018  20.310  25.451  1.00  0.00     0.161 A 
ATOM     22  C   UNL A   1      32.333  20.772  22.760  1.00  0.00     0.010 A 
ATOM     23  C   UNL A   1      33.251  21.551  24.845  1.00  0.00     0.056 A 
BRANCH  19  24
ATOM     24  O   UNL A   1      32.322  18.016  25.176  1.00  0.00    -0.493 OA
ATOM     25  C   UNL A   1      32.952  17.053  24.333  1.00  0.00     0.278 C 
ENDBRANCH  19  24
BRANCH  21  26
ATOM     26  O   UNL A   1      33.453  20.272  26.748  1.00  0.00    -0.493 OA
ATOM     27  C   UNL A   1      33.655  21.500  27.426  1.00  0.00     0.278 C 
ENDBRANCH  21  26
ENDBRANCH  14  18
BRANCH  16  28
ATOM     28  C   UNL A   1      31.308  26.323  23.148  1.00  0.00    -0.002 A 
ATOM     29  C   UNL A   1      30.032  26.188  23.708  1.00  0.00     0.011 A 
ATOM     30  C   UNL A   1      31.672  27.474  22.449  1.00  0.00     0.011 A 
ATOM     31  C   UNL A   1      29.109  27.223  23.579  1.00  0.00     0.021 A 
ATOM     32  C   UNL A   1      30.738  28.501  22.295  1.00  0.00     0.021 A 
ATOM     33  C   UNL A   1      29.462  28.368  22.857  1.00  0.00     0.067 A 
BRANCH  33  34
ATOM     34  S   UNL A   1      28.266  29.667  22.659  1.00  0.00     0.175 S 
ATOM     35  C   UNL A   1      28.941  31.029  23.577  1.00  0.00     0.163 C 
ATOM     36  O   UNL A   1      28.264  30.020  21.249  1.00  0.00    -0.224 OA
ATOM     37  O   UNL A   1      27.049  29.253  23.323  1.00  0.00    -0.224 OA
ENDBRANCH  33  34
ENDBRANCH  16  28
ENDBRANCH   8  13
ENDBRANCH   4   7
ENDBRANCH   2   3
ENDBRANCH   1   2
BRANCH   1  38
ATOM     38  C   UNL A   1      41.033  25.974  25.694  1.00  0.00     0.023 C 
BRANCH  38  39
ATOM     39  C   UNL A   1      42.428  26.550  25.485  1.00  0.00     0.116 C 
BRANCH  39  40
ATOM     40  N   UNL A   1      43.488  25.588  25.755  1.00  0.00    -0.352 N 
ATOM     41  C   UNL A   1      44.297  25.500  26.861  1.00  0.00     0.251 C 
ATOM     42  H   UNL A   1      43.643  24.914  25.054  1.00  0.00     0.163 HD
ATOM     43  O   UNL A   1      45.230  24.703  26.883  1.00  0.00    -0.269 OA
BRANCH  41  44
ATOM     44  C   UNL A   1      44.052  26.406  28.001  1.00  0.00     0.039 A 
ATOM     45  C   UNL A   1      44.588  27.694  27.965  1.00  0.00     0.014 A 
ATOM     46  C   UNL A   1      43.255  25.996  29.073  1.00  0.00     0.014 A 
ATOM     47  C   UNL A   1      44.267  28.599  28.979  1.00  0.00     0.010 A 
ATOM     48  C   UNL A   1      42.880  26.920  30.043  1.00  0.00     0.010 A 
ATOM     49  C   UNL A   1      43.380  28.231  30.004  1.00  0.00    -0.014 A 
BRANCH  49  50
ATOM     50  C   UNL A   1      42.951  29.207  31.037  1.00  0.00     0.031 A 
ATOM     51  C   UNL A   1      43.741  29.355  32.309  1.00  0.00     0.074 A 
ATOM     52  C   UNL A   1      41.814  29.908  30.857  1.00  0.00     0.049 A 
ATOM     53  N   UNL A   1      43.488  30.097  33.355  1.00  0.00    -0.248 NA
ATOM     54  C   UNL A   1      44.961  28.541  32.432  1.00  0.00     0.031 C 
ATOM     55  C   UNL A   1      40.935  29.809  29.688  1.00  0.00     0.029 A 
ATOM     56  N   UNL A   1      41.191  30.830  31.660  1.00  0.00    -0.354 N 
ATOM     57  C   UNL A   1      44.504  29.831  34.263  1.00  0.00     0.074 A 
ATOM     58  C   UNL A   1      45.351  28.822  33.667  1.00  0.00     0.031 C 
ATOM     59  C   UNL A   1      39.899  30.650  29.844  1.00  0.00     0.029 A 
ATOM     60  C   UNL A   1      40.017  31.317  31.136  1.00  0.00     0.049 A 
ATOM     61  H   UNL A   1      41.553  31.116  32.530  1.00  0.00     0.167 HD
ATOM     62  C   UNL A   1      44.723  30.394  35.475  1.00  0.00     0.037 A 
ATOM     63  C   UNL A   1      39.128  32.192  31.645  1.00  0.00     0.037 A 
ATOM     64  C   UNL A   1      43.888  31.417  36.049  1.00  0.00     0.049 A 
ATOM     65  C   UNL A   1      39.395  32.804  32.994  1.00  0.00     0.074 A 
ATOM     66  C   UNL A   1      44.062  32.099  37.242  1.00  0.00     0.029 A 
ATOM     67  N   UNL A   1      42.722  31.904  35.478  1.00  0.00    -0.354 N 
ATOM     68  N   UNL A   1      40.403  32.596  33.808  1.00  0.00    -0.248 NA
ATOM     69  C   UNL A   1      38.411  33.775  33.492  1.00  0.00     0.031 C 
ATOM     70  C   UNL A   1      42.975  32.962  37.414  1.00  0.00     0.029 A 
ATOM     71  C   UNL A   1      42.153  32.859  36.304  1.00  0.00     0.049 A 
ATOM     72  H   UNL A   1      42.353  31.612  34.613  1.00  0.00     0.167 HD
ATOM     73  C   UNL A   1      40.187  33.429  34.901  1.00  0.00     0.074 A 
ATOM     74  C   UNL A   1      38.962  34.155  34.637  1.00  0.00     0.031 C 
ATOM     75  C   UNL A   1      40.935  33.579  36.022  1.00  0.00     0.037 A 
BRANCH  62  76
ATOM     76  C   UNL A   1      45.915  29.924  36.262  1.00  0.00     0.058 A 
ATOM     77  C   UNL A   1      47.171  30.540  36.139  1.00  0.00     0.135 A 
ATOM     78  C   UNL A   1      45.790  28.875  37.189  1.00  0.00     0.135 A 
ATOM     79  F   UNL A   1      47.352  31.535  35.256  1.00  0.00    -0.206 F 
ATOM     80  C   UNL A   1      48.264  30.119  36.889  1.00  0.00     0.059 A 
ATOM     81  C   UNL A   1      46.863  28.458  37.971  1.00  0.00     0.059 A 
ATOM     82  F   UNL A   1      44.613  28.249  37.347  1.00  0.00    -0.206 F 
ATOM     83  C   UNL A   1      48.100  29.080  37.805  1.00  0.00     0.060 A 
BRANCH  83  84
ATOM     84  S   UNL A   1      49.525  28.562  38.784  1.00  0.00     0.124 S 
ATOM     85  O   UNL A   1      50.607  29.291  38.131  1.00  0.00    -0.237 OA
ATOM     86  O   UNL A   1      49.168  29.024  40.122  1.00  0.00    -0.237 OA
ATOM     87  O   UNL A   1      49.551  27.114  38.611  1.00  0.00    -0.744 OA
ENDBRANCH  83  84
ENDBRANCH  62  76
BRANCH  63  88
ATOM     88  C   UNL A   1      37.907  32.551  30.873  1.00  0.00     0.058 A 
ATOM     89  C   UNL A   1      36.756  31.749  30.924  1.00  0.00     0.135 A 
ATOM     90  C   UNL A   1      37.865  33.701  30.071  1.00  0.00     0.135 A 
ATOM     91  F   UNL A   1      36.748  30.636  31.673  1.00  0.00    -0.206 F 
ATOM     92  C   UNL A   1      35.617  32.061  30.191  1.00  0.00     0.059 A 
ATOM     93  C   UNL A   1      36.727  34.049  29.349  1.00  0.00     0.059 A 
ATOM     94  F   UNL A   1      38.932  34.512  30.000  1.00  0.00    -0.206 F 
ATOM     95  C   UNL A   1      35.612  33.215  29.406  1.00  0.00     0.060 A 
BRANCH  95  96
ATOM     96  S   UNL A   1      34.114  33.630  28.486  1.00  0.00     0.124 S 
ATOM     97  O   UNL A   1      34.654  34.430  27.393  1.00  0.00    -0.237 OA
ATOM     98  O   UNL A   1      33.603  32.312  28.121  1.00  0.00    -0.237 OA
ATOM     99  O   UNL A   1      33.311  34.356  29.465  1.00  0.00    -0.744 OA
ENDBRANCH  95  96
ENDBRANCH  63  88
BRANCH  75 100
ATOM    100  C   UNL A   1      40.472  34.591  37.034  1.00  0.00     0.058 A 
ATOM    101  C   UNL A   1      39.540  34.265  38.031  1.00  0.00     0.135 A 
ATOM    102  C   UNL A   1      41.009  35.888  37.037  1.00  0.00     0.135 A 
ATOM    103  F   UNL A   1      38.991  33.041  38.069  1.00  0.00    -0.206 F 
ATOM    104  C   UNL A   1      39.137  35.197  38.982  1.00  0.00     0.059 A 
ATOM    105  C   UNL A   1      40.644  36.827  37.997  1.00  0.00     0.059 A 
ATOM    106  F   UNL A   1      41.914  36.248  36.112  1.00  0.00    -0.206 F 
ATOM    107  C   UNL A   1      39.699  36.476  38.958  1.00  0.00     0.060 A 
BRANCH 107 108
ATOM    108  S   UNL A   1      39.194  37.666  40.218  1.00  0.00     0.124 S 
ATOM    109  O   UNL A   1      38.777  36.785  41.304  1.00  0.00    -0.237 OA
ATOM    110  O   UNL A   1      40.424  38.418  40.448  1.00  0.00    -0.237 OA
ATOM    111  O   UNL A   1      38.121  38.414  39.570  1.00  0.00    -0.744 OA
ENDBRANCH 107 108
ENDBRANCH  75 100
ENDBRANCH  49  50
ENDBRANCH  41  44
ENDBRANCH  39  40
ENDBRANCH  38  39
ENDBRANCH   1  38
TORSDOF 20
ENDMDL
MODEL 2
REMARK VINA RESULT:     -11.6      0.726      7.728
REMARK SMILES COc1ccc([C@H]2CC(c3ccc(S(C)(=O)=O)cc3)=NN2c2ccc(C(=O)NCCCCNC(=O)c3ccc(-c4c5nc(c(-c6c(F)cc(S(=O)(=O)[O-])cc6F)c6ccc([nH]6)c(-c6c(F)cc(S(=O)(=O)[O-])cc6F)c6nc(c(-c7c(F)cc(S(=O)(=O)[O-])cc7F)c7ccc4[nH]7)C=C6)C=C5)cc3)cc2)cc1OC
REMARK SMILES IDX 30 1 29 2 28 3 26 4 27 5 25 7 22 8 23 9 103 10 24 11 102 12
REMARK SMILES IDX 21 13 7 14 8 15 9 16 20 17 6 18 3 19 4 20 105 21 5 22 104 23
REMARK SMILES IDX 2 24 1 25 106 26 107 27 10 28 11 29 19 30 12 31 18 32 13 33
REMARK SMILES IDX 14 34 15 35 16 36 17 37 31 38 32 39 33 40 34 41 35 43 36 44
REMARK SMILES IDX 37 45 101 46 38 47 100 48 39 49 40 50 41 51 94 52 42 53
REMARK SMILES IDX 99 54 93 55 95 56 43 57 98 58 92 59 91 60 44 62 78 63 57 64
REMARK SMILES IDX 77 65 58 66 61 67 76 68 96 69 59 70 60 71 75 73 97 74 62 75
REMARK SMILES IDX 45 76 46 77 55 78 47 79 48 80 54 81 56 82 49 83 50 84 51 85
REMARK SMILES IDX 52 86 53 87 79 88 80 89 89 90 81 91 82 92 88 93 90 94 83 95
REMARK SMILES IDX 84 96 85 97 86 98 87 99 63 100 64 101 73 102 65 103 66 104
REMARK SMILES IDX 72 105 74 106 67 107 68 108 69 109 70 110 71 111
REMARK H PARENT 28 6 33 42 95 61 61 72
REMARK Flexibility Score: inf
ROOT
ATOM      1  C   UNL A   1      40.182  26.296  27.178  1.00  0.00     0.023 C 
ENDROOT
BRANCH   1   2
ATOM      2  C   UNL A   1      39.157  25.306  27.736  1.00  0.00     0.116 C 
BRANCH   2   3
ATOM      3  N   UNL A   1      39.462  23.967  27.282  1.00  0.00    -0.352 N 
ATOM      4  C   UNL A   1      38.812  23.114  26.429  1.00  0.00     0.251 C 
ATOM      5  O   UNL A   1      39.315  22.005  26.245  1.00  0.00    -0.269 OA
ATOM      6  H   UNL A   1      40.295  23.597  27.656  1.00  0.00     0.163 HD
BRANCH   4   7
ATOM      7  C   UNL A   1      37.575  23.482  25.679  1.00  0.00     0.039 A 
ATOM      8  C   UNL A   1      35.116  24.163  24.458  1.00  0.00     0.060 A 
ATOM      9  C   UNL A   1      35.345  24.437  25.809  1.00  0.00     0.029 A 
ATOM     10  C   UNL A   1      36.149  23.597  23.713  1.00  0.00     0.029 A 
ATOM     11  C   UNL A   1      36.549  24.082  26.420  1.00  0.00     0.016 A 
ATOM     12  C   UNL A   1      37.381  23.300  24.308  1.00  0.00     0.016 A 
BRANCH   8  13
ATOM     13  N   UNL A   1      33.910  24.498  23.877  1.00  0.00    -0.257 N 
ATOM     14  C   UNL A   1      33.255  23.763  22.796  1.00  0.00     0.144 C 
ATOM     15  C   UNL A   1      32.051  24.663  22.469  1.00  0.00     0.091 C 
ATOM     16  C   UNL A   1      32.282  25.779  23.450  1.00  0.00     0.071 C 
ATOM     17  N   UNL A   1      33.320  25.667  24.212  1.00  0.00    -0.176 NA
BRANCH  14  18
ATOM     18  C   UNL A   1      32.846  22.367  23.246  1.00  0.00    -0.019 A 
ATOM     19  C   UNL A   1      32.242  19.739  24.081  1.00  0.00     0.160 A 
ATOM     20  C   UNL A   1      32.031  20.131  22.751  1.00  0.00     0.051 A 
ATOM     21  C   UNL A   1      32.751  20.654  25.006  1.00  0.00     0.161 A 
ATOM     22  C   UNL A   1      32.323  21.437  22.337  1.00  0.00     0.010 A 
ATOM     23  C   UNL A   1      33.043  21.955  24.575  1.00  0.00     0.056 A 
BRANCH  19  24
ATOM     24  O   UNL A   1      32.080  18.417  24.398  1.00  0.00    -0.493 OA
ATOM     25  C   UNL A   1      32.990  17.571  23.696  1.00  0.00     0.278 C 
ENDBRANCH  19  24
BRANCH  21  26
ATOM     26  O   UNL A   1      33.063  20.459  26.324  1.00  0.00    -0.493 OA
ATOM     27  C   UNL A   1      33.900  21.405  26.965  1.00  0.00     0.278 C 
ENDBRANCH  21  26
ENDBRANCH  14  18
BRANCH  16  28
ATOM     28  C   UNL A   1      31.409  26.954  23.513  1.00  0.00    -0.002 A 
ATOM     29  C   UNL A   1      30.177  26.899  22.853  1.00  0.00     0.011 A 
ATOM     30  C   UNL A   1      31.841  28.121  24.143  1.00  0.00     0.011 A 
ATOM     31  C   UNL A   1      29.355  28.024  22.832  1.00  0.00     0.021 A 
ATOM     32  C   UNL A   1      31.031  29.258  24.099  1.00  0.00     0.021 A 
ATOM     33  C   UNL A   1      29.796  29.204  23.441  1.00  0.00     0.067 A 
BRANCH  33  34
ATOM     34  S   UNL A   1      28.762  30.648  23.374  1.00  0.00     0.175 S 
ATOM     35  C   UNL A   1      28.921  31.225  21.703  1.00  0.00     0.163 C 
ATOM     36  O   UNL A   1      27.397  30.192  23.575  1.00  0.00    -0.224 OA
ATOM     37  O   UNL A   1      29.346  31.649  24.240  1.00  0.00    -0.224 OA
ENDBRANCH  33  34
ENDBRANCH  16  28
ENDBRANCH   8  13
ENDBRANCH   4   7
ENDBRANCH   2   3
ENDBRANCH   1   2
BRANCH   1  38
ATOM     38  C   UNL A   1      40.898  25.798  25.919  1.00  0.00     0.023 C 
BRANCH  38  39
ATOM     39  C   UNL A   1      42.119  26.617  25.517  1.00  0.00     0.116 C 
BRANCH  39  40
ATOM     40  N   UNL A   1      43.362  25.864  25.595  1.00  0.00    -0.352 N 
ATOM     41  C   UNL A   1      44.325  25.909  26.573  1.00  0.00     0.251 C 
ATOM     42  H   UNL A   1      43.534  25.243  24.851  1.00  0.00     0.163 HD
ATOM     43  O   UNL A   1      45.380  25.298  26.432  1.00  0.00    -0.269 OA
BRANCH  41  44
ATOM     44  C   UNL A   1      44.087  26.733  27.775  1.00  0.00     0.039 A 
ATOM     45  C   UNL A   1      44.505  28.066  27.770  1.00  0.00     0.014 A 
ATOM     46  C   UNL A   1      43.411  26.203  28.876  1.00  0.00     0.014 A 
ATOM     47  C   UNL A   1      44.182  28.888  28.851  1.00  0.00     0.010 A 
ATOM     48  C   UNL A   1      43.030  27.042  29.918  1.00  0.00     0.010 A 
ATOM     49  C   UNL A   1      43.409  28.394  29.914  1.00  0.00    -0.014 A 
BRANCH  49  50
ATOM     50  C   UNL A   1      42.975  29.277  31.026  1.00  0.00     0.031 A 
ATOM     51  C   UNL A   1      41.681  30.037  30.923  1.00  0.00     0.074 A 
ATOM     52  C   UNL A   1      43.781  29.446  32.093  1.00  0.00     0.049 A 
ATOM     53  N   UNL A   1      41.170  30.909  31.753  1.00  0.00    -0.248 NA
ATOM     54  C   UNL A   1      40.869  29.809  29.717  1.00  0.00     0.031 C 
ATOM     55  C   UNL A   1      45.085  28.803  32.279  1.00  0.00     0.029 A 
ATOM     56  N   UNL A   1      43.632  30.219  33.217  1.00  0.00    -0.354 N 
ATOM     57  C   UNL A   1      39.987  31.342  31.166  1.00  0.00     0.074 A 
ATOM     58  C   UNL A   1      39.881  30.676  29.887  1.00  0.00     0.031 C 
ATOM     59  C   UNL A   1      45.606  29.195  33.453  1.00  0.00     0.029 A 
ATOM     60  C   UNL A   1      44.696  30.145  34.085  1.00  0.00     0.049 A 
ATOM     61  H   UNL A   1      42.837  30.774  33.385  1.00  0.00     0.167 HD
ATOM     62  C   UNL A   1      39.064  32.200  31.660  1.00  0.00     0.037 A 
ATOM     63  C   UNL A   1      44.920  30.780  35.251  1.00  0.00     0.037 A 
ATOM     64  C   UNL A   1      39.166  32.839  32.946  1.00  0.00     0.049 A 
ATOM     65  C   UNL A   1      43.876  31.728  35.779  1.00  0.00     0.074 A 
ATOM     66  C   UNL A   1      38.252  33.673  33.566  1.00  0.00     0.029 A 
ATOM     67  N   UNL A   1      40.245  32.719  33.808  1.00  0.00    -0.354 N 
ATOM     68  N   UNL A   1      42.727  32.069  35.245  1.00  0.00    -0.248 NA
ATOM     69  C   UNL A   1      44.154  32.373  37.070  1.00  0.00     0.031 C 
ATOM     70  C   UNL A   1      38.800  34.096  34.781  1.00  0.00     0.029 A 
ATOM     71  C   UNL A   1      40.031  33.483  34.944  1.00  0.00     0.049 A 
ATOM     72  H   UNL A   1      41.046  32.173  33.638  1.00  0.00     0.167 HD
ATOM     73  C   UNL A   1      42.135  32.947  36.146  1.00  0.00     0.074 A 
ATOM     74  C   UNL A   1      43.044  33.073  37.266  1.00  0.00     0.031 C 
ATOM     75  C   UNL A   1      40.944  33.592  36.055  1.00  0.00     0.037 A 
BRANCH  62  76
ATOM     76  C   UNL A   1      37.857  32.496  30.812  1.00  0.00     0.058 A 
ATOM     77  C   UNL A   1      36.697  31.708  30.880  1.00  0.00     0.135 A 
ATOM     78  C   UNL A   1      37.841  33.610  29.957  1.00  0.00     0.135 A 
ATOM     79  F   UNL A   1      36.662  30.620  31.667  1.00  0.00    -0.206 F 
ATOM     80  C   UNL A   1      35.573  32.001  30.114  1.00  0.00     0.059 A 
ATOM     81  C   UNL A   1      36.717  33.939  29.205  1.00  0.00     0.059 A 
ATOM     82  F   UNL A   1      38.924  34.397  29.852  1.00  0.00    -0.206 F 
ATOM     83  C   UNL A   1      35.591  33.120  29.282  1.00  0.00     0.060 A 
BRANCH  83  84
ATOM     84  S   UNL A   1      34.116  33.496  28.312  1.00  0.00     0.124 S 
ATOM     85  O   UNL A   1      34.656  34.392  27.296  1.00  0.00    -0.237 OA
ATOM     86  O   UNL A   1      33.709  32.176  27.841  1.00  0.00    -0.237 OA
ATOM     87  O   UNL A   1      33.219  34.115  29.282  1.00  0.00    -0.744 OA
ENDBRANCH  83  84
ENDBRANCH  62  76
BRANCH  63  88
ATOM     88  C   UNL A   1      46.178  30.534  36.007  1.00  0.00     0.058 A 
ATOM     89  C   UNL A   1      47.327  31.303  35.770  1.00  0.00     0.135 A 
ATOM     90  C   UNL A   1      46.257  29.527  36.981  1.00  0.00     0.135 A 
ATOM     91  F   UNL A   1      47.304  32.275  34.845  1.00  0.00    -0.206 F 
ATOM     92  C   UNL A   1      48.515  31.069  36.454  1.00  0.00     0.059 A 
ATOM     93  C   UNL A   1      47.426  29.292  37.697  1.00  0.00     0.059 A 
ATOM     94  F   UNL A   1      45.182  28.774  37.260  1.00  0.00    -0.206 F 
ATOM     95  C   UNL A   1      48.555  30.060  37.416  1.00  0.00     0.060 A 
BRANCH  95  96
ATOM     96  S   UNL A   1      50.093  29.788  38.324  1.00  0.00     0.124 S 
ATOM     97  O   UNL A   1      51.044  30.549  37.522  1.00  0.00    -0.237 OA
ATOM     98  O   UNL A   1      49.777  30.342  39.637  1.00  0.00    -0.237 OA
ATOM     99  O   UNL A   1      50.252  28.338  38.286  1.00  0.00    -0.744 OA
ENDBRANCH  95  96
ENDBRANCH  63  88
BRANCH  75 100
ATOM    100  C   UNL A   1      40.539  34.463  37.211  1.00  0.00     0.058 A 
ATOM    101  C   UNL A   1      40.907  35.816  37.282  1.00  0.00     0.135 A 
ATOM    102  C   UNL A   1      39.724  33.951  38.234  1.00  0.00     0.135 A 
ATOM    103  F   UNL A   1      41.689  36.354  36.333  1.00  0.00    -0.206 F 
ATOM    104  C   UNL A   1      40.503  36.624  38.339  1.00  0.00     0.059 A 
ATOM    105  C   UNL A   1      39.284  34.749  39.285  1.00  0.00     0.059 A 
ATOM    106  F   UNL A   1      39.333  32.666  38.208  1.00  0.00    -0.206 F 
ATOM    107  C   UNL A   1      39.688  36.082  39.336  1.00  0.00     0.060 A 
BRANCH 107 108
ATOM    108  S   UNL A   1      39.143  37.150  40.684  1.00  0.00     0.124 S 
ATOM    109  O   UNL A   1      38.495  36.192  41.574  1.00  0.00    -0.237 OA
ATOM    110  O   UNL A   1      40.401  37.713  41.166  1.00  0.00    -0.237 OA
ATOM    111  O   UNL A   1      38.249  38.099  40.026  1.00  0.00    -0.744 OA
ENDBRANCH 107 108
ENDBRANCH  75 100
ENDBRANCH  49  50
ENDBRANCH  41  44
ENDBRANCH  39  40
ENDBRANCH  38  39
ENDBRANCH   1  38
TORSDOF 20
ENDMDL
MODEL 3
REMARK VINA RESULT:     -11.5      4.785      9.635
REMARK SMILES COc1ccc([C@H]2CC(c3ccc(S(C)(=O)=O)cc3)=NN2c2ccc(C(=O)NCCCCNC(=O)c3ccc(-c4c5nc(c(-c6c(F)cc(S(=O)(=O)[O-])cc6F)c6ccc([nH]6)c(-c6c(F)cc(S(=O)(=O)[O-])cc6F)c6nc(c(-c7c(F)cc(S(=O)(=O)[O-])cc7F)c7ccc4[nH]7)C=C6)C=C5)cc3)cc2)cc1OC
REMARK SMILES IDX 30 1 29 2 28 3 26 4 27 5 25 7 22 8 23 9 103 10 24 11 102 12
REMARK SMILES IDX 21 13 7 14 8 15 9 16 20 17 6 18 3 19 4 20 105 21 5 22 104 23
REMARK SMILES IDX 2 24 1 25 106 26 107 27 10 28 11 29 19 30 12 31 18 32 13 33
REMARK SMILES IDX 14 34 15 35 16 36 17 37 31 38 32 39 33 40 34 41 35 43 36 44
REMARK SMILES IDX 37 45 101 46 38 47 100 48 39 49 40 50 41 51 94 52 42 53
REMARK SMILES IDX 99 54 93 55 95 56 43 57 98 58 92 59 91 60 44 62 78 63 57 64
REMARK SMILES IDX 77 65 58 66 61 67 76 68 96 69 59 70 60 71 75 73 97 74 62 75
REMARK SMILES IDX 45 76 46 77 55 78 47 79 48 80 54 81 56 82 49 83 50 84 51 85
REMARK SMILES IDX 52 86 53 87 79 88 80 89 89 90 81 91 82 92 88 93 90 94 83 95
REMARK SMILES IDX 84 96 85 97 86 98 87 99 63 100 64 101 73 102 65 103 66 104
REMARK SMILES IDX 72 105 74 106 67 107 68 108 69 109 70 110 71 111
REMARK H PARENT 28 6 33 42 95 61 61 72
REMARK Flexibility Score: inf
ROOT
ATOM      1  C   UNL A   1      42.199  22.781  26.374  1.00  0.00     0.023 C 
ENDROOT
BRANCH   1   2
ATOM      2  C   UNL A   1      43.281  22.313  27.351  1.00  0.00     0.116 C 
BRANCH   2   3
ATOM      3  N   UNL A   1      44.388  21.730  26.624  1.00  0.00    -0.352 N 
ATOM      4  C   UNL A   1      45.487  22.284  26.022  1.00  0.00     0.251 C 
ATOM      5  O   UNL A   1      46.267  21.519  25.453  1.00  0.00    -0.269 OA
ATOM      6  H   UNL A   1      44.345  20.748  26.550  1.00  0.00     0.163 HD
BRANCH   4   7
ATOM      7  C   UNL A   1      45.809  23.740  26.073  1.00  0.00     0.039 A 
ATOM      8  C   UNL A   1      46.475  26.471  26.395  1.00  0.00     0.060 A 
ATOM      9  C   UNL A   1      47.070  25.490  27.192  1.00  0.00     0.029 A 
ATOM     10  C   UNL A   1      45.587  26.066  25.399  1.00  0.00     0.029 A 
ATOM     11  C   UNL A   1      46.727  24.144  27.051  1.00  0.00     0.016 A 
ATOM     12  C   UNL A   1      45.292  24.710  25.212  1.00  0.00     0.016 A 
BRANCH   8  13
ATOM     13  N   UNL A   1      46.807  27.800  26.565  1.00  0.00    -0.257 N 
ATOM     14  C   UNL A   1      48.159  28.317  26.771  1.00  0.00     0.144 C 
ATOM     15  C   UNL A   1      47.902  29.810  27.038  1.00  0.00     0.091 C 
ATOM     16  C   UNL A   1      46.402  29.840  26.947  1.00  0.00     0.071 C 
ATOM     17  N   UNL A   1      45.819  28.714  26.690  1.00  0.00    -0.176 NA
BRANCH  14  18
ATOM     18  C   UNL A   1      49.036  28.076  25.550  1.00  0.00    -0.019 A 
ATOM     19  C   UNL A   1      50.649  27.473  23.313  1.00  0.00     0.160 A 
ATOM     20  C   UNL A   1      51.224  27.951  24.500  1.00  0.00     0.051 A 
ATOM     21  C   UNL A   1      49.265  27.296  23.231  1.00  0.00     0.161 A 
ATOM     22  C   UNL A   1      50.424  28.258  25.608  1.00  0.00     0.010 A 
ATOM     23  C   UNL A   1      48.480  27.603  24.349  1.00  0.00     0.056 A 
BRANCH  19  24
ATOM     24  O   UNL A   1      51.484  27.051  22.314  1.00  0.00    -0.493 OA
ATOM     25  C   UNL A   1      52.761  26.647  22.804  1.00  0.00     0.278 C 
ENDBRANCH  19  24
BRANCH  21  26
ATOM     26  O   UNL A   1      48.523  26.808  22.189  1.00  0.00    -0.493 OA
ATOM     27  C   UNL A   1      48.858  27.217  20.874  1.00  0.00     0.278 C 
ENDBRANCH  21  26
ENDBRANCH  14  18
BRANCH  16  28
ATOM     28  C   UNL A   1      45.631  31.063  27.179  1.00  0.00    -0.002 A 
ATOM     29  C   UNL A   1      45.395  31.913  26.093  1.00  0.00     0.011 A 
ATOM     30  C   UNL A   1      45.223  31.407  28.468  1.00  0.00     0.011 A 
ATOM     31  C   UNL A   1      44.729  33.120  26.293  1.00  0.00     0.021 A 
ATOM     32  C   UNL A   1      44.579  32.629  28.675  1.00  0.00     0.021 A 
ATOM     33  C   UNL A   1      44.340  33.479  27.588  1.00  0.00     0.067 A 
BRANCH  33  34
ATOM     34  S   UNL A   1      43.529  35.040  27.844  1.00  0.00     0.175 S 
ATOM     35  C   UNL A   1      42.309  34.702  29.089  1.00  0.00     0.163 C 
ATOM     36  O   UNL A   1      44.522  35.938  28.407  1.00  0.00    -0.224 OA
ATOM     37  O   UNL A   1      42.827  35.378  26.624  1.00  0.00    -0.224 OA
ENDBRANCH  33  34
ENDBRANCH  16  28
ENDBRANCH   8  13
ENDBRANCH   4   7
ENDBRANCH   2   3
ENDBRANCH   1   2
BRANCH   1  38
ATOM     38  C   UNL A   1      41.276  21.657  25.894  1.00  0.00     0.023 C 
BRANCH  38  39
ATOM     39  C   UNL A   1      39.926  21.599  26.599  1.00  0.00     0.116 C 
BRANCH  39  40
ATOM     40  N   UNL A   1      38.840  22.146  25.798  1.00  0.00    -0.352 N 
ATOM     41  C   UNL A   1      38.337  23.424  25.806  1.00  0.00     0.251 C 
ATOM     42  H   UNL A   1      38.412  21.519  25.172  1.00  0.00     0.163 HD
ATOM     43  O   UNL A   1      37.334  23.698  25.154  1.00  0.00    -0.269 OA
BRANCH  41  44
ATOM     44  C   UNL A   1      38.998  24.449  26.638  1.00  0.00     0.039 A 
ATOM     45  C   UNL A   1      39.857  25.363  26.024  1.00  0.00     0.014 A 
ATOM     46  C   UNL A   1      38.729  24.533  28.006  1.00  0.00     0.014 A 
ATOM     47  C   UNL A   1      40.396  26.408  26.776  1.00  0.00     0.010 A 
ATOM     48  C   UNL A   1      39.211  25.616  28.736  1.00  0.00     0.010 A 
ATOM     49  C   UNL A   1      40.046  26.565  28.128  1.00  0.00    -0.014 A 
BRANCH  49  50
ATOM     50  C   UNL A   1      40.532  27.724  28.919  1.00  0.00     0.031 A 
ATOM     51  C   UNL A   1      41.886  27.675  29.573  1.00  0.00     0.074 A 
ATOM     52  C   UNL A   1      39.725  28.788  29.103  1.00  0.00     0.049 A 
ATOM     53  N   UNL A   1      42.453  28.552  30.359  1.00  0.00    -0.248 NA
ATOM     54  C   UNL A   1      42.697  26.470  29.335  1.00  0.00     0.031 C 
ATOM     55  C   UNL A   1      38.370  28.925  28.562  1.00  0.00     0.029 A 
ATOM     56  N   UNL A   1      39.918  29.949  29.807  1.00  0.00    -0.354 N 
ATOM     57  C   UNL A   1      43.677  28.002  30.720  1.00  0.00     0.074 A 
ATOM     58  C   UNL A   1      43.749  26.694  30.109  1.00  0.00     0.031 C 
ATOM     59  C   UNL A   1      37.863  30.110  28.940  1.00  0.00     0.029 A 
ATOM     60  C   UNL A   1      38.837  30.799  29.780  1.00  0.00     0.049 A 
ATOM     61  H   UNL A   1      40.754  30.155  30.286  1.00  0.00     0.167 HD
ATOM     62  C   UNL A   1      44.659  28.549  31.474  1.00  0.00     0.037 A 
ATOM     63  C   UNL A   1      38.647  31.992  30.376  1.00  0.00     0.037 A 
ATOM     64  C   UNL A   1      44.589  29.863  32.058  1.00  0.00     0.049 A 
ATOM     65  C   UNL A   1      39.756  32.578  31.208  1.00  0.00     0.074 A 
ATOM     66  C   UNL A   1      45.558  30.535  32.784  1.00  0.00     0.029 A 
ATOM     67  N   UNL A   1      43.488  30.705  31.987  1.00  0.00    -0.354 N 
ATOM     68  N   UNL A   1      40.938  32.076  31.477  1.00  0.00    -0.248 NA
ATOM     69  C   UNL A   1      39.511  33.895  31.812  1.00  0.00     0.031 C 
ATOM     70  C   UNL A   1      45.026  31.761  33.193  1.00  0.00     0.029 A 
ATOM     71  C   UNL A   1      43.745  31.879  32.677  1.00  0.00     0.049 A 
ATOM     72  H   UNL A   1      42.648  30.498  31.518  1.00  0.00     0.167 HD
ATOM     73  C   UNL A   1      41.585  33.026  32.260  1.00  0.00     0.074 A 
ATOM     74  C   UNL A   1      40.670  34.139  32.407  1.00  0.00     0.031 C 
ATOM     75  C   UNL A   1      42.826  32.982  32.807  1.00  0.00     0.037 A 
BRANCH  62  76
ATOM     76  C   UNL A   1      45.900  27.732  31.709  1.00  0.00     0.058 A 
ATOM     77  C   UNL A   1      47.000  27.794  30.838  1.00  0.00     0.135 A 
ATOM     78  C   UNL A   1      46.012  26.915  32.846  1.00  0.00     0.135 A 
ATOM     79  F   UNL A   1      46.942  28.545  29.727  1.00  0.00    -0.206 F 
ATOM     80  C   UNL A   1      48.156  27.057  31.073  1.00  0.00     0.059 A 
ATOM     81  C   UNL A   1      47.172  26.192  33.116  1.00  0.00     0.059 A 
ATOM     82  F   UNL A   1      44.991  26.817  33.712  1.00  0.00    -0.206 F 
ATOM     83  C   UNL A   1      48.234  26.262  32.217  1.00  0.00     0.060 A 
BRANCH  83  84
ATOM     84  S   UNL A   1      49.751  25.330  32.516  1.00  0.00     0.124 S 
ATOM     85  O   UNL A   1      50.117  24.928  31.162  1.00  0.00    -0.237 OA
ATOM     86  O   UNL A   1      50.614  26.332  33.134  1.00  0.00    -0.237 OA
ATOM     87  O   UNL A   1      49.320  24.250  33.396  1.00  0.00    -0.744 OA
ENDBRANCH  83  84
ENDBRANCH  62  76
BRANCH  63  88
ATOM     88  C   UNL A   1      37.361  32.719  30.199  1.00  0.00     0.058 A 
ATOM     89  C   UNL A   1      36.295  32.533  31.093  1.00  0.00     0.135 A 
ATOM     90  C   UNL A   1      37.170  33.614  29.135  1.00  0.00     0.135 A 
ATOM     91  F   UNL A   1      36.426  31.684  32.123  1.00  0.00    -0.206 F 
ATOM     92  C   UNL A   1      35.080  33.189  30.926  1.00  0.00     0.059 A 
ATOM     93  C   UNL A   1      35.974  34.303  28.963  1.00  0.00     0.059 A 
ATOM     94  F   UNL A   1      38.163  33.842  28.261  1.00  0.00    -0.206 F 
ATOM     95  C   UNL A   1      34.930  34.073  29.858  1.00  0.00     0.060 A 
BRANCH  95  96
ATOM     96  S   UNL A   1      33.360  34.947  29.672  1.00  0.00     0.124 S 
ATOM     97  O   UNL A   1      32.888  34.997  31.050  1.00  0.00    -0.237 OA
ATOM     98  O   UNL A   1      33.783  36.219  29.094  1.00  0.00    -0.237 OA
ATOM     99  O   UNL A   1      32.599  34.082  28.774  1.00  0.00    -0.744 OA
ENDBRANCH  95  96
ENDBRANCH  63  88
BRANCH  75 100
ATOM    100  C   UNL A   1      43.282  34.184  33.587  1.00  0.00     0.058 A 
ATOM    101  C   UNL A   1      44.046  35.202  32.995  1.00  0.00     0.135 A 
ATOM    102  C   UNL A   1      42.903  34.345  34.929  1.00  0.00     0.135 A 
ATOM    103  F   UNL A   1      44.440  35.095  31.716  1.00  0.00    -0.206 F 
ATOM    104  C   UNL A   1      44.440  36.326  33.714  1.00  0.00     0.059 A 
ATOM    105  C   UNL A   1      43.260  35.475  35.658  1.00  0.00     0.059 A 
ATOM    106  F   UNL A   1      42.163  33.406  35.540  1.00  0.00    -0.206 F 
ATOM    107  C   UNL A   1      44.038  36.455  35.046  1.00  0.00     0.060 A 
BRANCH 107 108
ATOM    108  S   UNL A   1      44.527  37.934  35.957  1.00  0.00     0.124 S 
ATOM    109  O   UNL A   1      43.865  37.720  37.240  1.00  0.00    -0.237 OA
ATOM    110  O   UNL A   1      45.983  37.827  35.969  1.00  0.00    -0.237 OA
ATOM    111  O   UNL A   1      43.990  39.025  35.148  1.00  0.00    -0.744 OA
ENDBRANCH 107 108
ENDBRANCH  75 100
ENDBRANCH  49  50
ENDBRANCH  41  44
ENDBRANCH  39  40
ENDBRANCH  38  39
ENDBRANCH   1  38
TORSDOF 20
ENDMDL
