MODEL 1
REMARK VINA RESULT:     -12.0      0.000      0.000
REMARK SMILES Cc1cc(Br)cc2c1O[C@H](C(F)(F)F)C(C(=O)NCCCCNC(=O)c1ccc(-c3c4nc(c(-c5c(F)cc(S(=O)(=O)[O-])cc5F)c5ccc([nH]5)c(-c5c(F)cc(S(=O)(=O)[O-])cc5F)c5nc(c(-c6c(F)cc(S(=O)(=O)[O-])cc6F)c6ccc3[nH]6)C=C5)C=C4)cc1)=C2
REMARK SMILES IDX 21 1 20 2 19 3 18 4 16 5 17 6 15 8 1 9 2 10 3 11 8 12 4 13
REMARK SMILES IDX 7 14 9 15 5 16 6 17 92 18 10 19 11 20 12 21 13 22 14 23
REMARK SMILES IDX 22 24 23 25 24 26 25 28 26 29 27 30 91 31 28 32 90 33 29 34
REMARK SMILES IDX 30 35 31 36 84 37 32 38 89 39 83 40 85 41 33 42 88 43 82 44
REMARK SMILES IDX 81 45 34 47 68 48 47 49 67 50 48 51 51 52 66 53 86 54 49 55
REMARK SMILES IDX 50 56 65 58 87 59 52 60 35 61 36 62 45 63 37 64 38 65 44 66
REMARK SMILES IDX 46 67 39 68 40 69 41 70 42 71 43 72 69 73 70 74 79 75 71 76
REMARK SMILES IDX 72 77 78 78 80 79 73 80 74 81 75 82 76 83 77 84 53 85 54 86
REMARK SMILES IDX 63 87 55 88 56 89 62 90 64 91 57 92 58 93 59 94 60 95 61 96
REMARK H PARENT 18 7 23 27 85 46 51 57
REMARK Flexibility Score: inf
ROOT
ATOM      1  C   UNL A   1      32.125  28.057  26.771  1.00  0.00     0.023 C 
ENDROOT
BRANCH   1   2
ATOM      2  C   UNL A   1      31.524  28.748  25.544  1.00  0.00     0.023 C 
BRANCH   2   3
ATOM      3  C   UNL A   1      32.515  28.977  24.405  1.00  0.00     0.116 C 
BRANCH   3   4
ATOM      4  N   UNL A   1      32.251  28.110  23.270  1.00  0.00    -0.352 N 
ATOM      5  C   UNL A   1      32.301  26.783  23.007  1.00  0.00     0.251 C 
ATOM      6  O   UNL A   1      31.976  26.461  21.859  1.00  0.00    -0.270 OA
ATOM      7  H   UNL A   1      31.957  28.624  22.483  1.00  0.00     0.163 HD
BRANCH   5   8
ATOM      8  C   UNL A   1      32.709  25.722  23.976  1.00  0.00     0.067 C 
ATOM      9  C   UNL A   1      33.112  22.339  27.822  1.00  0.00     0.048 C 
ATOM     10  C   UNL A   1      34.066  22.941  26.830  1.00  0.00    -0.007 A 
ATOM     11  C   UNL A   1      35.407  22.537  26.801  1.00  0.00     0.023 A 
ATOM     12  C   UNL A   1      33.631  23.905  25.910  1.00  0.00     0.130 A 
ATOM     13  C   UNL A   1      36.289  23.101  25.877  1.00  0.00     0.019 A 
ATOM     14  C   UNL A   1      34.515  24.476  24.989  1.00  0.00     0.019 A 
ATOM     15  O   UNL A   1      32.321  24.298  25.982  1.00  0.00    -0.475 OA
ATOM     16  Br  UNL A   1      38.098  22.550  25.858  1.00  0.00    -0.051 Br
ATOM     17  C   UNL A   1      35.852  24.071  24.974  1.00  0.00     0.027 A 
ATOM     18  C   UNL A   1      34.035  25.513  24.085  1.00  0.00     0.025 C 
ATOM     19  C   UNL A   1      31.755  24.881  24.775  1.00  0.00     0.314 C 
BRANCH  19  20
ATOM     20  C   UNL A   1      31.095  23.772  23.935  1.00  0.00     0.429 C 
ATOM     21  F   UNL A   1      30.644  22.775  24.738  1.00  0.00    -0.167 F 
ATOM     22  F   UNL A   1      30.026  24.216  23.235  1.00  0.00    -0.167 F 
ATOM     23  F   UNL A   1      31.947  23.215  23.044  1.00  0.00    -0.167 F 
ENDBRANCH  19  20
ENDBRANCH   5   8
ENDBRANCH   3   4
ENDBRANCH   2   3
ENDBRANCH   1   2
BRANCH   1  24
ATOM     24  C   UNL A   1      33.469  28.608  27.247  1.00  0.00     0.116 C 
BRANCH  24  25
ATOM     25  N   UNL A   1      33.419  29.997  27.683  1.00  0.00    -0.352 N 
ATOM     26  C   UNL A   1      34.433  30.743  28.237  1.00  0.00     0.251 C 
ATOM     27  H   UNL A   1      32.556  30.456  27.569  1.00  0.00     0.163 HD
ATOM     28  O   UNL A   1      34.227  31.887  28.627  1.00  0.00    -0.269 OA
BRANCH  26  29
ATOM     29  C   UNL A   1      35.760  30.121  28.398  1.00  0.00     0.039 A 
ATOM     30  C   UNL A   1      36.633  30.105  27.308  1.00  0.00     0.014 A 
ATOM     31  C   UNL A   1      36.166  29.638  29.645  1.00  0.00     0.014 A 
ATOM     32  C   UNL A   1      37.949  29.681  27.490  1.00  0.00     0.010 A 
ATOM     33  C   UNL A   1      37.491  29.265  29.836  1.00  0.00     0.010 A 
ATOM     34  C   UNL A   1      38.398  29.301  28.765  1.00  0.00    -0.014 A 
BRANCH  34  35
ATOM     35  C   UNL A   1      39.822  28.966  29.011  1.00  0.00     0.031 A 
ATOM     36  C   UNL A   1      40.752  30.003  29.570  1.00  0.00     0.074 A 
ATOM     37  C   UNL A   1      40.286  27.750  28.661  1.00  0.00     0.049 A 
ATOM     38  N   UNL A   1      42.044  29.935  29.758  1.00  0.00    -0.248 NA
ATOM     39  C   UNL A   1      40.153  31.293  29.946  1.00  0.00     0.031 C 
ATOM     40  C   UNL A   1      39.483  26.673  28.077  1.00  0.00     0.029 A 
ATOM     41  N   UNL A   1      41.548  27.218  28.736  1.00  0.00    -0.354 N 
ATOM     42  C   UNL A   1      42.417  31.173  30.264  1.00  0.00     0.074 A 
ATOM     43  C   UNL A   1      41.221  31.988  30.315  1.00  0.00     0.031 C 
ATOM     44  C   UNL A   1      40.268  25.602  27.869  1.00  0.00     0.029 A 
ATOM     45  C   UNL A   1      41.633  25.927  28.270  1.00  0.00     0.049 A 
ATOM     46  H   UNL A   1      42.321  27.714  29.090  1.00  0.00     0.167 HD
ATOM     47  C   UNL A   1      43.640  31.585  30.671  1.00  0.00     0.037 A 
ATOM     48  C   UNL A   1      42.692  25.101  28.175  1.00  0.00     0.037 A 
ATOM     49  C   UNL A   1      44.822  30.764  30.636  1.00  0.00     0.049 A 
ATOM     50  C   UNL A   1      44.040  25.581  28.633  1.00  0.00     0.074 A 
ATOM     51  C   UNL A   1      46.105  31.084  31.043  1.00  0.00     0.029 A 
ATOM     52  N   UNL A   1      44.862  29.455  30.178  1.00  0.00    -0.354 N 
ATOM     53  N   UNL A   1      44.373  26.752  29.124  1.00  0.00    -0.248 NA
ATOM     54  C   UNL A   1      45.157  24.632  28.528  1.00  0.00     0.031 C 
ATOM     55  C   UNL A   1      46.926  29.975  30.811  1.00  0.00     0.029 A 
ATOM     56  C   UNL A   1      46.147  28.954  30.291  1.00  0.00     0.049 A 
ATOM     57  H   UNL A   1      44.089  28.957  29.824  1.00  0.00     0.167 HD
ATOM     58  C   UNL A   1      45.731  26.672  29.408  1.00  0.00     0.074 A 
ATOM     59  C   UNL A   1      46.157  25.337  29.039  1.00  0.00     0.031 C 
ATOM     60  C   UNL A   1      46.549  27.618  29.928  1.00  0.00     0.037 A 
BRANCH  47  61
ATOM     61  C   UNL A   1      43.756  32.987  31.198  1.00  0.00     0.058 A 
ATOM     62  C   UNL A   1      44.096  34.056  30.354  1.00  0.00     0.135 A 
ATOM     63  C   UNL A   1      43.500  33.271  32.548  1.00  0.00     0.135 A 
ATOM     64  F   UNL A   1      44.370  33.834  29.059  1.00  0.00    -0.206 F 
ATOM     65  C   UNL A   1      44.202  35.356  30.836  1.00  0.00     0.059 A 
ATOM     66  C   UNL A   1      43.578  34.567  33.047  1.00  0.00     0.059 A 
ATOM     67  F   UNL A   1      43.175  32.283  33.397  1.00  0.00    -0.206 F 
ATOM     68  C   UNL A   1      43.943  35.602  32.185  1.00  0.00     0.060 A 
BRANCH  68  69
ATOM     69  S   UNL A   1      44.082  37.295  32.794  1.00  0.00     0.124 S 
ATOM     70  O   UNL A   1      43.044  37.321  33.819  1.00  0.00    -0.237 OA
ATOM     71  O   UNL A   1      45.457  37.341  33.281  1.00  0.00    -0.237 OA
ATOM     72  O   UNL A   1      43.814  38.105  31.609  1.00  0.00    -0.744 OA
ENDBRANCH  68  69
ENDBRANCH  47  61
BRANCH  48  73
ATOM     73  C   UNL A   1      42.506  23.720  27.659  1.00  0.00     0.058 A 
ATOM     74  C   UNL A   1      42.486  23.471  26.279  1.00  0.00     0.135 A 
ATOM     75  C   UNL A   1      42.381  22.624  28.526  1.00  0.00     0.135 A 
ATOM     76  F   UNL A   1      42.598  24.490  25.414  1.00  0.00    -0.206 F 
ATOM     77  C   UNL A   1      42.346  22.184  25.773  1.00  0.00     0.059 A 
ATOM     78  C   UNL A   1      42.257  21.324  28.045  1.00  0.00     0.059 A 
ATOM     79  F   UNL A   1      42.410  22.810  29.854  1.00  0.00    -0.206 F 
ATOM     80  C   UNL A   1      42.237  21.115  26.665  1.00  0.00     0.060 A 
BRANCH  80  81
ATOM     81  S   UNL A   1      42.125  19.441  25.998  1.00  0.00     0.124 S 
ATOM     82  O   UNL A   1      42.630  18.646  27.112  1.00  0.00    -0.237 OA
ATOM     83  O   UNL A   1      40.698  19.315  25.719  1.00  0.00    -0.237 OA
ATOM     84  O   UNL A   1      42.984  19.493  24.817  1.00  0.00    -0.744 OA
ENDBRANCH  80  81
ENDBRANCH  48  73
BRANCH  60  85
ATOM     85  C   UNL A   1      47.983  27.239  30.161  1.00  0.00     0.058 A 
ATOM     86  C   UNL A   1      48.970  27.470  29.190  1.00  0.00     0.135 A 
ATOM     87  C   UNL A   1      48.382  26.697  31.392  1.00  0.00     0.135 A 
ATOM     88  F   UNL A   1      48.635  27.980  27.994  1.00  0.00    -0.206 F 
ATOM     89  C   UNL A   1      50.305  27.165  29.430  1.00  0.00     0.059 A 
ATOM     90  C   UNL A   1      49.715  26.403  31.660  1.00  0.00     0.059 A 
ATOM     91  F   UNL A   1      47.475  26.465  32.355  1.00  0.00    -0.206 F 
ATOM     92  C   UNL A   1      50.668  26.633  30.669  1.00  0.00     0.060 A 
BRANCH  92  93
ATOM     93  S   UNL A   1      52.411  26.282  30.984  1.00  0.00     0.124 S 
ATOM     94  O   UNL A   1      52.332  25.004  31.684  1.00  0.00    -0.237 OA
ATOM     95  O   UNL A   1      52.970  26.233  29.636  1.00  0.00    -0.237 OA
ATOM     96  O   UNL A   1      52.844  27.418  31.793  1.00  0.00    -0.744 OA
ENDBRANCH  92  93
ENDBRANCH  60  85
ENDBRANCH  34  35
ENDBRANCH  26  29
ENDBRANCH  24  25
ENDBRANCH   1  24
TORSDOF 15
ENDMDL
MODEL 2
REMARK VINA RESULT:     -11.8      1.498      2.086
REMARK SMILES Cc1cc(Br)cc2c1O[C@H](C(F)(F)F)C(C(=O)NCCCCNC(=O)c1ccc(-c3c4nc(c(-c5c(F)cc(S(=O)(=O)[O-])cc5F)c5ccc([nH]5)c(-c5c(F)cc(S(=O)(=O)[O-])cc5F)c5nc(c(-c6c(F)cc(S(=O)(=O)[O-])cc6F)c6ccc3[nH]6)C=C5)C=C4)cc1)=C2
REMARK SMILES IDX 21 1 20 2 19 3 18 4 16 5 17 6 15 8 1 9 2 10 3 11 8 12 4 13
REMARK SMILES IDX 7 14 9 15 5 16 6 17 92 18 10 19 11 20 12 21 13 22 14 23
REMARK SMILES IDX 22 24 23 25 24 26 25 28 26 29 27 30 91 31 28 32 90 33 29 34
REMARK SMILES IDX 30 35 31 36 84 37 32 38 89 39 83 40 85 41 33 42 88 43 82 44
REMARK SMILES IDX 81 45 34 47 68 48 47 49 67 50 48 51 51 52 66 53 86 54 49 55
REMARK SMILES IDX 50 56 65 58 87 59 52 60 35 61 36 62 45 63 37 64 38 65 44 66
REMARK SMILES IDX 46 67 39 68 40 69 41 70 42 71 43 72 69 73 70 74 79 75 71 76
REMARK SMILES IDX 72 77 78 78 80 79 73 80 74 81 75 82 76 83 77 84 53 85 54 86
REMARK SMILES IDX 63 87 55 88 56 89 62 90 64 91 57 92 58 93 59 94 60 95 61 96
REMARK H PARENT 18 7 23 27 85 46 51 57
REMARK Flexibility Score: inf
ROOT
ATOM      1  C   UNL A   1      31.999  27.875  27.138  1.00  0.00     0.023 C 
ENDROOT
BRANCH   1   2
ATOM      2  C   UNL A   1      31.470  27.799  25.703  1.00  0.00     0.023 C 
BRANCH   2   3
ATOM      3  C   UNL A   1      31.043  26.400  25.265  1.00  0.00     0.116 C 
BRANCH   3   4
ATOM      4  N   UNL A   1      31.225  26.196  23.839  1.00  0.00    -0.352 N 
ATOM      5  C   UNL A   1      31.938  25.366  23.042  1.00  0.00     0.251 C 
ATOM      6  O   UNL A   1      31.789  25.544  21.828  1.00  0.00    -0.270 OA
ATOM      7  H   UNL A   1      30.686  26.829  23.311  1.00  0.00     0.163 HD
BRANCH   5   8
ATOM      8  C   UNL A   1      32.860  24.291  23.515  1.00  0.00     0.067 C 
ATOM      9  C   UNL A   1      36.847  21.267  24.681  1.00  0.00     0.048 C 
ATOM     10  C   UNL A   1      35.358  21.082  24.606  1.00  0.00    -0.007 A 
ATOM     11  C   UNL A   1      34.776  19.858  24.959  1.00  0.00     0.023 A 
ATOM     12  C   UNL A   1      34.525  22.133  24.195  1.00  0.00     0.130 A 
ATOM     13  C   UNL A   1      33.392  19.693  24.886  1.00  0.00     0.019 A 
ATOM     14  C   UNL A   1      33.138  21.966  24.114  1.00  0.00     0.019 A 
ATOM     15  O   UNL A   1      35.127  23.307  23.831  1.00  0.00    -0.475 OA
ATOM     16  Br  UNL A   1      32.624  18.030  25.358  1.00  0.00    -0.051 Br
ATOM     17  C   UNL A   1      32.570  20.738  24.462  1.00  0.00     0.027 A 
ATOM     18  C   UNL A   1      32.313  23.066  23.632  1.00  0.00     0.025 C 
ATOM     19  C   UNL A   1      34.298  24.502  23.893  1.00  0.00     0.314 C 
BRANCH  19  20
ATOM     20  C   UNL A   1      34.459  25.162  25.275  1.00  0.00     0.429 C 
ATOM     21  F   UNL A   1      35.662  24.843  25.814  1.00  0.00    -0.167 F 
ATOM     22  F   UNL A   1      34.409  26.513  25.216  1.00  0.00    -0.167 F 
ATOM     23  F   UNL A   1      33.508  24.770  26.153  1.00  0.00    -0.167 F 
ENDBRANCH  19  20
ENDBRANCH   5   8
ENDBRANCH   3   4
ENDBRANCH   2   3
ENDBRANCH   1   2
BRANCH   1  24
ATOM     24  C   UNL A   1      33.379  28.514  27.299  1.00  0.00     0.116 C 
BRANCH  24  25
ATOM     25  N   UNL A   1      33.339  29.925  27.659  1.00  0.00    -0.352 N 
ATOM     26  C   UNL A   1      34.363  30.695  28.159  1.00  0.00     0.251 C 
ATOM     27  H   UNL A   1      32.477  30.381  27.528  1.00  0.00     0.163 HD
ATOM     28  O   UNL A   1      34.166  31.861  28.487  1.00  0.00    -0.269 OA
BRANCH  26  29
ATOM     29  C   UNL A   1      35.689  30.076  28.339  1.00  0.00     0.039 A 
ATOM     30  C   UNL A   1      36.587  30.087  27.269  1.00  0.00     0.014 A 
ATOM     31  C   UNL A   1      36.068  29.571  29.585  1.00  0.00     0.014 A 
ATOM     32  C   UNL A   1      37.901  29.665  27.474  1.00  0.00     0.010 A 
ATOM     33  C   UNL A   1      37.390  29.200  29.800  1.00  0.00     0.010 A 
ATOM     34  C   UNL A   1      38.322  29.262  28.752  1.00  0.00    -0.014 A 
BRANCH  34  35
ATOM     35  C   UNL A   1      39.741  28.930  29.025  1.00  0.00     0.031 A 
ATOM     36  C   UNL A   1      40.656  29.965  29.611  1.00  0.00     0.074 A 
ATOM     37  C   UNL A   1      40.216  27.718  28.676  1.00  0.00     0.049 A 
ATOM     38  N   UNL A   1      41.944  29.899  29.825  1.00  0.00    -0.248 NA
ATOM     39  C   UNL A   1      40.046  31.251  29.984  1.00  0.00     0.031 C 
ATOM     40  C   UNL A   1      39.429  26.643  28.068  1.00  0.00     0.029 A 
ATOM     41  N   UNL A   1      41.477  27.188  28.773  1.00  0.00    -0.354 N 
ATOM     42  C   UNL A   1      42.303  31.134  30.348  1.00  0.00     0.074 A 
ATOM     43  C   UNL A   1      41.104  31.946  30.379  1.00  0.00     0.031 C 
ATOM     44  C   UNL A   1      40.220  25.575  27.868  1.00  0.00     0.029 A 
ATOM     45  C   UNL A   1      41.576  25.901  28.300  1.00  0.00     0.049 A 
ATOM     46  H   UNL A   1      42.242  27.684  29.146  1.00  0.00     0.167 HD
ATOM     47  C   UNL A   1      43.517  31.547  30.782  1.00  0.00     0.037 A 
ATOM     48  C   UNL A   1      42.639  25.078  28.221  1.00  0.00     0.037 A 
ATOM     49  C   UNL A   1      44.701  30.729  30.767  1.00  0.00     0.049 A 
ATOM     50  C   UNL A   1      43.976  25.559  28.711  1.00  0.00     0.074 A 
ATOM     51  C   UNL A   1      45.975  31.049  31.202  1.00  0.00     0.029 A 
ATOM     52  N   UNL A   1      44.754  29.424  30.300  1.00  0.00    -0.354 N 
ATOM     53  N   UNL A   1      44.295  26.727  29.216  1.00  0.00    -0.248 NA
ATOM     54  C   UNL A   1      45.097  24.613  28.621  1.00  0.00     0.031 C 
ATOM     55  C   UNL A   1      46.804  29.945  30.980  1.00  0.00     0.029 A 
ATOM     56  C   UNL A   1      46.039  28.926  30.436  1.00  0.00     0.049 A 
ATOM     57  H   UNL A   1      43.991  28.927  29.927  1.00  0.00     0.167 HD
ATOM     58  C   UNL A   1      45.647  26.649  29.528  1.00  0.00     0.074 A 
ATOM     59  C   UNL A   1      46.085  25.318  29.158  1.00  0.00     0.031 C 
ATOM     60  C   UNL A   1      46.452  27.593  30.072  1.00  0.00     0.037 A 
BRANCH  47  61
ATOM     61  C   UNL A   1      43.618  32.945  31.322  1.00  0.00     0.058 A 
ATOM     62  C   UNL A   1      43.401  33.219  32.681  1.00  0.00     0.135 A 
ATOM     63  C   UNL A   1      43.959  34.017  30.482  1.00  0.00     0.135 A 
ATOM     64  F   UNL A   1      43.053  32.232  33.522  1.00  0.00    -0.206 F 
ATOM     65  C   UNL A   1      43.497  34.510  33.187  1.00  0.00     0.059 A 
ATOM     66  C   UNL A   1      44.082  35.314  30.970  1.00  0.00     0.059 A 
ATOM     67  F   UNL A   1      44.173  33.809  29.173  1.00  0.00    -0.206 F 
ATOM     68  C   UNL A   1      43.836  35.552  32.323  1.00  0.00     0.060 A 
BRANCH  68  69
ATOM     69  S   UNL A   1      43.958  37.223  32.995  1.00  0.00     0.124 S 
ATOM     70  O   UNL A   1      42.810  37.259  33.894  1.00  0.00    -0.237 OA
ATOM     71  O   UNL A   1      45.268  37.206  33.639  1.00  0.00    -0.237 OA
ATOM     72  O   UNL A   1      43.857  38.073  31.812  1.00  0.00    -0.744 OA
ENDBRANCH  68  69
ENDBRANCH  47  61
BRANCH  48  73
ATOM     73  C   UNL A   1      42.468  23.701  27.692  1.00  0.00     0.058 A 
ATOM     74  C   UNL A   1      42.447  23.466  26.309  1.00  0.00     0.135 A 
ATOM     75  C   UNL A   1      42.358  22.595  28.547  1.00  0.00     0.135 A 
ATOM     76  F   UNL A   1      42.544  24.495  25.454  1.00  0.00    -0.206 F 
ATOM     77  C   UNL A   1      42.320  22.182  25.790  1.00  0.00     0.059 A 
ATOM     78  C   UNL A   1      42.249  21.298  28.053  1.00  0.00     0.059 A 
ATOM     79  F   UNL A   1      42.390  22.768  29.877  1.00  0.00    -0.206 F 
ATOM     80  C   UNL A   1      42.226  21.104  26.671  1.00  0.00     0.060 A 
BRANCH  80  81
ATOM     81  S   UNL A   1      42.132  19.435  25.987  1.00  0.00     0.124 S 
ATOM     82  O   UNL A   1      40.698  19.286  25.770  1.00  0.00    -0.237 OA
ATOM     83  O   UNL A   1      42.952  19.549  24.785  1.00  0.00    -0.237 OA
ATOM     84  O   UNL A   1      42.701  18.606  27.046  1.00  0.00    -0.744 OA
ENDBRANCH  80  81
ENDBRANCH  48  73
BRANCH  60  85
ATOM     85  C   UNL A   1      47.882  27.217  30.331  1.00  0.00     0.058 A 
ATOM     86  C   UNL A   1      48.864  27.336  29.337  1.00  0.00     0.135 A 
ATOM     87  C   UNL A   1      48.282  26.791  31.607  1.00  0.00     0.135 A 
ATOM     88  F   UNL A   1      48.528  27.733  28.099  1.00  0.00    -0.206 F 
ATOM     89  C   UNL A   1      50.197  27.036  29.597  1.00  0.00     0.059 A 
ATOM     90  C   UNL A   1      49.612  26.504  31.895  1.00  0.00     0.059 A 
ATOM     91  F   UNL A   1      47.379  26.667  32.594  1.00  0.00    -0.206 F 
ATOM     92  C   UNL A   1      50.561  26.621  30.880  1.00  0.00     0.060 A 
BRANCH  92  93
ATOM     93  S   UNL A   1      52.301  26.276  31.217  1.00  0.00     0.124 S 
ATOM     94  O   UNL A   1      52.621  27.307  32.198  1.00  0.00    -0.237 OA
ATOM     95  O   UNL A   1      52.258  24.908  31.725  1.00  0.00    -0.237 OA
ATOM     96  O   UNL A   1      52.936  26.432  29.911  1.00  0.00    -0.744 OA
ENDBRANCH  92  93
ENDBRANCH  60  85
ENDBRANCH  34  35
ENDBRANCH  26  29
ENDBRANCH  24  25
ENDBRANCH   1  24
TORSDOF 15
ENDMDL
MODEL 3
REMARK VINA RESULT:     -11.6      4.950     10.444
REMARK SMILES Cc1cc(Br)cc2c1O[C@H](C(F)(F)F)C(C(=O)NCCCCNC(=O)c1ccc(-c3c4nc(c(-c5c(F)cc(S(=O)(=O)[O-])cc5F)c5ccc([nH]5)c(-c5c(F)cc(S(=O)(=O)[O-])cc5F)c5nc(c(-c6c(F)cc(S(=O)(=O)[O-])cc6F)c6ccc3[nH]6)C=C5)C=C4)cc1)=C2
REMARK SMILES IDX 21 1 20 2 19 3 18 4 16 5 17 6 15 8 1 9 2 10 3 11 8 12 4 13
REMARK SMILES IDX 7 14 9 15 5 16 6 17 92 18 10 19 11 20 12 21 13 22 14 23
REMARK SMILES IDX 22 24 23 25 24 26 25 28 26 29 27 30 91 31 28 32 90 33 29 34
REMARK SMILES IDX 30 35 31 36 84 37 32 38 89 39 83 40 85 41 33 42 88 43 82 44
REMARK SMILES IDX 81 45 34 47 68 48 47 49 67 50 48 51 51 52 66 53 86 54 49 55
REMARK SMILES IDX 50 56 65 58 87 59 52 60 35 61 36 62 45 63 37 64 38 65 44 66
REMARK SMILES IDX 46 67 39 68 40 69 41 70 42 71 43 72 69 73 70 74 79 75 71 76
REMARK SMILES IDX 72 77 78 78 80 79 73 80 74 81 75 82 76 83 77 84 53 85 54 86
REMARK SMILES IDX 63 87 55 88 56 89 62 90 64 91 57 92 58 93 59 94 60 95 61 96
REMARK H PARENT 18 7 23 27 85 46 51 57
REMARK Flexibility Score: inf
ROOT
ATOM      1  C   UNL A   1      37.305  23.665  25.250  1.00  0.00     0.023 C 
ENDROOT
BRANCH   1   2
ATOM      2  C   UNL A   1      37.446  22.215  24.778  1.00  0.00     0.023 C 
BRANCH   2   3
ATOM      3  C   UNL A   1      36.886  21.181  25.751  1.00  0.00     0.116 C 
BRANCH   3   4
ATOM      4  N   UNL A   1      35.847  20.368  25.145  1.00  0.00    -0.352 N 
ATOM      5  C   UNL A   1      34.555  20.528  24.776  1.00  0.00     0.251 C 
ATOM      6  O   UNL A   1      34.023  19.534  24.273  1.00  0.00    -0.270 OA
ATOM      7  H   UNL A   1      36.168  19.458  24.950  1.00  0.00     0.163 HD
BRANCH   5   8
ATOM      8  C   UNL A   1      33.759  21.782  24.933  1.00  0.00     0.067 C 
ATOM      9  C   UNL A   1      30.260  25.394  25.988  1.00  0.00     0.048 C 
ATOM     10  C   UNL A   1      31.441  25.295  25.067  1.00  0.00    -0.007 A 
ATOM     11  C   UNL A   1      31.826  26.392  24.285  1.00  0.00     0.023 A 
ATOM     12  C   UNL A   1      32.187  24.110  24.981  1.00  0.00     0.130 A 
ATOM     13  C   UNL A   1      32.925  26.293  23.431  1.00  0.00     0.019 A 
ATOM     14  C   UNL A   1      33.284  24.008  24.119  1.00  0.00     0.019 A 
ATOM     15  O   UNL A   1      31.769  23.048  25.736  1.00  0.00    -0.475 OA
ATOM     16  Br  UNL A   1      33.425  27.782  22.377  1.00  0.00    -0.051 Br
ATOM     17  C   UNL A   1      33.653  25.107  23.339  1.00  0.00     0.027 A 
ATOM     18  C   UNL A   1      33.999  22.742  24.020  1.00  0.00     0.025 C 
ATOM     19  C   UNL A   1      32.771  22.037  26.036  1.00  0.00     0.314 C 
BRANCH  19  20
ATOM     20  C   UNL A   1      33.451  22.375  27.376  1.00  0.00     0.429 C 
ATOM     21  F   UNL A   1      33.990  21.258  27.927  1.00  0.00    -0.167 F 
ATOM     22  F   UNL A   1      34.462  23.263  27.237  1.00  0.00    -0.167 F 
ATOM     23  F   UNL A   1      32.590  22.895  28.281  1.00  0.00    -0.167 F 
ENDBRANCH  19  20
ENDBRANCH   5   8
ENDBRANCH   3   4
ENDBRANCH   2   3
ENDBRANCH   1   2
BRANCH   1  24
ATOM     24  C   UNL A   1      38.226  24.078  26.399  1.00  0.00     0.116 C 
BRANCH  24  25
ATOM     25  N   UNL A   1      39.641  23.863  26.129  1.00  0.00    -0.352 N 
ATOM     26  C   UNL A   1      40.707  24.599  26.591  1.00  0.00     0.251 C 
ATOM     27  H   UNL A   1      39.860  23.101  25.546  1.00  0.00     0.163 HD
ATOM     28  O   UNL A   1      41.849  24.345  26.223  1.00  0.00    -0.269 OA
BRANCH  26  29
ATOM     29  C   UNL A   1      40.443  25.730  27.500  1.00  0.00     0.039 A 
ATOM     30  C   UNL A   1      39.516  25.562  28.531  1.00  0.00     0.014 A 
ATOM     31  C   UNL A   1      41.176  26.915  27.383  1.00  0.00     0.014 A 
ATOM     32  C   UNL A   1      39.383  26.557  29.501  1.00  0.00     0.010 A 
ATOM     33  C   UNL A   1      41.079  27.880  28.378  1.00  0.00     0.010 A 
ATOM     34  C   UNL A   1      40.196  27.701  29.455  1.00  0.00    -0.014 A 
BRANCH  34  35
ATOM     35  C   UNL A   1      40.164  28.711  30.540  1.00  0.00     0.031 A 
ATOM     36  C   UNL A   1      41.082  28.577  31.719  1.00  0.00     0.074 A 
ATOM     37  C   UNL A   1      39.256  29.706  30.491  1.00  0.00     0.049 A 
ATOM     38  N   UNL A   1      41.132  29.296  32.810  1.00  0.00    -0.248 NA
ATOM     39  C   UNL A   1      42.056  27.475  31.676  1.00  0.00     0.031 C 
ATOM     40  C   UNL A   1      38.290  29.918  29.411  1.00  0.00     0.029 A 
ATOM     41  N   UNL A   1      38.991  30.721  31.375  1.00  0.00    -0.354 N 
ATOM     42  C   UNL A   1      42.133  28.731  33.589  1.00  0.00     0.074 A 
ATOM     43  C   UNL A   1      42.637  27.583  32.864  1.00  0.00     0.031 C 
ATOM     44  C   UNL A   1      37.554  31.009  29.686  1.00  0.00     0.029 A 
ATOM     45  C   UNL A   1      37.971  31.551  30.975  1.00  0.00     0.049 A 
ATOM     46  H   UNL A   1      39.485  30.843  32.218  1.00  0.00     0.167 HD
ATOM     47  C   UNL A   1      42.605  29.144  34.788  1.00  0.00     0.037 A 
ATOM     48  C   UNL A   1      37.432  32.627  31.581  1.00  0.00     0.037 A 
ATOM     49  C   UNL A   1      42.114  30.298  35.495  1.00  0.00     0.049 A 
ATOM     50  C   UNL A   1      37.973  33.066  32.911  1.00  0.00     0.074 A 
ATOM     51  C   UNL A   1      42.538  30.810  36.708  1.00  0.00     0.029 A 
ATOM     52  N   UNL A   1      41.094  31.125  35.047  1.00  0.00    -0.354 N 
ATOM     53  N   UNL A   1      38.931  32.528  33.628  1.00  0.00    -0.248 NA
ATOM     54  C   UNL A   1      37.363  34.258  33.518  1.00  0.00     0.031 C 
ATOM     55  C   UNL A   1      41.762  31.936  37.004  1.00  0.00     0.029 A 
ATOM     56  C   UNL A   1      40.876  32.143  35.959  1.00  0.00     0.049 A 
ATOM     57  H   UNL A   1      40.600  31.005  34.204  1.00  0.00     0.167 HD
ATOM     58  C   UNL A   1      39.056  33.329  34.757  1.00  0.00     0.074 A 
ATOM     59  C   UNL A   1      38.078  34.391  34.626  1.00  0.00     0.031 C 
ATOM     60  C   UNL A   1      39.904  33.197  35.805  1.00  0.00     0.037 A 
BRANCH  47  61
ATOM     61  C   UNL A   1      43.718  28.346  35.404  1.00  0.00     0.058 A 
ATOM     62  C   UNL A   1      45.062  28.629  35.119  1.00  0.00     0.135 A 
ATOM     63  C   UNL A   1      43.443  27.307  36.308  1.00  0.00     0.135 A 
ATOM     64  F   UNL A   1      45.377  29.600  34.246  1.00  0.00    -0.206 F 
ATOM     65  C   UNL A   1      46.097  27.896  35.688  1.00  0.00     0.059 A 
ATOM     66  C   UNL A   1      44.463  26.575  36.907  1.00  0.00     0.059 A 
ATOM     67  F   UNL A   1      42.173  26.994  36.612  1.00  0.00    -0.206 F 
ATOM     68  C   UNL A   1      45.787  26.869  36.580  1.00  0.00     0.060 A 
BRANCH  68  69
ATOM     69  S   UNL A   1      47.141  25.927  37.314  1.00  0.00     0.124 S 
ATOM     70  O   UNL A   1      48.293  26.475  36.605  1.00  0.00    -0.237 OA
ATOM     71  O   UNL A   1      47.039  26.280  38.726  1.00  0.00    -0.237 OA
ATOM     72  O   UNL A   1      46.806  24.543  36.992  1.00  0.00    -0.744 OA
ENDBRANCH  68  69
ENDBRANCH  47  61
BRANCH  48  73
ATOM     73  C   UNL A   1      36.343  33.382  30.910  1.00  0.00     0.058 A 
ATOM     74  C   UNL A   1      35.029  33.323  31.396  1.00  0.00     0.135 A 
ATOM     75  C   UNL A   1      36.595  34.200  29.798  1.00  0.00     0.135 A 
ATOM     76  F   UNL A   1      34.741  32.549  32.454  1.00  0.00    -0.206 F 
ATOM     77  C   UNL A   1      34.000  34.047  30.805  1.00  0.00     0.059 A 
ATOM     78  C   UNL A   1      35.586  34.948  29.199  1.00  0.00     0.059 A 
ATOM     79  F   UNL A   1      37.839  34.302  29.307  1.00  0.00    -0.206 F 
ATOM     80  C   UNL A   1      34.290  34.860  29.708  1.00  0.00     0.060 A 
BRANCH  80  81
ATOM     81  S   UNL A   1      32.959  35.849  28.991  1.00  0.00     0.124 S 
ATOM     82  O   UNL A   1      33.704  36.940  28.371  1.00  0.00    -0.237 OA
ATOM     83  O   UNL A   1      32.332  34.903  28.074  1.00  0.00    -0.237 OA
ATOM     84  O   UNL A   1      32.151  36.215  30.151  1.00  0.00    -0.744 OA
ENDBRANCH  80  81
ENDBRANCH  48  73
BRANCH  60  85
ATOM     85  C   UNL A   1      39.839  34.241  36.883  1.00  0.00     0.058 A 
ATOM     86  C   UNL A   1      40.523  35.460  36.766  1.00  0.00     0.135 A 
ATOM     87  C   UNL A   1      39.033  34.042  38.014  1.00  0.00     0.135 A 
ATOM     88  F   UNL A   1      41.312  35.693  35.705  1.00  0.00    -0.206 F 
ATOM     89  C   UNL A   1      40.418  36.445  37.741  1.00  0.00     0.059 A 
ATOM     90  C   UNL A   1      38.898  35.021  38.993  1.00  0.00     0.059 A 
ATOM     91  F   UNL A   1      38.353  32.894  38.167  1.00  0.00    -0.206 F 
ATOM     92  C   UNL A   1      39.601  36.216  38.851  1.00  0.00     0.060 A 
BRANCH  92  93
ATOM     93  S   UNL A   1      39.439  37.520  40.089  1.00  0.00     0.124 S 
ATOM     94  O   UNL A   1      40.762  38.133  40.046  1.00  0.00    -0.237 OA
ATOM     95  O   UNL A   1      38.347  38.328  39.554  1.00  0.00    -0.237 OA
ATOM     96  O   UNL A   1      39.125  36.788  41.314  1.00  0.00    -0.744 OA
ENDBRANCH  92  93
ENDBRANCH  60  85
ENDBRANCH  34  35
ENDBRANCH  26  29
ENDBRANCH  24  25
ENDBRANCH   1  24
TORSDOF 15
ENDMDL
