MODEL 1
REMARK VINA RESULT:     -11.5      0.000      0.000
REMARK SMILES CCc1sc(NC(=O)[C@H]2CC(C)=C(C)C[C@H]2C(=O)NCCCCNC(=O)c2ccc(-c3c4nc(c(-c5c(F)cc(S(=O)(=O)[O-])cc5F)c5ccc([nH]5)c(-c5c(F)cc(S(=O)(=O)[O-])cc5F)c5nc(c(-c6c(F)cc(S(=O)(=O)[O-])cc6F)c6ccc3[nH]6)C=C5)C=C4)cc2)nc1-c1ccccc1
REMARK SMILES IDX 21 1 20 2 19 3 17 4 18 5 16 7 9 8 10 9 11 10 15 11 12 12
REMARK SMILES IDX 13 13 14 14 7 15 6 16 8 18 5 19 3 20 4 21 94 22 93 23 2 24
REMARK SMILES IDX 1 25 95 26 96 27 100 28 97 29 99 30 98 31 22 32 23 33 24 34
REMARK SMILES IDX 25 35 26 37 27 38 28 39 92 40 29 41 91 42 30 43 31 44 32 45
REMARK SMILES IDX 85 46 33 47 90 48 84 49 86 50 34 51 89 52 83 53 82 54 35 56
REMARK SMILES IDX 69 57 48 58 68 59 49 60 52 61 67 62 87 63 50 64 51 65 66 67
REMARK SMILES IDX 88 68 53 69 36 70 37 71 46 72 38 73 39 74 45 75 47 76 40 77
REMARK SMILES IDX 41 78 42 79 43 80 44 81 70 82 71 83 80 84 72 85 73 86 79 87
REMARK SMILES IDX 81 88 74 89 75 90 76 91 77 92 78 93 54 94 55 95 64 96 56 97
REMARK SMILES IDX 57 98 63 99 65 100 58 101 59 102 60 103 61 104 62 105
REMARK H PARENT 19 6 6 17 24 36 86 55 52 66
REMARK Flexibility Score: inf
ROOT
ATOM      1  C   UNL A   1      46.985  40.248  27.926  1.00  0.00     0.023 C 
ENDROOT
BRANCH   1   2
ATOM      2  C   UNL A   1      46.502  41.261  26.895  1.00  0.00     0.116 C 
BRANCH   2   3
ATOM      3  N   UNL A   1      46.562  40.768  25.542  1.00  0.00    -0.356 N 
ATOM      4  C   UNL A   1      46.683  41.412  24.356  1.00  0.00     0.224 C 
ATOM      5  O   UNL A   1      46.991  40.713  23.381  1.00  0.00    -0.275 OA
ATOM      6  H   UNL A   1      46.504  39.788  25.466  1.00  0.00     0.163 HD
BRANCH   4   7
ATOM      7  C   UNL A   1      46.557  42.934  24.178  1.00  0.00     0.095 C 
ATOM      8  C   UNL A   1      45.166  43.618  24.289  1.00  0.00     0.095 C 
ATOM      9  C   UNL A   1      44.927  44.273  25.663  1.00  0.00     0.045 C 
ATOM     10  C   UNL A   1      46.103  44.645  26.528  1.00  0.00    -0.074 C 
ATOM     11  C   UNL A   1      47.709  43.652  24.898  1.00  0.00     0.045 C 
ATOM     12  C   UNL A   1      45.701  45.334  27.811  1.00  0.00     0.039 C 
ATOM     13  C   UNL A   1      47.373  44.362  26.183  1.00  0.00    -0.074 C 
ATOM     14  C   UNL A   1      48.548  44.682  27.070  1.00  0.00     0.039 C 
BRANCH   8  15
ATOM     15  C   UNL A   1      44.027  42.681  23.799  1.00  0.00     0.230 C 
ATOM     16  N   UNL A   1      43.474  42.705  22.559  1.00  0.00    -0.302 N 
ATOM     17  H   UNL A   1      42.585  42.284  22.516  1.00  0.00     0.172 HD
ATOM     18  O   UNL A   1      43.546  41.834  24.560  1.00  0.00    -0.274 OA
BRANCH  16  19
ATOM     19  C   UNL A   1      43.903  43.196  21.364  1.00  0.00     0.190 A 
ATOM     20  C   UNL A   1      45.239  44.035  19.556  1.00  0.00     0.034 A 
ATOM     21  S   UNL A   1      45.424  42.793  20.730  1.00  0.00    -0.101 S 
ATOM     22  C   UNL A   1      43.885  44.345  19.490  1.00  0.00     0.087 A 
ATOM     23  N   UNL A   1      43.129  43.875  20.553  1.00  0.00    -0.220 NA
BRANCH  20  24
ATOM     24  C   UNL A   1      46.407  44.636  18.830  1.00  0.00     0.046 C 
ATOM     25  C   UNL A   1      47.255  45.602  19.640  1.00  0.00     0.010 C 
ENDBRANCH  20  24
BRANCH  22  26
ATOM     26  C   UNL A   1      43.291  45.152  18.436  1.00  0.00     0.001 A 
ATOM     27  C   UNL A   1      42.538  44.531  17.427  1.00  0.00     0.010 A 
ATOM     28  C   UNL A   1      43.436  46.542  18.422  1.00  0.00     0.010 A 
ATOM     29  C   UNL A   1      41.975  45.284  16.396  1.00  0.00     0.001 A 
ATOM     30  C   UNL A   1      42.871  47.294  17.389  1.00  0.00     0.001 A 
ATOM     31  C   UNL A   1      42.148  46.666  16.374  1.00  0.00     0.000 A 
ENDBRANCH  22  26
ENDBRANCH  16  19
ENDBRANCH   8  15
ENDBRANCH   4   7
ENDBRANCH   2   3
ENDBRANCH   1   2
BRANCH   1  32
ATOM     32  C   UNL A   1      45.923  39.262  28.396  1.00  0.00     0.023 C 
BRANCH  32  33
ATOM     33  C   UNL A   1      46.326  37.796  28.303  1.00  0.00     0.116 C 
BRANCH  33  34
ATOM     34  N   UNL A   1      47.696  37.537  28.731  1.00  0.00    -0.352 N 
ATOM     35  C   UNL A   1      48.284  36.315  28.960  1.00  0.00     0.251 C 
ATOM     36  H   UNL A   1      48.264  38.327  28.873  1.00  0.00     0.163 HD
ATOM     37  O   UNL A   1      49.429  36.236  29.394  1.00  0.00    -0.269 OA
BRANCH  35  38
ATOM     38  C   UNL A   1      47.481  35.104  28.712  1.00  0.00     0.039 A 
ATOM     39  C   UNL A   1      47.051  34.833  27.412  1.00  0.00     0.014 A 
ATOM     40  C   UNL A   1      47.283  34.183  29.743  1.00  0.00     0.014 A 
ATOM     41  C   UNL A   1      46.496  33.587  27.125  1.00  0.00     0.010 A 
ATOM     42  C   UNL A   1      46.797  32.918  29.439  1.00  0.00     0.010 A 
ATOM     43  C   UNL A   1      46.413  32.604  28.125  1.00  0.00    -0.014 A 
BRANCH  43  44
ATOM     44  C   UNL A   1      45.953  31.228  27.826  1.00  0.00     0.031 A 
ATOM     45  C   UNL A   1      44.517  30.855  28.067  1.00  0.00     0.074 A 
ATOM     46  C   UNL A   1      46.845  30.293  27.441  1.00  0.00     0.049 A 
ATOM     47  N   UNL A   1      43.948  29.681  28.005  1.00  0.00    -0.248 NA
ATOM     48  C   UNL A   1      43.611  31.946  28.464  1.00  0.00     0.031 C 
ATOM     49  C   UNL A   1      48.276  30.524  27.223  1.00  0.00     0.029 A 
ATOM     50  N   UNL A   1      46.684  28.955  27.183  1.00  0.00    -0.354 N 
ATOM     51  C   UNL A   1      42.625  29.886  28.379  1.00  0.00     0.074 A 
ATOM     52  C   UNL A   1      42.487  31.288  28.706  1.00  0.00     0.031 C 
ATOM     53  C   UNL A   1      48.857  29.371  26.853  1.00  0.00     0.029 A 
ATOM     54  C   UNL A   1      47.852  28.313  26.844  1.00  0.00     0.049 A 
ATOM     55  H   UNL A   1      45.814  28.498  27.234  1.00  0.00     0.167 HD
ATOM     56  C   UNL A   1      41.614  28.987  28.424  1.00  0.00     0.037 A 
ATOM     57  C   UNL A   1      48.088  27.015  26.573  1.00  0.00     0.037 A 
ATOM     58  C   UNL A   1      41.751  27.603  28.058  1.00  0.00     0.049 A 
ATOM     59  C   UNL A   1      46.947  26.036  26.624  1.00  0.00     0.074 A 
ATOM     60  C   UNL A   1      40.770  26.630  27.992  1.00  0.00     0.029 A 
ATOM     61  N   UNL A   1      42.944  26.996  27.695  1.00  0.00    -0.354 N 
ATOM     62  N   UNL A   1      45.687  26.258  26.917  1.00  0.00    -0.248 NA
ATOM     63  C   UNL A   1      47.256  24.634  26.314  1.00  0.00     0.031 C 
ATOM     64  C   UNL A   1      41.376  25.426  27.618  1.00  0.00     0.029 A 
ATOM     65  C   UNL A   1      42.729  25.657  27.422  1.00  0.00     0.049 A 
ATOM     66  H   UNL A   1      43.816  27.451  27.641  1.00  0.00     0.167 HD
ATOM     67  C   UNL A   1      45.051  25.026  26.812  1.00  0.00     0.074 A 
ATOM     68  C   UNL A   1      46.062  24.066  26.417  1.00  0.00     0.031 C 
ATOM     69  C   UNL A   1      43.748  24.719  27.026  1.00  0.00     0.037 A 
BRANCH  56  70
ATOM     70  C   UNL A   1      40.270  29.482  28.875  1.00  0.00     0.058 A 
ATOM     71  C   UNL A   1      39.232  29.718  27.960  1.00  0.00     0.135 A 
ATOM     72  C   UNL A   1      40.010  29.706  30.236  1.00  0.00     0.135 A 
ATOM     73  F   UNL A   1      39.434  29.537  26.645  1.00  0.00    -0.206 F 
ATOM     74  C   UNL A   1      37.992  30.191  28.375  1.00  0.00     0.059 A 
ATOM     75  C   UNL A   1      38.769  30.156  30.676  1.00  0.00     0.059 A 
ATOM     76  F   UNL A   1      40.970  29.498  31.151  1.00  0.00    -0.206 F 
ATOM     77  C   UNL A   1      37.771  30.410  29.735  1.00  0.00     0.060 A 
BRANCH  77  78
ATOM     78  S   UNL A   1      36.158  31.028  30.260  1.00  0.00     0.124 S 
ATOM     79  O   UNL A   1      35.936  30.258  31.481  1.00  0.00    -0.237 OA
ATOM     80  O   UNL A   1      36.413  32.453  30.448  1.00  0.00    -0.237 OA
ATOM     81  O   UNL A   1      35.285  30.694  29.140  1.00  0.00    -0.744 OA
ENDBRANCH  77  78
ENDBRANCH  56  70
BRANCH  57  82
ATOM     82  C   UNL A   1      49.460  26.568  26.217  1.00  0.00     0.058 A 
ATOM     83  C   UNL A   1      49.949  26.724  24.912  1.00  0.00     0.135 A 
ATOM     84  C   UNL A   1      50.315  25.996  27.172  1.00  0.00     0.135 A 
ATOM     85  F   UNL A   1      49.165  27.260  23.963  1.00  0.00    -0.206 F 
ATOM     86  C   UNL A   1      51.232  26.321  24.561  1.00  0.00     0.059 A 
ATOM     87  C   UNL A   1      51.611  25.603  26.850  1.00  0.00     0.059 A 
ATOM     88  F   UNL A   1      49.898  25.839  28.438  1.00  0.00    -0.206 F 
ATOM     89  C   UNL A   1      52.058  25.762  25.538  1.00  0.00     0.060 A 
BRANCH  89  90
ATOM     90  S   UNL A   1      53.743  25.293  25.087  1.00  0.00     0.124 S 
ATOM     91  O   UNL A   1      54.519  25.937  26.141  1.00  0.00    -0.237 OA
ATOM     92  O   UNL A   1      53.681  23.836  25.141  1.00  0.00    -0.237 OA
ATOM     93  O   UNL A   1      53.900  25.857  23.751  1.00  0.00    -0.744 OA
ENDBRANCH  89  90
ENDBRANCH  57  82
BRANCH  69  94
ATOM     94  C   UNL A   1      43.333  23.291  26.825  1.00  0.00     0.058 A 
ATOM     95  C   UNL A   1      43.256  22.728  25.542  1.00  0.00     0.135 A 
ATOM     96  C   UNL A   1      43.091  22.457  27.927  1.00  0.00     0.135 A 
ATOM     97  F   UNL A   1      43.471  23.488  24.457  1.00  0.00    -0.206 F 
ATOM     98  C   UNL A   1      42.949  21.384  25.359  1.00  0.00     0.059 A 
ATOM     99  C   UNL A   1      42.801  21.106  27.768  1.00  0.00     0.059 A 
ATOM    100  F   UNL A   1      43.159  22.949  29.175  1.00  0.00    -0.206 F 
ATOM    101  C   UNL A   1      42.728  20.580  26.479  1.00  0.00     0.060 A 
BRANCH 101 102
ATOM    102  S   UNL A   1      42.395  18.822  26.232  1.00  0.00     0.124 S 
ATOM    103  O   UNL A   1      42.635  18.288  27.567  1.00  0.00    -0.237 OA
ATOM    104  O   UNL A   1      41.003  18.825  25.791  1.00  0.00    -0.237 OA
ATOM    105  O   UNL A   1      43.366  18.433  25.213  1.00  0.00    -0.744 OA
ENDBRANCH 101 102
ENDBRANCH  69  94
ENDBRANCH  43  44
ENDBRANCH  35  38
ENDBRANCH  33  34
ENDBRANCH  32  33
ENDBRANCH   1  32
TORSDOF 18
ENDMDL
MODEL 2
REMARK VINA RESULT:     -11.4      6.678     13.066
REMARK SMILES CCc1sc(NC(=O)[C@H]2CC(C)=C(C)C[C@H]2C(=O)NCCCCNC(=O)c2ccc(-c3c4nc(c(-c5c(F)cc(S(=O)(=O)[O-])cc5F)c5ccc([nH]5)c(-c5c(F)cc(S(=O)(=O)[O-])cc5F)c5nc(c(-c6c(F)cc(S(=O)(=O)[O-])cc6F)c6ccc3[nH]6)C=C5)C=C4)cc2)nc1-c1ccccc1
REMARK SMILES IDX 21 1 20 2 19 3 17 4 18 5 16 7 9 8 10 9 11 10 15 11 12 12
REMARK SMILES IDX 13 13 14 14 7 15 6 16 8 18 5 19 3 20 4 21 94 22 93 23 2 24
REMARK SMILES IDX 1 25 95 26 96 27 100 28 97 29 99 30 98 31 22 32 23 33 24 34
REMARK SMILES IDX 25 35 26 37 27 38 28 39 92 40 29 41 91 42 30 43 31 44 32 45
REMARK SMILES IDX 85 46 33 47 90 48 84 49 86 50 34 51 89 52 83 53 82 54 35 56
REMARK SMILES IDX 69 57 48 58 68 59 49 60 52 61 67 62 87 63 50 64 51 65 66 67
REMARK SMILES IDX 88 68 53 69 36 70 37 71 46 72 38 73 39 74 45 75 47 76 40 77
REMARK SMILES IDX 41 78 42 79 43 80 44 81 70 82 71 83 80 84 72 85 73 86 79 87
REMARK SMILES IDX 81 88 74 89 75 90 76 91 77 92 78 93 54 94 55 95 64 96 56 97
REMARK SMILES IDX 57 98 63 99 65 100 58 101 59 102 60 103 61 104 62 105
REMARK H PARENT 19 6 6 17 24 36 86 55 52 66
REMARK Flexibility Score: inf
ROOT
ATOM      1  C   UNL A   1      36.881  32.073  32.777  1.00  0.00     0.023 C 
ENDROOT
BRANCH   1   2
ATOM      2  C   UNL A   1      37.233  32.621  34.155  1.00  0.00     0.116 C 
BRANCH   2   3
ATOM      3  N   UNL A   1      37.402  31.593  35.149  1.00  0.00    -0.356 N 
ATOM      4  C   UNL A   1      38.516  31.043  35.692  1.00  0.00     0.224 C 
ATOM      5  O   UNL A   1      38.353  30.381  36.726  1.00  0.00    -0.275 OA
ATOM      6  H   UNL A   1      36.559  31.222  35.495  1.00  0.00     0.163 HD
BRANCH   4   7
ATOM      7  C   UNL A   1      39.942  31.271  35.164  1.00  0.00     0.095 C 
ATOM      8  C   UNL A   1      40.393  30.612  33.831  1.00  0.00     0.095 C 
ATOM      9  C   UNL A   1      40.344  31.581  32.635  1.00  0.00     0.045 C 
ATOM     10  C   UNL A   1      40.381  33.068  32.876  1.00  0.00    -0.074 C 
ATOM     11  C   UNL A   1      40.350  32.741  35.349  1.00  0.00     0.045 C 
ATOM     12  C   UNL A   1      40.389  33.875  31.600  1.00  0.00     0.039 C 
ATOM     13  C   UNL A   1      40.382  33.601  34.112  1.00  0.00    -0.074 C 
ATOM     14  C   UNL A   1      40.362  35.087  34.358  1.00  0.00     0.039 C 
BRANCH   8  15
ATOM     15  C   UNL A   1      39.688  29.246  33.602  1.00  0.00     0.230 C 
ATOM     16  N   UNL A   1      40.323  28.060  33.412  1.00  0.00    -0.302 N 
ATOM     17  H   UNL A   1      39.761  27.378  32.978  1.00  0.00     0.172 HD
ATOM     18  O   UNL A   1      38.454  29.179  33.574  1.00  0.00    -0.274 OA
BRANCH  16  19
ATOM     19  C   UNL A   1      41.581  27.629  33.700  1.00  0.00     0.190 A 
ATOM     20  C   UNL A   1      43.577  26.906  34.819  1.00  0.00     0.034 A 
ATOM     21  S   UNL A   1      41.895  26.619  35.026  1.00  0.00    -0.101 S 
ATOM     22  C   UNL A   1      43.760  27.387  33.527  1.00  0.00     0.087 A 
ATOM     23  N   UNL A   1      42.602  27.823  32.901  1.00  0.00    -0.220 NA
BRANCH  20  24
ATOM     24  C   UNL A   1      44.573  26.689  35.920  1.00  0.00     0.046 C 
ATOM     25  C   UNL A   1      44.859  25.238  36.269  1.00  0.00     0.010 C 
ENDBRANCH  20  24
BRANCH  22  26
ATOM     26  C   UNL A   1      45.058  27.496  32.881  1.00  0.00     0.001 A 
ATOM     27  C   UNL A   1      45.719  26.336  32.449  1.00  0.00     0.010 A 
ATOM     28  C   UNL A   1      45.651  28.743  32.659  1.00  0.00     0.010 A 
ATOM     29  C   UNL A   1      46.973  26.417  31.844  1.00  0.00     0.001 A 
ATOM     30  C   UNL A   1      46.908  28.821  32.052  1.00  0.00     0.001 A 
ATOM     31  C   UNL A   1      47.570  27.660  31.652  1.00  0.00     0.000 A 
ENDBRANCH  22  26
ENDBRANCH  16  19
ENDBRANCH   8  15
ENDBRANCH   4   7
ENDBRANCH   2   3
ENDBRANCH   1   2
BRANCH   1  32
ATOM     32  C   UNL A   1      36.723  33.131  31.691  1.00  0.00     0.023 C 
BRANCH  32  33
ATOM     33  C   UNL A   1      36.939  32.627  30.271  1.00  0.00     0.116 C 
BRANCH  33  34
ATOM     34  N   UNL A   1      35.787  31.922  29.718  1.00  0.00    -0.352 N 
ATOM     35  C   UNL A   1      35.781  30.713  29.063  1.00  0.00     0.251 C 
ATOM     36  H   UNL A   1      34.914  32.363  29.826  1.00  0.00     0.163 HD
ATOM     37  O   UNL A   1      34.749  30.263  28.576  1.00  0.00    -0.269 OA
BRANCH  35  38
ATOM     38  C   UNL A   1      37.062  29.997  28.924  1.00  0.00     0.039 A 
ATOM     39  C   UNL A   1      37.659  29.917  27.664  1.00  0.00     0.014 A 
ATOM     40  C   UNL A   1      37.723  29.534  30.064  1.00  0.00     0.014 A 
ATOM     41  C   UNL A   1      38.968  29.451  27.559  1.00  0.00     0.010 A 
ATOM     42  C   UNL A   1      39.051  29.137  29.965  1.00  0.00     0.010 A 
ATOM     43  C   UNL A   1      39.689  29.107  28.715  1.00  0.00    -0.014 A 
BRANCH  43  44
ATOM     44  C   UNL A   1      41.122  28.734  28.654  1.00  0.00     0.031 A 
ATOM     45  C   UNL A   1      42.174  29.788  28.854  1.00  0.00     0.074 A 
ATOM     46  C   UNL A   1      41.471  27.476  28.317  1.00  0.00     0.049 A 
ATOM     47  N   UNL A   1      43.468  29.701  28.704  1.00  0.00    -0.248 NA
ATOM     48  C   UNL A   1      41.700  31.127  29.243  1.00  0.00     0.031 C 
ATOM     49  C   UNL A   1      40.538  26.379  28.048  1.00  0.00     0.029 A 
ATOM     50  N   UNL A   1      42.707  26.913  28.122  1.00  0.00    -0.354 N 
ATOM     51  C   UNL A   1      43.962  30.975  28.953  1.00  0.00     0.074 A 
ATOM     52  C   UNL A   1      42.824  31.827  29.224  1.00  0.00     0.031 C 
ATOM     53  C   UNL A   1      41.235  25.274  27.736  1.00  0.00     0.029 A 
ATOM     54  C   UNL A   1      42.659  25.591  27.744  1.00  0.00     0.049 A 
ATOM     55  H   UNL A   1      43.550  27.408  28.241  1.00  0.00     0.167 HD
ATOM     56  C   UNL A   1      45.250  31.391  28.975  1.00  0.00     0.037 A 
ATOM     57  C   UNL A   1      43.651  24.737  27.426  1.00  0.00     0.037 A 
ATOM     58  C   UNL A   1      46.377  30.529  28.744  1.00  0.00     0.049 A 
ATOM     59  C   UNL A   1      45.075  25.221  27.462  1.00  0.00     0.074 A 
ATOM     60  C   UNL A   1      47.724  30.835  28.824  1.00  0.00     0.029 A 
ATOM     61  N   UNL A   1      46.289  29.190  28.391  1.00  0.00    -0.354 N 
ATOM     62  N   UNL A   1      45.529  26.415  27.764  1.00  0.00    -0.248 NA
ATOM     63  C   UNL A   1      46.119  24.249  27.113  1.00  0.00     0.031 C 
ATOM     64  C   UNL A   1      48.451  29.687  28.487  1.00  0.00     0.029 A 
ATOM     65  C   UNL A   1      47.557  28.660  28.229  1.00  0.00     0.049 A 
ATOM     66  H   UNL A   1      45.448  28.692  28.272  1.00  0.00     0.167 HD
ATOM     67  C   UNL A   1      46.913  26.333  27.654  1.00  0.00     0.074 A 
ATOM     68  C   UNL A   1      47.222  24.970  27.271  1.00  0.00     0.031 C 
ATOM     69  C   UNL A   1      47.842  27.299  27.851  1.00  0.00     0.037 A 
BRANCH  56  70
ATOM     70  C   UNL A   1      45.502  32.842  29.270  1.00  0.00     0.058 A 
ATOM     71  C   UNL A   1      45.574  33.796  28.243  1.00  0.00     0.135 A 
ATOM     72  C   UNL A   1      45.655  33.288  30.592  1.00  0.00     0.135 A 
ATOM     73  F   UNL A   1      45.452  33.419  26.959  1.00  0.00    -0.206 F 
ATOM     74  C   UNL A   1      45.823  35.137  28.513  1.00  0.00     0.059 A 
ATOM     75  C   UNL A   1      45.881  34.628  30.887  1.00  0.00     0.059 A 
ATOM     76  F   UNL A   1      45.597  32.415  31.610  1.00  0.00    -0.206 F 
ATOM     77  C   UNL A   1      45.979  35.542  29.838  1.00  0.00     0.060 A 
BRANCH  77  78
ATOM     78  S   UNL A   1      46.306  37.286  30.175  1.00  0.00     0.124 S 
ATOM     79  O   UNL A   1      47.765  37.319  30.140  1.00  0.00    -0.237 OA
ATOM     80  O   UNL A   1      45.631  37.952  29.065  1.00  0.00    -0.237 OA
ATOM     81  O   UNL A   1      45.704  37.498  31.488  1.00  0.00    -0.744 OA
ENDBRANCH  77  78
ENDBRANCH  56  70
BRANCH  57  82
ATOM     82  C   UNL A   1      43.333  23.334  27.056  1.00  0.00     0.058 A 
ATOM     83  C   UNL A   1      42.964  22.400  28.036  1.00  0.00     0.135 A 
ATOM     84  C   UNL A   1      43.371  22.901  25.722  1.00  0.00     0.135 A 
ATOM     85  F   UNL A   1      42.920  22.766  29.326  1.00  0.00    -0.206 F 
ATOM     86  C   UNL A   1      42.654  21.085  27.709  1.00  0.00     0.059 A 
ATOM     87  C   UNL A   1      43.045  21.595  25.367  1.00  0.00     0.059 A 
ATOM     88  F   UNL A   1      43.703  23.761  24.746  1.00  0.00    -0.206 F 
ATOM     89  C   UNL A   1      42.695  20.691  26.371  1.00  0.00     0.060 A 
BRANCH  89  90
ATOM     90  S   UNL A   1      42.235  18.996  25.950  1.00  0.00     0.124 S 
ATOM     91  O   UNL A   1      43.028  18.768  24.747  1.00  0.00    -0.237 OA
ATOM     92  O   UNL A   1      42.654  18.259  27.138  1.00  0.00    -0.237 OA
ATOM     93  O   UNL A   1      40.792  19.081  25.751  1.00  0.00    -0.744 OA
ENDBRANCH  89  90
ENDBRANCH  57  82
BRANCH  69  94
ATOM     94  C   UNL A   1      49.283  26.920  27.671  1.00  0.00     0.058 A 
ATOM     95  C   UNL A   1      49.984  27.251  26.502  1.00  0.00     0.135 A 
ATOM     96  C   UNL A   1      49.990  26.293  28.709  1.00  0.00     0.135 A 
ATOM     97  F   UNL A   1      49.348  27.843  25.479  1.00  0.00    -0.206 F 
ATOM     98  C   UNL A   1      51.339  26.971  26.367  1.00  0.00     0.059 A 
ATOM     99  C   UNL A   1      51.350  26.021  28.603  1.00  0.00     0.059 A 
ATOM    100  F   UNL A   1      49.364  25.963  29.851  1.00  0.00    -0.206 F 
ATOM    101  C   UNL A   1      52.014  26.360  27.425  1.00  0.00     0.060 A 
BRANCH 101 102
ATOM    102  S   UNL A   1      53.788  26.060  27.263  1.00  0.00     0.124 S 
ATOM    103  O   UNL A   1      54.196  25.956  28.659  1.00  0.00    -0.237 OA
ATOM    104  O   UNL A   1      53.828  24.818  26.497  1.00  0.00    -0.237 OA
ATOM    105  O   UNL A   1      54.268  27.242  26.553  1.00  0.00    -0.744 OA
ENDBRANCH 101 102
ENDBRANCH  69  94
ENDBRANCH  43  44
ENDBRANCH  35  38
ENDBRANCH  33  34
ENDBRANCH  32  33
ENDBRANCH   1  32
TORSDOF 18
ENDMDL
MODEL 3
REMARK VINA RESULT:     -11.3      7.304     14.884
REMARK SMILES CCc1sc(NC(=O)[C@H]2CC(C)=C(C)C[C@H]2C(=O)NCCCCNC(=O)c2ccc(-c3c4nc(c(-c5c(F)cc(S(=O)(=O)[O-])cc5F)c5ccc([nH]5)c(-c5c(F)cc(S(=O)(=O)[O-])cc5F)c5nc(c(-c6c(F)cc(S(=O)(=O)[O-])cc6F)c6ccc3[nH]6)C=C5)C=C4)cc2)nc1-c1ccccc1
REMARK SMILES IDX 21 1 20 2 19 3 17 4 18 5 16 7 9 8 10 9 11 10 15 11 12 12
REMARK SMILES IDX 13 13 14 14 7 15 6 16 8 18 5 19 3 20 4 21 94 22 93 23 2 24
REMARK SMILES IDX 1 25 95 26 96 27 100 28 97 29 99 30 98 31 22 32 23 33 24 34
REMARK SMILES IDX 25 35 26 37 27 38 28 39 92 40 29 41 91 42 30 43 31 44 32 45
REMARK SMILES IDX 85 46 33 47 90 48 84 49 86 50 34 51 89 52 83 53 82 54 35 56
REMARK SMILES IDX 69 57 48 58 68 59 49 60 52 61 67 62 87 63 50 64 51 65 66 67
REMARK SMILES IDX 88 68 53 69 36 70 37 71 46 72 38 73 39 74 45 75 47 76 40 77
REMARK SMILES IDX 41 78 42 79 43 80 44 81 70 82 71 83 80 84 72 85 73 86 79 87
REMARK SMILES IDX 81 88 74 89 75 90 76 91 77 92 78 93 54 94 55 95 64 96 56 97
REMARK SMILES IDX 57 98 63 99 65 100 58 101 59 102 60 103 61 104 62 105
REMARK H PARENT 19 6 6 17 24 36 86 55 52 66
REMARK Flexibility Score: inf
ROOT
ATOM      1  C   UNL A   1      44.410  22.609  25.134  1.00  0.00     0.023 C 
ENDROOT
BRANCH   1   2
ATOM      2  C   UNL A   1      45.652  22.471  26.006  1.00  0.00     0.116 C 
BRANCH   2   3
ATOM      3  N   UNL A   1      45.577  23.233  27.227  1.00  0.00    -0.356 N 
ATOM      4  C   UNL A   1      46.249  24.335  27.641  1.00  0.00     0.224 C 
ATOM      5  O   UNL A   1      45.775  24.933  28.616  1.00  0.00    -0.275 OA
ATOM      6  H   UNL A   1      44.922  22.892  27.877  1.00  0.00     0.163 HD
BRANCH   4   7
ATOM      7  C   UNL A   1      47.478  24.921  26.926  1.00  0.00     0.095 C 
ATOM      8  C   UNL A   1      47.347  26.231  26.101  1.00  0.00     0.095 C 
ATOM      9  C   UNL A   1      47.837  27.475  26.867  1.00  0.00     0.045 C 
ATOM     10  C   UNL A   1      48.797  27.314  28.016  1.00  0.00    -0.074 C 
ATOM     11  C   UNL A   1      48.716  24.828  27.832  1.00  0.00     0.045 C 
ATOM     12  C   UNL A   1      49.227  28.631  28.618  1.00  0.00     0.039 C 
ATOM     13  C   UNL A   1      49.199  26.109  28.461  1.00  0.00    -0.074 C 
ATOM     14  C   UNL A   1      50.115  25.942  29.645  1.00  0.00     0.039 C 
BRANCH   8  15
ATOM     15  C   UNL A   1      45.938  26.365  25.460  1.00  0.00     0.230 C 
ATOM     16  N   UNL A   1      44.978  27.241  25.857  1.00  0.00    -0.302 N 
ATOM     17  H   UNL A   1      44.071  26.986  25.572  1.00  0.00     0.172 HD
ATOM     18  O   UNL A   1      45.610  25.635  24.517  1.00  0.00    -0.274 OA
BRANCH  16  19
ATOM     19  C   UNL A   1      45.021  28.399  26.570  1.00  0.00     0.190 A 
ATOM     20  C   UNL A   1      44.726  30.097  28.240  1.00  0.00     0.034 A 
ATOM     21  S   UNL A   1      45.005  28.401  28.267  1.00  0.00    -0.101 S 
ATOM     22  C   UNL A   1      45.091  30.558  26.980  1.00  0.00     0.087 A 
ATOM     23  N   UNL A   1      45.235  29.568  26.019  1.00  0.00    -0.220 NA
BRANCH  20  24
ATOM     24  C   UNL A   1      44.141  30.835  29.408  1.00  0.00     0.046 C 
ATOM     25  C   UNL A   1      45.136  31.600  30.265  1.00  0.00     0.010 C 
ENDBRANCH  20  24
BRANCH  22  26
ATOM     26  C   UNL A   1      45.254  31.964  26.649  1.00  0.00     0.001 A 
ATOM     27  C   UNL A   1      46.509  32.573  26.801  1.00  0.00     0.010 A 
ATOM     28  C   UNL A   1      44.184  32.719  26.157  1.00  0.00     0.010 A 
ATOM     29  C   UNL A   1      46.682  33.926  26.508  1.00  0.00     0.001 A 
ATOM     30  C   UNL A   1      44.360  34.074  25.863  1.00  0.00     0.001 A 
ATOM     31  C   UNL A   1      45.605  34.678  26.044  1.00  0.00     0.000 A 
ENDBRANCH  22  26
ENDBRANCH  16  19
ENDBRANCH   8  15
ENDBRANCH   4   7
ENDBRANCH   2   3
ENDBRANCH   1   2
BRANCH   1  32
ATOM     32  C   UNL A   1      43.195  21.832  25.627  1.00  0.00     0.023 C 
BRANCH  32  33
ATOM     33  C   UNL A   1      42.084  22.689  26.217  1.00  0.00     0.116 C 
BRANCH  33  34
ATOM     34  N   UNL A   1      40.751  22.322  25.751  1.00  0.00    -0.352 N 
ATOM     35  C   UNL A   1      39.574  23.000  25.963  1.00  0.00     0.251 C 
ATOM     36  H   UNL A   1      40.687  21.493  25.225  1.00  0.00     0.163 HD
ATOM     37  O   UNL A   1      38.502  22.542  25.580  1.00  0.00    -0.269 OA
BRANCH  35  38
ATOM     38  C   UNL A   1      39.634  24.273  26.705  1.00  0.00     0.039 A 
ATOM     39  C   UNL A   1      38.971  24.373  27.930  1.00  0.00     0.014 A 
ATOM     40  C   UNL A   1      40.459  25.302  26.246  1.00  0.00     0.014 A 
ATOM     41  C   UNL A   1      39.209  25.479  28.744  1.00  0.00     0.010 A 
ATOM     42  C   UNL A   1      40.749  26.367  27.090  1.00  0.00     0.010 A 
ATOM     43  C   UNL A   1      40.139  26.457  28.352  1.00  0.00    -0.014 A 
BRANCH  43  44
ATOM     44  C   UNL A   1      40.515  27.576  29.248  1.00  0.00     0.031 A 
ATOM     45  C   UNL A   1      41.748  27.464  30.099  1.00  0.00     0.074 A 
ATOM     46  C   UNL A   1      39.693  28.637  29.372  1.00  0.00     0.049 A 
ATOM     47  N   UNL A   1      42.173  28.260  31.043  1.00  0.00    -0.248 NA
ATOM     48  C   UNL A   1      42.596  26.281  29.878  1.00  0.00     0.031 C 
ATOM     49  C   UNL A   1      38.441  28.833  28.636  1.00  0.00     0.029 A 
ATOM     50  N   UNL A   1      39.778  29.745  30.178  1.00  0.00    -0.354 N 
ATOM     51  C   UNL A   1      43.322  27.663  31.547  1.00  0.00     0.074 A 
ATOM     52  C   UNL A   1      43.504  26.418  30.833  1.00  0.00     0.031 C 
ATOM     53  C   UNL A   1      37.884  29.994  29.016  1.00  0.00     0.029 A 
ATOM     54  C   UNL A   1      38.714  30.607  30.047  1.00  0.00     0.049 A 
ATOM     55  H   UNL A   1      40.530  29.907  30.793  1.00  0.00     0.167 HD
ATOM     56  C   UNL A   1      44.161  28.123  32.505  1.00  0.00     0.037 A 
ATOM     57  C   UNL A   1      38.434  31.753  30.697  1.00  0.00     0.037 A 
ATOM     58  C   UNL A   1      43.994  29.382  33.182  1.00  0.00     0.049 A 
ATOM     59  C   UNL A   1      39.384  32.247  31.753  1.00  0.00     0.074 A 
ATOM     60  C   UNL A   1      44.831  29.976  34.109  1.00  0.00     0.029 A 
ATOM     61  N   UNL A   1      42.918  30.239  33.003  1.00  0.00    -0.354 N 
ATOM     62  N   UNL A   1      40.501  31.703  32.173  1.00  0.00    -0.248 NA
ATOM     63  C   UNL A   1      39.036  33.505  32.427  1.00  0.00     0.031 C 
ATOM     64  C   UNL A   1      44.245  31.180  34.515  1.00  0.00     0.029 A 
ATOM     65  C   UNL A   1      43.059  31.350  33.817  1.00  0.00     0.049 A 
ATOM     66  H   UNL A   1      42.166  30.080  32.389  1.00  0.00     0.167 HD
ATOM     67  C   UNL A   1      40.996  32.559  33.151  1.00  0.00     0.074 A 
ATOM     68  C   UNL A   1      40.064  33.664  33.250  1.00  0.00     0.031 C 
ATOM     69  C   UNL A   1      42.121  32.440  33.898  1.00  0.00     0.037 A 
BRANCH  56  70
ATOM     70  C   UNL A   1      45.337  27.263  32.865  1.00  0.00     0.058 A 
ATOM     71  C   UNL A   1      45.258  26.305  33.888  1.00  0.00     0.135 A 
ATOM     72  C   UNL A   1      46.551  27.383  32.171  1.00  0.00     0.135 A 
ATOM     73  F   UNL A   1      44.125  26.163  34.595  1.00  0.00    -0.206 F 
ATOM     74  C   UNL A   1      46.351  25.518  34.233  1.00  0.00     0.059 A 
ATOM     75  C   UNL A   1      47.650  26.590  32.482  1.00  0.00     0.059 A 
ATOM     76  F   UNL A   1      46.679  28.286  31.185  1.00  0.00    -0.206 F 
ATOM     77  C   UNL A   1      47.544  25.671  33.526  1.00  0.00     0.060 A 
BRANCH  77  78
ATOM     78  S   UNL A   1      48.958  24.646  33.987  1.00  0.00     0.124 S 
ATOM     79  O   UNL A   1      49.551  25.436  35.063  1.00  0.00    -0.237 OA
ATOM     80  O   UNL A   1      48.321  23.398  34.396  1.00  0.00    -0.237 OA
ATOM     81  O   UNL A   1      49.740  24.573  32.757  1.00  0.00    -0.744 OA
ENDBRANCH  77  78
ENDBRANCH  56  70
BRANCH  57  82
ATOM     82  C   UNL A   1      37.206  32.518  30.358  1.00  0.00     0.058 A 
ATOM     83  C   UNL A   1      37.235  33.521  29.377  1.00  0.00     0.135 A 
ATOM     84  C   UNL A   1      35.981  32.252  30.986  1.00  0.00     0.135 A 
ATOM     85  F   UNL A   1      38.386  33.815  28.754  1.00  0.00    -0.206 F 
ATOM     86  C   UNL A   1      36.095  34.242  29.039  1.00  0.00     0.059 A 
ATOM     87  C   UNL A   1      34.821  32.946  30.651  1.00  0.00     0.059 A 
ATOM     88  F   UNL A   1      35.899  31.291  31.920  1.00  0.00    -0.206 F 
ATOM     89  C   UNL A   1      34.890  33.946  29.680  1.00  0.00     0.060 A 
BRANCH  89  90
ATOM     90  S   UNL A   1      33.403  34.848  29.195  1.00  0.00     0.124 S 
ATOM     91  O   UNL A   1      32.824  33.947  28.204  1.00  0.00    -0.237 OA
ATOM     92  O   UNL A   1      32.681  34.955  30.459  1.00  0.00    -0.237 OA
ATOM     93  O   UNL A   1      33.930  36.106  28.676  1.00  0.00    -0.744 OA
ENDBRANCH  89  90
ENDBRANCH  57  82
BRANCH  69  94
ATOM     94  C   UNL A   1      42.417  33.535  34.880  1.00  0.00     0.058 A 
ATOM     95  C   UNL A   1      43.103  34.695  34.493  1.00  0.00     0.135 A 
ATOM     96  C   UNL A   1      41.939  33.459  36.198  1.00  0.00     0.135 A 
ATOM     97  F   UNL A   1      43.587  34.810  33.247  1.00  0.00    -0.206 F 
ATOM     98  C   UNL A   1      43.308  35.745  35.383  1.00  0.00     0.059 A 
ATOM     99  C   UNL A   1      42.116  34.504  37.097  1.00  0.00     0.059 A 
ATOM    100  F   UNL A   1      41.271  32.370  36.613  1.00  0.00    -0.206 F 
ATOM    101  C   UNL A   1      42.807  35.642  36.681  1.00  0.00     0.060 A 
BRANCH 101 102
ATOM    102  S   UNL A   1      43.022  37.038  37.807  1.00  0.00     0.124 S 
ATOM    103  O   UNL A   1      41.648  37.297  38.218  1.00  0.00    -0.237 OA
ATOM    104  O   UNL A   1      43.897  36.480  38.834  1.00  0.00    -0.237 OA
ATOM    105  O   UNL A   1      43.632  38.062  36.964  1.00  0.00    -0.744 OA
ENDBRANCH 101 102
ENDBRANCH  69  94
ENDBRANCH  43  44
ENDBRANCH  35  38
ENDBRANCH  33  34
ENDBRANCH  32  33
ENDBRANCH   1  32
TORSDOF 18
ENDMDL
