MODEL 1
REMARK VINA RESULT:     -11.0      0.000      0.000
REMARK SMILES CN(CC(C)(C)O)C(=O)NC[C@@H](C(=O)NCCCCNC(=O)c1ccc(-c2c3nc(c(-c4c(F)cc(S(=O)(=O)[O-])cc4F)c4ccc([nH]4)c(-c4c(F)cc(S(=O)(=O)[O-])cc4F)c4nc(c(-c5c(F)cc(S(=O)(=O)[O-])cc5F)c5ccc2[nH]5)C=C4)C=C3)cc1)c1ccccc1
REMARK SMILES IDX 16 1 15 2 13 3 14 4 12 6 11 7 10 8 8 9 9 10 2 12 1 13 3 14
REMARK SMILES IDX 4 15 5 16 6 17 7 18 89 20 90 21 94 22 91 23 93 24 92 25
REMARK SMILES IDX 17 26 18 27 19 28 20 29 21 30 22 32 23 33 24 34 88 35 25 36
REMARK SMILES IDX 87 37 26 38 27 39 28 40 81 41 29 42 86 43 80 44 82 45 30 46
REMARK SMILES IDX 85 47 79 48 78 49 31 51 65 52 44 53 64 54 45 55 48 56 63 57
REMARK SMILES IDX 83 58 46 59 47 60 62 62 84 63 49 64 32 65 33 66 42 67 34 68
REMARK SMILES IDX 35 69 41 70 43 71 36 72 37 73 38 74 39 75 40 76 66 77 67 78
REMARK SMILES IDX 76 79 68 80 69 81 75 82 77 83 70 84 71 85 72 86 73 87 74 88
REMARK SMILES IDX 50 89 51 90 60 91 52 92 53 93 59 94 61 95 54 96 55 97 56 98
REMARK SMILES IDX 57 99 58 100
REMARK H PARENT 15 5 10 11 7 19 20 31 82 50 48 61
REMARK Flexibility Score: inf
ROOT
ATOM      1  C   UNL A   1      35.967  22.612  24.730  1.00  0.00     0.116 C 
ENDROOT
BRANCH   1   2
ATOM      2  N   UNL A   1      35.366  22.004  25.902  1.00  0.00    -0.356 N 
ATOM      3  C   UNL A   1      34.175  21.355  26.052  1.00  0.00     0.229 C 
ATOM      4  O   UNL A   1      33.813  21.135  27.210  1.00  0.00    -0.274 OA
ATOM      5  H   UNL A   1      35.906  22.071  26.723  1.00  0.00     0.163 HD
BRANCH   3   6
ATOM      6  C   UNL A   1      33.370  20.898  24.820  1.00  0.00     0.128 C 
BRANCH   6   7
ATOM      7  C   UNL A   1      31.840  21.097  24.971  1.00  0.00     0.136 C 
BRANCH   7   8
ATOM      8  N   UNL A   1      31.398  22.050  25.985  1.00  0.00    -0.337 N 
ATOM      9  C   UNL A   1      31.035  23.325  26.157  1.00  0.00     0.317 C 
ATOM     10  O   UNL A   1      30.893  23.638  27.347  1.00  0.00    -0.249 OA
ATOM     11  H   UNL A   1      31.350  21.588  26.853  1.00  0.00     0.165 HD
BRANCH   9  12
ATOM     12  N   UNL A   1      30.830  24.237  25.170  1.00  0.00    -0.325 N 
ATOM     13  C   UNL A   1      30.217  25.498  25.589  1.00  0.00     0.148 C 
BRANCH  12  14
ATOM     14  C   UNL A   1      31.088  24.128  23.735  1.00  0.00     0.155 C 
BRANCH  14  15
ATOM     15  C   UNL A   1      32.541  24.452  23.297  1.00  0.00     0.077 C 
ATOM     16  C   UNL A   1      33.090  23.474  22.263  1.00  0.00     0.043 C 
ATOM     17  C   UNL A   1      32.581  25.886  22.755  1.00  0.00     0.043 C 
BRANCH  15  18
ATOM     18  O   UNL A   1      33.407  24.409  24.439  1.00  0.00    -0.389 OA
ATOM     19  H   UNL A   1      33.246  23.591  24.936  1.00  0.00     0.211 HD
ENDBRANCH  15  18
ENDBRANCH  14  15
ENDBRANCH  12  14
ENDBRANCH   9  12
ENDBRANCH   7   8
ENDBRANCH   6   7
BRANCH   6  20
ATOM     20  C   UNL A   1      33.594  19.409  24.500  1.00  0.00    -0.034 A 
ATOM     21  C   UNL A   1      34.850  18.815  24.689  1.00  0.00     0.004 A 
ATOM     22  C   UNL A   1      32.576  18.640  23.906  1.00  0.00     0.004 A 
ATOM     23  C   UNL A   1      35.096  17.513  24.240  1.00  0.00     0.000 A 
ATOM     24  C   UNL A   1      32.819  17.337  23.475  1.00  0.00     0.000 A 
ATOM     25  C   UNL A   1      34.084  16.780  23.624  1.00  0.00     0.000 A 
ENDBRANCH   6  20
ENDBRANCH   3   6
ENDBRANCH   1   2
BRANCH   1  26
ATOM     26  C   UNL A   1      37.467  22.318  24.683  1.00  0.00     0.023 C 
BRANCH  26  27
ATOM     27  C   UNL A   1      37.927  21.161  25.561  1.00  0.00     0.023 C 
BRANCH  27  28
ATOM     28  C   UNL A   1      39.378  21.241  25.997  1.00  0.00     0.116 C 
BRANCH  28  29
ATOM     29  N   UNL A   1      40.067  19.957  25.937  1.00  0.00    -0.352 N 
ATOM     30  C   UNL A   1      41.416  19.706  26.059  1.00  0.00     0.251 C 
ATOM     31  H   UNL A   1      39.495  19.170  25.790  1.00  0.00     0.163 HD
ATOM     32  O   UNL A   1      41.870  18.583  25.889  1.00  0.00    -0.269 OA
BRANCH  30  33
ATOM     33  C   UNL A   1      42.309  20.843  26.355  1.00  0.00     0.039 A 
ATOM     34  C   UNL A   1      42.851  21.573  25.296  1.00  0.00     0.014 A 
ATOM     35  C   UNL A   1      42.489  21.257  27.677  1.00  0.00     0.014 A 
ATOM     36  C   UNL A   1      43.491  22.784  25.559  1.00  0.00     0.010 A 
ATOM     37  C   UNL A   1      43.047  22.503  27.927  1.00  0.00     0.010 A 
ATOM     38  C   UNL A   1      43.542  23.285  26.871  1.00  0.00    -0.014 A 
BRANCH  38  39
ATOM     39  C   UNL A   1      44.095  24.628  27.176  1.00  0.00     0.031 A 
ATOM     40  C   UNL A   1      43.165  25.729  27.606  1.00  0.00     0.074 A 
ATOM     41  C   UNL A   1      45.404  24.881  26.975  1.00  0.00     0.049 A 
ATOM     42  N   UNL A   1      43.407  27.004  27.756  1.00  0.00    -0.248 NA
ATOM     43  C   UNL A   1      41.766  25.346  27.866  1.00  0.00     0.031 C 
ATOM     44  C   UNL A   1      46.402  23.908  26.521  1.00  0.00     0.029 A 
ATOM     45  N   UNL A   1      46.121  26.044  27.113  1.00  0.00    -0.354 N 
ATOM     46  C   UNL A   1      42.191  27.578  28.106  1.00  0.00     0.074 A 
ATOM     47  C   UNL A   1      41.202  26.523  28.093  1.00  0.00     0.031 C 
ATOM     48  C   UNL A   1      47.601  24.508  26.440  1.00  0.00     0.029 A 
ATOM     49  C   UNL A   1      47.452  25.917  26.790  1.00  0.00     0.049 A 
ATOM     50  H   UNL A   1      45.719  26.891  27.415  1.00  0.00     0.167 HD
ATOM     51  C   UNL A   1      41.928  28.864  28.433  1.00  0.00     0.037 A 
ATOM     52  C   UNL A   1      48.437  26.836  26.766  1.00  0.00     0.037 A 
ATOM     53  C   UNL A   1      42.922  29.901  28.485  1.00  0.00     0.049 A 
ATOM     54  C   UNL A   1      48.116  28.261  27.127  1.00  0.00     0.074 A 
ATOM     55  C   UNL A   1      42.765  31.226  28.851  1.00  0.00     0.029 A 
ATOM     56  N   UNL A   1      44.262  29.726  28.174  1.00  0.00    -0.354 N 
ATOM     57  N   UNL A   1      46.965  28.782  27.483  1.00  0.00    -0.248 NA
ATOM     58  C   UNL A   1      49.223  29.227  27.076  1.00  0.00     0.031 C 
ATOM     59  C   UNL A   1      44.008  31.858  28.740  1.00  0.00     0.029 A 
ATOM     60  C   UNL A   1      44.944  30.919  28.332  1.00  0.00     0.049 A 
ATOM     61  H   UNL A   1      44.668  28.877  27.884  1.00  0.00     0.167 HD
ATOM     62  C   UNL A   1      47.214  30.129  27.719  1.00  0.00     0.074 A 
ATOM     63  C   UNL A   1      48.627  30.342  27.477  1.00  0.00     0.031 C 
ATOM     64  C   UNL A   1      46.353  31.104  28.098  1.00  0.00     0.037 A 
BRANCH  51  65
ATOM     65  C   UNL A   1      40.509  29.211  28.784  1.00  0.00     0.058 A 
ATOM     66  C   UNL A   1      39.540  29.411  27.788  1.00  0.00     0.135 A 
ATOM     67  C   UNL A   1      40.107  29.321  30.124  1.00  0.00     0.135 A 
ATOM     68  F   UNL A   1      39.878  29.337  26.491  1.00  0.00    -0.206 F 
ATOM     69  C   UNL A   1      38.227  29.737  28.107  1.00  0.00     0.059 A 
ATOM     70  C   UNL A   1      38.791  29.621  30.467  1.00  0.00     0.059 A 
ATOM     71  F   UNL A   1      40.995  29.143  31.114  1.00  0.00    -0.206 F 
ATOM     72  C   UNL A   1      37.862  29.841  29.450  1.00  0.00     0.060 A 
BRANCH  72  73
ATOM     73  S   UNL A   1      36.152  30.258  29.849  1.00  0.00     0.124 S 
ATOM     74  O   UNL A   1      36.197  31.716  29.829  1.00  0.00    -0.237 OA
ATOM     75  O   UNL A   1      35.413  29.632  28.757  1.00  0.00    -0.237 OA
ATOM     76  O   UNL A   1      35.953  29.654  31.163  1.00  0.00    -0.744 OA
ENDBRANCH  72  73
ENDBRANCH  51  65
BRANCH  52  77
ATOM     77  C   UNL A   1      49.824  26.446  26.397  1.00  0.00     0.058 A 
ATOM     78  C   UNL A   1      50.727  26.003  27.375  1.00  0.00     0.135 A 
ATOM     79  C   UNL A   1      50.280  26.525  25.073  1.00  0.00     0.135 A 
ATOM     80  F   UNL A   1      50.338  25.918  28.657  1.00  0.00    -0.206 F 
ATOM     81  C   UNL A   1      52.041  25.674  27.060  1.00  0.00     0.059 A 
ATOM     82  C   UNL A   1      51.583  26.179  24.728  1.00  0.00     0.059 A 
ATOM     83  F   UNL A   1      49.450  26.927  24.098  1.00  0.00    -0.206 F 
ATOM     84  C   UNL A   1      52.462  25.769  25.732  1.00  0.00     0.060 A 
BRANCH  84  85
ATOM     85  S   UNL A   1      54.163  25.320  25.325  1.00  0.00     0.124 S 
ATOM     86  O   UNL A   1      54.117  23.867  25.436  1.00  0.00    -0.237 OA
ATOM     87  O   UNL A   1      54.310  25.852  23.973  1.00  0.00    -0.237 OA
ATOM     88  O   UNL A   1      54.943  26.009  26.349  1.00  0.00    -0.744 OA
ENDBRANCH  84  85
ENDBRANCH  52  77
BRANCH  64  89
ATOM     89  C   UNL A   1      46.914  32.481  28.300  1.00  0.00     0.058 A 
ATOM     90  C   UNL A   1      47.557  32.840  29.492  1.00  0.00     0.135 A 
ATOM     91  C   UNL A   1      46.868  33.425  27.262  1.00  0.00     0.135 A 
ATOM     92  F   UNL A   1      47.619  31.973  30.515  1.00  0.00    -0.206 F 
ATOM     93  C   UNL A   1      48.132  34.095  29.655  1.00  0.00     0.059 A 
ATOM     94  C   UNL A   1      47.453  34.681  27.396  1.00  0.00     0.059 A 
ATOM     95  F   UNL A   1      46.269  33.125  26.099  1.00  0.00    -0.206 F 
ATOM     96  C   UNL A   1      48.078  35.008  28.599  1.00  0.00     0.060 A 
BRANCH  96  97
ATOM     97  S   UNL A   1      48.878  36.614  28.800  1.00  0.00     0.124 S 
ATOM     98  O   UNL A   1      50.207  36.350  28.259  1.00  0.00    -0.237 OA
ATOM     99  O   UNL A   1      48.029  37.491  27.999  1.00  0.00    -0.237 OA
ATOM    100  O   UNL A   1      48.820  36.843  30.241  1.00  0.00    -0.744 OA
ENDBRANCH  96  97
ENDBRANCH  64  89
ENDBRANCH  38  39
ENDBRANCH  30  33
ENDBRANCH  28  29
ENDBRANCH  27  28
ENDBRANCH  26  27
ENDBRANCH   1  26
TORSDOF 21
ENDMDL
MODEL 2
REMARK VINA RESULT:     -10.6      6.411      8.582
REMARK SMILES CN(CC(C)(C)O)C(=O)NC[C@@H](C(=O)NCCCCNC(=O)c1ccc(-c2c3nc(c(-c4c(F)cc(S(=O)(=O)[O-])cc4F)c4ccc([nH]4)c(-c4c(F)cc(S(=O)(=O)[O-])cc4F)c4nc(c(-c5c(F)cc(S(=O)(=O)[O-])cc5F)c5ccc2[nH]5)C=C4)C=C3)cc1)c1ccccc1
REMARK SMILES IDX 16 1 15 2 13 3 14 4 12 6 11 7 10 8 8 9 9 10 2 12 1 13 3 14
REMARK SMILES IDX 4 15 5 16 6 17 7 18 89 20 90 21 94 22 91 23 93 24 92 25
REMARK SMILES IDX 17 26 18 27 19 28 20 29 21 30 22 32 23 33 24 34 88 35 25 36
REMARK SMILES IDX 87 37 26 38 27 39 28 40 81 41 29 42 86 43 80 44 82 45 30 46
REMARK SMILES IDX 85 47 79 48 78 49 31 51 65 52 44 53 64 54 45 55 48 56 63 57
REMARK SMILES IDX 83 58 46 59 47 60 62 62 84 63 49 64 32 65 33 66 42 67 34 68
REMARK SMILES IDX 35 69 41 70 43 71 36 72 37 73 38 74 39 75 40 76 66 77 67 78
REMARK SMILES IDX 76 79 68 80 69 81 75 82 77 83 70 84 71 85 72 86 73 87 74 88
REMARK SMILES IDX 50 89 51 90 60 91 52 92 53 93 59 94 61 95 54 96 55 97 56 98
REMARK SMILES IDX 57 99 58 100
REMARK H PARENT 15 5 10 11 7 19 20 31 82 50 48 61
REMARK Flexibility Score: inf
ROOT
ATOM      1  C   UNL A   1      36.355  22.109  25.215  1.00  0.00     0.116 C 
ENDROOT
BRANCH   1   2
ATOM      2  N   UNL A   1      35.515  21.549  26.257  1.00  0.00    -0.356 N 
ATOM      3  C   UNL A   1      34.209  21.152  26.225  1.00  0.00     0.229 C 
ATOM      4  O   UNL A   1      33.680  20.922  27.314  1.00  0.00    -0.274 OA
ATOM      5  H   UNL A   1      35.959  21.437  27.129  1.00  0.00     0.163 HD
BRANCH   3   6
ATOM      6  C   UNL A   1      33.477  20.970  24.881  1.00  0.00     0.128 C 
BRANCH   6   7
ATOM      7  C   UNL A   1      31.952  21.240  24.965  1.00  0.00     0.136 C 
BRANCH   7   8
ATOM      8  N   UNL A   1      31.507  22.182  25.988  1.00  0.00    -0.337 N 
ATOM      9  C   UNL A   1      31.370  23.487  26.242  1.00  0.00     0.317 C 
ATOM     10  O   UNL A   1      31.053  23.728  27.414  1.00  0.00    -0.249 OA
ATOM     11  H   UNL A   1      31.196  21.673  26.771  1.00  0.00     0.165 HD
BRANCH   9  12
ATOM     12  N   UNL A   1      31.549  24.497  25.350  1.00  0.00    -0.325 N 
ATOM     13  C   UNL A   1      30.607  24.528  24.230  1.00  0.00     0.148 C 
BRANCH  12  14
ATOM     14  C   UNL A   1      32.577  25.536  25.314  1.00  0.00     0.155 C 
BRANCH  14  15
ATOM     15  C   UNL A   1      32.183  26.880  25.984  1.00  0.00     0.077 C 
ATOM     16  C   UNL A   1      33.381  27.661  26.516  1.00  0.00     0.043 C 
ATOM     17  C   UNL A   1      31.401  27.722  24.969  1.00  0.00     0.043 C 
BRANCH  15  18
ATOM     18  O   UNL A   1      31.304  26.626  27.088  1.00  0.00    -0.389 OA
ATOM     19  H   UNL A   1      31.765  26.819  27.919  1.00  0.00     0.211 HD
ENDBRANCH  15  18
ENDBRANCH  14  15
ENDBRANCH  12  14
ENDBRANCH   9  12
ENDBRANCH   7   8
ENDBRANCH   6   7
BRANCH   6  20
ATOM     20  C   UNL A   1      33.645  19.548  24.316  1.00  0.00    -0.034 A 
ATOM     21  C   UNL A   1      32.647  18.967  23.521  1.00  0.00     0.004 A 
ATOM     22  C   UNL A   1      34.753  18.759  24.676  1.00  0.00     0.004 A 
ATOM     23  C   UNL A   1      32.725  17.620  23.153  1.00  0.00     0.000 A 
ATOM     24  C   UNL A   1      34.838  17.421  24.293  1.00  0.00     0.000 A 
ATOM     25  C   UNL A   1      33.815  16.847  23.547  1.00  0.00     0.000 A 
ENDBRANCH   6  20
ENDBRANCH   3   6
ENDBRANCH   1   2
BRANCH   1  26
ATOM     26  C   UNL A   1      37.787  22.289  25.721  1.00  0.00     0.023 C 
BRANCH  26  27
ATOM     27  C   UNL A   1      38.043  23.575  26.495  1.00  0.00     0.023 C 
BRANCH  27  28
ATOM     28  C   UNL A   1      39.492  23.794  26.890  1.00  0.00     0.116 C 
BRANCH  28  29
ATOM     29  N   UNL A   1      40.235  24.595  25.924  1.00  0.00    -0.352 N 
ATOM     30  C   UNL A   1      40.899  25.784  26.132  1.00  0.00     0.251 C 
ATOM     31  H   UNL A   1      40.266  24.241  25.006  1.00  0.00     0.163 HD
ATOM     32  O   UNL A   1      41.400  26.402  25.203  1.00  0.00    -0.269 OA
BRANCH  30  33
ATOM     33  C   UNL A   1      40.946  26.321  27.507  1.00  0.00     0.039 A 
ATOM     34  C   UNL A   1      42.070  27.040  27.915  1.00  0.00     0.014 A 
ATOM     35  C   UNL A   1      39.819  26.223  28.327  1.00  0.00     0.014 A 
ATOM     36  C   UNL A   1      42.025  27.753  29.114  1.00  0.00     0.010 A 
ATOM     37  C   UNL A   1      39.746  27.003  29.473  1.00  0.00     0.010 A 
ATOM     38  C   UNL A   1      40.842  27.786  29.871  1.00  0.00    -0.014 A 
BRANCH  38  39
ATOM     39  C   UNL A   1      40.710  28.635  31.081  1.00  0.00     0.031 A 
ATOM     40  C   UNL A   1      39.675  29.726  31.106  1.00  0.00     0.074 A 
ATOM     41  C   UNL A   1      41.574  28.492  32.106  1.00  0.00     0.049 A 
ATOM     42  N   UNL A   1      39.503  30.682  31.980  1.00  0.00    -0.248 NA
ATOM     43  C   UNL A   1      38.731  29.766  29.975  1.00  0.00     0.031 C 
ATOM     44  C   UNL A   1      42.647  27.497  32.184  1.00  0.00     0.029 A 
ATOM     45  N   UNL A   1      41.696  29.197  33.278  1.00  0.00    -0.354 N 
ATOM     46  C   UNL A   1      38.449  31.448  31.496  1.00  0.00     0.074 A 
ATOM     47  C   UNL A   1      38.056  30.878  30.226  1.00  0.00     0.031 C 
ATOM     48  C   UNL A   1      43.302  27.642  33.348  1.00  0.00     0.029 A 
ATOM     49  C   UNL A   1      42.727  28.766  34.079  1.00  0.00     0.049 A 
ATOM     50  H   UNL A   1      41.100  29.942  33.521  1.00  0.00     0.167 HD
ATOM     51  C   UNL A   1      37.846  32.514  32.070  1.00  0.00     0.037 A 
ATOM     52  C   UNL A   1      43.167  29.235  35.263  1.00  0.00     0.037 A 
ATOM     53  C   UNL A   1      38.213  33.051  33.352  1.00  0.00     0.049 A 
ATOM     54  C   UNL A   1      42.484  30.427  35.878  1.00  0.00     0.074 A 
ATOM     55  C   UNL A   1      37.633  34.100  34.044  1.00  0.00     0.029 A 
ATOM     56  N   UNL A   1      39.247  32.572  34.142  1.00  0.00    -0.354 N 
ATOM     57  N   UNL A   1      41.470  31.122  35.419  1.00  0.00    -0.248 NA
ATOM     58  C   UNL A   1      43.008  30.905  37.165  1.00  0.00     0.031 C 
ATOM     59  C   UNL A   1      38.332  34.270  35.244  1.00  0.00     0.029 A 
ATOM     60  C   UNL A   1      39.328  33.307  35.312  1.00  0.00     0.049 A 
ATOM     61  H   UNL A   1      39.836  31.819  33.906  1.00  0.00     0.167 HD
ATOM     62  C   UNL A   1      41.221  32.104  36.371  1.00  0.00     0.074 A 
ATOM     63  C   UNL A   1      42.184  31.908  37.437  1.00  0.00     0.031 C 
ATOM     64  C   UNL A   1      40.285  33.084  36.364  1.00  0.00     0.037 A 
BRANCH  51  65
ATOM     65  C   UNL A   1      36.711  33.152  31.322  1.00  0.00     0.058 A 
ATOM     66  C   UNL A   1      36.938  33.922  30.171  1.00  0.00     0.135 A 
ATOM     67  C   UNL A   1      35.384  32.974  31.744  1.00  0.00     0.135 A 
ATOM     68  F   UNL A   1      38.189  34.139  29.739  1.00  0.00    -0.206 F 
ATOM     69  C   UNL A   1      35.890  34.518  29.478  1.00  0.00     0.059 A 
ATOM     70  C   UNL A   1      34.317  33.541  31.050  1.00  0.00     0.059 A 
ATOM     71  F   UNL A   1      35.113  32.251  32.840  1.00  0.00    -0.206 F 
ATOM     72  C   UNL A   1      34.584  34.323  29.926  1.00  0.00     0.060 A 
BRANCH  72  73
ATOM     73  S   UNL A   1      33.234  35.098  29.011  1.00  0.00     0.124 S 
ATOM     74  O   UNL A   1      32.256  35.319  30.072  1.00  0.00    -0.237 OA
ATOM     75  O   UNL A   1      33.866  36.298  28.474  1.00  0.00    -0.237 OA
ATOM     76  O   UNL A   1      32.870  34.088  28.022  1.00  0.00    -0.744 OA
ENDBRANCH  72  73
ENDBRANCH  51  65
BRANCH  52  77
ATOM     77  C   UNL A   1      44.306  28.578  35.958  1.00  0.00     0.058 A 
ATOM     78  C   UNL A   1      45.622  29.016  35.747  1.00  0.00     0.135 A 
ATOM     79  C   UNL A   1      44.108  27.494  36.827  1.00  0.00     0.135 A 
ATOM     80  F   UNL A   1      45.861  30.044  34.920  1.00  0.00    -0.206 F 
ATOM     81  C   UNL A   1      46.706  28.388  36.353  1.00  0.00     0.059 A 
ATOM     82  C   UNL A   1      45.174  26.864  37.463  1.00  0.00     0.059 A 
ATOM     83  F   UNL A   1      42.867  27.047  37.074  1.00  0.00    -0.206 F 
ATOM     84  C   UNL A   1      46.471  27.309  37.208  1.00  0.00     0.060 A 
BRANCH  84  85
ATOM     85  S   UNL A   1      47.881  26.513  38.008  1.00  0.00     0.124 S 
ATOM     86  O   UNL A   1      48.898  26.602  36.968  1.00  0.00    -0.237 OA
ATOM     87  O   UNL A   1      48.091  27.360  39.180  1.00  0.00    -0.237 OA
ATOM     88  O   UNL A   1      47.385  25.171  38.297  1.00  0.00    -0.744 OA
ENDBRANCH  84  85
ENDBRANCH  52  77
BRANCH  64  89
ATOM     89  C   UNL A   1      40.236  34.000  37.551  1.00  0.00     0.058 A 
ATOM     90  C   UNL A   1      39.458  33.697  38.676  1.00  0.00     0.135 A 
ATOM     91  C   UNL A   1      41.031  35.157  37.589  1.00  0.00     0.135 A 
ATOM     92  F   UNL A   1      38.675  32.606  38.684  1.00  0.00    -0.206 F 
ATOM     93  C   UNL A   1      39.461  34.515  39.801  1.00  0.00     0.059 A 
ATOM     94  C   UNL A   1      41.065  35.979  38.711  1.00  0.00     0.059 A 
ATOM     95  F   UNL A   1      41.799  35.486  36.538  1.00  0.00    -0.206 F 
ATOM     96  C   UNL A   1      40.272  35.652  39.810  1.00  0.00     0.060 A 
BRANCH  96  97
ATOM     97  S   UNL A   1      40.312  36.675  41.297  1.00  0.00     0.124 S 
ATOM     98  O   UNL A   1      41.074  35.832  42.212  1.00  0.00    -0.237 OA
ATOM     99  O   UNL A   1      40.991  37.881  40.832  1.00  0.00    -0.237 OA
ATOM    100  O   UNL A   1      38.901  36.847  41.628  1.00  0.00    -0.744 OA
ENDBRANCH  96  97
ENDBRANCH  64  89
ENDBRANCH  38  39
ENDBRANCH  30  33
ENDBRANCH  28  29
ENDBRANCH  27  28
ENDBRANCH  26  27
ENDBRANCH   1  26
TORSDOF 21
ENDMDL
MODEL 3
REMARK VINA RESULT:     -10.4      6.556     11.980
REMARK SMILES CN(CC(C)(C)O)C(=O)NC[C@@H](C(=O)NCCCCNC(=O)c1ccc(-c2c3nc(c(-c4c(F)cc(S(=O)(=O)[O-])cc4F)c4ccc([nH]4)c(-c4c(F)cc(S(=O)(=O)[O-])cc4F)c4nc(c(-c5c(F)cc(S(=O)(=O)[O-])cc5F)c5ccc2[nH]5)C=C4)C=C3)cc1)c1ccccc1
REMARK SMILES IDX 16 1 15 2 13 3 14 4 12 6 11 7 10 8 8 9 9 10 2 12 1 13 3 14
REMARK SMILES IDX 4 15 5 16 6 17 7 18 89 20 90 21 94 22 91 23 93 24 92 25
REMARK SMILES IDX 17 26 18 27 19 28 20 29 21 30 22 32 23 33 24 34 88 35 25 36
REMARK SMILES IDX 87 37 26 38 27 39 28 40 81 41 29 42 86 43 80 44 82 45 30 46
REMARK SMILES IDX 85 47 79 48 78 49 31 51 65 52 44 53 64 54 45 55 48 56 63 57
REMARK SMILES IDX 83 58 46 59 47 60 62 62 84 63 49 64 32 65 33 66 42 67 34 68
REMARK SMILES IDX 35 69 41 70 43 71 36 72 37 73 38 74 39 75 40 76 66 77 67 78
REMARK SMILES IDX 76 79 68 80 69 81 75 82 77 83 70 84 71 85 72 86 73 87 74 88
REMARK SMILES IDX 50 89 51 90 60 91 52 92 53 93 59 94 61 95 54 96 55 97 56 98
REMARK SMILES IDX 57 99 58 100
REMARK H PARENT 15 5 10 11 7 19 20 31 82 50 48 61
REMARK Flexibility Score: inf
ROOT
ATOM      1  C   UNL A   1      32.612  28.512  26.104  1.00  0.00     0.116 C 
ENDROOT
BRANCH   1   2
ATOM      2  N   UNL A   1      31.821  27.356  26.484  1.00  0.00    -0.356 N 
ATOM      3  C   UNL A   1      30.916  26.628  25.767  1.00  0.00     0.229 C 
ATOM      4  O   UNL A   1      30.224  25.834  26.407  1.00  0.00    -0.274 OA
ATOM      5  H   UNL A   1      31.960  27.047  27.409  1.00  0.00     0.163 HD
BRANCH   3   6
ATOM      6  C   UNL A   1      30.819  26.783  24.237  1.00  0.00     0.128 C 
BRANCH   6   7
ATOM      7  C   UNL A   1      32.170  27.137  23.563  1.00  0.00     0.136 C 
BRANCH   7   8
ATOM      8  N   UNL A   1      32.913  26.034  22.963  1.00  0.00    -0.337 N 
ATOM      9  C   UNL A   1      33.262  24.757  23.157  1.00  0.00     0.317 C 
ATOM     10  O   UNL A   1      34.081  24.341  22.327  1.00  0.00    -0.249 OA
ATOM     11  H   UNL A   1      33.294  26.338  22.107  1.00  0.00     0.165 HD
BRANCH   9  12
ATOM     12  N   UNL A   1      32.803  23.947  24.146  1.00  0.00    -0.325 N 
ATOM     13  C   UNL A   1      31.581  23.201  23.840  1.00  0.00     0.148 C 
BRANCH  12  14
ATOM     14  C   UNL A   1      33.322  23.741  25.498  1.00  0.00     0.155 C 
BRANCH  14  15
ATOM     15  C   UNL A   1      34.686  23.003  25.578  1.00  0.00     0.077 C 
ATOM     16  C   UNL A   1      35.880  23.951  25.627  1.00  0.00     0.043 C 
ATOM     17  C   UNL A   1      34.675  22.087  26.807  1.00  0.00     0.043 C 
BRANCH  15  18
ATOM     18  O   UNL A   1      34.844  22.163  24.427  1.00  0.00    -0.389 OA
ATOM     19  H   UNL A   1      34.501  21.277  24.623  1.00  0.00     0.211 HD
ENDBRANCH  15  18
ENDBRANCH  14  15
ENDBRANCH  12  14
ENDBRANCH   9  12
ENDBRANCH   7   8
ENDBRANCH   6   7
BRANCH   6  20
ATOM     20  C   UNL A   1      29.819  27.880  23.828  1.00  0.00    -0.034 A 
ATOM     21  C   UNL A   1      28.466  27.578  23.618  1.00  0.00     0.004 A 
ATOM     22  C   UNL A   1      30.260  29.186  23.548  1.00  0.00     0.004 A 
ATOM     23  C   UNL A   1      27.597  28.535  23.084  1.00  0.00     0.000 A 
ATOM     24  C   UNL A   1      29.388  30.145  23.032  1.00  0.00     0.000 A 
ATOM     25  C   UNL A   1      28.062  29.813  22.782  1.00  0.00     0.000 A 
ENDBRANCH   6  20
ENDBRANCH   3   6
ENDBRANCH   1   2
BRANCH   1  26
ATOM     26  C   UNL A   1      32.649  29.532  27.244  1.00  0.00     0.023 C 
BRANCH  26  27
ATOM     27  C   UNL A   1      32.581  30.990  26.810  1.00  0.00     0.023 C 
BRANCH  27  28
ATOM     28  C   UNL A   1      33.390  31.942  27.671  1.00  0.00     0.116 C 
BRANCH  28  29
ATOM     29  N   UNL A   1      32.832  33.288  27.718  1.00  0.00    -0.352 N 
ATOM     30  C   UNL A   1      33.208  34.339  28.527  1.00  0.00     0.251 C 
ATOM     31  H   UNL A   1      32.094  33.470  27.094  1.00  0.00     0.163 HD
ATOM     32  O   UNL A   1      32.583  35.391  28.529  1.00  0.00    -0.269 OA
BRANCH  30  33
ATOM     33  C   UNL A   1      34.359  34.144  29.430  1.00  0.00     0.039 A 
ATOM     34  C   UNL A   1      34.141  33.608  30.700  1.00  0.00     0.014 A 
ATOM     35  C   UNL A   1      35.655  34.363  28.956  1.00  0.00     0.014 A 
ATOM     36  C   UNL A   1      35.234  33.195  31.463  1.00  0.00     0.010 A 
ATOM     37  C   UNL A   1      36.732  33.870  29.679  1.00  0.00     0.010 A 
ATOM     38  C   UNL A   1      36.533  33.270  30.933  1.00  0.00    -0.014 A 
BRANCH  38  39
ATOM     39  C   UNL A   1      37.706  32.720  31.656  1.00  0.00     0.031 A 
ATOM     40  C   UNL A   1      38.417  31.516  31.102  1.00  0.00     0.074 A 
ATOM     41  C   UNL A   1      38.070  33.238  32.847  1.00  0.00     0.049 A 
ATOM     42  N   UNL A   1      39.345  30.779  31.651  1.00  0.00    -0.248 NA
ATOM     43  C   UNL A   1      37.997  31.060  29.765  1.00  0.00     0.031 C 
ATOM     44  C   UNL A   1      37.435  34.380  33.510  1.00  0.00     0.029 A 
ATOM     45  N   UNL A   1      39.057  32.859  33.722  1.00  0.00    -0.354 N 
ATOM     46  C   UNL A   1      39.606  29.763  30.739  1.00  0.00     0.074 A 
ATOM     47  C   UNL A   1      38.700  29.946  29.627  1.00  0.00     0.031 C 
ATOM     48  C   UNL A   1      38.062  34.621  34.674  1.00  0.00     0.029 A 
ATOM     49  C   UNL A   1      39.111  33.626  34.863  1.00  0.00     0.049 A 
ATOM     50  H   UNL A   1      39.669  32.107  33.550  1.00  0.00     0.167 HD
ATOM     51  C   UNL A   1      40.534  28.781  30.812  1.00  0.00     0.037 A 
ATOM     52  C   UNL A   1      39.908  33.526  35.945  1.00  0.00     0.037 A 
ATOM     53  C   UNL A   1      41.460  28.628  31.901  1.00  0.00     0.049 A 
ATOM     54  C   UNL A   1      40.927  32.420  36.004  1.00  0.00     0.074 A 
ATOM     55  C   UNL A   1      42.470  27.694  32.046  1.00  0.00     0.029 A 
ATOM     56  N   UNL A   1      41.497  29.439  33.025  1.00  0.00    -0.354 N 
ATOM     57  N   UNL A   1      41.179  31.484  35.120  1.00  0.00    -0.248 NA
ATOM     58  C   UNL A   1      41.765  32.350  37.210  1.00  0.00     0.031 C 
ATOM     59  C   UNL A   1      43.105  27.927  33.271  1.00  0.00     0.029 A 
ATOM     60  C   UNL A   1      42.507  29.023  33.874  1.00  0.00     0.049 A 
ATOM     61  H   UNL A   1      40.893  30.198  33.193  1.00  0.00     0.167 HD
ATOM     62  C   UNL A   1      42.217  30.729  35.652  1.00  0.00     0.074 A 
ATOM     63  C   UNL A   1      42.554  31.322  36.930  1.00  0.00     0.031 C 
ATOM     64  C   UNL A   1      42.834  29.639  35.134  1.00  0.00     0.037 A 
BRANCH  51  65
ATOM     65  C   UNL A   1      40.604  27.812  29.666  1.00  0.00     0.058 A 
ATOM     66  C   UNL A   1      41.602  27.916  28.684  1.00  0.00     0.135 A 
ATOM     67  C   UNL A   1      39.683  26.758  29.560  1.00  0.00     0.135 A 
ATOM     68  F   UNL A   1      42.493  28.918  28.729  1.00  0.00    -0.206 F 
ATOM     69  C   UNL A   1      41.668  27.024  27.619  1.00  0.00     0.059 A 
ATOM     70  C   UNL A   1      39.747  25.838  28.516  1.00  0.00     0.059 A 
ATOM     71  F   UNL A   1      38.708  26.617  30.470  1.00  0.00    -0.206 F 
ATOM     72  C   UNL A   1      40.735  25.990  27.543  1.00  0.00     0.060 A 
BRANCH  72  73
ATOM     73  S   UNL A   1      40.838  24.836  26.159  1.00  0.00     0.124 S 
ATOM     74  O   UNL A   1      39.472  24.324  26.106  1.00  0.00    -0.237 OA
ATOM     75  O   UNL A   1      41.231  25.705  25.054  1.00  0.00    -0.237 OA
ATOM     76  O   UNL A   1      41.852  23.878  26.589  1.00  0.00    -0.744 OA
ENDBRANCH  72  73
ENDBRANCH  51  65
BRANCH  52  77
ATOM     77  C   UNL A   1      39.788  34.502  37.061  1.00  0.00     0.058 A 
ATOM     78  C   UNL A   1      39.004  34.209  38.187  1.00  0.00     0.135 A 
ATOM     79  C   UNL A   1      40.434  35.747  37.019  1.00  0.00     0.135 A 
ATOM     80  F   UNL A   1      38.361  33.034  38.268  1.00  0.00    -0.206 F 
ATOM     81  C   UNL A   1      38.844  35.124  39.223  1.00  0.00     0.059 A 
ATOM     82  C   UNL A   1      40.309  36.670  38.053  1.00  0.00     0.059 A 
ATOM     83  F   UNL A   1      41.209  36.068  35.972  1.00  0.00    -0.206 F 
ATOM     84  C   UNL A   1      39.498  36.355  39.145  1.00  0.00     0.060 A 
BRANCH  84  85
ATOM     85  S   UNL A   1      39.304  37.529  40.503  1.00  0.00     0.124 S 
ATOM     86  O   UNL A   1      38.922  36.648  41.600  1.00  0.00    -0.237 OA
ATOM     87  O   UNL A   1      40.636  38.121  40.594  1.00  0.00    -0.237 OA
ATOM     88  O   UNL A   1      38.260  38.428  40.019  1.00  0.00    -0.744 OA
ENDBRANCH  84  85
ENDBRANCH  52  77
BRANCH  64  89
ATOM     89  C   UNL A   1      43.951  29.033  35.932  1.00  0.00     0.058 A 
ATOM     90  C   UNL A   1      45.253  29.549  35.874  1.00  0.00     0.135 A 
ATOM     91  C   UNL A   1      43.699  27.971  36.815  1.00  0.00     0.135 A 
ATOM     92  F   UNL A   1      45.544  30.560  35.039  1.00  0.00    -0.206 F 
ATOM     93  C   UNL A   1      46.274  29.028  36.660  1.00  0.00     0.059 A 
ATOM     94  C   UNL A   1      44.701  27.447  37.626  1.00  0.00     0.059 A 
ATOM     95  F   UNL A   1      42.467  27.448  36.911  1.00  0.00    -0.206 F 
ATOM     96  C   UNL A   1      45.987  27.979  37.537  1.00  0.00     0.060 A 
BRANCH  96  97
ATOM     97  S   UNL A   1      47.307  27.348  38.595  1.00  0.00     0.124 S 
ATOM     98  O   UNL A   1      48.131  26.621  37.634  1.00  0.00    -0.237 OA
ATOM     99  O   UNL A   1      47.891  28.572  39.133  1.00  0.00    -0.237 OA
ATOM    100  O   UNL A   1      46.596  26.521  39.566  1.00  0.00    -0.744 OA
ENDBRANCH  96  97
ENDBRANCH  64  89
ENDBRANCH  38  39
ENDBRANCH  30  33
ENDBRANCH  28  29
ENDBRANCH  27  28
ENDBRANCH  26  27
ENDBRANCH   1  26
TORSDOF 21
ENDMDL
