MODEL 1
REMARK VINA RESULT:     -13.1      0.000      0.000
REMARK SMILES Cc1ccc(S(=O)(=O)N2CCN(C(=O)[C@H]3CCCC[C@H]3C(=O)NCCCCNC(=O)c3ccc(-c4c5nc(c(-c6c(F)cc(S(=O)(=O)[O-])cc6F)c6ccc([nH]6)c(-c6c(F)cc(S(=O)(=O)[O-])cc6F)c6nc(c(-c7c(F)cc(S(=O)(=O)[O-])cc7F)c7ccc4[nH]7)C=C6)C=C5)cc3)CC2)cc1C
REMARK SMILES IDX 25 1 24 2 23 3 21 4 22 5 20 7 15 8 16 9 17 10 19 11 18 12
REMARK SMILES IDX 13 13 9 14 10 15 98 16 11 17 97 18 12 19 14 20 6 21 7 22
REMARK SMILES IDX 8 23 5 24 1 25 2 26 3 27 100 28 4 29 99 30 101 31 26 32
REMARK SMILES IDX 27 33 28 34 29 35 30 37 31 38 32 39 96 40 33 41 95 42 34 43
REMARK SMILES IDX 35 44 36 45 89 46 37 47 94 48 88 49 90 50 38 51 93 52 87 53
REMARK SMILES IDX 86 54 39 56 73 57 52 58 72 59 53 60 56 61 71 62 91 63 54 64
REMARK SMILES IDX 55 65 70 67 92 68 57 69 40 70 41 71 50 72 42 73 43 74 49 75
REMARK SMILES IDX 51 76 44 77 45 78 46 79 47 80 48 81 74 82 75 83 84 84 76 85
REMARK SMILES IDX 77 86 83 87 85 88 78 89 79 90 80 91 81 92 82 93 58 94 59 95
REMARK SMILES IDX 68 96 60 97 61 98 67 99 69 100 62 101 63 102 64 103 65 104
REMARK SMILES IDX 66 105
REMARK H PARENT 23 6 28 36 90 55 56 66
REMARK Flexibility Score: inf
ROOT
ATOM      1  C   UNL A   1      33.811  29.658  26.599  1.00  0.00     0.023 C 
ENDROOT
BRANCH   1   2
ATOM      2  C   UNL A   1      32.376  29.727  27.114  1.00  0.00     0.116 C 
BRANCH   2   3
ATOM      3  N   UNL A   1      31.796  28.414  27.293  1.00  0.00    -0.356 N 
ATOM      4  C   UNL A   1      31.293  27.521  26.400  1.00  0.00     0.223 C 
ATOM      5  O   UNL A   1      30.737  26.518  26.860  1.00  0.00    -0.275 OA
ATOM      6  H   UNL A   1      31.758  28.114  28.229  1.00  0.00     0.163 HD
BRANCH   4   7
ATOM      7  C   UNL A   1      31.428  27.670  24.877  1.00  0.00     0.091 C 
ATOM      8  C   UNL A   1      32.745  27.158  24.225  1.00  0.00     0.091 C 
ATOM      9  C   UNL A   1      32.714  27.249  22.694  1.00  0.00     0.014 C 
ATOM     10  C   UNL A   1      31.418  26.730  22.089  1.00  0.00     0.001 C 
ATOM     11  C   UNL A   1      30.117  27.360  24.131  1.00  0.00     0.014 C 
ATOM     12  C   UNL A   1      30.237  27.524  22.623  1.00  0.00     0.001 C 
BRANCH   8  13
ATOM     13  C   UNL A   1      33.333  25.872  24.808  1.00  0.00     0.226 C 
ATOM     14  N   UNL A   1      32.792  21.755  24.466  1.00  0.00    -0.194 NA
ATOM     15  C   UNL A   1      31.893  22.420  25.413  1.00  0.00     0.124 C 
ATOM     16  C   UNL A   1      32.964  22.474  23.194  1.00  0.00     0.124 C 
ATOM     17  C   UNL A   1      32.387  23.841  25.674  1.00  0.00     0.136 C 
ATOM     18  C   UNL A   1      33.419  23.922  23.421  1.00  0.00     0.136 C 
ATOM     19  N   UNL A   1      32.723  24.651  24.496  1.00  0.00    -0.340 N 
ATOM     20  O   UNL A   1      34.393  25.888  25.432  1.00  0.00    -0.275 OA
BRANCH  14  21
ATOM     21  S   UNL A   1      33.622  20.354  24.856  1.00  0.00     0.243 S 
ATOM     22  O   UNL A   1      33.570  19.477  23.700  1.00  0.00    -0.207 OA
ATOM     23  O   UNL A   1      33.133  19.922  26.143  1.00  0.00    -0.207 OA
BRANCH  21  24
ATOM     24  C   UNL A   1      35.339  20.776  25.081  1.00  0.00     0.082 A 
ATOM     25  C   UNL A   1      39.458  21.885  25.791  1.00  0.00     0.044 C 
ATOM     26  C   UNL A   1      38.015  21.544  25.536  1.00  0.00    -0.048 A 
ATOM     27  C   UNL A   1      37.695  20.244  25.115  1.00  0.00     0.005 A 
ATOM     28  C   UNL A   1      36.976  22.476  25.725  1.00  0.00    -0.047 A 
ATOM     29  C   UNL A   1      36.370  19.862  24.897  1.00  0.00     0.022 A 
ATOM     30  C   UNL A   1      35.645  22.083  25.479  1.00  0.00     0.025 A 
ATOM     31  C   UNL A   1      37.223  23.891  26.176  1.00  0.00     0.044 C 
ENDBRANCH  21  24
ENDBRANCH  14  21
ENDBRANCH   8  13
ENDBRANCH   4   7
ENDBRANCH   2   3
ENDBRANCH   1   2
BRANCH   1  32
ATOM     32  C   UNL A   1      34.883  29.384  27.632  1.00  0.00     0.023 C 
BRANCH  32  33
ATOM     33  C   UNL A   1      35.501  30.636  28.230  1.00  0.00     0.116 C 
BRANCH  33  34
ATOM     34  N   UNL A   1      35.518  30.652  29.693  1.00  0.00    -0.352 N 
ATOM     35  C   UNL A   1      36.455  30.148  30.567  1.00  0.00     0.251 C 
ATOM     36  H   UNL A   1      34.743  31.088  30.116  1.00  0.00     0.163 HD
ATOM     37  O   UNL A   1      36.242  30.158  31.775  1.00  0.00    -0.269 OA
BRANCH  35  38
ATOM     38  C   UNL A   1      37.701  29.579  30.023  1.00  0.00     0.039 A 
ATOM     39  C   UNL A   1      38.129  29.937  28.743  1.00  0.00     0.014 A 
ATOM     40  C   UNL A   1      38.487  28.755  30.829  1.00  0.00     0.014 A 
ATOM     41  C   UNL A   1      39.399  29.545  28.314  1.00  0.00     0.010 A 
ATOM     42  C   UNL A   1      39.791  28.481  30.454  1.00  0.00     0.010 A 
ATOM     43  C   UNL A   1      40.259  28.859  29.187  1.00  0.00    -0.014 A 
BRANCH  43  44
ATOM     44  C   UNL A   1      41.640  28.476  28.807  1.00  0.00     0.031 A 
ATOM     45  C   UNL A   1      42.703  29.543  28.752  1.00  0.00     0.074 A 
ATOM     46  C   UNL A   1      41.912  27.218  28.408  1.00  0.00     0.049 A 
ATOM     47  N   UNL A   1      43.914  29.483  28.263  1.00  0.00    -0.248 NA
ATOM     48  C   UNL A   1      42.329  30.876  29.259  1.00  0.00     0.031 C 
ATOM     49  C   UNL A   1      40.948  26.117  28.340  1.00  0.00     0.029 A 
ATOM     50  N   UNL A   1      43.082  26.657  27.964  1.00  0.00    -0.354 N 
ATOM     51  C   UNL A   1      44.422  30.773  28.364  1.00  0.00     0.074 A 
ATOM     52  C   UNL A   1      43.368  31.608  28.892  1.00  0.00     0.031 C 
ATOM     53  C   UNL A   1      41.572  25.008  27.905  1.00  0.00     0.029 A 
ATOM     54  C   UNL A   1      42.969  25.327  27.633  1.00  0.00     0.049 A 
ATOM     55  H   UNL A   1      43.926  27.161  27.889  1.00  0.00     0.167 HD
ATOM     56  C   UNL A   1      45.669  31.216  28.079  1.00  0.00     0.037 A 
ATOM     57  C   UNL A   1      43.893  24.468  27.160  1.00  0.00     0.037 A 
ATOM     58  C   UNL A   1      46.733  30.361  27.628  1.00  0.00     0.049 A 
ATOM     59  C   UNL A   1      45.299  24.959  26.950  1.00  0.00     0.074 A 
ATOM     60  C   UNL A   1      48.048  30.689  27.355  1.00  0.00     0.029 A 
ATOM     61  N   UNL A   1      46.604  28.996  27.415  1.00  0.00    -0.354 N 
ATOM     62  N   UNL A   1      45.772  26.177  27.077  1.00  0.00    -0.248 NA
ATOM     63  C   UNL A   1      46.301  23.963  26.549  1.00  0.00     0.031 C 
ATOM     64  C   UNL A   1      48.717  29.519  26.975  1.00  0.00     0.029 A 
ATOM     65  C   UNL A   1      47.822  28.462  27.037  1.00  0.00     0.049 A 
ATOM     66  H   UNL A   1      45.770  28.484  27.519  1.00  0.00     0.167 HD
ATOM     67  C   UNL A   1      47.131  26.086  26.798  1.00  0.00     0.074 A 
ATOM     68  C   UNL A   1      47.406  24.694  26.508  1.00  0.00     0.031 C 
ATOM     69  C   UNL A   1      48.068  27.066  26.781  1.00  0.00     0.037 A 
BRANCH  56  70
ATOM     70  C   UNL A   1      45.947  32.678  28.290  1.00  0.00     0.058 A 
ATOM     71  C   UNL A   1      45.766  33.613  27.257  1.00  0.00     0.135 A 
ATOM     72  C   UNL A   1      46.400  33.155  29.530  1.00  0.00     0.135 A 
ATOM     73  F   UNL A   1      45.356  33.209  26.044  1.00  0.00    -0.206 F 
ATOM     74  C   UNL A   1      46.062  34.959  27.432  1.00  0.00     0.059 A 
ATOM     75  C   UNL A   1      46.673  34.504  29.738  1.00  0.00     0.059 A 
ATOM     76  F   UNL A   1      46.592  32.305  30.551  1.00  0.00    -0.206 F 
ATOM     77  C   UNL A   1      46.519  35.395  28.676  1.00  0.00     0.060 A 
BRANCH  77  78
ATOM     78  S   UNL A   1      46.903  37.146  28.889  1.00  0.00     0.124 S 
ATOM     79  O   UNL A   1      45.663  37.644  29.479  1.00  0.00    -0.237 OA
ATOM     80  O   UNL A   1      48.057  37.109  29.781  1.00  0.00    -0.237 OA
ATOM     81  O   UNL A   1      47.178  37.600  27.530  1.00  0.00    -0.744 OA
ENDBRANCH  77  78
ENDBRANCH  56  70
BRANCH  57  82
ATOM     82  C   UNL A   1      43.530  23.049  26.903  1.00  0.00     0.058 A 
ATOM     83  C   UNL A   1      43.449  22.555  25.591  1.00  0.00     0.135 A 
ATOM     84  C   UNL A   1      43.267  22.158  27.954  1.00  0.00     0.135 A 
ATOM     85  F   UNL A   1      43.691  23.370  24.553  1.00  0.00    -0.206 F 
ATOM     86  C   UNL A   1      43.097  21.235  25.329  1.00  0.00     0.059 A 
ATOM     87  C   UNL A   1      42.935  20.827  27.717  1.00  0.00     0.059 A 
ATOM     88  F   UNL A   1      43.354  22.575  29.226  1.00  0.00    -0.206 F 
ATOM     89  C   UNL A   1      42.840  20.379  26.399  1.00  0.00     0.060 A 
BRANCH  89  90
ATOM     90  S   UNL A   1      42.423  18.656  26.052  1.00  0.00     0.124 S 
ATOM     91  O   UNL A   1      41.017  18.764  25.678  1.00  0.00    -0.237 OA
ATOM     92  O   UNL A   1      43.347  18.325  24.972  1.00  0.00    -0.237 OA
ATOM     93  O   UNL A   1      42.690  17.986  27.321  1.00  0.00    -0.744 OA
ENDBRANCH  89  90
ENDBRANCH  57  82
BRANCH  69  94
ATOM     94  C   UNL A   1      49.482  26.658  26.488  1.00  0.00     0.058 A 
ATOM     95  C   UNL A   1      50.323  26.155  27.490  1.00  0.00     0.135 A 
ATOM     96  C   UNL A   1      49.977  26.720  25.175  1.00  0.00     0.135 A 
ATOM     97  F   UNL A   1      49.894  26.081  28.760  1.00  0.00    -0.206 F 
ATOM     98  C   UNL A   1      51.620  25.743  27.204  1.00  0.00     0.059 A 
ATOM     99  C   UNL A   1      51.263  26.293  24.864  1.00  0.00     0.059 A 
ATOM    100  F   UNL A   1      49.204  27.185  24.182  1.00  0.00    -0.206 F 
ATOM    101  C   UNL A   1      52.080  25.816  25.888  1.00  0.00     0.060 A 
BRANCH 101 102
ATOM    102  S   UNL A   1      53.754  25.246  25.521  1.00  0.00     0.124 S 
ATOM    103  O   UNL A   1      53.489  24.016  24.782  1.00  0.00    -0.237 OA
ATOM    104  O   UNL A   1      54.299  26.350  24.739  1.00  0.00    -0.237 OA
ATOM    105  O   UNL A   1      54.347  25.070  26.843  1.00  0.00    -0.744 OA
ENDBRANCH 101 102
ENDBRANCH  69  94
ENDBRANCH  43  44
ENDBRANCH  35  38
ENDBRANCH  33  34
ENDBRANCH  32  33
ENDBRANCH   1  32
TORSDOF 17
ENDMDL
MODEL 2
REMARK VINA RESULT:     -13.0      6.249     12.003
REMARK SMILES Cc1ccc(S(=O)(=O)N2CCN(C(=O)[C@H]3CCCC[C@H]3C(=O)NCCCCNC(=O)c3ccc(-c4c5nc(c(-c6c(F)cc(S(=O)(=O)[O-])cc6F)c6ccc([nH]6)c(-c6c(F)cc(S(=O)(=O)[O-])cc6F)c6nc(c(-c7c(F)cc(S(=O)(=O)[O-])cc7F)c7ccc4[nH]7)C=C6)C=C5)cc3)CC2)cc1C
REMARK SMILES IDX 25 1 24 2 23 3 21 4 22 5 20 7 15 8 16 9 17 10 19 11 18 12
REMARK SMILES IDX 13 13 9 14 10 15 98 16 11 17 97 18 12 19 14 20 6 21 7 22
REMARK SMILES IDX 8 23 5 24 1 25 2 26 3 27 100 28 4 29 99 30 101 31 26 32
REMARK SMILES IDX 27 33 28 34 29 35 30 37 31 38 32 39 96 40 33 41 95 42 34 43
REMARK SMILES IDX 35 44 36 45 89 46 37 47 94 48 88 49 90 50 38 51 93 52 87 53
REMARK SMILES IDX 86 54 39 56 73 57 52 58 72 59 53 60 56 61 71 62 91 63 54 64
REMARK SMILES IDX 55 65 70 67 92 68 57 69 40 70 41 71 50 72 42 73 43 74 49 75
REMARK SMILES IDX 51 76 44 77 45 78 46 79 47 80 48 81 74 82 75 83 84 84 76 85
REMARK SMILES IDX 77 86 83 87 85 88 78 89 79 90 80 91 81 92 82 93 58 94 59 95
REMARK SMILES IDX 68 96 60 97 61 98 67 99 69 100 62 101 63 102 64 103 65 104
REMARK SMILES IDX 66 105
REMARK H PARENT 23 6 28 36 90 55 56 66
REMARK Flexibility Score: inf
ROOT
ATOM      1  C   UNL A   1      38.724  21.694  25.744  1.00  0.00     0.023 C 
ENDROOT
BRANCH   1   2
ATOM      2  C   UNL A   1      37.440  21.159  25.117  1.00  0.00     0.116 C 
BRANCH   2   3
ATOM      3  N   UNL A   1      36.858  22.094  24.180  1.00  0.00    -0.356 N 
ATOM      4  C   UNL A   1      35.565  22.428  23.924  1.00  0.00     0.223 C 
ATOM      5  O   UNL A   1      35.357  23.177  22.963  1.00  0.00    -0.275 OA
ATOM      6  H   UNL A   1      37.516  22.575  23.628  1.00  0.00     0.163 HD
BRANCH   4   7
ATOM      7  C   UNL A   1      34.380  21.973  24.789  1.00  0.00     0.091 C 
ATOM      8  C   UNL A   1      33.841  22.980  25.845  1.00  0.00     0.091 C 
ATOM      9  C   UNL A   1      32.586  22.462  26.560  1.00  0.00     0.014 C 
ATOM     10  C   UNL A   1      31.557  21.866  25.610  1.00  0.00     0.001 C 
ATOM     11  C   UNL A   1      33.333  21.176  23.989  1.00  0.00     0.014 C 
ATOM     12  C   UNL A   1      32.165  20.704  24.843  1.00  0.00     0.001 C 
BRANCH   8  13
ATOM     13  C   UNL A   1      33.812  24.450  25.425  1.00  0.00     0.226 C 
ATOM     14  N   UNL A   1      31.116  27.188  23.813  1.00  0.00    -0.194 NA
ATOM     15  C   UNL A   1      31.814  26.354  22.830  1.00  0.00     0.124 C 
ATOM     16  C   UNL A   1      30.635  26.451  24.992  1.00  0.00     0.124 C 
ATOM     17  C   UNL A   1      32.974  25.628  23.507  1.00  0.00     0.136 C 
ATOM     18  C   UNL A   1      31.769  25.672  25.674  1.00  0.00     0.136 C 
ATOM     19  N   UNL A   1      32.676  24.942  24.772  1.00  0.00    -0.340 N 
ATOM     20  O   UNL A   1      34.709  25.221  25.764  1.00  0.00    -0.275 OA
BRANCH  14  21
ATOM     21  S   UNL A   1      30.982  28.848  23.642  1.00  0.00     0.243 S 
ATOM     22  O   UNL A   1      29.576  29.190  23.775  1.00  0.00    -0.207 OA
ATOM     23  O   UNL A   1      31.729  29.209  22.461  1.00  0.00    -0.207 OA
BRANCH  21  24
ATOM     24  C   UNL A   1      31.810  29.614  25.021  1.00  0.00     0.082 A 
ATOM     25  C   UNL A   1      33.986  31.461  28.270  1.00  0.00     0.044 C 
ATOM     26  C   UNL A   1      33.250  30.778  27.149  1.00  0.00    -0.048 A 
ATOM     27  C   UNL A   1      32.020  31.306  26.731  1.00  0.00     0.005 A 
ATOM     28  C   UNL A   1      33.765  29.642  26.493  1.00  0.00    -0.047 A 
ATOM     29  C   UNL A   1      31.310  30.735  25.673  1.00  0.00     0.022 A 
ATOM     30  C   UNL A   1      33.027  29.061  25.441  1.00  0.00     0.025 A 
ATOM     31  C   UNL A   1      35.077  29.007  26.870  1.00  0.00     0.044 C 
ENDBRANCH  21  24
ENDBRANCH  14  21
ENDBRANCH   8  13
ENDBRANCH   4   7
ENDBRANCH   2   3
ENDBRANCH   1   2
BRANCH   1  32
ATOM     32  C   UNL A   1      38.627  23.041  26.428  1.00  0.00     0.023 C 
BRANCH  32  33
ATOM     33  C   UNL A   1      39.925  23.507  27.066  1.00  0.00     0.116 C 
BRANCH  33  34
ATOM     34  N   UNL A   1      40.891  24.060  26.116  1.00  0.00    -0.352 N 
ATOM     35  C   UNL A   1      41.381  25.341  26.007  1.00  0.00     0.251 C 
ATOM     36  H   UNL A   1      41.242  23.419  25.456  1.00  0.00     0.163 HD
ATOM     37  O   UNL A   1      42.110  25.647  25.069  1.00  0.00    -0.269 OA
BRANCH  35  38
ATOM     38  C   UNL A   1      40.996  26.340  27.022  1.00  0.00     0.039 A 
ATOM     39  C   UNL A   1      40.157  25.971  28.076  1.00  0.00     0.014 A 
ATOM     40  C   UNL A   1      41.544  27.620  26.966  1.00  0.00     0.014 A 
ATOM     41  C   UNL A   1      39.953  26.865  29.129  1.00  0.00     0.010 A 
ATOM     42  C   UNL A   1      41.447  28.450  28.069  1.00  0.00     0.010 A 
ATOM     43  C   UNL A   1      40.639  28.090  29.158  1.00  0.00    -0.014 A 
BRANCH  43  44
ATOM     44  C   UNL A   1      40.511  29.049  30.283  1.00  0.00     0.031 A 
ATOM     45  C   UNL A   1      41.389  28.871  31.495  1.00  0.00     0.074 A 
ATOM     46  C   UNL A   1      39.548  29.992  30.267  1.00  0.00     0.049 A 
ATOM     47  N   UNL A   1      41.318  29.455  32.662  1.00  0.00    -0.248 NA
ATOM     48  C   UNL A   1      42.448  27.851  31.400  1.00  0.00     0.031 C 
ATOM     49  C   UNL A   1      38.585  30.210  29.184  1.00  0.00     0.029 A 
ATOM     50  N   UNL A   1      39.209  30.935  31.203  1.00  0.00    -0.354 N 
ATOM     51  C   UNL A   1      42.289  28.843  33.446  1.00  0.00     0.074 A 
ATOM     52  C   UNL A   1      42.886  27.796  32.648  1.00  0.00     0.031 C 
ATOM     53  C   UNL A   1      37.781  31.238  29.508  1.00  0.00     0.029 A 
ATOM     54  C   UNL A   1      38.149  31.728  30.832  1.00  0.00     0.049 A 
ATOM     55  H   UNL A   1      39.681  31.034  32.062  1.00  0.00     0.167 HD
ATOM     56  C   UNL A   1      42.678  29.150  34.705  1.00  0.00     0.037 A 
ATOM     57  C   UNL A   1      37.545  32.735  31.492  1.00  0.00     0.037 A 
ATOM     58  C   UNL A   1      42.132  30.243  35.462  1.00  0.00     0.049 A 
ATOM     59  C   UNL A   1      38.063  33.126  32.849  1.00  0.00     0.074 A 
ATOM     60  C   UNL A   1      42.481  30.679  36.726  1.00  0.00     0.029 A 
ATOM     61  N   UNL A   1      41.137  31.095  35.002  1.00  0.00    -0.354 N 
ATOM     62  N   UNL A   1      39.002  32.556  33.566  1.00  0.00    -0.248 NA
ATOM     63  C   UNL A   1      37.455  34.305  33.481  1.00  0.00     0.031 C 
ATOM     64  C   UNL A   1      41.696  31.796  37.033  1.00  0.00     0.029 A 
ATOM     65  C   UNL A   1      40.877  32.068  35.948  1.00  0.00     0.049 A 
ATOM     66  H   UNL A   1      40.685  31.016  34.131  1.00  0.00     0.167 HD
ATOM     67  C   UNL A   1      39.116  33.322  34.720  1.00  0.00     0.074 A 
ATOM     68  C   UNL A   1      38.158  34.402  34.600  1.00  0.00     0.031 C 
ATOM     69  C   UNL A   1      39.935  33.147  35.786  1.00  0.00     0.037 A 
BRANCH  56  70
ATOM     70  C   UNL A   1      43.770  28.315  35.314  1.00  0.00     0.058 A 
ATOM     71  C   UNL A   1      43.475  27.197  36.112  1.00  0.00     0.135 A 
ATOM     72  C   UNL A   1      45.121  28.630  35.104  1.00  0.00     0.135 A 
ATOM     73  F   UNL A   1      42.199  26.863  36.364  1.00  0.00    -0.206 F 
ATOM     74  C   UNL A   1      44.478  26.446  36.713  1.00  0.00     0.059 A 
ATOM     75  C   UNL A   1      46.143  27.873  35.670  1.00  0.00     0.059 A 
ATOM     76  F   UNL A   1      45.459  29.689  34.351  1.00  0.00    -0.206 F 
ATOM     77  C   UNL A   1      45.810  26.794  36.489  1.00  0.00     0.060 A 
BRANCH  77  78
ATOM     78  S   UNL A   1      47.103  25.812  37.278  1.00  0.00     0.124 S 
ATOM     79  O   UNL A   1      46.803  26.021  38.691  1.00  0.00    -0.237 OA
ATOM     80  O   UNL A   1      46.837  24.472  36.766  1.00  0.00    -0.237 OA
ATOM     81  O   UNL A   1      48.336  26.429  36.800  1.00  0.00    -0.744 OA
ENDBRANCH  77  78
ENDBRANCH  56  70
BRANCH  57  82
ATOM     82  C   UNL A   1      36.419  33.473  30.859  1.00  0.00     0.058 A 
ATOM     83  C   UNL A   1      35.119  33.385  31.382  1.00  0.00     0.135 A 
ATOM     84  C   UNL A   1      36.617  34.285  29.732  1.00  0.00     0.135 A 
ATOM     85  F   UNL A   1      34.881  32.621  32.458  1.00  0.00    -0.206 F 
ATOM     86  C   UNL A   1      34.051  34.056  30.796  1.00  0.00     0.059 A 
ATOM     87  C   UNL A   1      35.567  34.983  29.142  1.00  0.00     0.059 A 
ATOM     88  F   UNL A   1      37.845  34.420  29.209  1.00  0.00    -0.206 F 
ATOM     89  C   UNL A   1      34.284  34.851  29.675  1.00  0.00     0.060 A 
BRANCH  89  90
ATOM     90  S   UNL A   1      32.899  35.751  28.943  1.00  0.00     0.124 S 
ATOM     91  O   UNL A   1      32.337  34.747  28.049  1.00  0.00    -0.237 OA
ATOM     92  O   UNL A   1      32.095  36.086  30.114  1.00  0.00    -0.237 OA
ATOM     93  O   UNL A   1      33.545  36.887  28.293  1.00  0.00    -0.744 OA
ENDBRANCH  89  90
ENDBRANCH  57  82
BRANCH  69  94
ATOM     94  C   UNL A   1      39.869  34.172  36.879  1.00  0.00     0.058 A 
ATOM     95  C   UNL A   1      40.615  35.357  36.820  1.00  0.00     0.135 A 
ATOM     96  C   UNL A   1      39.001  33.989  37.968  1.00  0.00     0.135 A 
ATOM     97  F   UNL A   1      41.460  35.575  35.800  1.00  0.00    -0.206 F 
ATOM     98  C   UNL A   1      40.519  36.322  37.818  1.00  0.00     0.059 A 
ATOM     99  C   UNL A   1      38.874  34.949  38.965  1.00  0.00     0.059 A 
ATOM    100  F   UNL A   1      38.259  32.874  38.060  1.00  0.00    -0.206 F 
ATOM    101  C   UNL A   1      39.646  36.107  38.886  1.00  0.00     0.060 A 
BRANCH 101 102
ATOM    102  S   UNL A   1      39.502  37.381  40.158  1.00  0.00     0.124 S 
ATOM    103  O   UNL A   1      38.552  38.303  39.543  1.00  0.00    -0.237 OA
ATOM    104  O   UNL A   1      39.003  36.627  41.303  1.00  0.00    -0.237 OA
ATOM    105  O   UNL A   1      40.867  37.880  40.291  1.00  0.00    -0.744 OA
ENDBRANCH 101 102
ENDBRANCH  69  94
ENDBRANCH  43  44
ENDBRANCH  35  38
ENDBRANCH  33  34
ENDBRANCH  32  33
ENDBRANCH   1  32
TORSDOF 17
ENDMDL
MODEL 3
REMARK VINA RESULT:     -12.4      1.113      8.070
REMARK SMILES Cc1ccc(S(=O)(=O)N2CCN(C(=O)[C@H]3CCCC[C@H]3C(=O)NCCCCNC(=O)c3ccc(-c4c5nc(c(-c6c(F)cc(S(=O)(=O)[O-])cc6F)c6ccc([nH]6)c(-c6c(F)cc(S(=O)(=O)[O-])cc6F)c6nc(c(-c7c(F)cc(S(=O)(=O)[O-])cc7F)c7ccc4[nH]7)C=C6)C=C5)cc3)CC2)cc1C
REMARK SMILES IDX 25 1 24 2 23 3 21 4 22 5 20 7 15 8 16 9 17 10 19 11 18 12
REMARK SMILES IDX 13 13 9 14 10 15 98 16 11 17 97 18 12 19 14 20 6 21 7 22
REMARK SMILES IDX 8 23 5 24 1 25 2 26 3 27 100 28 4 29 99 30 101 31 26 32
REMARK SMILES IDX 27 33 28 34 29 35 30 37 31 38 32 39 96 40 33 41 95 42 34 43
REMARK SMILES IDX 35 44 36 45 89 46 37 47 94 48 88 49 90 50 38 51 93 52 87 53
REMARK SMILES IDX 86 54 39 56 73 57 52 58 72 59 53 60 56 61 71 62 91 63 54 64
REMARK SMILES IDX 55 65 70 67 92 68 57 69 40 70 41 71 50 72 42 73 43 74 49 75
REMARK SMILES IDX 51 76 44 77 45 78 46 79 47 80 48 81 74 82 75 83 84 84 76 85
REMARK SMILES IDX 77 86 83 87 85 88 78 89 79 90 80 91 81 92 82 93 58 94 59 95
REMARK SMILES IDX 68 96 60 97 61 98 67 99 69 100 62 101 63 102 64 103 65 104
REMARK SMILES IDX 66 105
REMARK H PARENT 23 6 28 36 90 55 56 66
REMARK Flexibility Score: inf
ROOT
ATOM      1  C   UNL A   1      34.263  32.318  28.420  1.00  0.00     0.023 C 
ENDROOT
BRANCH   1   2
ATOM      2  C   UNL A   1      34.014  31.375  27.247  1.00  0.00     0.116 C 
BRANCH   2   3
ATOM      3  N   UNL A   1      33.149  30.273  27.606  1.00  0.00    -0.356 N 
ATOM      4  C   UNL A   1      32.263  29.546  26.874  1.00  0.00     0.223 C 
ATOM      5  O   UNL A   1      31.558  28.736  27.486  1.00  0.00    -0.275 OA
ATOM      6  H   UNL A   1      33.212  30.001  28.550  1.00  0.00     0.163 HD
BRANCH   4   7
ATOM      7  C   UNL A   1      32.139  29.642  25.346  1.00  0.00     0.091 C 
ATOM      8  C   UNL A   1      33.116  28.780  24.496  1.00  0.00     0.091 C 
ATOM      9  C   UNL A   1      32.818  28.866  22.994  1.00  0.00     0.014 C 
ATOM     10  C   UNL A   1      31.338  28.725  22.667  1.00  0.00     0.001 C 
ATOM     11  C   UNL A   1      30.675  29.705  24.872  1.00  0.00     0.014 C 
ATOM     12  C   UNL A   1      30.543  29.820  23.360  1.00  0.00     0.001 C 
BRANCH   8  13
ATOM     13  C   UNL A   1      33.433  27.385  25.037  1.00  0.00     0.226 C 
ATOM     14  N   UNL A   1      32.248  23.442  24.392  1.00  0.00    -0.194 NA
ATOM     15  C   UNL A   1      31.396  24.202  25.312  1.00  0.00     0.124 C 
ATOM     16  C   UNL A   1      32.642  24.185  23.185  1.00  0.00     0.124 C 
ATOM     17  C   UNL A   1      32.095  25.503  25.699  1.00  0.00     0.136 C 
ATOM     18  C   UNL A   1      33.310  25.521  23.538  1.00  0.00     0.136 C 
ATOM     19  N   UNL A   1      32.657  26.302  24.603  1.00  0.00    -0.340 N 
ATOM     20  O   UNL A   1      34.425  27.188  25.737  1.00  0.00    -0.275 OA
BRANCH  14  21
ATOM     21  S   UNL A   1      32.799  21.903  24.752  1.00  0.00     0.243 S 
ATOM     22  O   UNL A   1      32.722  21.114  23.535  1.00  0.00    -0.207 OA
ATOM     23  O   UNL A   1      32.122  21.485  25.956  1.00  0.00    -0.207 OA
BRANCH  21  24
ATOM     24  C   UNL A   1      34.531  22.018  25.158  1.00  0.00     0.082 A 
ATOM     25  C   UNL A   1      38.773  22.219  25.972  1.00  0.00     0.044 C 
ATOM     26  C   UNL A   1      37.299  22.103  25.693  1.00  0.00    -0.048 A 
ATOM     27  C   UNL A   1      36.473  23.204  25.966  1.00  0.00     0.005 A 
ATOM     28  C   UNL A   1      36.726  20.937  25.148  1.00  0.00    -0.047 A 
ATOM     29  C   UNL A   1      35.104  23.164  25.694  1.00  0.00     0.022 A 
ATOM     30  C   UNL A   1      35.338  20.903  24.900  1.00  0.00     0.025 A 
ATOM     31  C   UNL A   1      37.532  19.709  24.821  1.00  0.00     0.044 C 
ENDBRANCH  21  24
ENDBRANCH  14  21
ENDBRANCH   8  13
ENDBRANCH   4   7
ENDBRANCH   2   3
ENDBRANCH   1   2
BRANCH   1  32
ATOM     32  C   UNL A   1      35.592  33.044  28.429  1.00  0.00     0.023 C 
BRANCH  32  33
ATOM     33  C   UNL A   1      36.685  32.323  29.200  1.00  0.00     0.116 C 
BRANCH  33  34
ATOM     34  N   UNL A   1      36.187  31.411  30.230  1.00  0.00    -0.352 N 
ATOM     35  C   UNL A   1      36.672  30.186  30.629  1.00  0.00     0.251 C 
ATOM     36  H   UNL A   1      35.385  31.721  30.709  1.00  0.00     0.163 HD
ATOM     37  O   UNL A   1      36.051  29.510  31.442  1.00  0.00    -0.269 OA
BRANCH  35  38
ATOM     38  C   UNL A   1      37.933  29.695  30.044  1.00  0.00     0.039 A 
ATOM     39  C   UNL A   1      38.118  29.730  28.660  1.00  0.00     0.014 A 
ATOM     40  C   UNL A   1      38.964  29.282  30.887  1.00  0.00     0.014 A 
ATOM     41  C   UNL A   1      39.379  29.444  28.133  1.00  0.00     0.010 A 
ATOM     42  C   UNL A   1      40.241  29.128  30.374  1.00  0.00     0.010 A 
ATOM     43  C   UNL A   1      40.462  29.193  28.991  1.00  0.00    -0.014 A 
BRANCH  43  44
ATOM     44  C   UNL A   1      41.836  28.948  28.489  1.00  0.00     0.031 A 
ATOM     45  C   UNL A   1      42.208  27.560  28.033  1.00  0.00     0.074 A 
ATOM     46  C   UNL A   1      42.766  29.922  28.547  1.00  0.00     0.049 A 
ATOM     47  N   UNL A   1      43.385  27.069  27.747  1.00  0.00    -0.248 NA
ATOM     48  C   UNL A   1      41.114  26.576  27.951  1.00  0.00     0.031 C 
ATOM     49  C   UNL A   1      42.547  31.283  29.044  1.00  0.00     0.029 A 
ATOM     50  N   UNL A   1      44.092  29.909  28.200  1.00  0.00    -0.354 N 
ATOM     51  C   UNL A   1      43.177  25.719  27.496  1.00  0.00     0.074 A 
ATOM     52  C   UNL A   1      41.777  25.451  27.733  1.00  0.00     0.031 C 
ATOM     53  C   UNL A   1      43.693  31.979  28.947  1.00  0.00     0.029 A 
ATOM     54  C   UNL A   1      44.733  31.107  28.413  1.00  0.00     0.049 A 
ATOM     55  H   UNL A   1      44.545  29.114  27.832  1.00  0.00     0.167 HD
ATOM     56  C   UNL A   1      44.063  24.790  27.068  1.00  0.00     0.037 A 
ATOM     57  C   UNL A   1      46.017  31.456  28.201  1.00  0.00     0.037 A 
ATOM     58  C   UNL A   1      45.436  25.084  26.760  1.00  0.00     0.049 A 
ATOM     59  C   UNL A   1      46.960  30.434  27.626  1.00  0.00     0.074 A 
ATOM     60  C   UNL A   1      46.413  24.236  26.273  1.00  0.00     0.029 A 
ATOM     61  N   UNL A   1      46.015  26.339  26.881  1.00  0.00    -0.354 N 
ATOM     62  N   UNL A   1      46.740  29.166  27.368  1.00  0.00    -0.248 NA
ATOM     63  C   UNL A   1      48.317  30.889  27.299  1.00  0.00     0.031 C 
ATOM     64  C   UNL A   1      47.586  24.979  26.100  1.00  0.00     0.029 A 
ATOM     65  C   UNL A   1      47.329  26.294  26.456  1.00  0.00     0.049 A 
ATOM     66  H   UNL A   1      45.556  27.142  27.219  1.00  0.00     0.167 HD
ATOM     67  C   UNL A   1      47.923  28.680  26.822  1.00  0.00     0.074 A 
ATOM     68  C   UNL A   1      48.850  29.793  26.777  1.00  0.00     0.031 C 
ATOM     69  C   UNL A   1      48.218  27.426  26.399  1.00  0.00     0.037 A 
BRANCH  56  70
ATOM     70  C   UNL A   1      43.555  23.389  26.873  1.00  0.00     0.058 A 
ATOM     71  C   UNL A   1      43.286  22.550  27.968  1.00  0.00     0.135 A 
ATOM     72  C   UNL A   1      43.336  22.874  25.586  1.00  0.00     0.135 A 
ATOM     73  F   UNL A   1      43.500  22.984  29.221  1.00  0.00    -0.206 F 
ATOM     74  C   UNL A   1      42.858  21.240  27.794  1.00  0.00     0.059 A 
ATOM     75  C   UNL A   1      42.877  21.574  25.389  1.00  0.00     0.059 A 
ATOM     76  F   UNL A   1      43.578  23.631  24.505  1.00  0.00    -0.206 F 
ATOM     77  C   UNL A   1      42.659  20.759  26.499  1.00  0.00     0.060 A 
BRANCH  77  78
ATOM     78  S   UNL A   1      42.106  19.054  26.287  1.00  0.00     0.124 S 
ATOM     79  O   UNL A   1      42.249  18.533  27.644  1.00  0.00    -0.237 OA
ATOM     80  O   UNL A   1      40.735  19.225  25.817  1.00  0.00    -0.237 OA
ATOM     81  O   UNL A   1      43.040  18.514  25.305  1.00  0.00    -0.744 OA
ENDBRANCH  77  78
ENDBRANCH  56  70
BRANCH  57  82
ATOM     82  C   UNL A   1      46.471  32.843  28.486  1.00  0.00     0.058 A 
ATOM     83  C   UNL A   1      46.987  33.185  29.745  1.00  0.00     0.135 A 
ATOM     84  C   UNL A   1      46.409  33.848  27.510  1.00  0.00     0.135 A 
ATOM     85  F   UNL A   1      47.065  32.257  30.711  1.00  0.00    -0.206 F 
ATOM     86  C   UNL A   1      47.403  34.480  30.036  1.00  0.00     0.059 A 
ATOM     87  C   UNL A   1      46.840  35.146  27.771  1.00  0.00     0.059 A 
ATOM     88  F   UNL A   1      45.945  33.567  26.283  1.00  0.00    -0.206 F 
ATOM     89  C   UNL A   1      47.324  35.455  29.043  1.00  0.00     0.060 A 
BRANCH  89  90
ATOM     90  S   UNL A   1      47.904  37.125  29.415  1.00  0.00     0.124 S 
ATOM     91  O   UNL A   1      48.923  36.863  30.424  1.00  0.00    -0.237 OA
ATOM     92  O   UNL A   1      48.392  37.579  28.116  1.00  0.00    -0.237 OA
ATOM     93  O   UNL A   1      46.699  37.798  29.892  1.00  0.00    -0.744 OA
ENDBRANCH  89  90
ENDBRANCH  57  82
BRANCH  69  94
ATOM     94  C   UNL A   1      49.578  27.205  25.804  1.00  0.00     0.058 A 
ATOM     95  C   UNL A   1      49.813  27.363  24.432  1.00  0.00     0.135 A 
ATOM     96  C   UNL A   1      50.667  26.889  26.632  1.00  0.00     0.135 A 
ATOM     97  F   UNL A   1      48.802  27.662  23.602  1.00  0.00    -0.206 F 
ATOM     98  C   UNL A   1      51.084  27.194  23.893  1.00  0.00     0.059 A 
ATOM     99  C   UNL A   1      51.950  26.736  26.117  1.00  0.00     0.059 A 
ATOM    100  F   UNL A   1      50.491  26.739  27.954  1.00  0.00    -0.206 F 
ATOM    101  C   UNL A   1      52.146  26.880  24.745  1.00  0.00     0.060 A 
BRANCH 101 102
ATOM    102  S   UNL A   1      53.798  26.698  24.041  1.00  0.00     0.124 S 
ATOM    103  O   UNL A   1      54.193  28.090  23.854  1.00  0.00    -0.237 OA
ATOM    104  O   UNL A   1      54.509  25.973  25.089  1.00  0.00    -0.237 OA
ATOM    105  O   UNL A   1      53.561  25.941  22.815  1.00  0.00    -0.744 OA
ENDBRANCH 101 102
ENDBRANCH  69  94
ENDBRANCH  43  44
ENDBRANCH  35  38
ENDBRANCH  33  34
ENDBRANCH  32  33
ENDBRANCH   1  32
TORSDOF 17
ENDMDL
