MODEL 1
REMARK VINA RESULT:     -12.8      0.000      0.000
REMARK SMILES O=C(NCCCCNC(=O)C1(Cc2ccccc2Cl)CCN(c2ncnc3[nH]ccc23)CC1)c1ccc(-c2c3nc(c(-c4c(F)cc(S(=O)(=O)[O-])cc4F)c4ccc([nH]4)c(-c4c(F)cc(S(=O)(=O)[O-])cc4F)c4nc(c(-c5c(F)cc(S(=O)(=O)[O-])cc5F)c5ccc2[nH]5)C=C4)C=C3)cc1
REMARK SMILES IDX 5 1 4 2 3 3 1 4 2 5 34 7 35 8 99 9 36 10 98 11 37 12 38 13
REMARK SMILES IDX 39 14 92 15 40 16 97 17 91 18 93 19 41 20 96 21 90 22 89 23
REMARK SMILES IDX 42 25 76 26 55 27 75 28 56 29 59 30 74 31 94 32 57 33 58 34
REMARK SMILES IDX 73 36 95 37 60 38 43 39 44 40 53 41 45 42 46 43 52 44 54 45
REMARK SMILES IDX 47 46 48 47 49 48 50 49 51 50 77 51 78 52 87 53 79 54 80 55
REMARK SMILES IDX 86 56 88 57 81 58 82 59 83 60 84 61 85 62 61 63 62 64 71 65
REMARK SMILES IDX 63 66 64 67 70 68 72 69 65 70 66 71 67 72 68 73 69 74 6 75
REMARK SMILES IDX 7 76 8 77 9 78 10 80 11 81 20 82 33 83 21 84 32 85 22 86
REMARK SMILES IDX 12 87 13 88 14 89 18 90 15 91 17 92 19 93 16 94 23 95 24 96
REMARK SMILES IDX 31 97 25 98 27 99 30 100 26 101 28 102 29 103
REMARK H PARENT 3 6 93 24 59 35 8 79 28 104
REMARK Flexibility Score: inf
ROOT
ATOM      1  C   UNL A   1      34.910  31.510  27.924  1.00  0.00     0.023 C 
ENDROOT
BRANCH   1   2
ATOM      2  C   UNL A   1      35.890  31.946  29.008  1.00  0.00     0.116 C 
BRANCH   2   3
ATOM      3  N   UNL A   1      35.702  31.258  30.278  1.00  0.00    -0.352 N 
ATOM      4  O   UNL A   1      36.176  29.880  31.997  1.00  0.00    -0.269 OA
ATOM      5  C   UNL A   1      36.560  30.445  30.982  1.00  0.00     0.251 C 
ATOM      6  H   UNL A   1      34.822  31.398  30.700  1.00  0.00     0.163 HD
BRANCH   5   7
ATOM      7  C   UNL A   1      37.930  30.224  30.479  1.00  0.00     0.039 A 
ATOM      8  C   UNL A   1      38.173  30.075  29.111  1.00  0.00     0.014 A 
ATOM      9  C   UNL A   1      38.977  30.134  31.398  1.00  0.00     0.014 A 
ATOM     10  C   UNL A   1      39.428  29.666  28.677  1.00  0.00     0.010 A 
ATOM     11  C   UNL A   1      40.257  29.803  30.951  1.00  0.00     0.010 A 
ATOM     12  C   UNL A   1      40.482  29.524  29.594  1.00  0.00    -0.014 A 
BRANCH  12  13
ATOM     13  C   UNL A   1      41.826  29.112  29.123  1.00  0.00     0.031 A 
ATOM     14  C   UNL A   1      42.947  30.109  29.032  1.00  0.00     0.074 A 
ATOM     15  C   UNL A   1      42.021  27.832  28.756  1.00  0.00     0.049 A 
ATOM     16  N   UNL A   1      44.155  29.949  28.559  1.00  0.00    -0.248 NA
ATOM     17  C   UNL A   1      42.669  31.466  29.528  1.00  0.00     0.031 C 
ATOM     18  C   UNL A   1      41.004  26.780  28.801  1.00  0.00     0.029 A 
ATOM     19  N   UNL A   1      43.134  27.200  28.264  1.00  0.00    -0.354 N 
ATOM     20  C   UNL A   1      44.773  31.189  28.667  1.00  0.00     0.074 A 
ATOM     21  C   UNL A   1      43.801  32.095  29.241  1.00  0.00     0.031 C 
ATOM     22  C   UNL A   1      41.539  25.634  28.360  1.00  0.00     0.029 A 
ATOM     23  C   UNL A   1      42.914  25.883  27.944  1.00  0.00     0.049 A 
ATOM     24  H   UNL A   1      44.004  27.647  28.150  1.00  0.00     0.167 HD
ATOM     25  C   UNL A   1      46.037  31.535  28.316  1.00  0.00     0.037 A 
ATOM     26  C   UNL A   1      43.716  24.981  27.345  1.00  0.00     0.037 A 
ATOM     27  C   UNL A   1      46.998  30.616  27.763  1.00  0.00     0.049 A 
ATOM     28  C   UNL A   1      45.105  25.385  26.956  1.00  0.00     0.074 A 
ATOM     29  C   UNL A   1      48.317  30.854  27.419  1.00  0.00     0.029 A 
ATOM     30  N   UNL A   1      46.741  29.285  27.467  1.00  0.00    -0.354 N 
ATOM     31  N   UNL A   1      45.686  26.554  27.091  1.00  0.00    -0.248 NA
ATOM     32  C   UNL A   1      45.948  24.358  26.334  1.00  0.00     0.031 C 
ATOM     33  C   UNL A   1      48.845  29.676  26.877  1.00  0.00     0.029 A 
ATOM     34  C   UNL A   1      47.869  28.693  26.923  1.00  0.00     0.049 A 
ATOM     35  H   UNL A   1      45.882  28.828  27.621  1.00  0.00     0.167 HD
ATOM     36  C   UNL A   1      46.969  26.401  26.582  1.00  0.00     0.074 A 
ATOM     37  C   UNL A   1      47.081  25.024  26.142  1.00  0.00     0.031 C 
ATOM     38  C   UNL A   1      47.963  27.319  26.492  1.00  0.00     0.037 A 
BRANCH  25  39
ATOM     39  C   UNL A   1      46.433  32.976  28.487  1.00  0.00     0.058 A 
ATOM     40  C   UNL A   1      47.003  33.454  29.678  1.00  0.00     0.135 A 
ATOM     41  C   UNL A   1      46.239  33.893  27.442  1.00  0.00     0.135 A 
ATOM     42  F   UNL A   1      47.201  32.624  30.714  1.00  0.00    -0.206 F 
ATOM     43  C   UNL A   1      47.326  34.798  29.841  1.00  0.00     0.059 A 
ATOM     44  C   UNL A   1      46.576  35.237  27.575  1.00  0.00     0.059 A 
ATOM     45  F   UNL A   1      45.703  33.490  26.279  1.00  0.00    -0.206 F 
ATOM     46  C   UNL A   1      47.098  35.685  28.787  1.00  0.00     0.060 A 
BRANCH  46  47
ATOM     47  S   UNL A   1      47.477  37.434  29.025  1.00  0.00     0.124 S 
ATOM     48  O   UNL A   1      46.609  37.767  30.150  1.00  0.00    -0.237 OA
ATOM     49  O   UNL A   1      48.907  37.412  29.315  1.00  0.00    -0.237 OA
ATOM     50  O   UNL A   1      47.110  38.037  27.748  1.00  0.00    -0.744 OA
ENDBRANCH  46  47
ENDBRANCH  25  39
BRANCH  26  51
ATOM     51  C   UNL A   1      43.182  23.624  27.076  1.00  0.00     0.058 A 
ATOM     52  C   UNL A   1      42.798  23.241  25.785  1.00  0.00     0.135 A 
ATOM     53  C   UNL A   1      43.159  22.649  28.088  1.00  0.00     0.135 A 
ATOM     54  F   UNL A   1      42.804  24.139  24.789  1.00  0.00    -0.206 F 
ATOM     55  C   UNL A   1      42.427  21.931  25.498  1.00  0.00     0.059 A 
ATOM     56  C   UNL A   1      42.812  21.329  27.820  1.00  0.00     0.059 A 
ATOM     57  F   UNL A   1      43.538  22.965  29.335  1.00  0.00    -0.206 F 
ATOM     58  C   UNL A   1      42.450  20.979  26.520  1.00  0.00     0.060 A 
BRANCH  58  59
ATOM     59  S   UNL A   1      42.082  19.258  26.113  1.00  0.00     0.124 S 
ATOM     60  O   UNL A   1      42.928  19.046  24.945  1.00  0.00    -0.237 OA
ATOM     61  O   UNL A   1      42.486  18.560  27.329  1.00  0.00    -0.237 OA
ATOM     62  O   UNL A   1      40.645  19.275  25.859  1.00  0.00    -0.744 OA
ENDBRANCH  58  59
ENDBRANCH  26  51
BRANCH  38  63
ATOM     63  C   UNL A   1      49.272  26.866  25.916  1.00  0.00     0.058 A 
ATOM     64  C   UNL A   1      49.593  27.082  24.568  1.00  0.00     0.135 A 
ATOM     65  C   UNL A   1      50.250  26.292  26.745  1.00  0.00     0.135 A 
ATOM     66  F   UNL A   1      48.687  27.618  23.735  1.00  0.00    -0.206 F 
ATOM     67  C   UNL A   1      50.842  26.746  24.059  1.00  0.00     0.059 A 
ATOM     68  C   UNL A   1      51.512  25.965  26.261  1.00  0.00     0.059 A 
ATOM     69  F   UNL A   1      49.990  26.070  28.043  1.00  0.00    -0.206 F 
ATOM     70  C   UNL A   1      51.798  26.194  24.916  1.00  0.00     0.060 A 
BRANCH  70  71
ATOM     71  S   UNL A   1      53.443  25.832  24.263  1.00  0.00     0.124 S 
ATOM     72  O   UNL A   1      53.658  24.474  24.749  1.00  0.00    -0.237 OA
ATOM     73  O   UNL A   1      53.245  25.966  22.823  1.00  0.00    -0.237 OA
ATOM     74  O   UNL A   1      54.283  26.859  24.872  1.00  0.00    -0.744 OA
ENDBRANCH  70  71
ENDBRANCH  38  63
ENDBRANCH  12  13
ENDBRANCH   5   7
ENDBRANCH   2   3
ENDBRANCH   1   2
BRANCH   1  75
ATOM     75  C   UNL A   1      35.299  30.267  27.131  1.00  0.00     0.023 C 
BRANCH  75  76
ATOM     76  C   UNL A   1      34.627  28.966  27.544  1.00  0.00     0.116 C 
BRANCH  76  77
ATOM     77  N   UNL A   1      33.179  29.008  27.598  1.00  0.00    -0.356 N 
ATOM     78  C   UNL A   1      32.252  28.198  27.011  1.00  0.00     0.226 C 
ATOM     79  H   UNL A   1      32.806  29.735  28.145  1.00  0.00     0.163 HD
ATOM     80  O   UNL A   1      31.223  28.014  27.674  1.00  0.00    -0.274 OA
BRANCH  78  81
ATOM     81  C   UNL A   1      32.344  27.655  25.560  1.00  0.00     0.057 C 
ATOM     82  C   UNL A   1      31.091  26.746  25.306  1.00  0.00     0.039 C 
ATOM     83  C   UNL A   1      33.574  26.787  25.218  1.00  0.00     0.039 C 
ATOM     84  C   UNL A   1      31.161  25.408  26.066  1.00  0.00     0.119 C 
ATOM     85  C   UNL A   1      33.631  25.523  26.065  1.00  0.00     0.119 C 
ATOM     86  N   UNL A   1      32.432  24.778  25.752  1.00  0.00    -0.356 N 
BRANCH  81  87
ATOM     87  C   UNL A   1      32.386  28.887  24.593  1.00  0.00     0.054 C 
BRANCH  87  88
ATOM     88  C   UNL A   1      31.088  29.309  23.930  1.00  0.00    -0.028 A 
ATOM     89  C   UNL A   1      30.382  30.401  24.476  1.00  0.00     0.005 A 
ATOM     90  C   UNL A   1      30.548  28.670  22.803  1.00  0.00     0.044 A 
ATOM     91  C   UNL A   1      29.205  30.868  23.890  1.00  0.00     0.000 A 
ATOM     92  C   UNL A   1      29.369  29.146  22.215  1.00  0.00     0.021 A 
ATOM     93  Cl  UNL A   1      31.252  27.250  22.118  1.00  0.00    -0.084 Cl
ATOM     94  C   UNL A   1      28.704  30.248  22.752  1.00  0.00     0.002 A 
ENDBRANCH  87  88
ENDBRANCH  81  87
BRANCH  86  95
ATOM     95  C   UNL A   1      32.556  23.410  25.859  1.00  0.00     0.141 A 
ATOM     96  N   UNL A   1      33.084  22.847  26.970  1.00  0.00    -0.219 NA
ATOM     97  C   UNL A   1      32.360  22.597  24.733  1.00  0.00     0.061 A 
ATOM     98  C   UNL A   1      33.375  21.530  26.948  1.00  0.00     0.226 A 
ATOM     99  C   UNL A   1      32.740  21.271  24.842  1.00  0.00     0.142 A 
ATOM    100  C   UNL A   1      31.923  22.795  23.393  1.00  0.00     0.033 A 
ATOM    101  N   UNL A   1      33.245  20.663  25.925  1.00  0.00    -0.218 NA
ATOM    102  N   UNL A   1      32.553  20.678  23.622  1.00  0.00    -0.346 N 
ATOM    103  C   UNL A   1      32.059  21.596  22.728  1.00  0.00     0.085 A 
ATOM    104  H   UNL A   1      32.745  19.735  23.417  1.00  0.00     0.167 HD
ENDBRANCH  86  95
ENDBRANCH  78  81
ENDBRANCH  76  77
ENDBRANCH  75  76
ENDBRANCH   1  75
TORSDOF 17
ENDMDL
MODEL 2
REMARK VINA RESULT:     -12.6      1.172      1.953
REMARK SMILES O=C(NCCCCNC(=O)C1(Cc2ccccc2Cl)CCN(c2ncnc3[nH]ccc23)CC1)c1ccc(-c2c3nc(c(-c4c(F)cc(S(=O)(=O)[O-])cc4F)c4ccc([nH]4)c(-c4c(F)cc(S(=O)(=O)[O-])cc4F)c4nc(c(-c5c(F)cc(S(=O)(=O)[O-])cc5F)c5ccc2[nH]5)C=C4)C=C3)cc1
REMARK SMILES IDX 5 1 4 2 3 3 1 4 2 5 34 7 35 8 99 9 36 10 98 11 37 12 38 13
REMARK SMILES IDX 39 14 92 15 40 16 97 17 91 18 93 19 41 20 96 21 90 22 89 23
REMARK SMILES IDX 42 25 76 26 55 27 75 28 56 29 59 30 74 31 94 32 57 33 58 34
REMARK SMILES IDX 73 36 95 37 60 38 43 39 44 40 53 41 45 42 46 43 52 44 54 45
REMARK SMILES IDX 47 46 48 47 49 48 50 49 51 50 77 51 78 52 87 53 79 54 80 55
REMARK SMILES IDX 86 56 88 57 81 58 82 59 83 60 84 61 85 62 61 63 62 64 71 65
REMARK SMILES IDX 63 66 64 67 70 68 72 69 65 70 66 71 67 72 68 73 69 74 6 75
REMARK SMILES IDX 7 76 8 77 9 78 10 80 11 81 20 82 33 83 21 84 32 85 22 86
REMARK SMILES IDX 12 87 13 88 14 89 18 90 15 91 17 92 19 93 16 94 23 95 24 96
REMARK SMILES IDX 31 97 25 98 27 99 30 100 26 101 28 102 29 103
REMARK H PARENT 3 6 93 24 59 35 8 79 28 104
REMARK Flexibility Score: inf
ROOT
ATOM      1  C   UNL A   1      34.559  30.187  27.066  1.00  0.00     0.023 C 
ENDROOT
BRANCH   1   2
ATOM      2  C   UNL A   1      35.463  29.578  28.131  1.00  0.00     0.116 C 
BRANCH   2   3
ATOM      3  N   UNL A   1      35.340  30.210  29.437  1.00  0.00    -0.352 N 
ATOM      4  O   UNL A   1      35.987  30.987  31.451  1.00  0.00    -0.269 OA
ATOM      5  C   UNL A   1      36.308  30.540  30.358  1.00  0.00     0.251 C 
ATOM      6  H   UNL A   1      34.419  30.438  29.703  1.00  0.00     0.163 HD
BRANCH   5   7
ATOM      7  C   UNL A   1      37.729  30.309  30.034  1.00  0.00     0.039 A 
ATOM      8  C   UNL A   1      38.205  30.500  28.734  1.00  0.00     0.014 A 
ATOM      9  C   UNL A   1      38.585  29.864  31.044  1.00  0.00     0.014 A 
ATOM     10  C   UNL A   1      39.489  30.083  28.406  1.00  0.00     0.010 A 
ATOM     11  C   UNL A   1      39.901  29.522  30.728  1.00  0.00     0.010 A 
ATOM     12  C   UNL A   1      40.349  29.588  29.399  1.00  0.00    -0.014 A 
BRANCH  12  13
ATOM     13  C   UNL A   1      41.726  29.168  29.048  1.00  0.00     0.031 A 
ATOM     14  C   UNL A   1      42.857  30.158  29.060  1.00  0.00     0.074 A 
ATOM     15  C   UNL A   1      41.945  27.887  28.696  1.00  0.00     0.049 A 
ATOM     16  N   UNL A   1      44.102  29.991  28.695  1.00  0.00    -0.248 NA
ATOM     17  C   UNL A   1      42.546  31.515  29.533  1.00  0.00     0.031 C 
ATOM     18  C   UNL A   1      40.921  26.842  28.647  1.00  0.00     0.029 A 
ATOM     19  N   UNL A   1      43.093  27.250  28.302  1.00  0.00    -0.354 N 
ATOM     20  C   UNL A   1      44.716  31.227  28.862  1.00  0.00     0.074 A 
ATOM     21  C   UNL A   1      43.702  32.138  29.351  1.00  0.00     0.031 C 
ATOM     22  C   UNL A   1      41.485  25.694  28.251  1.00  0.00     0.029 A 
ATOM     23  C   UNL A   1      42.894  25.935  27.960  1.00  0.00     0.049 A 
ATOM     24  H   UNL A   1      43.973  27.691  28.267  1.00  0.00     0.167 HD
ATOM     25  C   UNL A   1      46.008  31.565  28.626  1.00  0.00     0.037 A 
ATOM     26  C   UNL A   1      43.740  25.030  27.431  1.00  0.00     0.037 A 
ATOM     27  C   UNL A   1      47.008  30.641  28.158  1.00  0.00     0.049 A 
ATOM     28  C   UNL A   1      45.161  25.425  27.168  1.00  0.00     0.074 A 
ATOM     29  C   UNL A   1      48.354  30.871  27.933  1.00  0.00     0.029 A 
ATOM     30  N   UNL A   1      46.770  29.313  27.835  1.00  0.00    -0.354 N 
ATOM     31  N   UNL A   1      45.735  26.589  27.358  1.00  0.00    -0.248 NA
ATOM     32  C   UNL A   1      46.049  24.394  26.620  1.00  0.00     0.031 C 
ATOM     33  C   UNL A   1      48.921  29.691  27.436  1.00  0.00     0.029 A 
ATOM     34  C   UNL A   1      47.938  28.714  27.391  1.00  0.00     0.049 A 
ATOM     35  H   UNL A   1      45.898  28.861  27.911  1.00  0.00     0.167 HD
ATOM     36  C   UNL A   1      47.057  26.429  26.965  1.00  0.00     0.074 A 
ATOM     37  C   UNL A   1      47.199  25.053  26.531  1.00  0.00     0.031 C 
ATOM     38  C   UNL A   1      48.060  27.341  26.966  1.00  0.00     0.037 A 
BRANCH  25  39
ATOM     39  C   UNL A   1      46.397  33.003  28.836  1.00  0.00     0.058 A 
ATOM     40  C   UNL A   1      46.841  33.479  30.080  1.00  0.00     0.135 A 
ATOM     41  C   UNL A   1      46.324  33.919  27.774  1.00  0.00     0.135 A 
ATOM     42  F   UNL A   1      46.919  32.649  31.133  1.00  0.00    -0.206 F 
ATOM     43  C   UNL A   1      47.157  34.820  30.275  1.00  0.00     0.059 A 
ATOM     44  C   UNL A   1      46.657  35.260  27.941  1.00  0.00     0.059 A 
ATOM     45  F   UNL A   1      45.911  33.517  26.562  1.00  0.00    -0.206 F 
ATOM     46  C   UNL A   1      47.050  35.706  29.201  1.00  0.00     0.060 A 
BRANCH  46  47
ATOM     47  S   UNL A   1      47.418  37.452  29.476  1.00  0.00     0.124 S 
ATOM     48  O   UNL A   1      47.195  38.008  28.145  1.00  0.00    -0.237 OA
ATOM     49  O   UNL A   1      46.436  37.827  30.490  1.00  0.00    -0.237 OA
ATOM     50  O   UNL A   1      48.805  37.440  29.928  1.00  0.00    -0.744 OA
ENDBRANCH  46  47
ENDBRANCH  25  39
BRANCH  26  51
ATOM     51  C   UNL A   1      43.223  23.677  27.111  1.00  0.00     0.058 A 
ATOM     52  C   UNL A   1      42.986  23.288  25.787  1.00  0.00     0.135 A 
ATOM     53  C   UNL A   1      43.071  22.710  28.120  1.00  0.00     0.135 A 
ATOM     54  F   UNL A   1      43.118  24.178  24.792  1.00  0.00    -0.206 F 
ATOM     55  C   UNL A   1      42.633  21.981  25.467  1.00  0.00     0.059 A 
ATOM     56  C   UNL A   1      42.740  21.392  27.823  1.00  0.00     0.059 A 
ATOM     57  F   UNL A   1      43.308  23.031  29.400  1.00  0.00    -0.206 F 
ATOM     58  C   UNL A   1      42.526  21.037  26.492  1.00  0.00     0.060 A 
BRANCH  58  59
ATOM     59  S   UNL A   1      42.186  19.317  26.056  1.00  0.00     0.124 S 
ATOM     60  O   UNL A   1      42.586  18.621  27.273  1.00  0.00    -0.237 OA
ATOM     61  O   UNL A   1      40.753  19.347  25.780  1.00  0.00    -0.237 OA
ATOM     62  O   UNL A   1      43.035  19.093  24.890  1.00  0.00    -0.744 OA
ENDBRANCH  58  59
ENDBRANCH  26  51
BRANCH  38  63
ATOM     63  C   UNL A   1      49.413  26.881  26.507  1.00  0.00     0.058 A 
ATOM     64  C   UNL A   1      50.279  26.184  27.363  1.00  0.00     0.135 A 
ATOM     65  C   UNL A   1      49.806  27.058  25.170  1.00  0.00     0.135 A 
ATOM     66  F   UNL A   1      49.952  25.999  28.650  1.00  0.00    -0.206 F 
ATOM     67  C   UNL A   1      51.492  25.678  26.908  1.00  0.00     0.059 A 
ATOM     68  C   UNL A   1      51.005  26.544  24.690  1.00  0.00     0.059 A 
ATOM     69  F   UNL A   1      49.007  27.714  24.314  1.00  0.00    -0.206 F 
ATOM     70  C   UNL A   1      51.843  25.856  25.568  1.00  0.00     0.060 A 
BRANCH  70  71
ATOM     71  S   UNL A   1      53.383  25.129  24.969  1.00  0.00     0.124 S 
ATOM     72  O   UNL A   1      53.341  25.475  23.553  1.00  0.00    -0.237 OA
ATOM     73  O   UNL A   1      54.389  25.829  25.762  1.00  0.00    -0.237 OA
ATOM     74  O   UNL A   1      53.230  23.711  25.276  1.00  0.00    -0.744 OA
ENDBRANCH  70  71
ENDBRANCH  38  63
ENDBRANCH  12  13
ENDBRANCH   5   7
ENDBRANCH   2   3
ENDBRANCH   1   2
BRANCH   1  75
ATOM     75  C   UNL A   1      33.135  29.644  27.005  1.00  0.00     0.023 C 
BRANCH  75  76
ATOM     76  C   UNL A   1      32.969  28.157  27.278  1.00  0.00     0.116 C 
BRANCH  76  77
ATOM     77  N   UNL A   1      33.671  27.278  26.363  1.00  0.00    -0.356 N 
ATOM     78  C   UNL A   1      33.202  26.526  25.328  1.00  0.00     0.226 C 
ATOM     79  H   UNL A   1      34.642  27.217  26.512  1.00  0.00     0.163 HD
ATOM     80  O   UNL A   1      33.973  26.417  24.367  1.00  0.00    -0.274 OA
BRANCH  78  81
ATOM     81  C   UNL A   1      31.884  25.706  25.357  1.00  0.00     0.057 C 
ATOM     82  C   UNL A   1      31.968  24.703  26.561  1.00  0.00     0.039 C 
ATOM     83  C   UNL A   1      31.570  24.849  24.113  1.00  0.00     0.039 C 
ATOM     84  C   UNL A   1      32.958  23.552  26.310  1.00  0.00     0.119 C 
ATOM     85  C   UNL A   1      32.632  23.786  23.871  1.00  0.00     0.119 C 
ATOM     86  N   UNL A   1      32.620  22.935  25.040  1.00  0.00    -0.356 N 
BRANCH  81  87
ATOM     87  C   UNL A   1      30.698  26.718  25.512  1.00  0.00     0.054 C 
BRANCH  87  88
ATOM     88  C   UNL A   1      30.394  27.633  24.340  1.00  0.00    -0.028 A 
ATOM     89  C   UNL A   1      31.348  28.609  23.987  1.00  0.00     0.005 A 
ATOM     90  C   UNL A   1      29.211  27.565  23.588  1.00  0.00     0.044 A 
ATOM     91  C   UNL A   1      31.152  29.453  22.894  1.00  0.00     0.000 A 
ATOM     92  C   UNL A   1      29.020  28.410  22.488  1.00  0.00     0.021 A 
ATOM     93  Cl  UNL A   1      27.915  26.497  23.995  1.00  0.00    -0.084 Cl
ATOM     94  C   UNL A   1      29.992  29.346  22.137  1.00  0.00     0.002 A 
ENDBRANCH  87  88
ENDBRANCH  81  87
BRANCH  86  95
ATOM     95  C   UNL A   1      32.975  21.624  24.805  1.00  0.00     0.141 A 
ATOM     96  N   UNL A   1      32.036  20.651  24.755  1.00  0.00    -0.219 NA
ATOM     97  C   UNL A   1      34.323  21.242  24.853  1.00  0.00     0.061 A 
ATOM     98  C   UNL A   1      32.443  19.365  24.730  1.00  0.00     0.226 A 
ATOM     99  C   UNL A   1      34.592  19.885  24.859  1.00  0.00     0.142 A 
ATOM    100  C   UNL A   1      35.572  21.914  24.987  1.00  0.00     0.033 A 
ATOM    101  N   UNL A   1      33.701  18.886  24.788  1.00  0.00    -0.218 NA
ATOM    102  N   UNL A   1      35.944  19.725  24.998  1.00  0.00    -0.346 N 
ATOM    103  C   UNL A   1      36.554  20.952  25.081  1.00  0.00     0.085 A 
ATOM    104  H   UNL A   1      36.410  18.858  25.034  1.00  0.00     0.167 HD
ENDBRANCH  86  95
ENDBRANCH  78  81
ENDBRANCH  76  77
ENDBRANCH  75  76
ENDBRANCH   1  75
TORSDOF 17
ENDMDL
MODEL 3
REMARK VINA RESULT:     -12.4      2.602      9.120
REMARK SMILES O=C(NCCCCNC(=O)C1(Cc2ccccc2Cl)CCN(c2ncnc3[nH]ccc23)CC1)c1ccc(-c2c3nc(c(-c4c(F)cc(S(=O)(=O)[O-])cc4F)c4ccc([nH]4)c(-c4c(F)cc(S(=O)(=O)[O-])cc4F)c4nc(c(-c5c(F)cc(S(=O)(=O)[O-])cc5F)c5ccc2[nH]5)C=C4)C=C3)cc1
REMARK SMILES IDX 5 1 4 2 3 3 1 4 2 5 34 7 35 8 99 9 36 10 98 11 37 12 38 13
REMARK SMILES IDX 39 14 92 15 40 16 97 17 91 18 93 19 41 20 96 21 90 22 89 23
REMARK SMILES IDX 42 25 76 26 55 27 75 28 56 29 59 30 74 31 94 32 57 33 58 34
REMARK SMILES IDX 73 36 95 37 60 38 43 39 44 40 53 41 45 42 46 43 52 44 54 45
REMARK SMILES IDX 47 46 48 47 49 48 50 49 51 50 77 51 78 52 87 53 79 54 80 55
REMARK SMILES IDX 86 56 88 57 81 58 82 59 83 60 84 61 85 62 61 63 62 64 71 65
REMARK SMILES IDX 63 66 64 67 70 68 72 69 65 70 66 71 67 72 68 73 69 74 6 75
REMARK SMILES IDX 7 76 8 77 9 78 10 80 11 81 20 82 33 83 21 84 32 85 22 86
REMARK SMILES IDX 12 87 13 88 14 89 18 90 15 91 17 92 19 93 16 94 23 95 24 96
REMARK SMILES IDX 31 97 25 98 27 99 30 100 26 101 28 102 29 103
REMARK H PARENT 3 6 93 24 59 35 8 79 28 104
REMARK Flexibility Score: inf
ROOT
ATOM      1  C   UNL A   1      38.434  19.976  25.001  1.00  0.00     0.023 C 
ENDROOT
BRANCH   1   2
ATOM      2  C   UNL A   1      39.513  20.243  26.044  1.00  0.00     0.116 C 
BRANCH   2   3
ATOM      3  N   UNL A   1      40.526  19.199  26.119  1.00  0.00    -0.352 N 
ATOM      4  O   UNL A   1      42.586  18.291  26.220  1.00  0.00    -0.269 OA
ATOM      5  C   UNL A   1      41.890  19.296  26.276  1.00  0.00     0.251 C 
ATOM      6  H   UNL A   1      40.181  18.279  26.046  1.00  0.00     0.163 HD
BRANCH   5   7
ATOM      7  C   UNL A   1      42.508  20.623  26.467  1.00  0.00     0.039 A 
ATOM      8  C   UNL A   1      42.626  21.178  27.743  1.00  0.00     0.014 A 
ATOM      9  C   UNL A   1      42.943  21.329  25.344  1.00  0.00     0.014 A 
ATOM     10  C   UNL A   1      43.019  22.503  27.882  1.00  0.00     0.010 A 
ATOM     11  C   UNL A   1      43.415  22.634  25.493  1.00  0.00     0.010 A 
ATOM     12  C   UNL A   1      43.415  23.245  26.757  1.00  0.00    -0.014 A 
BRANCH  12  13
ATOM     13  C   UNL A   1      43.857  24.651  26.913  1.00  0.00     0.031 A 
ATOM     14  C   UNL A   1      45.288  25.038  26.664  1.00  0.00     0.074 A 
ATOM     15  C   UNL A   1      42.960  25.575  27.302  1.00  0.00     0.049 A 
ATOM     16  N   UNL A   1      45.871  26.195  26.839  1.00  0.00    -0.248 NA
ATOM     17  C   UNL A   1      46.184  23.983  26.165  1.00  0.00     0.031 C 
ATOM     18  C   UNL A   1      41.545  25.311  27.574  1.00  0.00     0.029 A 
ATOM     19  N   UNL A   1      43.103  26.916  27.550  1.00  0.00    -0.354 N 
ATOM     20  C   UNL A   1      47.207  26.004  26.505  1.00  0.00     0.074 A 
ATOM     21  C   UNL A   1      47.350  24.613  26.127  1.00  0.00     0.031 C 
ATOM     22  C   UNL A   1      40.950  26.452  27.945  1.00  0.00     0.029 A 
ATOM     23  C   UNL A   1      41.950  27.512  27.997  1.00  0.00     0.049 A 
ATOM     24  H   UNL A   1      43.949  27.403  27.419  1.00  0.00     0.167 HD
ATOM     25  C   UNL A   1      48.217  26.908  26.515  1.00  0.00     0.037 A 
ATOM     26  C   UNL A   1      41.726  28.764  28.440  1.00  0.00     0.037 A 
ATOM     27  C   UNL A   1      48.053  28.292  26.876  1.00  0.00     0.049 A 
ATOM     28  C   UNL A   1      42.857  29.747  28.453  1.00  0.00     0.074 A 
ATOM     29  C   UNL A   1      49.001  29.301  26.873  1.00  0.00     0.029 A 
ATOM     30  N   UNL A   1      46.865  28.862  27.311  1.00  0.00    -0.354 N 
ATOM     31  N   UNL A   1      44.108  29.559  28.106  1.00  0.00    -0.248 NA
ATOM     32  C   UNL A   1      42.555  31.106  28.917  1.00  0.00     0.031 C 
ATOM     33  C   UNL A   1      48.394  30.471  27.345  1.00  0.00     0.029 A 
ATOM     34  C   UNL A   1      47.058  30.203  27.601  1.00  0.00     0.049 A 
ATOM     35  H   UNL A   1      46.008  28.383  27.399  1.00  0.00     0.167 HD
ATOM     36  C   UNL A   1      44.742  30.780  28.297  1.00  0.00     0.074 A 
ATOM     37  C   UNL A   1      43.735  31.701  28.784  1.00  0.00     0.031 C 
ATOM     38  C   UNL A   1      46.041  31.105  28.083  1.00  0.00     0.037 A 
BRANCH  25  39
ATOM     39  C   UNL A   1      49.593  26.414  26.161  1.00  0.00     0.058 A 
ATOM     40  C   UNL A   1      50.379  25.689  27.069  1.00  0.00     0.135 A 
ATOM     41  C   UNL A   1      50.132  26.669  24.889  1.00  0.00     0.135 A 
ATOM     42  F   UNL A   1      49.919  25.425  28.303  1.00  0.00    -0.206 F 
ATOM     43  C   UNL A   1      51.668  25.273  26.746  1.00  0.00     0.059 A 
ATOM     44  C   UNL A   1      51.409  26.243  24.536  1.00  0.00     0.059 A 
ATOM     45  F   UNL A   1      49.421  27.353  23.979  1.00  0.00    -0.206 F 
ATOM     46  C   UNL A   1      52.178  25.566  25.480  1.00  0.00     0.060 A 
BRANCH  46  47
ATOM     47  S   UNL A   1      53.868  25.063  25.087  1.00  0.00     0.124 S 
ATOM     48  O   UNL A   1      53.716  23.618  24.953  1.00  0.00    -0.237 OA
ATOM     49  O   UNL A   1      54.135  25.789  23.849  1.00  0.00    -0.237 OA
ATOM     50  O   UNL A   1      54.632  25.510  26.248  1.00  0.00    -0.744 OA
ENDBRANCH  46  47
ENDBRANCH  25  39
BRANCH  26  51
ATOM     51  C   UNL A   1      40.367  29.117  28.917  1.00  0.00     0.058 A 
ATOM     52  C   UNL A   1      40.093  29.255  30.284  1.00  0.00     0.135 A 
ATOM     53  C   UNL A   1      39.347  29.438  28.005  1.00  0.00     0.135 A 
ATOM     54  F   UNL A   1      41.037  28.959  31.190  1.00  0.00    -0.206 F 
ATOM     55  C   UNL A   1      38.861  29.718  30.734  1.00  0.00     0.059 A 
ATOM     56  C   UNL A   1      38.115  29.922  28.430  1.00  0.00     0.059 A 
ATOM     57  F   UNL A   1      39.570  29.341  26.686  1.00  0.00    -0.206 F 
ATOM     58  C   UNL A   1      37.883  30.062  29.797  1.00  0.00     0.060 A 
BRANCH  58  59
ATOM     59  S   UNL A   1      36.330  30.774  30.386  1.00  0.00     0.124 S 
ATOM     60  O   UNL A   1      35.948  29.825  31.425  1.00  0.00    -0.237 OA
ATOM     61  O   UNL A   1      36.751  32.092  30.849  1.00  0.00    -0.237 OA
ATOM     62  O   UNL A   1      35.491  30.778  29.192  1.00  0.00    -0.744 OA
ENDBRANCH  58  59
ENDBRANCH  26  51
BRANCH  38  63
ATOM     63  C   UNL A   1      46.451  32.523  28.352  1.00  0.00     0.058 A 
ATOM     64  C   UNL A   1      46.313  33.523  27.378  1.00  0.00     0.135 A 
ATOM     65  C   UNL A   1      46.900  32.902  29.628  1.00  0.00     0.135 A 
ATOM     66  F   UNL A   1      45.897  33.209  26.141  1.00  0.00    -0.206 F 
ATOM     67  C   UNL A   1      46.606  34.853  27.659  1.00  0.00     0.059 A 
ATOM     68  C   UNL A   1      47.181  34.228  29.936  1.00  0.00     0.059 A 
ATOM     69  F   UNL A   1      47.044  31.981  30.593  1.00  0.00    -0.206 F 
ATOM     70  C   UNL A   1      47.032  35.197  28.944  1.00  0.00     0.060 A 
BRANCH  70  71
ATOM     71  S   UNL A   1      47.336  36.937  29.322  1.00  0.00     0.124 S 
ATOM     72  O   UNL A   1      47.353  36.922  30.780  1.00  0.00    -0.237 OA
ATOM     73  O   UNL A   1      48.623  37.177  28.676  1.00  0.00    -0.237 OA
ATOM     74  O   UNL A   1      46.200  37.619  28.712  1.00  0.00    -0.744 OA
ENDBRANCH  70  71
ENDBRANCH  38  63
ENDBRANCH  12  13
ENDBRANCH   5   7
ENDBRANCH   2   3
ENDBRANCH   1   2
BRANCH   1  75
ATOM     75  C   UNL A   1      37.385  21.069  24.828  1.00  0.00     0.023 C 
BRANCH  75  76
ATOM     76  C   UNL A   1      35.948  20.682  25.147  1.00  0.00     0.116 C 
BRANCH  76  77
ATOM     77  N   UNL A   1      35.286  21.521  26.126  1.00  0.00    -0.356 N 
ATOM     78  C   UNL A   1      33.958  21.726  26.357  1.00  0.00     0.226 C 
ATOM     79  H   UNL A   1      35.891  22.021  26.720  1.00  0.00     0.163 HD
ATOM     80  O   UNL A   1      33.654  21.911  27.543  1.00  0.00    -0.274 OA
BRANCH  78  81
ATOM     81  C   UNL A   1      32.884  21.893  25.250  1.00  0.00     0.057 C 
ATOM     82  C   UNL A   1      33.625  22.194  23.900  1.00  0.00     0.039 C 
ATOM     83  C   UNL A   1      31.862  23.035  25.437  1.00  0.00     0.039 C 
ATOM     84  C   UNL A   1      34.232  23.608  23.857  1.00  0.00     0.119 C 
ATOM     85  C   UNL A   1      32.536  24.399  25.472  1.00  0.00     0.119 C 
ATOM     86  N   UNL A   1      33.185  24.559  24.190  1.00  0.00    -0.356 N 
BRANCH  81  87
ATOM     87  C   UNL A   1      32.057  20.563  25.186  1.00  0.00     0.054 C 
BRANCH  87  88
ATOM     88  C   UNL A   1      32.652  19.398  24.417  1.00  0.00    -0.028 A 
ATOM     89  C   UNL A   1      33.377  18.424  25.132  1.00  0.00     0.005 A 
ATOM     90  C   UNL A   1      32.522  19.237  23.028  1.00  0.00     0.044 A 
ATOM     91  C   UNL A   1      33.913  17.305  24.494  1.00  0.00     0.000 A 
ATOM     92  C   UNL A   1      33.057  18.109  22.392  1.00  0.00     0.021 A 
ATOM     93  Cl  UNL A   1      31.764  20.421  22.026  1.00  0.00    -0.084 Cl
ATOM     94  C   UNL A   1      33.743  17.142  23.125  1.00  0.00     0.002 A 
ENDBRANCH  87  88
ENDBRANCH  81  87
BRANCH  86  95
ATOM     95  C   UNL A   1      33.284  25.860  23.748  1.00  0.00     0.141 A 
ATOM     96  N   UNL A   1      33.359  26.138  22.425  1.00  0.00    -0.219 NA
ATOM     97  C   UNL A   1      33.547  26.893  24.659  1.00  0.00     0.061 A 
ATOM     98  C   UNL A   1      33.660  27.398  22.050  1.00  0.00     0.226 A 
ATOM     99  C   UNL A   1      33.880  28.127  24.130  1.00  0.00     0.142 A 
ATOM    100  C   UNL A   1      33.649  27.006  26.075  1.00  0.00     0.033 A 
ATOM    101  N   UNL A   1      33.946  28.457  22.832  1.00  0.00    -0.218 NA
ATOM    102  N   UNL A   1      34.183  28.963  25.171  1.00  0.00    -0.346 N 
ATOM    103  C   UNL A   1      34.050  28.293  26.361  1.00  0.00     0.085 A 
ATOM    104  H   UNL A   1      34.456  29.904  25.079  1.00  0.00     0.167 HD
ENDBRANCH  86  95
ENDBRANCH  78  81
ENDBRANCH  76  77
ENDBRANCH  75  76
ENDBRANCH   1  75
TORSDOF 17
ENDMDL
