MODEL 1
REMARK VINA RESULT:      -9.9      0.000      0.000
REMARK SMILES CC(C)[N@@H+]1CCC[C@H]1CC(=O)NCCCCNC(=O)c1ccc(-c2c3nc(c(-c4c(F)cc(S(=O)(=O)[O-])cc4F)c4ccc([nH]4)c(-c4c(F)cc(S(=O)(=O)[O-])cc4F)c4nc(c(-c5c(F)cc(S(=O)(=O)[O-])cc5F)c5ccc2[nH]5)C=C4)C=C3)cc1
REMARK SMILES IDX 15 1 14 2 13 3 12 4 10 5 11 6 9 8 8 9 4 10 5 11 6 13 7 14
REMARK SMILES IDX 2 15 1 16 3 17 16 18 17 19 18 20 19 22 20 23 21 24 85 25
REMARK SMILES IDX 22 26 84 27 23 28 24 29 25 30 78 31 26 32 83 33 77 34 79 35
REMARK SMILES IDX 27 36 82 37 76 38 75 39 28 41 62 42 41 43 61 44 42 45 45 46
REMARK SMILES IDX 60 47 80 48 43 49 44 50 59 52 81 53 46 54 29 55 30 56 39 57
REMARK SMILES IDX 31 58 32 59 38 60 40 61 33 62 34 63 35 64 36 65 37 66 63 67
REMARK SMILES IDX 64 68 73 69 65 70 66 71 72 72 74 73 67 74 68 75 69 76 70 77
REMARK SMILES IDX 71 78 47 79 48 80 57 81 49 82 50 83 56 84 58 85 51 86 52 87
REMARK SMILES IDX 53 88 54 89 55 90
REMARK H PARENT 12 7 4 12 17 21 79 40 45 51
REMARK Flexibility Score: inf
ROOT
ATOM      1  C   UNL A   1      33.517  33.960  28.214  1.00  0.00     0.023 C 
ENDROOT
BRANCH   1   2
ATOM      2  C   UNL A   1      33.962  35.149  29.054  1.00  0.00     0.023 C 
BRANCH   2   3
ATOM      3  C   UNL A   1      32.975  35.596  30.141  1.00  0.00     0.116 C 
BRANCH   3   4
ATOM      4  N   UNL A   1      33.468  36.679  30.975  1.00  0.00    -0.356 N 
ATOM      5  C   UNL A   1      34.016  36.659  32.224  1.00  0.00     0.225 C 
ATOM      6  O   UNL A   1      34.372  37.731  32.717  1.00  0.00    -0.275 OA
ATOM      7  H   UNL A   1      33.395  37.574  30.571  1.00  0.00     0.163 HD
BRANCH   5   8
ATOM      8  C   UNL A   1      34.225  35.354  32.965  1.00  0.00     0.164 C 
BRANCH   8   9
ATOM      9  C   UNL A   1      35.613  34.680  32.898  1.00  0.00     0.193 C 
ATOM     10  N   UNL A   1      35.731  33.522  33.820  1.00  0.00    -0.330 N 
ATOM     11  C   UNL A   1      35.450  32.346  32.979  1.00  0.00     0.262 C 
ATOM     12  H   UNL A   1      35.064  33.569  34.590  1.00  0.00     0.348 HD
ATOM     13  C   UNL A   1      36.171  32.609  31.685  1.00  0.00     0.067 C 
ATOM     14  C   UNL A   1      36.056  34.108  31.549  1.00  0.00     0.071 C 
BRANCH  10  15
ATOM     15  C   UNL A   1      37.002  33.489  34.589  1.00  0.00     0.177 C 
ATOM     16  C   UNL A   1      37.987  34.580  34.146  1.00  0.00     0.075 C 
ATOM     17  C   UNL A   1      36.942  33.495  36.129  1.00  0.00     0.075 C 
ENDBRANCH  10  15
ENDBRANCH   8   9
ENDBRANCH   5   8
ENDBRANCH   3   4
ENDBRANCH   2   3
ENDBRANCH   1   2
BRANCH   1  18
ATOM     18  C   UNL A   1      34.382  32.739  28.434  1.00  0.00     0.116 C 
BRANCH  18  19
ATOM     19  N   UNL A   1      33.823  31.566  27.772  1.00  0.00    -0.352 N 
ATOM     20  C   UNL A   1      34.431  30.386  27.440  1.00  0.00     0.251 C 
ATOM     21  H   UNL A   1      32.872  31.633  27.528  1.00  0.00     0.163 HD
ATOM     22  O   UNL A   1      33.891  29.620  26.643  1.00  0.00    -0.269 OA
BRANCH  20  23
ATOM     23  C   UNL A   1      35.728  30.055  28.050  1.00  0.00     0.039 A 
ATOM     24  C   UNL A   1      36.907  30.330  27.358  1.00  0.00     0.014 A 
ATOM     25  C   UNL A   1      35.769  29.474  29.320  1.00  0.00     0.014 A 
ATOM     26  C   UNL A   1      38.128  30.046  27.963  1.00  0.00     0.010 A 
ATOM     27  C   UNL A   1      36.978  29.328  29.973  1.00  0.00     0.010 A 
ATOM     28  C   UNL A   1      38.171  29.563  29.282  1.00  0.00    -0.014 A 
BRANCH  28  29
ATOM     29  C   UNL A   1      39.453  29.220  29.937  1.00  0.00     0.031 A 
ATOM     30  C   UNL A   1      39.882  29.979  31.166  1.00  0.00     0.074 A 
ATOM     31  C   UNL A   1      40.237  28.266  29.401  1.00  0.00     0.049 A 
ATOM     32  N   UNL A   1      40.973  29.850  31.874  1.00  0.00    -0.248 NA
ATOM     33  C   UNL A   1      38.990  31.053  31.640  1.00  0.00     0.031 C 
ATOM     34  C   UNL A   1      39.948  27.523  28.172  1.00  0.00     0.029 A 
ATOM     35  N   UNL A   1      41.434  27.754  29.826  1.00  0.00    -0.354 N 
ATOM     36  C   UNL A   1      40.900  30.829  32.858  1.00  0.00     0.074 A 
ATOM     37  C   UNL A   1      39.706  31.600  32.607  1.00  0.00     0.031 C 
ATOM     38  C   UNL A   1      40.919  26.618  27.969  1.00  0.00     0.029 A 
ATOM     39  C   UNL A   1      41.912  26.743  29.029  1.00  0.00     0.049 A 
ATOM     40  H   UNL A   1      41.906  28.080  30.625  1.00  0.00     0.167 HD
ATOM     41  C   UNL A   1      41.732  31.040  33.903  1.00  0.00     0.037 A 
ATOM     42  C   UNL A   1      43.028  25.999  29.149  1.00  0.00     0.037 A 
ATOM     43  C   UNL A   1      42.897  30.238  34.161  1.00  0.00     0.049 A 
ATOM     44  C   UNL A   1      43.926  26.235  30.334  1.00  0.00     0.074 A 
ATOM     45  C   UNL A   1      43.781  30.319  35.221  1.00  0.00     0.029 A 
ATOM     46  N   UNL A   1      43.337  29.203  33.348  1.00  0.00    -0.354 N 
ATOM     47  N   UNL A   1      43.805  27.117  31.298  1.00  0.00    -0.248 NA
ATOM     48  C   UNL A   1      45.101  25.365  30.455  1.00  0.00     0.031 C 
ATOM     49  C   UNL A   1      44.785  29.366  35.022  1.00  0.00     0.029 A 
ATOM     50  C   UNL A   1      44.492  28.648  33.872  1.00  0.00     0.049 A 
ATOM     51  H   UNL A   1      42.893  28.907  32.521  1.00  0.00     0.167 HD
ATOM     52  C   UNL A   1      44.872  26.886  32.160  1.00  0.00     0.074 A 
ATOM     53  C   UNL A   1      45.615  25.771  31.607  1.00  0.00     0.031 C 
ATOM     54  C   UNL A   1      45.209  27.534  33.303  1.00  0.00     0.037 A 
BRANCH  41  55
ATOM     55  C   UNL A   1      41.401  32.169  34.843  1.00  0.00     0.058 A 
ATOM     56  C   UNL A   1      41.895  33.470  34.642  1.00  0.00     0.135 A 
ATOM     57  C   UNL A   1      40.566  31.954  35.951  1.00  0.00     0.135 A 
ATOM     58  F   UNL A   1      42.715  33.731  33.613  1.00  0.00    -0.206 F 
ATOM     59  C   UNL A   1      41.599  34.506  35.522  1.00  0.00     0.059 A 
ATOM     60  C   UNL A   1      40.229  32.983  36.825  1.00  0.00     0.059 A 
ATOM     61  F   UNL A   1      40.071  30.730  36.198  1.00  0.00    -0.206 F 
ATOM     62  C   UNL A   1      40.762  34.253  36.610  1.00  0.00     0.060 A 
BRANCH  62  63
ATOM     63  S   UNL A   1      40.380  35.612  37.734  1.00  0.00     0.124 S 
ATOM     64  O   UNL A   1      39.357  35.009  38.583  1.00  0.00    -0.237 OA
ATOM     65  O   UNL A   1      41.669  35.858  38.373  1.00  0.00    -0.237 OA
ATOM     66  O   UNL A   1      39.913  36.670  36.843  1.00  0.00    -0.744 OA
ENDBRANCH  62  63
ENDBRANCH  41  55
BRANCH  42  67
ATOM     67  C   UNL A   1      43.327  24.939  28.149  1.00  0.00     0.058 A 
ATOM     68  C   UNL A   1      42.941  23.607  28.369  1.00  0.00     0.135 A 
ATOM     69  C   UNL A   1      43.988  25.236  26.948  1.00  0.00     0.135 A 
ATOM     70  F   UNL A   1      42.305  23.272  29.502  1.00  0.00    -0.206 F 
ATOM     71  C   UNL A   1      43.222  22.605  27.446  1.00  0.00     0.059 A 
ATOM     72  C   UNL A   1      44.254  24.257  25.997  1.00  0.00     0.059 A 
ATOM     73  F   UNL A   1      44.357  26.498  26.679  1.00  0.00    -0.206 F 
ATOM     74  C   UNL A   1      43.878  22.942  26.261  1.00  0.00     0.060 A 
BRANCH  74  75
ATOM     75  S   UNL A   1      44.202  21.639  25.053  1.00  0.00     0.124 S 
ATOM     76  O   UNL A   1      45.538  21.202  25.443  1.00  0.00    -0.237 OA
ATOM     77  O   UNL A   1      43.118  20.698  25.319  1.00  0.00    -0.237 OA
ATOM     78  O   UNL A   1      44.115  22.338  23.774  1.00  0.00    -0.744 OA
ENDBRANCH  74  75
ENDBRANCH  42  67
BRANCH  54  79
ATOM     79  C   UNL A   1      46.407  27.021  34.054  1.00  0.00     0.058 A 
ATOM     80  C   UNL A   1      46.296  26.020  35.031  1.00  0.00     0.135 A 
ATOM     81  C   UNL A   1      47.687  27.522  33.767  1.00  0.00     0.135 A 
ATOM     82  F   UNL A   1      45.095  25.509  35.344  1.00  0.00    -0.206 F 
ATOM     83  C   UNL A   1      47.409  25.563  35.729  1.00  0.00     0.059 A 
ATOM     84  C   UNL A   1      48.818  27.054  34.427  1.00  0.00     0.059 A 
ATOM     85  F   UNL A   1      47.851  28.468  32.829  1.00  0.00    -0.206 F 
ATOM     86  C   UNL A   1      48.666  26.089  35.422  1.00  0.00     0.060 A 
BRANCH  86  87
ATOM     87  S   UNL A   1      50.101  25.487  36.333  1.00  0.00     0.124 S 
ATOM     88  O   UNL A   1      49.868  24.046  36.326  1.00  0.00    -0.237 OA
ATOM     89  O   UNL A   1      51.212  25.954  35.510  1.00  0.00    -0.237 OA
ATOM     90  O   UNL A   1      49.976  26.137  37.634  1.00  0.00    -0.744 OA
ENDBRANCH  86  87
ENDBRANCH  54  79
ENDBRANCH  28  29
ENDBRANCH  20  23
ENDBRANCH  18  19
ENDBRANCH   1  18
TORSDOF 16
ENDMDL
MODEL 2
REMARK VINA RESULT:      -9.8      4.805     12.420
REMARK SMILES CC(C)[N@@H+]1CCC[C@H]1CC(=O)NCCCCNC(=O)c1ccc(-c2c3nc(c(-c4c(F)cc(S(=O)(=O)[O-])cc4F)c4ccc([nH]4)c(-c4c(F)cc(S(=O)(=O)[O-])cc4F)c4nc(c(-c5c(F)cc(S(=O)(=O)[O-])cc5F)c5ccc2[nH]5)C=C4)C=C3)cc1
REMARK SMILES IDX 15 1 14 2 13 3 12 4 10 5 11 6 9 8 8 9 4 10 5 11 6 13 7 14
REMARK SMILES IDX 2 15 1 16 3 17 16 18 17 19 18 20 19 22 20 23 21 24 85 25
REMARK SMILES IDX 22 26 84 27 23 28 24 29 25 30 78 31 26 32 83 33 77 34 79 35
REMARK SMILES IDX 27 36 82 37 76 38 75 39 28 41 62 42 41 43 61 44 42 45 45 46
REMARK SMILES IDX 60 47 80 48 43 49 44 50 59 52 81 53 46 54 29 55 30 56 39 57
REMARK SMILES IDX 31 58 32 59 38 60 40 61 33 62 34 63 35 64 36 65 37 66 63 67
REMARK SMILES IDX 64 68 73 69 65 70 66 71 72 72 74 73 67 74 68 75 69 76 70 77
REMARK SMILES IDX 71 78 47 79 48 80 57 81 49 82 50 83 56 84 58 85 51 86 52 87
REMARK SMILES IDX 53 88 54 89 55 90
REMARK H PARENT 12 7 4 12 17 21 79 40 45 51
REMARK Flexibility Score: inf
ROOT
ATOM      1  C   UNL A   1      40.733  20.054  26.670  1.00  0.00     0.023 C 
ENDROOT
BRANCH   1   2
ATOM      2  C   UNL A   1      41.604  19.210  25.751  1.00  0.00     0.023 C 
BRANCH   2   3
ATOM      3  C   UNL A   1      43.116  19.315  25.994  1.00  0.00     0.116 C 
BRANCH   3   4
ATOM      4  N   UNL A   1      43.924  18.903  24.859  1.00  0.00    -0.356 N 
ATOM      5  C   UNL A   1      45.129  19.363  24.412  1.00  0.00     0.225 C 
ATOM      6  O   UNL A   1      45.619  18.828  23.416  1.00  0.00    -0.275 OA
ATOM      7  H   UNL A   1      43.539  18.172  24.324  1.00  0.00     0.163 HD
BRANCH   5   8
ATOM      8  C   UNL A   1      45.865  20.466  25.146  1.00  0.00     0.164 C 
BRANCH   8   9
ATOM      9  C   UNL A   1      45.319  21.908  25.052  1.00  0.00     0.193 C 
ATOM     10  N   UNL A   1      45.174  22.552  26.382  1.00  0.00    -0.330 N 
ATOM     11  C   UNL A   1      46.403  23.346  26.547  1.00  0.00     0.262 C 
ATOM     12  H   UNL A   1      45.093  21.870  27.136  1.00  0.00     0.348 HD
ATOM     13  C   UNL A   1      46.643  23.981  25.204  1.00  0.00     0.067 C 
ATOM     14  C   UNL A   1      46.140  22.923  24.252  1.00  0.00     0.071 C 
BRANCH  10  15
ATOM     15  C   UNL A   1      43.893  23.282  26.563  1.00  0.00     0.177 C 
ATOM     16  C   UNL A   1      43.006  23.237  25.310  1.00  0.00     0.075 C 
ATOM     17  C   UNL A   1      43.012  22.952  27.784  1.00  0.00     0.075 C 
ENDBRANCH  10  15
ENDBRANCH   8   9
ENDBRANCH   5   8
ENDBRANCH   3   4
ENDBRANCH   2   3
ENDBRANCH   1   2
BRANCH   1  18
ATOM     18  C   UNL A   1      40.558  21.469  26.165  1.00  0.00     0.116 C 
BRANCH  18  19
ATOM     19  N   UNL A   1      39.170  21.738  25.811  1.00  0.00    -0.352 N 
ATOM     20  C   UNL A   1      38.387  22.814  26.129  1.00  0.00     0.251 C 
ATOM     21  H   UNL A   1      38.731  21.046  25.264  1.00  0.00     0.163 HD
ATOM     22  O   UNL A   1      37.167  22.750  25.986  1.00  0.00    -0.269 OA
BRANCH  20  23
ATOM     23  C   UNL A   1      39.027  24.037  26.640  1.00  0.00     0.039 A 
ATOM     24  C   UNL A   1      39.008  24.307  28.007  1.00  0.00     0.014 A 
ATOM     25  C   UNL A   1      39.654  24.914  25.751  1.00  0.00     0.014 A 
ATOM     26  C   UNL A   1      39.651  25.447  28.480  1.00  0.00     0.010 A 
ATOM     27  C   UNL A   1      40.411  25.963  26.237  1.00  0.00     0.010 A 
ATOM     28  C   UNL A   1      40.373  26.271  27.600  1.00  0.00    -0.014 A 
BRANCH  28  29
ATOM     29  C   UNL A   1      41.036  27.508  28.070  1.00  0.00     0.031 A 
ATOM     30  C   UNL A   1      42.531  27.640  27.943  1.00  0.00     0.074 A 
ATOM     31  C   UNL A   1      40.300  28.479  28.642  1.00  0.00     0.049 A 
ATOM     32  N   UNL A   1      43.305  28.627  28.310  1.00  0.00    -0.248 NA
ATOM     33  C   UNL A   1      43.261  26.497  27.365  1.00  0.00     0.031 C 
ATOM     34  C   UNL A   1      38.855  28.419  28.879  1.00  0.00     0.029 A 
ATOM     35  N   UNL A   1      40.664  29.707  29.123  1.00  0.00    -0.354 N 
ATOM     36  C   UNL A   1      44.601  28.216  28.022  1.00  0.00     0.074 A 
ATOM     37  C   UNL A   1      44.522  26.861  27.532  1.00  0.00     0.031 C 
ATOM     38  C   UNL A   1      38.450  29.580  29.417  1.00  0.00     0.029 A 
ATOM     39  C   UNL A   1      39.609  30.448  29.597  1.00  0.00     0.049 A 
ATOM     40  H   UNL A   1      41.594  30.030  29.128  1.00  0.00     0.167 HD
ATOM     41  C   UNL A   1      45.752  28.920  28.118  1.00  0.00     0.037 A 
ATOM     42  C   UNL A   1      39.584  31.691  30.112  1.00  0.00     0.037 A 
ATOM     43  C   UNL A   1      45.810  30.283  28.573  1.00  0.00     0.049 A 
ATOM     44  C   UNL A   1      40.873  32.465  30.186  1.00  0.00     0.074 A 
ATOM     45  C   UNL A   1      46.909  31.117  28.656  1.00  0.00     0.029 A 
ATOM     46  N   UNL A   1      44.716  31.012  29.020  1.00  0.00    -0.354 N 
ATOM     47  N   UNL A   1      42.082  32.089  29.841  1.00  0.00    -0.248 NA
ATOM     48  C   UNL A   1      40.792  33.835  30.703  1.00  0.00     0.031 C 
ATOM     49  C   UNL A   1      46.489  32.335  29.200  1.00  0.00     0.029 A 
ATOM     50  C   UNL A   1      45.117  32.281  29.397  1.00  0.00     0.049 A 
ATOM     51  H   UNL A   1      43.792  30.675  29.060  1.00  0.00     0.167 HD
ATOM     52  C   UNL A   1      42.902  33.189  30.069  1.00  0.00     0.074 A 
ATOM     53  C   UNL A   1      42.044  34.247  30.565  1.00  0.00     0.031 C 
ATOM     54  C   UNL A   1      44.240  33.317  29.885  1.00  0.00     0.037 A 
BRANCH  41  55
ATOM     55  C   UNL A   1      47.028  28.232  27.712  1.00  0.00     0.058 A 
ATOM     56  C   UNL A   1      47.805  27.506  28.633  1.00  0.00     0.135 A 
ATOM     57  C   UNL A   1      47.475  28.283  26.382  1.00  0.00     0.135 A 
ATOM     58  F   UNL A   1      47.440  27.441  29.923  1.00  0.00    -0.206 F 
ATOM     59  C   UNL A   1      48.991  26.886  28.257  1.00  0.00     0.059 A 
ATOM     60  C   UNL A   1      48.641  27.640  25.977  1.00  0.00     0.059 A 
ATOM     61  F   UNL A   1      46.778  28.966  25.460  1.00  0.00    -0.206 F 
ATOM     62  C   UNL A   1      49.400  26.956  26.925  1.00  0.00     0.060 A 
BRANCH  62  63
ATOM     63  S   UNL A   1      50.936  26.134  26.452  1.00  0.00     0.124 S 
ATOM     64  O   UNL A   1      50.807  26.088  24.999  1.00  0.00    -0.237 OA
ATOM     65  O   UNL A   1      51.949  27.049  26.970  1.00  0.00    -0.237 OA
ATOM     66  O   UNL A   1      50.855  24.844  27.131  1.00  0.00    -0.744 OA
ENDBRANCH  62  63
ENDBRANCH  41  55
BRANCH  42  67
ATOM     67  C   UNL A   1      38.295  32.289  30.551  1.00  0.00     0.058 A 
ATOM     68  C   UNL A   1      37.824  32.112  31.861  1.00  0.00     0.135 A 
ATOM     69  C   UNL A   1      37.516  33.063  29.677  1.00  0.00     0.135 A 
ATOM     70  F   UNL A   1      38.533  31.381  32.734  1.00  0.00    -0.206 F 
ATOM     71  C   UNL A   1      36.617  32.659  32.282  1.00  0.00     0.059 A 
ATOM     72  C   UNL A   1      36.320  33.645  30.083  1.00  0.00     0.059 A 
ATOM     73  F   UNL A   1      37.933  33.283  28.421  1.00  0.00    -0.206 F 
ATOM     74  C   UNL A   1      35.872  33.427  31.385  1.00  0.00     0.060 A 
BRANCH  74  75
ATOM     75  S   UNL A   1      34.325  34.164  31.954  1.00  0.00     0.124 S 
ATOM     76  O   UNL A   1      33.652  34.447  30.691  1.00  0.00    -0.237 OA
ATOM     77  O   UNL A   1      33.752  33.089  32.758  1.00  0.00    -0.237 OA
ATOM     78  O   UNL A   1      34.768  35.333  32.709  1.00  0.00    -0.744 OA
ENDBRANCH  74  75
ENDBRANCH  42  67
BRANCH  54  79
ATOM     79  C   UNL A   1      44.847  34.661  30.179  1.00  0.00     0.058 A 
ATOM     80  C   UNL A   1      45.355  34.984  31.447  1.00  0.00     0.135 A 
ATOM     81  C   UNL A   1      44.949  35.627  29.164  1.00  0.00     0.135 A 
ATOM     82  F   UNL A   1      45.281  34.097  32.451  1.00  0.00    -0.206 F 
ATOM     83  C   UNL A   1      45.901  36.236  31.711  1.00  0.00     0.059 A 
ATOM     84  C   UNL A   1      45.525  36.871  29.396  1.00  0.00     0.059 A 
ATOM     85  F   UNL A   1      44.495  35.362  27.928  1.00  0.00    -0.206 F 
ATOM     86  C   UNL A   1      45.979  37.173  30.679  1.00  0.00     0.060 A 
BRANCH  86  87
ATOM     87  S   UNL A   1      46.693  38.791  31.034  1.00  0.00     0.124 S 
ATOM     88  O   UNL A   1      46.795  39.366  29.696  1.00  0.00    -0.237 OA
ATOM     89  O   UNL A   1      45.689  39.391  31.907  1.00  0.00    -0.237 OA
ATOM     90  O   UNL A   1      47.963  38.469  31.678  1.00  0.00    -0.744 OA
ENDBRANCH  86  87
ENDBRANCH  54  79
ENDBRANCH  28  29
ENDBRANCH  20  23
ENDBRANCH  18  19
ENDBRANCH   1  18
TORSDOF 16
ENDMDL
MODEL 3
REMARK VINA RESULT:      -9.8      5.446      7.825
REMARK SMILES CC(C)[N@@H+]1CCC[C@H]1CC(=O)NCCCCNC(=O)c1ccc(-c2c3nc(c(-c4c(F)cc(S(=O)(=O)[O-])cc4F)c4ccc([nH]4)c(-c4c(F)cc(S(=O)(=O)[O-])cc4F)c4nc(c(-c5c(F)cc(S(=O)(=O)[O-])cc5F)c5ccc2[nH]5)C=C4)C=C3)cc1
REMARK SMILES IDX 15 1 14 2 13 3 12 4 10 5 11 6 9 8 8 9 4 10 5 11 6 13 7 14
REMARK SMILES IDX 2 15 1 16 3 17 16 18 17 19 18 20 19 22 20 23 21 24 85 25
REMARK SMILES IDX 22 26 84 27 23 28 24 29 25 30 78 31 26 32 83 33 77 34 79 35
REMARK SMILES IDX 27 36 82 37 76 38 75 39 28 41 62 42 41 43 61 44 42 45 45 46
REMARK SMILES IDX 60 47 80 48 43 49 44 50 59 52 81 53 46 54 29 55 30 56 39 57
REMARK SMILES IDX 31 58 32 59 38 60 40 61 33 62 34 63 35 64 36 65 37 66 63 67
REMARK SMILES IDX 64 68 73 69 65 70 66 71 72 72 74 73 67 74 68 75 69 76 70 77
REMARK SMILES IDX 71 78 47 79 48 80 57 81 49 82 50 83 56 84 58 85 51 86 52 87
REMARK SMILES IDX 53 88 54 89 55 90
REMARK H PARENT 12 7 4 12 17 21 79 40 45 51
REMARK Flexibility Score: inf
ROOT
ATOM      1  C   UNL A   1      35.702  32.252  27.851  1.00  0.00     0.023 C 
ENDROOT
BRANCH   1   2
ATOM      2  C   UNL A   1      34.392  31.569  28.217  1.00  0.00     0.023 C 
BRANCH   2   3
ATOM      3  C   UNL A   1      33.936  30.460  27.258  1.00  0.00     0.116 C 
BRANCH   3   4
ATOM      4  N   UNL A   1      33.028  29.498  27.860  1.00  0.00    -0.356 N 
ATOM      5  C   UNL A   1      32.025  28.757  27.308  1.00  0.00     0.225 C 
ATOM      6  O   UNL A   1      31.399  27.992  28.044  1.00  0.00    -0.275 OA
ATOM      7  H   UNL A   1      33.160  29.358  28.826  1.00  0.00     0.163 HD
BRANCH   5   8
ATOM      8  C   UNL A   1      31.718  28.838  25.827  1.00  0.00     0.164 C 
BRANCH   8   9
ATOM      9  C   UNL A   1      31.801  27.546  24.983  1.00  0.00     0.193 C 
ATOM     10  N   UNL A   1      31.556  26.322  25.787  1.00  0.00    -0.330 N 
ATOM     11  C   UNL A   1      30.131  26.015  25.573  1.00  0.00     0.262 C 
ATOM     12  H   UNL A   1      31.738  26.467  26.780  1.00  0.00     0.348 HD
ATOM     13  C   UNL A   1      29.896  26.253  24.107  1.00  0.00     0.067 C 
ATOM     14  C   UNL A   1      30.826  27.404  23.812  1.00  0.00     0.071 C 
BRANCH  10  15
ATOM     15  C   UNL A   1      32.512  25.218  25.514  1.00  0.00     0.177 C 
ATOM     16  C   UNL A   1      33.962  25.710  25.398  1.00  0.00     0.075 C 
ATOM     17  C   UNL A   1      32.500  23.977  26.428  1.00  0.00     0.075 C 
ENDBRANCH  10  15
ENDBRANCH   8   9
ENDBRANCH   5   8
ENDBRANCH   3   4
ENDBRANCH   2   3
ENDBRANCH   1   2
BRANCH   1  18
ATOM     18  C   UNL A   1      36.529  32.608  29.066  1.00  0.00     0.116 C 
BRANCH  18  19
ATOM     19  N   UNL A   1      36.154  31.799  30.220  1.00  0.00    -0.352 N 
ATOM     20  C   UNL A   1      36.717  30.644  30.689  1.00  0.00     0.251 C 
ATOM     21  H   UNL A   1      35.383  32.131  30.735  1.00  0.00     0.163 HD
ATOM     22  O   UNL A   1      36.108  29.949  31.501  1.00  0.00    -0.269 OA
BRANCH  20  23
ATOM     23  C   UNL A   1      38.052  30.254  30.208  1.00  0.00     0.039 A 
ATOM     24  C   UNL A   1      39.100  30.112  31.117  1.00  0.00     0.014 A 
ATOM     25  C   UNL A   1      38.257  30.023  28.845  1.00  0.00     0.014 A 
ATOM     26  C   UNL A   1      40.347  29.706  30.653  1.00  0.00     0.010 A 
ATOM     27  C   UNL A   1      39.453  29.483  28.410  1.00  0.00     0.010 A 
ATOM     28  C   UNL A   1      40.526  29.369  29.300  1.00  0.00    -0.014 A 
BRANCH  28  29
ATOM     29  C   UNL A   1      41.849  28.968  28.773  1.00  0.00     0.031 A 
ATOM     30  C   UNL A   1      42.946  29.996  28.670  1.00  0.00     0.074 A 
ATOM     31  C   UNL A   1      42.042  27.704  28.354  1.00  0.00     0.049 A 
ATOM     32  N   UNL A   1      44.165  29.858  28.219  1.00  0.00    -0.248 NA
ATOM     33  C   UNL A   1      42.621  31.372  29.090  1.00  0.00     0.031 C 
ATOM     34  C   UNL A   1      41.024  26.650  28.343  1.00  0.00     0.029 A 
ATOM     35  N   UNL A   1      43.162  27.089  27.863  1.00  0.00    -0.354 N 
ATOM     36  C   UNL A   1      44.737  31.123  28.289  1.00  0.00     0.074 A 
ATOM     37  C   UNL A   1      43.713  32.033  28.741  1.00  0.00     0.031 C 
ATOM     38  C   UNL A   1      41.581  25.507  27.912  1.00  0.00     0.029 A 
ATOM     39  C   UNL A   1      42.979  25.757  27.583  1.00  0.00     0.049 A 
ATOM     40  H   UNL A   1      44.017  27.557  27.723  1.00  0.00     0.167 HD
ATOM     41  C   UNL A   1      46.016  31.487  28.039  1.00  0.00     0.037 A 
ATOM     42  C   UNL A   1      43.850  24.841  27.119  1.00  0.00     0.037 A 
ATOM     43  C   UNL A   1      47.035  30.561  27.625  1.00  0.00     0.049 A 
ATOM     44  C   UNL A   1      45.273  25.263  26.870  1.00  0.00     0.074 A 
ATOM     45  C   UNL A   1      48.377  30.801  27.400  1.00  0.00     0.029 A 
ATOM     46  N   UNL A   1      46.821  29.211  27.378  1.00  0.00    -0.354 N 
ATOM     47  N   UNL A   1      45.820  26.448  27.011  1.00  0.00    -0.248 NA
ATOM     48  C   UNL A   1      46.202  24.221  26.417  1.00  0.00     0.031 C 
ATOM     49  C   UNL A   1      48.966  29.608  26.967  1.00  0.00     0.029 A 
ATOM     50  C   UNL A   1      48.003  28.610  26.984  1.00  0.00     0.049 A 
ATOM     51  H   UNL A   1      45.956  28.751  27.470  1.00  0.00     0.167 HD
ATOM     52  C   UNL A   1      47.164  26.288  26.695  1.00  0.00     0.074 A 
ATOM     53  C   UNL A   1      47.347  24.886  26.372  1.00  0.00     0.031 C 
ATOM     54  C   UNL A   1      48.158  27.210  26.673  1.00  0.00     0.037 A 
BRANCH  41  55
ATOM     55  C   UNL A   1      46.378  32.937  28.218  1.00  0.00     0.058 A 
ATOM     56  C   UNL A   1      46.864  33.434  29.441  1.00  0.00     0.135 A 
ATOM     57  C   UNL A   1      46.255  33.841  27.151  1.00  0.00     0.135 A 
ATOM     58  F   UNL A   1      46.981  32.622  30.503  1.00  0.00    -0.206 F 
ATOM     59  C   UNL A   1      47.182  34.778  29.607  1.00  0.00     0.059 A 
ATOM     60  C   UNL A   1      46.601  35.182  27.285  1.00  0.00     0.059 A 
ATOM     61  F   UNL A   1      45.791  33.425  25.962  1.00  0.00    -0.206 F 
ATOM     62  C   UNL A   1      47.050  35.644  28.521  1.00  0.00     0.060 A 
BRANCH  62  63
ATOM     63  S   UNL A   1      47.480  37.382  28.751  1.00  0.00     0.124 S 
ATOM     64  O   UNL A   1      46.499  38.041  27.894  1.00  0.00    -0.237 OA
ATOM     65  O   UNL A   1      47.288  37.561  30.187  1.00  0.00    -0.237 OA
ATOM     66  O   UNL A   1      48.864  37.454  28.293  1.00  0.00    -0.744 OA
ENDBRANCH  62  63
ENDBRANCH  41  55
BRANCH  42  67
ATOM     67  C   UNL A   1      43.410  23.436  26.905  1.00  0.00     0.058 A 
ATOM     68  C   UNL A   1      43.228  22.924  25.611  1.00  0.00     0.135 A 
ATOM     69  C   UNL A   1      43.178  22.573  27.987  1.00  0.00     0.135 A 
ATOM     70  F   UNL A   1      43.439  23.709  24.544  1.00  0.00    -0.206 F 
ATOM     71  C   UNL A   1      42.809  21.615  25.397  1.00  0.00     0.059 A 
ATOM     72  C   UNL A   1      42.787  21.252  27.798  1.00  0.00     0.059 A 
ATOM     73  F   UNL A   1      43.360  23.006  29.243  1.00  0.00    -0.206 F 
ATOM     74  C   UNL A   1      42.593  20.786  26.499  1.00  0.00     0.060 A 
BRANCH  74  75
ATOM     75  S   UNL A   1      42.087  19.077  26.208  1.00  0.00     0.124 S 
ATOM     76  O   UNL A   1      40.692  19.246  25.817  1.00  0.00    -0.237 OA
ATOM     77  O   UNL A   1      43.002  18.663  25.149  1.00  0.00    -0.237 OA
ATOM     78  O   UNL A   1      42.307  18.437  27.502  1.00  0.00    -0.744 OA
ENDBRANCH  74  75
ENDBRANCH  42  67
BRANCH  54  79
ATOM     79  C   UNL A   1      49.539  26.722  26.332  1.00  0.00     0.058 A 
ATOM     80  C   UNL A   1      50.064  26.827  25.035  1.00  0.00     0.135 A 
ATOM     81  C   UNL A   1      50.359  26.170  27.330  1.00  0.00     0.135 A 
ATOM     82  F   UNL A   1      49.321  27.346  24.044  1.00  0.00    -0.206 F 
ATOM     83  C   UNL A   1      51.337  26.360  24.728  1.00  0.00     0.059 A 
ATOM     84  C   UNL A   1      51.649  25.730  27.054  1.00  0.00     0.059 A 
ATOM     85  F   UNL A   1      49.913  26.064  28.592  1.00  0.00    -0.206 F 
ATOM     86  C   UNL A   1      52.121  25.810  25.745  1.00  0.00     0.060 A 
BRANCH  86  87
ATOM     87  S   UNL A   1      53.772  25.210  25.334  1.00  0.00     0.124 S 
ATOM     88  O   UNL A   1      53.597  23.766  25.456  1.00  0.00    -0.237 OA
ATOM     89  O   UNL A   1      53.959  25.714  23.978  1.00  0.00    -0.237 OA
ATOM     90  O   UNL A   1      54.621  25.828  26.349  1.00  0.00    -0.744 OA
ENDBRANCH  86  87
ENDBRANCH  54  79
ENDBRANCH  28  29
ENDBRANCH  20  23
ENDBRANCH  18  19
ENDBRANCH   1  18
TORSDOF 16
ENDMDL
