MODEL 1
REMARK VINA RESULT:     -12.3      0.000      0.000
REMARK SMILES CC(=O)Nc1cccc(-c2ccc(F)c(C(=O)NCCCCNC(=O)c3ccc(-c4c5nc(c(-c6c(F)cc(S(=O)(=O)[O-])cc6F)c6ccc([nH]6)c(-c6c(F)cc(S(=O)(=O)[O-])cc6F)c6nc(c(-c7c(F)cc(S(=O)(=O)[O-])cc7F)c7ccc4[nH]7)C=C6)C=C5)cc3)c2)c1
REMARK SMILES IDX 21 1 20 2 19 3 18 4 16 5 17 6 15 8 10 9 11 10 92 11 12 12
REMARK SMILES IDX 13 13 14 14 9 15 5 16 6 17 93 18 7 19 8 20 4 21 1 22 2 23
REMARK SMILES IDX 3 24 22 26 23 27 24 28 25 30 26 31 27 32 91 33 28 34 90 35
REMARK SMILES IDX 29 36 30 37 31 38 84 39 32 40 89 41 83 42 85 43 33 44 88 45
REMARK SMILES IDX 82 46 81 47 34 49 68 50 47 51 67 52 48 53 51 54 66 55 86 56
REMARK SMILES IDX 49 57 50 58 65 60 87 61 52 62 35 63 36 64 45 65 37 66 38 67
REMARK SMILES IDX 44 68 46 69 39 70 40 71 41 72 42 73 43 74 69 75 70 76 79 77
REMARK SMILES IDX 71 78 72 79 78 80 80 81 73 82 74 83 75 84 76 85 77 86 53 87
REMARK SMILES IDX 54 88 63 89 55 90 56 91 62 92 64 93 57 94 58 95 59 96 60 97
REMARK SMILES IDX 61 98
REMARK H PARENT 18 7 4 25 23 29 85 48 51 59
REMARK Flexibility Score: inf
ROOT
ATOM      1  C   UNL A   1      33.770  28.086  25.825  1.00  0.00     0.023 C 
ENDROOT
BRANCH   1   2
ATOM      2  C   UNL A   1      33.449  29.144  24.778  1.00  0.00     0.023 C 
BRANCH   2   3
ATOM      3  C   UNL A   1      32.451  28.757  23.694  1.00  0.00     0.116 C 
BRANCH   3   4
ATOM      4  N   UNL A   1      33.024  28.116  22.519  1.00  0.00    -0.352 N 
ATOM      5  C   UNL A   1      33.031  26.794  22.111  1.00  0.00     0.254 C 
ATOM      6  O   UNL A   1      33.530  26.514  21.026  1.00  0.00    -0.269 OA
ATOM      7  H   UNL A   1      33.488  28.731  21.906  1.00  0.00     0.163 HD
BRANCH   5   8
ATOM      8  C   UNL A   1      32.471  25.715  22.963  1.00  0.00     0.076 A 
ATOM      9  C   UNL A   1      32.758  23.553  24.068  1.00  0.00    -0.017 A 
ATOM     10  C   UNL A   1      31.372  23.489  24.262  1.00  0.00     0.012 A 
ATOM     11  C   UNL A   1      33.292  24.735  23.524  1.00  0.00     0.025 A 
ATOM     12  C   UNL A   1      30.548  24.540  23.846  1.00  0.00     0.041 A 
ATOM     13  C   UNL A   1      31.096  25.628  23.167  1.00  0.00     0.135 A 
ATOM     14  F   UNL A   1      30.255  26.552  22.681  1.00  0.00    -0.206 F 
BRANCH   9  15
ATOM     15  C   UNL A   1      33.642  22.378  24.222  1.00  0.00    -0.016 A 
ATOM     16  C   UNL A   1      33.967  20.071  24.979  1.00  0.00     0.041 A 
ATOM     17  C   UNL A   1      35.348  20.290  25.011  1.00  0.00     0.026 A 
ATOM     18  C   UNL A   1      33.129  21.116  24.581  1.00  0.00     0.034 A 
ATOM     19  C   UNL A   1      35.884  21.511  24.606  1.00  0.00     0.003 A 
ATOM     20  C   UNL A   1      35.037  22.545  24.214  1.00  0.00     0.009 A 
BRANCH  16  21
ATOM     21  N   UNL A   1      33.516  18.825  25.442  1.00  0.00    -0.326 N 
ATOM     22  C   UNL A   1      33.096  17.582  23.317  1.00  0.00     0.114 C 
ATOM     23  C   UNL A   1      33.016  17.725  24.810  1.00  0.00     0.221 C 
ATOM     24  O   UNL A   1      32.547  16.816  25.499  1.00  0.00    -0.275 OA
ATOM     25  H   UNL A   1      33.569  18.726  26.421  1.00  0.00     0.169 HD
ENDBRANCH  16  21
ENDBRANCH   9  15
ENDBRANCH   5   8
ENDBRANCH   3   4
ENDBRANCH   2   3
ENDBRANCH   1   2
BRANCH   1  26
ATOM     26  C   UNL A   1      33.435  28.440  27.269  1.00  0.00     0.116 C 
BRANCH  26  27
ATOM     27  N   UNL A   1      33.456  29.868  27.552  1.00  0.00    -0.352 N 
ATOM     28  C   UNL A   1      34.484  30.657  28.021  1.00  0.00     0.251 C 
ATOM     29  H   UNL A   1      32.609  30.341  27.382  1.00  0.00     0.163 HD
ATOM     30  O   UNL A   1      34.282  31.839  28.267  1.00  0.00    -0.269 OA
BRANCH  28  31
ATOM     31  C   UNL A   1      35.817  30.062  28.273  1.00  0.00     0.039 A 
ATOM     32  C   UNL A   1      36.765  30.073  27.246  1.00  0.00     0.014 A 
ATOM     33  C   UNL A   1      36.146  29.534  29.523  1.00  0.00     0.014 A 
ATOM     34  C   UNL A   1      38.072  29.648  27.503  1.00  0.00     0.010 A 
ATOM     35  C   UNL A   1      37.465  29.188  29.800  1.00  0.00     0.010 A 
ATOM     36  C   UNL A   1      38.445  29.252  28.797  1.00  0.00    -0.014 A 
BRANCH  36  37
ATOM     37  C   UNL A   1      39.852  28.910  29.136  1.00  0.00     0.031 A 
ATOM     38  C   UNL A   1      40.744  29.945  29.766  1.00  0.00     0.074 A 
ATOM     39  C   UNL A   1      40.353  27.707  28.791  1.00  0.00     0.049 A 
ATOM     40  N   UNL A   1      42.028  29.894  30.005  1.00  0.00    -0.248 NA
ATOM     41  C   UNL A   1      40.112  31.218  30.146  1.00  0.00     0.031 C 
ATOM     42  C   UNL A   1      39.606  26.633  28.131  1.00  0.00     0.029 A 
ATOM     43  N   UNL A   1      41.618  27.190  28.928  1.00  0.00    -0.354 N 
ATOM     44  C   UNL A   1      42.364  31.134  30.534  1.00  0.00     0.074 A 
ATOM     45  C   UNL A   1      41.156  31.931  30.543  1.00  0.00     0.031 C 
ATOM     46  C   UNL A   1      40.421  25.583  27.934  1.00  0.00     0.029 A 
ATOM     47  C   UNL A   1      41.757  25.919  28.418  1.00  0.00     0.049 A 
ATOM     48  H   UNL A   1      42.358  27.683  29.353  1.00  0.00     0.167 HD
ATOM     49  C   UNL A   1      43.565  31.565  30.989  1.00  0.00     0.037 A 
ATOM     50  C   UNL A   1      42.838  25.121  28.338  1.00  0.00     0.037 A 
ATOM     51  C   UNL A   1      44.753  30.755  31.019  1.00  0.00     0.049 A 
ATOM     52  C   UNL A   1      44.155  25.610  28.878  1.00  0.00     0.074 A 
ATOM     53  C   UNL A   1      46.005  31.081  31.513  1.00  0.00     0.029 A 
ATOM     54  N   UNL A   1      44.837  29.455  30.544  1.00  0.00    -0.354 N 
ATOM     55  N   UNL A   1      44.444  26.771  29.416  1.00  0.00    -0.248 NA
ATOM     56  C   UNL A   1      45.292  24.681  28.807  1.00  0.00     0.031 C 
ATOM     57  C   UNL A   1      46.852  29.986  31.314  1.00  0.00     0.029 A 
ATOM     58  C   UNL A   1      46.118  28.965  30.730  1.00  0.00     0.049 A 
ATOM     59  H   UNL A   1      44.095  28.953  30.135  1.00  0.00     0.167 HD
ATOM     60  C   UNL A   1      45.785  26.700  29.775  1.00  0.00     0.074 A 
ATOM     61  C   UNL A   1      46.251  25.383  29.395  1.00  0.00     0.031 C 
ATOM     62  C   UNL A   1      46.559  27.642  30.367  1.00  0.00     0.037 A 
BRANCH  49  63
ATOM     63  C   UNL A   1      43.647  32.976  31.501  1.00  0.00     0.058 A 
ATOM     64  C   UNL A   1      43.525  33.268  32.869  1.00  0.00     0.135 A 
ATOM     65  C   UNL A   1      43.870  34.045  30.619  1.00  0.00     0.135 A 
ATOM     66  F   UNL A   1      43.294  32.284  33.753  1.00  0.00    -0.206 F 
ATOM     67  C   UNL A   1      43.590  34.574  33.341  1.00  0.00     0.059 A 
ATOM     68  C   UNL A   1      43.964  35.358  31.074  1.00  0.00     0.059 A 
ATOM     69  F   UNL A   1      43.993  33.821  29.302  1.00  0.00    -0.206 F 
ATOM     70  C   UNL A   1      43.805  35.614  32.435  1.00  0.00     0.060 A 
BRANCH  70  71
ATOM     71  S   UNL A   1      43.882  37.305  33.060  1.00  0.00     0.124 S 
ATOM     72  O   UNL A   1      45.179  37.306  33.732  1.00  0.00    -0.237 OA
ATOM     73  O   UNL A   1      43.804  38.097  31.836  1.00  0.00    -0.237 OA
ATOM     74  O   UNL A   1      42.720  37.396  33.937  1.00  0.00    -0.744 OA
ENDBRANCH  70  71
ENDBRANCH  49  63
BRANCH  50  75
ATOM     75  C   UNL A   1      42.718  23.762  27.745  1.00  0.00     0.058 A 
ATOM     76  C   UNL A   1      42.811  23.575  26.358  1.00  0.00     0.135 A 
ATOM     77  C   UNL A   1      42.518  22.628  28.547  1.00  0.00     0.135 A 
ATOM     78  F   UNL A   1      42.994  24.630  25.550  1.00  0.00    -0.206 F 
ATOM     79  C   UNL A   1      42.698  22.313  25.783  1.00  0.00     0.059 A 
ATOM     80  C   UNL A   1      42.424  21.354  27.998  1.00  0.00     0.059 A 
ATOM     81  F   UNL A   1      42.439  22.753  29.880  1.00  0.00    -0.206 F 
ATOM     82  C   UNL A   1      42.504  21.207  26.613  1.00  0.00     0.060 A 
BRANCH  82  83
ATOM     83  S   UNL A   1      42.407  19.566  25.862  1.00  0.00     0.124 S 
ATOM     84  O   UNL A   1      41.008  19.512  25.457  1.00  0.00    -0.237 OA
ATOM     85  O   UNL A   1      43.382  19.665  24.780  1.00  0.00    -0.237 OA
ATOM     86  O   UNL A   1      42.785  18.677  26.956  1.00  0.00    -0.744 OA
ENDBRANCH  82  83
ENDBRANCH  50  75
BRANCH  62  87
ATOM     87  C   UNL A   1      47.978  27.272  30.690  1.00  0.00     0.058 A 
ATOM     88  C   UNL A   1      48.311  26.580  31.864  1.00  0.00     0.135 A 
ATOM     89  C   UNL A   1      49.006  27.551  29.775  1.00  0.00     0.135 A 
ATOM     90  F   UNL A   1      47.365  26.298  32.773  1.00  0.00    -0.206 F 
ATOM     91  C   UNL A   1      49.619  26.186  32.126  1.00  0.00     0.059 A 
ATOM     92  C   UNL A   1      50.317  27.147  30.007  1.00  0.00     0.059 A 
ATOM     93  F   UNL A   1      48.737  28.204  28.634  1.00  0.00    -0.206 F 
ATOM     94  C   UNL A   1      50.615  26.470  31.189  1.00  0.00     0.060 A 
BRANCH  94  95
ATOM     95  S   UNL A   1      52.299  25.904  31.513  1.00  0.00     0.124 S 
ATOM     96  O   UNL A   1      52.066  24.542  31.981  1.00  0.00    -0.237 OA
ATOM     97  O   UNL A   1      52.929  26.025  30.202  1.00  0.00    -0.237 OA
ATOM     98  O   UNL A   1      52.782  26.843  32.522  1.00  0.00    -0.744 OA
ENDBRANCH  94  95
ENDBRANCH  62  87
ENDBRANCH  36  37
ENDBRANCH  28  31
ENDBRANCH  26  27
ENDBRANCH   1  26
TORSDOF 16
ENDMDL
MODEL 2
REMARK VINA RESULT:     -12.1      4.643     11.629
REMARK SMILES CC(=O)Nc1cccc(-c2ccc(F)c(C(=O)NCCCCNC(=O)c3ccc(-c4c5nc(c(-c6c(F)cc(S(=O)(=O)[O-])cc6F)c6ccc([nH]6)c(-c6c(F)cc(S(=O)(=O)[O-])cc6F)c6nc(c(-c7c(F)cc(S(=O)(=O)[O-])cc7F)c7ccc4[nH]7)C=C6)C=C5)cc3)c2)c1
REMARK SMILES IDX 21 1 20 2 19 3 18 4 16 5 17 6 15 8 10 9 11 10 92 11 12 12
REMARK SMILES IDX 13 13 14 14 9 15 5 16 6 17 93 18 7 19 8 20 4 21 1 22 2 23
REMARK SMILES IDX 3 24 22 26 23 27 24 28 25 30 26 31 27 32 91 33 28 34 90 35
REMARK SMILES IDX 29 36 30 37 31 38 84 39 32 40 89 41 83 42 85 43 33 44 88 45
REMARK SMILES IDX 82 46 81 47 34 49 68 50 47 51 67 52 48 53 51 54 66 55 86 56
REMARK SMILES IDX 49 57 50 58 65 60 87 61 52 62 35 63 36 64 45 65 37 66 38 67
REMARK SMILES IDX 44 68 46 69 39 70 40 71 41 72 42 73 43 74 69 75 70 76 79 77
REMARK SMILES IDX 71 78 72 79 78 80 80 81 73 82 74 83 75 84 76 85 77 86 53 87
REMARK SMILES IDX 54 88 63 89 55 90 56 91 62 92 64 93 57 94 58 95 59 96 60 97
REMARK SMILES IDX 61 98
REMARK H PARENT 18 7 4 25 23 29 85 48 51 59
REMARK Flexibility Score: inf
ROOT
ATOM      1  C   UNL A   1      42.092  22.127  27.627  1.00  0.00     0.023 C 
ENDROOT
BRANCH   1   2
ATOM      2  C   UNL A   1      42.840  23.205  28.400  1.00  0.00     0.023 C 
BRANCH   2   3
ATOM      3  C   UNL A   1      44.334  22.991  28.608  1.00  0.00     0.116 C 
BRANCH   3   4
ATOM      4  N   UNL A   1      45.109  22.788  27.392  1.00  0.00    -0.352 N 
ATOM      5  C   UNL A   1      46.081  23.565  26.787  1.00  0.00     0.254 C 
ATOM      6  O   UNL A   1      46.645  23.132  25.786  1.00  0.00    -0.269 OA
ATOM      7  H   UNL A   1      44.907  21.950  26.916  1.00  0.00     0.163 HD
BRANCH   5   8
ATOM      8  C   UNL A   1      46.437  24.908  27.307  1.00  0.00     0.076 A 
ATOM      9  C   UNL A   1      45.829  27.250  27.660  1.00  0.00    -0.017 A 
ATOM     10  C   UNL A   1      47.172  27.537  27.943  1.00  0.00     0.012 A 
ATOM     11  C   UNL A   1      45.471  25.904  27.465  1.00  0.00     0.025 A 
ATOM     12  C   UNL A   1      48.130  26.518  27.945  1.00  0.00     0.041 A 
ATOM     13  C   UNL A   1      47.765  25.218  27.591  1.00  0.00     0.135 A 
ATOM     14  F   UNL A   1      48.737  24.301  27.490  1.00  0.00    -0.206 F 
BRANCH   9  15
ATOM     15  C   UNL A   1      44.832  28.301  27.366  1.00  0.00    -0.016 A 
ATOM     16  C   UNL A   1      43.572  30.273  28.092  1.00  0.00     0.041 A 
ATOM     17  C   UNL A   1      42.620  30.013  27.102  1.00  0.00     0.026 A 
ATOM     18  C   UNL A   1      44.670  29.416  28.212  1.00  0.00     0.034 A 
ATOM     19  C   UNL A   1      42.787  28.949  26.217  1.00  0.00     0.003 A 
ATOM     20  C   UNL A   1      43.885  28.102  26.348  1.00  0.00     0.009 A 
BRANCH  16  21
ATOM     21  N   UNL A   1      43.301  31.340  28.963  1.00  0.00    -0.326 N 
ATOM     22  C   UNL A   1      44.236  33.295  27.722  1.00  0.00     0.114 C 
ATOM     23  C   UNL A   1      43.639  32.662  28.946  1.00  0.00     0.221 C 
ATOM     24  O   UNL A   1      43.388  33.343  29.942  1.00  0.00    -0.275 OA
ATOM     25  H   UNL A   1      42.759  31.083  29.744  1.00  0.00     0.169 HD
ENDBRANCH  16  21
ENDBRANCH   9  15
ENDBRANCH   5   8
ENDBRANCH   3   4
ENDBRANCH   2   3
ENDBRANCH   1   2
BRANCH   1  26
ATOM     26  C   UNL A   1      41.796  22.426  26.162  1.00  0.00     0.116 C 
BRANCH  26  27
ATOM     27  N   UNL A   1      40.400  22.240  25.788  1.00  0.00    -0.352 N 
ATOM     28  C   UNL A   1      39.309  23.041  26.039  1.00  0.00     0.251 C 
ATOM     29  H   UNL A   1      40.210  21.419  25.280  1.00  0.00     0.163 HD
ATOM     30  O   UNL A   1      38.191  22.673  25.700  1.00  0.00    -0.269 OA
BRANCH  28  31
ATOM     31  C   UNL A   1      39.482  24.324  26.760  1.00  0.00     0.039 A 
ATOM     32  C   UNL A   1      38.931  24.457  28.038  1.00  0.00     0.014 A 
ATOM     33  C   UNL A   1      40.218  25.371  26.202  1.00  0.00     0.014 A 
ATOM     34  C   UNL A   1      39.203  25.602  28.794  1.00  0.00     0.010 A 
ATOM     35  C   UNL A   1      40.553  26.472  26.985  1.00  0.00     0.010 A 
ATOM     36  C   UNL A   1      40.060  26.594  28.293  1.00  0.00    -0.014 A 
BRANCH  36  37
ATOM     37  C   UNL A   1      40.468  27.765  29.114  1.00  0.00     0.031 A 
ATOM     38  C   UNL A   1      41.758  27.726  29.886  1.00  0.00     0.074 A 
ATOM     39  C   UNL A   1      39.636  28.818  29.242  1.00  0.00     0.049 A 
ATOM     40  N   UNL A   1      42.222  28.575  30.766  1.00  0.00    -0.248 NA
ATOM     41  C   UNL A   1      42.626  26.558  29.663  1.00  0.00     0.031 C 
ATOM     42  C   UNL A   1      38.334  28.958  28.585  1.00  0.00     0.029 A 
ATOM     43  N   UNL A   1      39.752  29.966  29.987  1.00  0.00    -0.354 N 
ATOM     44  C   UNL A   1      43.417  28.032  31.223  1.00  0.00     0.074 A 
ATOM     45  C   UNL A   1      43.587  26.761  30.553  1.00  0.00     0.031 C 
ATOM     46  C   UNL A   1      37.780  30.128  28.945  1.00  0.00     0.029 A 
ATOM     47  C   UNL A   1      38.667  30.806  29.886  1.00  0.00     0.049 A 
ATOM     48  H   UNL A   1      40.540  30.170  30.543  1.00  0.00     0.167 HD
ATOM     49  C   UNL A   1      44.302  28.554  32.105  1.00  0.00     0.037 A 
ATOM     50  C   UNL A   1      38.409  31.982  30.490  1.00  0.00     0.037 A 
ATOM     51  C   UNL A   1      44.150  29.837  32.736  1.00  0.00     0.049 A 
ATOM     52  C   UNL A   1      39.422  32.556  31.443  1.00  0.00     0.074 A 
ATOM     53  C   UNL A   1      45.020  30.480  33.602  1.00  0.00     0.029 A 
ATOM     54  N   UNL A   1      43.063  30.681  32.562  1.00  0.00    -0.354 N 
ATOM     55  N   UNL A   1      40.568  32.049  31.830  1.00  0.00    -0.248 NA
ATOM     56  C   UNL A   1      39.112  33.863  32.040  1.00  0.00     0.031 C 
ATOM     57  C   UNL A   1      44.446  31.701  33.971  1.00  0.00     0.029 A 
ATOM     58  C   UNL A   1      43.237  31.836  33.306  1.00  0.00     0.049 A 
ATOM     59  H   UNL A   1      42.283  30.488  31.994  1.00  0.00     0.167 HD
ATOM     60  C   UNL A   1      41.129  32.988  32.688  1.00  0.00     0.074 A 
ATOM     61  C   UNL A   1      40.198  34.095  32.764  1.00  0.00     0.031 C 
ATOM     62  C   UNL A   1      42.310  32.938  33.352  1.00  0.00     0.037 A 
BRANCH  49  63
ATOM     63  C   UNL A   1      45.519  27.735  32.432  1.00  0.00     0.058 A 
ATOM     64  C   UNL A   1      46.732  27.919  31.749  1.00  0.00     0.135 A 
ATOM     65  C   UNL A   1      45.481  26.771  33.452  1.00  0.00     0.135 A 
ATOM     66  F   UNL A   1      46.818  28.816  30.754  1.00  0.00    -0.206 F 
ATOM     67  C   UNL A   1      47.855  27.154  32.043  1.00  0.00     0.059 A 
ATOM     68  C   UNL A   1      46.601  26.011  33.780  1.00  0.00     0.059 A 
ATOM     69  F   UNL A   1      44.347  26.555  34.135  1.00  0.00    -0.206 F 
ATOM     70  C   UNL A   1      47.778  26.199  33.058  1.00  0.00     0.060 A 
BRANCH  70  71
ATOM     71  S   UNL A   1      49.242  25.209  33.427  1.00  0.00     0.124 S 
ATOM     72  O   UNL A   1      49.985  26.108  34.306  1.00  0.00    -0.237 OA
ATOM     73  O   UNL A   1      48.670  24.028  34.068  1.00  0.00    -0.237 OA
ATOM     74  O   UNL A   1      49.837  24.980  32.115  1.00  0.00    -0.744 OA
ENDBRANCH  70  71
ENDBRANCH  49  63
BRANCH  50  75
ATOM     75  C   UNL A   1      37.148  32.711  30.191  1.00  0.00     0.058 A 
ATOM     76  C   UNL A   1      37.075  33.606  29.115  1.00  0.00     0.135 A 
ATOM     77  C   UNL A   1      35.992  32.521  30.964  1.00  0.00     0.135 A 
ATOM     78  F   UNL A   1      38.157  33.825  28.351  1.00  0.00    -0.206 F 
ATOM     79  C   UNL A   1      35.906  34.300  28.820  1.00  0.00     0.059 A 
ATOM     80  C   UNL A   1      34.805  33.188  30.677  1.00  0.00     0.059 A 
ATOM     81  F   UNL A   1      36.005  31.663  31.995  1.00  0.00    -0.206 F 
ATOM     82  C   UNL A   1      34.775  34.084  29.608  1.00  0.00     0.060 A 
BRANCH  82  83
ATOM     83  S   UNL A   1      33.246  34.952  29.189  1.00  0.00     0.124 S 
ATOM     84  O   UNL A   1      32.565  34.985  30.478  1.00  0.00    -0.237 OA
ATOM     85  O   UNL A   1      33.745  36.232  28.697  1.00  0.00    -0.237 OA
ATOM     86  O   UNL A   1      32.643  34.092  28.175  1.00  0.00    -0.744 OA
ENDBRANCH  82  83
ENDBRANCH  50  75
BRANCH  62  87
ATOM     87  C   UNL A   1      42.692  34.130  34.181  1.00  0.00     0.058 A 
ATOM     88  C   UNL A   1      42.390  34.205  35.548  1.00  0.00     0.135 A 
ATOM     89  C   UNL A   1      43.436  35.177  33.611  1.00  0.00     0.135 A 
ATOM     90  F   UNL A   1      41.675  33.233  36.136  1.00  0.00    -0.206 F 
ATOM     91  C   UNL A   1      42.803  35.284  36.323  1.00  0.00     0.059 A 
ATOM     92  C   UNL A   1      43.877  36.255  34.373  1.00  0.00     0.059 A 
ATOM     93  F   UNL A   1      43.757  35.147  32.309  1.00  0.00    -0.206 F 
ATOM     94  C   UNL A   1      43.550  36.302  35.727  1.00  0.00     0.060 A 
BRANCH  94  95
ATOM     95  S   UNL A   1      44.128  37.670  36.754  1.00  0.00     0.124 S 
ATOM     96  O   UNL A   1      44.125  38.775  35.801  1.00  0.00    -0.237 OA
ATOM     97  O   UNL A   1      43.110  37.731  37.798  1.00  0.00    -0.237 OA
ATOM     98  O   UNL A   1      45.446  37.225  37.198  1.00  0.00    -0.744 OA
ENDBRANCH  94  95
ENDBRANCH  62  87
ENDBRANCH  36  37
ENDBRANCH  28  31
ENDBRANCH  26  27
ENDBRANCH   1  26
TORSDOF 16
ENDMDL
MODEL 3
REMARK VINA RESULT:     -12.1      3.186      8.976
REMARK SMILES CC(=O)Nc1cccc(-c2ccc(F)c(C(=O)NCCCCNC(=O)c3ccc(-c4c5nc(c(-c6c(F)cc(S(=O)(=O)[O-])cc6F)c6ccc([nH]6)c(-c6c(F)cc(S(=O)(=O)[O-])cc6F)c6nc(c(-c7c(F)cc(S(=O)(=O)[O-])cc7F)c7ccc4[nH]7)C=C6)C=C5)cc3)c2)c1
REMARK SMILES IDX 21 1 20 2 19 3 18 4 16 5 17 6 15 8 10 9 11 10 92 11 12 12
REMARK SMILES IDX 13 13 14 14 9 15 5 16 6 17 93 18 7 19 8 20 4 21 1 22 2 23
REMARK SMILES IDX 3 24 22 26 23 27 24 28 25 30 26 31 27 32 91 33 28 34 90 35
REMARK SMILES IDX 29 36 30 37 31 38 84 39 32 40 89 41 83 42 85 43 33 44 88 45
REMARK SMILES IDX 82 46 81 47 34 49 68 50 47 51 67 52 48 53 51 54 66 55 86 56
REMARK SMILES IDX 49 57 50 58 65 60 87 61 52 62 35 63 36 64 45 65 37 66 38 67
REMARK SMILES IDX 44 68 46 69 39 70 40 71 41 72 42 73 43 74 69 75 70 76 79 77
REMARK SMILES IDX 71 78 72 79 78 80 80 81 73 82 74 83 75 84 76 85 77 86 53 87
REMARK SMILES IDX 54 88 63 89 55 90 56 91 62 92 64 93 57 94 58 95 59 96 60 97
REMARK SMILES IDX 61 98
REMARK H PARENT 18 7 4 25 23 29 85 48 51 59
REMARK Flexibility Score: inf
ROOT
ATOM      1  C   UNL A   1      35.632  22.880  25.537  1.00  0.00     0.023 C 
ENDROOT
BRANCH   1   2
ATOM      2  C   UNL A   1      35.105  23.398  26.868  1.00  0.00     0.023 C 
BRANCH   2   3
ATOM      3  C   UNL A   1      34.106  22.513  27.603  1.00  0.00     0.116 C 
BRANCH   3   4
ATOM      4  N   UNL A   1      32.781  23.090  27.788  1.00  0.00    -0.352 N 
ATOM      5  C   UNL A   1      31.716  23.230  26.917  1.00  0.00     0.254 C 
ATOM      6  O   UNL A   1      30.663  23.696  27.342  1.00  0.00    -0.269 OA
ATOM      7  H   UNL A   1      32.614  23.441  28.692  1.00  0.00     0.163 HD
BRANCH   5   8
ATOM      8  C   UNL A   1      31.827  22.854  25.486  1.00  0.00     0.076 A 
ATOM      9  C   UNL A   1      32.173  21.125  23.792  1.00  0.00    -0.017 A 
ATOM     10  C   UNL A   1      32.396  22.129  22.839  1.00  0.00     0.012 A 
ATOM     11  C   UNL A   1      31.771  21.519  25.080  1.00  0.00     0.025 A 
ATOM     12  C   UNL A   1      32.300  23.478  23.195  1.00  0.00     0.041 A 
ATOM     13  C   UNL A   1      32.053  23.833  24.521  1.00  0.00     0.135 A 
ATOM     14  F   UNL A   1      32.090  25.135  24.838  1.00  0.00    -0.206 F 
BRANCH   9  15
ATOM     15  C   UNL A   1      32.531  19.710  23.560  1.00  0.00    -0.016 A 
ATOM     16  C   UNL A   1      34.047  17.827  23.961  1.00  0.00     0.041 A 
ATOM     17  C   UNL A   1      33.570  17.213  22.798  1.00  0.00     0.026 A 
ATOM     18  C   UNL A   1      33.520  19.067  24.331  1.00  0.00     0.034 A 
ATOM     19  C   UNL A   1      32.553  17.801  22.049  1.00  0.00     0.003 A 
ATOM     20  C   UNL A   1      32.037  19.038  22.429  1.00  0.00     0.009 A 
BRANCH  16  21
ATOM     21  N   UNL A   1      35.099  17.181  24.628  1.00  0.00    -0.326 N 
ATOM     22  C   UNL A   1      34.029  15.057  25.390  1.00  0.00     0.114 C 
ATOM     23  C   UNL A   1      35.168  16.037  25.367  1.00  0.00     0.221 C 
ATOM     24  O   UNL A   1      36.213  15.793  25.974  1.00  0.00    -0.275 OA
ATOM     25  H   UNL A   1      35.962  17.649  24.548  1.00  0.00     0.169 HD
ENDBRANCH  16  21
ENDBRANCH   9  15
ENDBRANCH   5   8
ENDBRANCH   3   4
ENDBRANCH   2   3
ENDBRANCH   1   2
BRANCH   1  26
ATOM     26  C   UNL A   1      36.961  23.455  25.065  1.00  0.00     0.116 C 
BRANCH  26  27
ATOM     27  N   UNL A   1      38.105  22.585  25.302  1.00  0.00    -0.352 N 
ATOM     28  C   UNL A   1      39.265  22.830  26.003  1.00  0.00     0.251 C 
ATOM     29  H   UNL A   1      38.038  21.688  24.902  1.00  0.00     0.163 HD
ATOM     30  O   UNL A   1      40.152  21.986  26.028  1.00  0.00    -0.269 OA
BRANCH  28  31
ATOM     31  C   UNL A   1      39.458  24.132  26.682  1.00  0.00     0.039 A 
ATOM     32  C   UNL A   1      38.939  24.304  27.969  1.00  0.00     0.014 A 
ATOM     33  C   UNL A   1      40.181  25.162  26.076  1.00  0.00     0.014 A 
ATOM     34  C   UNL A   1      39.231  25.470  28.684  1.00  0.00     0.010 A 
ATOM     35  C   UNL A   1      40.537  26.284  26.818  1.00  0.00     0.010 A 
ATOM     36  C   UNL A   1      40.076  26.446  28.134  1.00  0.00    -0.014 A 
BRANCH  36  37
ATOM     37  C   UNL A   1      40.505  27.639  28.910  1.00  0.00     0.031 A 
ATOM     38  C   UNL A   1      41.821  27.625  29.639  1.00  0.00     0.074 A 
ATOM     39  C   UNL A   1      39.673  28.692  29.039  1.00  0.00     0.049 A 
ATOM     40  N   UNL A   1      42.309  28.499  30.480  1.00  0.00    -0.248 NA
ATOM     41  C   UNL A   1      42.687  26.456  29.416  1.00  0.00     0.031 C 
ATOM     42  C   UNL A   1      38.349  28.808  28.422  1.00  0.00     0.029 A 
ATOM     43  N   UNL A   1      39.808  29.859  29.750  1.00  0.00    -0.354 N 
ATOM     44  C   UNL A   1      43.522  27.974  30.910  1.00  0.00     0.074 A 
ATOM     45  C   UNL A   1      43.676  26.686  30.268  1.00  0.00     0.031 C 
ATOM     46  C   UNL A   1      37.801  29.985  28.770  1.00  0.00     0.029 A 
ATOM     47  C   UNL A   1      38.715  30.691  29.663  1.00  0.00     0.049 A 
ATOM     48  H   UNL A   1      40.613  30.081  30.273  1.00  0.00     0.167 HD
ATOM     49  C   UNL A   1      44.433  28.522  31.748  1.00  0.00     0.037 A 
ATOM     50  C   UNL A   1      38.472  31.881  30.245  1.00  0.00     0.037 A 
ATOM     51  C   UNL A   1      44.297  29.821  32.350  1.00  0.00     0.049 A 
ATOM     52  C   UNL A   1      39.513  32.485  31.148  1.00  0.00     0.074 A 
ATOM     53  C   UNL A   1      45.191  30.489  33.169  1.00  0.00     0.029 A 
ATOM     54  N   UNL A   1      43.199  30.655  32.192  1.00  0.00    -0.354 N 
ATOM     55  N   UNL A   1      40.675  31.993  31.509  1.00  0.00    -0.248 NA
ATOM     56  C   UNL A   1      39.216  33.805  31.721  1.00  0.00     0.031 C 
ATOM     57  C   UNL A   1      44.624  31.717  33.526  1.00  0.00     0.029 A 
ATOM     58  C   UNL A   1      43.392  31.829  32.899  1.00  0.00     0.049 A 
ATOM     59  H   UNL A   1      42.402  30.444  31.655  1.00  0.00     0.167 HD
ATOM     60  C   UNL A   1      41.259  32.956  32.323  1.00  0.00     0.074 A 
ATOM     61  C   UNL A   1      40.325  34.060  32.402  1.00  0.00     0.031 C 
ATOM     62  C   UNL A   1      42.462  32.928  32.947  1.00  0.00     0.037 A 
BRANCH  49  63
ATOM     63  C   UNL A   1      45.665  27.717  32.054  1.00  0.00     0.058 A 
ATOM     64  C   UNL A   1      45.707  26.822  33.135  1.00  0.00     0.135 A 
ATOM     65  C   UNL A   1      46.809  27.826  31.248  1.00  0.00     0.135 A 
ATOM     66  F   UNL A   1      44.646  26.693  33.948  1.00  0.00    -0.206 F 
ATOM     67  C   UNL A   1      46.851  26.087  33.425  1.00  0.00     0.059 A 
ATOM     68  C   UNL A   1      47.957  27.079  31.505  1.00  0.00     0.059 A 
ATOM     69  F   UNL A   1      46.823  28.667  30.203  1.00  0.00    -0.206 F 
ATOM     70  C   UNL A   1      47.973  26.225  32.607  1.00  0.00     0.060 A 
BRANCH  70  71
ATOM     71  S   UNL A   1      49.452  25.268  32.997  1.00  0.00     0.124 S 
ATOM     72  O   UNL A   1      50.278  26.269  33.666  1.00  0.00    -0.237 OA
ATOM     73  O   UNL A   1      48.925  24.209  33.853  1.00  0.00    -0.237 OA
ATOM     74  O   UNL A   1      49.929  24.831  31.689  1.00  0.00    -0.744 OA
ENDBRANCH  70  71
ENDBRANCH  49  63
BRANCH  50  75
ATOM     75  C   UNL A   1      37.198  32.597  29.971  1.00  0.00     0.058 A 
ATOM     76  C   UNL A   1      37.141  33.616  29.009  1.00  0.00     0.135 A 
ATOM     77  C   UNL A   1      36.014  32.272  30.651  1.00  0.00     0.135 A 
ATOM     78  F   UNL A   1      38.248  33.967  28.338  1.00  0.00    -0.206 F 
ATOM     79  C   UNL A   1      35.960  34.300  28.740  1.00  0.00     0.059 A 
ATOM     80  C   UNL A   1      34.816  32.926  30.384  1.00  0.00     0.059 A 
ATOM     81  F   UNL A   1      36.012  31.292  31.568  1.00  0.00    -0.206 F 
ATOM     82  C   UNL A   1      34.801  33.947  29.433  1.00  0.00     0.060 A 
BRANCH  82  83
ATOM     83  S   UNL A   1      33.260  34.806  29.041  1.00  0.00     0.124 S 
ATOM     84  O   UNL A   1      32.646  33.886  28.090  1.00  0.00    -0.237 OA
ATOM     85  O   UNL A   1      32.616  34.896  30.348  1.00  0.00    -0.237 OA
ATOM     86  O   UNL A   1      33.718  36.077  28.488  1.00  0.00    -0.744 OA
ENDBRANCH  82  83
ENDBRANCH  50  75
BRANCH  62  87
ATOM     87  C   UNL A   1      42.866  34.144  33.732  1.00  0.00     0.058 A 
ATOM     88  C   UNL A   1      42.551  34.282  35.092  1.00  0.00     0.135 A 
ATOM     89  C   UNL A   1      43.641  35.147  33.130  1.00  0.00     0.135 A 
ATOM     90  F   UNL A   1      41.805  33.352  35.710  1.00  0.00    -0.206 F 
ATOM     91  C   UNL A   1      42.983  35.380  35.827  1.00  0.00     0.059 A 
ATOM     92  C   UNL A   1      44.102  36.244  33.852  1.00  0.00     0.059 A 
ATOM     93  F   UNL A   1      43.976  35.057  31.833  1.00  0.00    -0.206 F 
ATOM     94  C   UNL A   1      43.762  36.354  35.199  1.00  0.00     0.060 A 
BRANCH  94  95
ATOM     95  S   UNL A   1      44.364  37.748  36.177  1.00  0.00     0.124 S 
ATOM     96  O   UNL A   1      43.942  38.883  35.362  1.00  0.00    -0.237 OA
ATOM     97  O   UNL A   1      43.654  37.576  37.440  1.00  0.00    -0.237 OA
ATOM     98  O   UNL A   1      45.804  37.519  36.239  1.00  0.00    -0.744 OA
ENDBRANCH  94  95
ENDBRANCH  62  87
ENDBRANCH  36  37
ENDBRANCH  28  31
ENDBRANCH  26  27
ENDBRANCH   1  26
TORSDOF 16
ENDMDL
