MODEL 1
REMARK VINA RESULT:     -12.3      0.000      0.000
REMARK SMILES COC(=O)c1ccc([C@H]2Nc3c(C(=O)NCCCCNC(=O)c4ccc(-c5c6nc(c(-c7c(F)cc(S(=O)(=O)[O-])cc7F)c7ccc([nH]7)c(-c7c(F)cc(S(=O)(=O)[O-])cc7F)c7nc(c(-c8c(F)cc(S(=O)(=O)[O-])cc8F)c8ccc5[nH]8)C=C7)C=C6)cc4)cccc3[C@H]3[C@H]4CC[C@H](C4)[C@H]32)cc1
REMARK SMILES IDX 17 1 16 2 15 3 13 4 14 5 12 7 9 8 10 9 99 10 11 11 93 13
REMARK SMILES IDX 97 14 92 15 94 16 96 17 98 18 89 19 91 20 95 21 90 22 8 23
REMARK SMILES IDX 5 24 6 25 101 26 7 27 100 28 3 29 4 30 2 31 1 32 18 33 19 34
REMARK SMILES IDX 20 35 21 36 22 38 23 39 24 40 88 41 25 42 87 43 26 44 27 45
REMARK SMILES IDX 28 46 81 47 29 48 86 49 80 50 82 51 30 52 85 53 79 54 78 55
REMARK SMILES IDX 31 57 65 58 44 59 64 60 45 61 48 62 63 63 83 64 46 65 47 66
REMARK SMILES IDX 62 68 84 69 49 70 32 71 33 72 42 73 34 74 35 75 41 76 43 77
REMARK SMILES IDX 36 78 37 79 38 80 39 81 40 82 66 83 67 84 76 85 68 86 69 87
REMARK SMILES IDX 75 88 77 89 70 90 71 91 72 92 73 93 74 94 50 95 51 96 60 97
REMARK SMILES IDX 52 98 53 99 59 100 61 101 54 102 55 103 56 104 57 105 58 106
REMARK H PARENT 15 6 10 12 20 37 82 56 48 67
REMARK Flexibility Score: inf
ROOT
ATOM      1  C   UNL A   1      36.330  29.542  29.004  1.00  0.00     0.023 C 
ENDROOT
BRANCH   1   2
ATOM      2  C   UNL A   1      35.679  29.548  27.627  1.00  0.00     0.116 C 
BRANCH   2   3
ATOM      3  N   UNL A   1      34.797  30.678  27.359  1.00  0.00    -0.352 N 
ATOM      4  C   UNL A   1      33.456  30.672  27.003  1.00  0.00     0.253 C 
ATOM      5  O   UNL A   1      32.861  31.728  26.807  1.00  0.00    -0.269 OA
ATOM      6  H   UNL A   1      35.210  31.568  27.441  1.00  0.00     0.163 HD
BRANCH   4   7
ATOM      7  C   UNL A   1      32.780  29.368  26.772  1.00  0.00     0.063 A 
ATOM      8  C   UNL A   1      33.191  28.229  23.395  1.00  0.00     0.113 C 
ATOM      9  N   UNL A   1      33.751  28.964  24.551  1.00  0.00    -0.377 N 
ATOM     10  C   UNL A   1      33.836  26.795  23.526  1.00  0.00     0.027 C 
ATOM     11  C   UNL A   1      33.259  28.494  25.793  1.00  0.00     0.051 A 
ATOM     12  H   UNL A   1      34.396  29.702  24.466  1.00  0.00     0.161 HD
ATOM     13  C   UNL A   1      33.797  26.223  24.976  1.00  0.00     0.030 C 
ATOM     14  C   UNL A   1      33.611  25.524  22.647  1.00  0.00    -0.005 C 
ATOM     15  C   UNL A   1      33.020  27.101  25.922  1.00  0.00    -0.020 A 
ATOM     16  C   UNL A   1      33.571  24.703  24.751  1.00  0.00    -0.003 C 
ATOM     17  C   UNL A   1      32.253  24.813  22.733  1.00  0.00     0.004 C 
ATOM     18  C   UNL A   1      34.424  24.498  23.483  1.00  0.00     0.008 C 
ATOM     19  C   UNL A   1      31.747  28.939  27.604  1.00  0.00     0.016 A 
ATOM     20  C   UNL A   1      32.108  26.655  26.877  1.00  0.00     0.006 A 
ATOM     21  C   UNL A   1      32.191  24.322  24.196  1.00  0.00     0.004 C 
ATOM     22  C   UNL A   1      31.408  27.586  27.650  1.00  0.00     0.001 A 
BRANCH   8  23
ATOM     23  C   UNL A   1      31.668  28.456  23.371  1.00  0.00    -0.025 A 
ATOM     24  C   UNL A   1      28.891  29.115  23.164  1.00  0.00     0.060 A 
ATOM     25  C   UNL A   1      29.356  27.848  22.782  1.00  0.00     0.016 A 
ATOM     26  C   UNL A   1      29.809  30.035  23.636  1.00  0.00     0.016 A 
ATOM     27  C   UNL A   1      30.734  27.520  22.892  1.00  0.00     0.007 A 
ATOM     28  C   UNL A   1      31.149  29.703  23.680  1.00  0.00     0.007 A 
BRANCH  24  29
ATOM     29  C   UNL A   1      27.464  29.531  23.076  1.00  0.00     0.337 C 
ATOM     30  O   UNL A   1      26.503  28.824  23.338  1.00  0.00    -0.246 OA
BRANCH  29  31
ATOM     31  O   UNL A   1      27.428  30.837  22.700  1.00  0.00    -0.465 OA
ATOM     32  C   UNL A   1      27.735  31.145  21.344  1.00  0.00     0.282 C 
ENDBRANCH  29  31
ENDBRANCH  24  29
ENDBRANCH   8  23
ENDBRANCH   4   7
ENDBRANCH   2   3
ENDBRANCH   1   2
BRANCH   1  33
ATOM     33  C   UNL A   1      35.995  30.720  29.907  1.00  0.00     0.023 C 
BRANCH  33  34
ATOM     34  C   UNL A   1      36.151  30.474  31.403  1.00  0.00     0.116 C 
BRANCH  34  35
ATOM     35  N   UNL A   1      36.652  31.628  32.139  1.00  0.00    -0.352 N 
ATOM     36  C   UNL A   1      37.948  32.051  32.326  1.00  0.00     0.251 C 
ATOM     37  H   UNL A   1      35.962  32.186  32.564  1.00  0.00     0.163 HD
ATOM     38  O   UNL A   1      38.179  32.999  33.073  1.00  0.00    -0.269 OA
BRANCH  36  39
ATOM     39  C   UNL A   1      39.065  31.341  31.662  1.00  0.00     0.039 A 
ATOM     40  C   UNL A   1      39.346  31.625  30.323  1.00  0.00     0.014 A 
ATOM     41  C   UNL A   1      39.849  30.418  32.358  1.00  0.00     0.014 A 
ATOM     42  C   UNL A   1      40.464  31.050  29.712  1.00  0.00     0.010 A 
ATOM     43  C   UNL A   1      41.010  29.915  31.777  1.00  0.00     0.010 A 
ATOM     44  C   UNL A   1      41.333  30.227  30.447  1.00  0.00    -0.014 A 
BRANCH  44  45
ATOM     45  C   UNL A   1      42.590  29.698  29.851  1.00  0.00     0.031 A 
ATOM     46  C   UNL A   1      43.804  30.582  29.734  1.00  0.00     0.074 A 
ATOM     47  C   UNL A   1      42.619  28.446  29.352  1.00  0.00     0.049 A 
ATOM     48  N   UNL A   1      44.963  30.325  29.182  1.00  0.00    -0.248 NA
ATOM     49  C   UNL A   1      43.692  31.942  30.286  1.00  0.00     0.031 C 
ATOM     50  C   UNL A   1      41.495  27.506  29.358  1.00  0.00     0.029 A 
ATOM     51  N   UNL A   1      43.626  27.749  28.731  1.00  0.00    -0.354 N 
ATOM     52  C   UNL A   1      45.710  31.491  29.308  1.00  0.00     0.074 A 
ATOM     53  C   UNL A   1      44.855  32.473  29.939  1.00  0.00     0.031 C 
ATOM     54  C   UNL A   1      41.882  26.352  28.793  1.00  0.00     0.029 A 
ATOM     55  C   UNL A   1      43.264  26.480  28.343  1.00  0.00     0.049 A 
ATOM     56  H   UNL A   1      44.524  28.123  28.577  1.00  0.00     0.167 HD
ATOM     57  C   UNL A   1      46.998  31.714  28.954  1.00  0.00     0.037 A 
ATOM     58  C   UNL A   1      43.961  25.529  27.690  1.00  0.00     0.037 A 
ATOM     59  C   UNL A   1      47.850  30.726  28.345  1.00  0.00     0.049 A 
ATOM     60  C   UNL A   1      45.387  25.805  27.295  1.00  0.00     0.074 A 
ATOM     61  C   UNL A   1      49.186  30.838  28.002  1.00  0.00     0.029 A 
ATOM     62  N   UNL A   1      47.451  29.448  27.982  1.00  0.00    -0.354 N 
ATOM     63  N   UNL A   1      46.100  26.890  27.485  1.00  0.00    -0.248 NA
ATOM     64  C   UNL A   1      46.108  24.728  26.603  1.00  0.00     0.031 C 
ATOM     65  C   UNL A   1      49.581  29.647  27.384  1.00  0.00     0.029 A 
ATOM     66  C   UNL A   1      48.508  28.770  27.396  1.00  0.00     0.049 A 
ATOM     67  H   UNL A   1      46.550  29.076  28.122  1.00  0.00     0.167 HD
ATOM     68  C   UNL A   1      47.359  26.615  26.964  1.00  0.00     0.074 A 
ATOM     69  C   UNL A   1      47.315  25.257  26.462  1.00  0.00     0.031 C 
ATOM     70  C   UNL A   1      48.454  27.414  26.908  1.00  0.00     0.037 A 
BRANCH  57  71
ATOM     71  C   UNL A   1      47.569  33.083  29.218  1.00  0.00     0.058 A 
ATOM     72  C   UNL A   1      48.214  33.395  30.426  1.00  0.00     0.135 A 
ATOM     73  C   UNL A   1      47.506  34.085  28.235  1.00  0.00     0.135 A 
ATOM     74  F   UNL A   1      48.291  32.481  31.407  1.00  0.00    -0.206 F 
ATOM     75  C   UNL A   1      48.748  34.657  30.663  1.00  0.00     0.059 A 
ATOM     76  C   UNL A   1      48.061  35.345  28.437  1.00  0.00     0.059 A 
ATOM     77  F   UNL A   1      46.902  33.843  27.060  1.00  0.00    -0.206 F 
ATOM     78  C   UNL A   1      48.667  35.626  29.661  1.00  0.00     0.060 A 
BRANCH  78  79
ATOM     79  S   UNL A   1      49.372  37.256  29.983  1.00  0.00     0.124 S 
ATOM     80  O   UNL A   1      50.799  36.952  30.031  1.00  0.00    -0.237 OA
ATOM     81  O   UNL A   1      48.926  38.023  28.824  1.00  0.00    -0.237 OA
ATOM     82  O   UNL A   1      48.771  37.642  31.256  1.00  0.00    -0.744 OA
ENDBRANCH  78  79
ENDBRANCH  57  71
BRANCH  58  83
ATOM     83  C   UNL A   1      43.327  24.217  27.383  1.00  0.00     0.058 A 
ATOM     84  C   UNL A   1      43.210  23.224  28.367  1.00  0.00     0.135 A 
ATOM     85  C   UNL A   1      42.818  23.933  26.106  1.00  0.00     0.135 A 
ATOM     86  F   UNL A   1      43.686  23.443  29.602  1.00  0.00    -0.206 F 
ATOM     87  C   UNL A   1      42.629  21.990  28.093  1.00  0.00     0.059 A 
ATOM     88  C   UNL A   1      42.207  22.717  25.815  1.00  0.00     0.059 A 
ATOM     89  F   UNL A   1      42.891  24.854  25.132  1.00  0.00    -0.206 F 
ATOM     90  C   UNL A   1      42.127  21.746  26.813  1.00  0.00     0.060 A 
BRANCH  90  91
ATOM     91  S   UNL A   1      41.334  20.159  26.482  1.00  0.00     0.124 S 
ATOM     92  O   UNL A   1      41.493  19.478  27.762  1.00  0.00    -0.237 OA
ATOM     93  O   UNL A   1      39.974  20.562  26.137  1.00  0.00    -0.237 OA
ATOM     94  O   UNL A   1      42.118  19.615  25.377  1.00  0.00    -0.744 OA
ENDBRANCH  90  91
ENDBRANCH  58  83
BRANCH  70  95
ATOM     95  C   UNL A   1      49.711  26.832  26.319  1.00  0.00     0.058 A 
ATOM     96  C   UNL A   1      50.068  27.040  24.978  1.00  0.00     0.135 A 
ATOM     97  C   UNL A   1      50.598  26.099  27.126  1.00  0.00     0.135 A 
ATOM     98  F   UNL A   1      49.255  27.728  24.161  1.00  0.00    -0.206 F 
ATOM     99  C   UNL A   1      51.248  26.523  24.451  1.00  0.00     0.059 A 
ATOM    100  C   UNL A   1      51.797  25.599  26.629  1.00  0.00     0.059 A 
ATOM    101  F   UNL A   1      50.311  25.879  28.419  1.00  0.00    -0.206 F 
ATOM    102  C   UNL A   1      52.108  25.806  25.286  1.00  0.00     0.060 A 
BRANCH 102 103
ATOM    103  S   UNL A   1      53.652  25.172  24.597  1.00  0.00     0.124 S 
ATOM    104  O   UNL A   1      53.545  25.588  23.203  1.00  0.00    -0.237 OA
ATOM    105  O   UNL A   1      54.658  25.868  25.392  1.00  0.00    -0.237 OA
ATOM    106  O   UNL A   1      53.562  23.734  24.831  1.00  0.00    -0.744 OA
ENDBRANCH 102 103
ENDBRANCH  70  95
ENDBRANCH  44  45
ENDBRANCH  36  39
ENDBRANCH  34  35
ENDBRANCH  33  34
ENDBRANCH   1  33
TORSDOF 17
ENDMDL
MODEL 2
REMARK VINA RESULT:     -12.3      6.085     11.741
REMARK SMILES COC(=O)c1ccc([C@H]2Nc3c(C(=O)NCCCCNC(=O)c4ccc(-c5c6nc(c(-c7c(F)cc(S(=O)(=O)[O-])cc7F)c7ccc([nH]7)c(-c7c(F)cc(S(=O)(=O)[O-])cc7F)c7nc(c(-c8c(F)cc(S(=O)(=O)[O-])cc8F)c8ccc5[nH]8)C=C7)C=C6)cc4)cccc3[C@H]3[C@H]4CC[C@H](C4)[C@H]32)cc1
REMARK SMILES IDX 17 1 16 2 15 3 13 4 14 5 12 7 9 8 10 9 99 10 11 11 93 13
REMARK SMILES IDX 97 14 92 15 94 16 96 17 98 18 89 19 91 20 95 21 90 22 8 23
REMARK SMILES IDX 5 24 6 25 101 26 7 27 100 28 3 29 4 30 2 31 1 32 18 33 19 34
REMARK SMILES IDX 20 35 21 36 22 38 23 39 24 40 88 41 25 42 87 43 26 44 27 45
REMARK SMILES IDX 28 46 81 47 29 48 86 49 80 50 82 51 30 52 85 53 79 54 78 55
REMARK SMILES IDX 31 57 65 58 44 59 64 60 45 61 48 62 63 63 83 64 46 65 47 66
REMARK SMILES IDX 62 68 84 69 49 70 32 71 33 72 42 73 34 74 35 75 41 76 43 77
REMARK SMILES IDX 36 78 37 79 38 80 39 81 40 82 66 83 67 84 76 85 68 86 69 87
REMARK SMILES IDX 75 88 77 89 70 90 71 91 72 92 73 93 74 94 50 95 51 96 60 97
REMARK SMILES IDX 52 98 53 99 59 100 61 101 54 102 55 103 56 104 57 105 58 106
REMARK H PARENT 15 6 10 12 20 37 82 56 48 67
REMARK Flexibility Score: inf
ROOT
ATOM      1  C   UNL A   1      40.009  24.709  27.107  1.00  0.00     0.023 C 
ENDROOT
BRANCH   1   2
ATOM      2  C   UNL A   1      38.837  23.989  26.453  1.00  0.00     0.116 C 
BRANCH   2   3
ATOM      3  N   UNL A   1      38.965  22.538  26.367  1.00  0.00    -0.352 N 
ATOM      4  C   UNL A   1      38.190  21.636  25.652  1.00  0.00     0.253 C 
ATOM      5  O   UNL A   1      38.437  20.434  25.698  1.00  0.00    -0.269 OA
ATOM      6  H   UNL A   1      39.702  22.146  26.889  1.00  0.00     0.163 HD
BRANCH   4   7
ATOM      7  C   UNL A   1      37.006  22.139  24.909  1.00  0.00     0.063 A 
ATOM      8  C   UNL A   1      33.982  21.768  26.805  1.00  0.00     0.113 C 
ATOM      9  N   UNL A   1      35.442  22.013  26.800  1.00  0.00    -0.377 N 
ATOM     10  C   UNL A   1      33.367  23.219  26.877  1.00  0.00     0.027 C 
ATOM     11  C   UNL A   1      35.894  22.621  25.605  1.00  0.00     0.051 A 
ATOM     12  H   UNL A   1      36.036  21.777  27.549  1.00  0.00     0.161 HD
ATOM     13  C   UNL A   1      34.040  24.231  25.900  1.00  0.00     0.030 C 
ATOM     14  C   UNL A   1      31.871  23.662  26.857  1.00  0.00    -0.005 C 
ATOM     15  C   UNL A   1      35.042  23.573  24.986  1.00  0.00    -0.020 A 
ATOM     16  C   UNL A   1      32.857  25.132  25.454  1.00  0.00    -0.003 C 
ATOM     17  C   UNL A   1      31.082  23.500  25.549  1.00  0.00     0.004 C 
ATOM     18  C   UNL A   1      32.069  25.200  26.778  1.00  0.00     0.008 C 
ATOM     19  C   UNL A   1      37.028  22.256  23.519  1.00  0.00     0.016 A 
ATOM     20  C   UNL A   1      35.178  23.820  23.622  1.00  0.00     0.006 A 
ATOM     21  C   UNL A   1      31.808  24.445  24.567  1.00  0.00     0.004 C 
ATOM     22  C   UNL A   1      36.110  23.090  22.878  1.00  0.00     0.001 A 
BRANCH   8  23
ATOM     23  C   UNL A   1      33.655  20.782  25.668  1.00  0.00    -0.025 A 
ATOM     24  C   UNL A   1      33.110  18.736  23.742  1.00  0.00     0.060 A 
ATOM     25  C   UNL A   1      32.149  19.714  24.039  1.00  0.00     0.016 A 
ATOM     26  C   UNL A   1      34.322  18.785  24.407  1.00  0.00     0.016 A 
ATOM     27  C   UNL A   1      32.424  20.732  24.991  1.00  0.00     0.007 A 
ATOM     28  C   UNL A   1      34.538  19.757  25.364  1.00  0.00     0.007 A 
BRANCH  24  29
ATOM     29  C   UNL A   1      32.894  17.639  22.760  1.00  0.00     0.337 C 
ATOM     30  O   UNL A   1      32.180  17.703  21.772  1.00  0.00    -0.246 OA
BRANCH  29  31
ATOM     31  O   UNL A   1      33.662  16.581  23.134  1.00  0.00    -0.465 OA
ATOM     32  C   UNL A   1      33.279  15.864  24.302  1.00  0.00     0.282 C 
ENDBRANCH  29  31
ENDBRANCH  24  29
ENDBRANCH   8  23
ENDBRANCH   4   7
ENDBRANCH   2   3
ENDBRANCH   1   2
BRANCH   1  33
ATOM     33  C   UNL A   1      40.255  26.140  26.647  1.00  0.00     0.023 C 
BRANCH  33  34
ATOM     34  C   UNL A   1      41.350  26.322  25.603  1.00  0.00     0.116 C 
BRANCH  34  35
ATOM     35  N   UNL A   1      42.492  25.437  25.790  1.00  0.00    -0.352 N 
ATOM     36  C   UNL A   1      43.430  25.419  26.797  1.00  0.00     0.251 C 
ATOM     37  H   UNL A   1      42.610  24.751  25.094  1.00  0.00     0.163 HD
ATOM     38  O   UNL A   1      44.389  24.655  26.724  1.00  0.00    -0.269 OA
BRANCH  36  39
ATOM     39  C   UNL A   1      43.306  26.347  27.945  1.00  0.00     0.039 A 
ATOM     40  C   UNL A   1      43.741  27.666  27.798  1.00  0.00     0.014 A 
ATOM     41  C   UNL A   1      42.740  25.930  29.151  1.00  0.00     0.014 A 
ATOM     42  C   UNL A   1      43.529  28.586  28.830  1.00  0.00     0.010 A 
ATOM     43  C   UNL A   1      42.450  26.864  30.142  1.00  0.00     0.010 A 
ATOM     44  C   UNL A   1      42.839  28.205  29.992  1.00  0.00    -0.014 A 
BRANCH  44  45
ATOM     45  C   UNL A   1      42.499  29.193  31.052  1.00  0.00     0.031 A 
ATOM     46  C   UNL A   1      43.337  29.286  32.299  1.00  0.00     0.074 A 
ATOM     47  C   UNL A   1      41.395  29.957  30.925  1.00  0.00     0.049 A 
ATOM     48  N   UNL A   1      43.160  30.030  33.361  1.00  0.00    -0.248 NA
ATOM     49  C   UNL A   1      44.517  28.408  32.374  1.00  0.00     0.031 C 
ATOM     50  C   UNL A   1      40.470  29.927  29.788  1.00  0.00     0.029 A 
ATOM     51  N   UNL A   1      40.855  30.901  31.763  1.00  0.00    -0.354 N 
ATOM     52  C   UNL A   1      44.192  29.702  34.232  1.00  0.00     0.074 A 
ATOM     53  C   UNL A   1      44.960  28.653  33.598  1.00  0.00     0.031 C 
ATOM     54  C   UNL A   1      39.494  30.826  29.990  1.00  0.00     0.029 A 
ATOM     55  C   UNL A   1      39.695  31.466  31.286  1.00  0.00     0.049 A 
ATOM     56  H   UNL A   1      41.259  31.150  32.625  1.00  0.00     0.167 HD
ATOM     57  C   UNL A   1      44.489  30.244  35.437  1.00  0.00     0.037 A 
ATOM     58  C   UNL A   1      38.877  32.388  31.833  1.00  0.00     0.037 A 
ATOM     59  C   UNL A   1      43.732  31.303  36.054  1.00  0.00     0.049 A 
ATOM     60  C   UNL A   1      39.220  32.966  33.180  1.00  0.00     0.074 A 
ATOM     61  C   UNL A   1      43.986  31.958  37.246  1.00  0.00     0.029 A 
ATOM     62  N   UNL A   1      42.573  31.858  35.532  1.00  0.00    -0.354 N 
ATOM     63  N   UNL A   1      40.240  32.693  33.959  1.00  0.00    -0.248 NA
ATOM     64  C   UNL A   1      38.306  33.981  33.722  1.00  0.00     0.031 C 
ATOM     65  C   UNL A   1      42.952  32.872  37.472  1.00  0.00     0.029 A 
ATOM     66  C   UNL A   1      42.086  32.830  36.391  1.00  0.00     0.049 A 
ATOM     67  H   UNL A   1      42.158  31.601  34.677  1.00  0.00     0.167 HD
ATOM     68  C   UNL A   1      40.107  33.523  35.066  1.00  0.00     0.074 A 
ATOM     69  C   UNL A   1      38.914  34.317  34.851  1.00  0.00     0.031 C 
ATOM     70  C   UNL A   1      40.901  33.621  36.161  1.00  0.00     0.037 A 
BRANCH  57  71
ATOM     71  C   UNL A   1      45.686  29.701  36.174  1.00  0.00     0.058 A 
ATOM     72  C   UNL A   1      46.970  30.240  35.995  1.00  0.00     0.135 A 
ATOM     73  C   UNL A   1      45.541  28.654  37.100  1.00  0.00     0.135 A 
ATOM     74  F   UNL A   1      47.171  31.232  35.112  1.00  0.00    -0.206 F 
ATOM     75  C   UNL A   1      48.071  29.742  36.683  1.00  0.00     0.059 A 
ATOM     76  C   UNL A   1      46.623  28.162  37.823  1.00  0.00     0.059 A 
ATOM     77  F   UNL A   1      44.336  28.100  37.312  1.00  0.00    -0.206 F 
ATOM     78  C   UNL A   1      47.888  28.703  37.596  1.00  0.00     0.060 A 
BRANCH  78  79
ATOM     79  S   UNL A   1      49.327  28.074  38.485  1.00  0.00     0.124 S 
ATOM     80  O   UNL A   1      48.791  27.918  39.834  1.00  0.00    -0.237 OA
ATOM     81  O   UNL A   1      49.618  26.836  37.770  1.00  0.00    -0.237 OA
ATOM     82  O   UNL A   1      50.317  29.135  38.324  1.00  0.00    -0.744 OA
ENDBRANCH  78  79
ENDBRANCH  57  71
BRANCH  58  83
ATOM     83  C   UNL A   1      37.662  32.837  31.099  1.00  0.00     0.058 A 
ATOM     84  C   UNL A   1      37.752  33.768  30.053  1.00  0.00     0.135 A 
ATOM     85  C   UNL A   1      36.389  32.340  31.420  1.00  0.00     0.135 A 
ATOM     86  F   UNL A   1      38.945  34.279  29.711  1.00  0.00    -0.206 F 
ATOM     87  C   UNL A   1      36.625  34.204  29.365  1.00  0.00     0.059 A 
ATOM     88  C   UNL A   1      35.250  32.740  30.728  1.00  0.00     0.059 A 
ATOM     89  F   UNL A   1      36.248  31.435  32.402  1.00  0.00    -0.206 F 
ATOM     90  C   UNL A   1      35.377  33.682  29.708  1.00  0.00     0.060 A 
BRANCH  90  91
ATOM     91  S   UNL A   1      33.927  34.221  28.777  1.00  0.00     0.124 S 
ATOM     92  O   UNL A   1      34.469  35.337  28.010  1.00  0.00    -0.237 OA
ATOM     93  O   UNL A   1      33.591  33.024  28.013  1.00  0.00    -0.237 OA
ATOM     94  O   UNL A   1      32.971  34.578  29.821  1.00  0.00    -0.744 OA
ENDBRANCH  90  91
ENDBRANCH  58  83
BRANCH  70  95
ATOM     95  C   UNL A   1      40.534  34.649  37.197  1.00  0.00     0.058 A 
ATOM     96  C   UNL A   1      41.124  35.923  37.221  1.00  0.00     0.135 A 
ATOM     97  C   UNL A   1      39.538  34.371  38.148  1.00  0.00     0.135 A 
ATOM     98  F   UNL A   1      42.085  36.239  36.340  1.00  0.00    -0.206 F 
ATOM     99  C   UNL A   1      40.756  36.876  38.166  1.00  0.00     0.059 A 
ATOM    100  C   UNL A   1      39.132  35.320  39.082  1.00  0.00     0.059 A 
ATOM    101  F   UNL A   1      38.933  33.173  38.165  1.00  0.00    -0.206 F 
ATOM    102  C   UNL A   1      39.756  36.566  39.090  1.00  0.00     0.060 A 
BRANCH 102 103
ATOM    103  S   UNL A   1      39.264  37.826  40.286  1.00  0.00     0.124 S 
ATOM    104  O   UNL A   1      38.901  37.010  41.441  1.00  0.00    -0.237 OA
ATOM    105  O   UNL A   1      40.482  38.617  40.425  1.00  0.00    -0.237 OA
ATOM    106  O   UNL A   1      38.154  38.506  39.626  1.00  0.00    -0.744 OA
ENDBRANCH 102 103
ENDBRANCH  70  95
ENDBRANCH  44  45
ENDBRANCH  36  39
ENDBRANCH  34  35
ENDBRANCH  33  34
ENDBRANCH   1  33
TORSDOF 17
ENDMDL
MODEL 3
REMARK VINA RESULT:     -12.3      5.856     12.222
REMARK SMILES COC(=O)c1ccc([C@H]2Nc3c(C(=O)NCCCCNC(=O)c4ccc(-c5c6nc(c(-c7c(F)cc(S(=O)(=O)[O-])cc7F)c7ccc([nH]7)c(-c7c(F)cc(S(=O)(=O)[O-])cc7F)c7nc(c(-c8c(F)cc(S(=O)(=O)[O-])cc8F)c8ccc5[nH]8)C=C7)C=C6)cc4)cccc3[C@H]3[C@H]4CC[C@H](C4)[C@H]32)cc1
REMARK SMILES IDX 17 1 16 2 15 3 13 4 14 5 12 7 9 8 10 9 99 10 11 11 93 13
REMARK SMILES IDX 97 14 92 15 94 16 96 17 98 18 89 19 91 20 95 21 90 22 8 23
REMARK SMILES IDX 5 24 6 25 101 26 7 27 100 28 3 29 4 30 2 31 1 32 18 33 19 34
REMARK SMILES IDX 20 35 21 36 22 38 23 39 24 40 88 41 25 42 87 43 26 44 27 45
REMARK SMILES IDX 28 46 81 47 29 48 86 49 80 50 82 51 30 52 85 53 79 54 78 55
REMARK SMILES IDX 31 57 65 58 44 59 64 60 45 61 48 62 63 63 83 64 46 65 47 66
REMARK SMILES IDX 62 68 84 69 49 70 32 71 33 72 42 73 34 74 35 75 41 76 43 77
REMARK SMILES IDX 36 78 37 79 38 80 39 81 40 82 66 83 67 84 76 85 68 86 69 87
REMARK SMILES IDX 75 88 77 89 70 90 71 91 72 92 73 93 74 94 50 95 51 96 60 97
REMARK SMILES IDX 52 98 53 99 59 100 61 101 54 102 55 103 56 104 57 105 58 106
REMARK H PARENT 15 6 10 12 20 37 82 56 48 67
REMARK Flexibility Score: inf
ROOT
ATOM      1  C   UNL A   1      39.496  25.271  27.091  1.00  0.00     0.023 C 
ENDROOT
BRANCH   1   2
ATOM      2  C   UNL A   1      38.317  24.368  26.750  1.00  0.00     0.116 C 
BRANCH   2   3
ATOM      3  N   UNL A   1      38.646  22.961  26.553  1.00  0.00    -0.352 N 
ATOM      4  C   UNL A   1      38.045  22.035  25.712  1.00  0.00     0.253 C 
ATOM      5  O   UNL A   1      38.450  20.876  25.674  1.00  0.00    -0.269 OA
ATOM      6  H   UNL A   1      39.397  22.621  27.091  1.00  0.00     0.163 HD
BRANCH   4   7
ATOM      7  C   UNL A   1      36.849  22.445  24.930  1.00  0.00     0.063 A 
ATOM      8  C   UNL A   1      33.815  21.981  26.789  1.00  0.00     0.113 C 
ATOM      9  N   UNL A   1      35.260  22.304  26.799  1.00  0.00    -0.377 N 
ATOM     10  C   UNL A   1      33.123  23.399  26.796  1.00  0.00     0.027 C 
ATOM     11  C   UNL A   1      35.701  22.892  25.589  1.00  0.00     0.051 A 
ATOM     12  H   UNL A   1      35.851  22.128  27.566  1.00  0.00     0.161 HD
ATOM     13  C   UNL A   1      33.758  24.409  25.793  1.00  0.00     0.030 C 
ATOM     14  C   UNL A   1      31.605  23.759  26.735  1.00  0.00    -0.005 C 
ATOM     15  C   UNL A   1      34.810  23.773  24.921  1.00  0.00    -0.020 A 
ATOM     16  C   UNL A   1      32.537  25.228  25.295  1.00  0.00    -0.003 C 
ATOM     17  C   UNL A   1      30.851  23.507  25.421  1.00  0.00     0.004 C 
ATOM     18  C   UNL A   1      31.722  25.302  26.602  1.00  0.00     0.008 C 
ATOM     19  C   UNL A   1      36.891  22.513  23.538  1.00  0.00     0.016 A 
ATOM     20  C   UNL A   1      34.959  23.977  23.551  1.00  0.00     0.006 A 
ATOM     21  C   UNL A   1      31.543  24.454  24.417  1.00  0.00     0.004 C 
ATOM     22  C   UNL A   1      35.942  23.273  22.850  1.00  0.00     0.001 A 
BRANCH   8  23
ATOM     23  C   UNL A   1      33.562  20.938  25.684  1.00  0.00    -0.025 A 
ATOM     24  C   UNL A   1      33.137  18.796  23.834  1.00  0.00     0.060 A 
ATOM     25  C   UNL A   1      32.171  19.799  24.002  1.00  0.00     0.016 A 
ATOM     26  C   UNL A   1      34.295  18.869  24.587  1.00  0.00     0.016 A 
ATOM     27  C   UNL A   1      32.386  20.865  24.916  1.00  0.00     0.007 A 
ATOM     28  C   UNL A   1      34.450  19.889  25.505  1.00  0.00     0.007 A 
BRANCH  24  29
ATOM     29  C   UNL A   1      32.982  17.650  22.898  1.00  0.00     0.337 C 
ATOM     30  O   UNL A   1      32.313  17.655  21.876  1.00  0.00    -0.246 OA
BRANCH  29  31
ATOM     31  O   UNL A   1      33.746  16.623  23.357  1.00  0.00    -0.465 OA
ATOM     32  C   UNL A   1      33.235  15.850  24.439  1.00  0.00     0.282 C 
ENDBRANCH  29  31
ENDBRANCH  24  29
ENDBRANCH   8  23
ENDBRANCH   4   7
ENDBRANCH   2   3
ENDBRANCH   1   2
BRANCH   1  33
ATOM     33  C   UNL A   1      40.828  24.900  26.455  1.00  0.00     0.023 C 
BRANCH  33  34
ATOM     34  C   UNL A   1      41.537  26.018  25.699  1.00  0.00     0.116 C 
BRANCH  34  35
ATOM     35  N   UNL A   1      42.961  25.784  25.505  1.00  0.00    -0.352 N 
ATOM     36  C   UNL A   1      44.031  26.227  26.251  1.00  0.00     0.251 C 
ATOM     37  H   UNL A   1      43.193  25.229  24.727  1.00  0.00     0.163 HD
ATOM     38  O   UNL A   1      45.176  26.009  25.863  1.00  0.00    -0.269 OA
BRANCH  36  39
ATOM     39  C   UNL A   1      43.801  26.999  27.493  1.00  0.00     0.039 A 
ATOM     40  C   UNL A   1      44.101  28.363  27.507  1.00  0.00     0.014 A 
ATOM     41  C   UNL A   1      43.270  26.390  28.632  1.00  0.00     0.014 A 
ATOM     42  C   UNL A   1      43.785  29.131  28.633  1.00  0.00     0.010 A 
ATOM     43  C   UNL A   1      42.877  27.170  29.717  1.00  0.00     0.010 A 
ATOM     44  C   UNL A   1      43.127  28.551  29.729  1.00  0.00    -0.014 A 
BRANCH  44  45
ATOM     45  C   UNL A   1      42.679  29.370  30.887  1.00  0.00     0.031 A 
ATOM     46  C   UNL A   1      41.383  30.135  30.819  1.00  0.00     0.074 A 
ATOM     47  C   UNL A   1      43.470  29.484  31.973  1.00  0.00     0.049 A 
ATOM     48  N   UNL A   1      40.861  30.956  31.693  1.00  0.00    -0.248 NA
ATOM     49  C   UNL A   1      40.581  29.975  29.595  1.00  0.00     0.031 C 
ATOM     50  C   UNL A   1      44.773  28.835  32.143  1.00  0.00     0.029 A 
ATOM     51  N   UNL A   1      43.303  30.194  33.136  1.00  0.00    -0.354 N 
ATOM     52  C   UNL A   1      39.681  31.420  31.123  1.00  0.00     0.074 A 
ATOM     53  C   UNL A   1      39.592  30.831  29.804  1.00  0.00     0.031 C 
ATOM     54  C   UNL A   1      45.273  29.157  33.346  1.00  0.00     0.029 A 
ATOM     55  C   UNL A   1      44.352  30.069  34.017  1.00  0.00     0.049 A 
ATOM     56  H   UNL A   1      42.507  30.743  33.323  1.00  0.00     0.167 HD
ATOM     57  C   UNL A   1      38.746  32.240  31.658  1.00  0.00     0.037 A 
ATOM     58  C   UNL A   1      44.557  30.633  35.225  1.00  0.00     0.037 A 
ATOM     59  C   UNL A   1      38.831  32.807  32.979  1.00  0.00     0.049 A 
ATOM     60  C   UNL A   1      43.509  31.552  35.793  1.00  0.00     0.074 A 
ATOM     61  C   UNL A   1      37.907  33.603  33.633  1.00  0.00     0.029 A 
ATOM     62  N   UNL A   1      39.902  32.645  33.846  1.00  0.00    -0.354 N 
ATOM     63  N   UNL A   1      42.366  31.924  35.267  1.00  0.00    -0.248 NA
ATOM     64  C   UNL A   1      43.774  32.124  37.121  1.00  0.00     0.031 C 
ATOM     65  C   UNL A   1      38.441  33.966  34.874  1.00  0.00     0.029 A 
ATOM     66  C   UNL A   1      39.672  33.346  35.018  1.00  0.00     0.049 A 
ATOM     67  H   UNL A   1      40.705  32.108  33.656  1.00  0.00     0.167 HD
ATOM     68  C   UNL A   1      41.763  32.748  36.211  1.00  0.00     0.074 A 
ATOM     69  C   UNL A   1      42.661  32.809  37.346  1.00  0.00     0.031 C 
ATOM     70  C   UNL A   1      40.571  33.393  36.146  1.00  0.00     0.037 A 
BRANCH  57  71
ATOM     71  C   UNL A   1      37.544  32.576  30.814  1.00  0.00     0.058 A 
ATOM     72  C   UNL A   1      36.337  31.866  30.931  1.00  0.00     0.135 A 
ATOM     73  C   UNL A   1      37.586  33.646  29.905  1.00  0.00     0.135 A 
ATOM     74  F   UNL A   1      36.244  30.825  31.773  1.00  0.00    -0.206 F 
ATOM     75  C   UNL A   1      35.227  32.185  30.156  1.00  0.00     0.059 A 
ATOM     76  C   UNL A   1      36.477  34.003  29.143  1.00  0.00     0.059 A 
ATOM     77  F   UNL A   1      38.712  34.361  29.751  1.00  0.00    -0.206 F 
ATOM     78  C   UNL A   1      35.306  33.256  29.265  1.00  0.00     0.060 A 
BRANCH  78  79
ATOM     79  S   UNL A   1      33.853  33.659  28.274  1.00  0.00     0.124 S 
ATOM     80  O   UNL A   1      33.443  32.338  27.808  1.00  0.00    -0.237 OA
ATOM     81  O   UNL A   1      32.972  34.287  29.254  1.00  0.00    -0.237 OA
ATOM     82  O   UNL A   1      34.378  34.551  27.244  1.00  0.00    -0.744 OA
ENDBRANCH  78  79
ENDBRANCH  57  71
BRANCH  58  83
ATOM     83  C   UNL A   1      45.799  30.330  35.988  1.00  0.00     0.058 A 
ATOM     84  C   UNL A   1      46.958  31.102  35.817  1.00  0.00     0.135 A 
ATOM     85  C   UNL A   1      45.851  29.272  36.908  1.00  0.00     0.135 A 
ATOM     86  F   UNL A   1      46.963  32.121  34.945  1.00  0.00    -0.206 F 
ATOM     87  C   UNL A   1      48.129  30.825  36.516  1.00  0.00     0.059 A 
ATOM     88  C   UNL A   1      47.002  28.992  37.640  1.00  0.00     0.059 A 
ATOM     89  F   UNL A   1      44.766  28.511  37.121  1.00  0.00    -0.206 F 
ATOM     90  C   UNL A   1      48.140  29.769  37.428  1.00  0.00     0.060 A 
BRANCH  90  91
ATOM     91  S   UNL A   1      49.652  29.448  38.363  1.00  0.00     0.124 S 
ATOM     92  O   UNL A   1      49.137  28.704  39.506  1.00  0.00    -0.237 OA
ATOM     93  O   UNL A   1      50.445  28.683  37.406  1.00  0.00    -0.237 OA
ATOM     94  O   UNL A   1      50.156  30.786  38.656  1.00  0.00    -0.744 OA
ENDBRANCH  90  91
ENDBRANCH  58  83
BRANCH  70  95
ATOM     95  C   UNL A   1      40.145  34.192  37.348  1.00  0.00     0.058 A 
ATOM     96  C   UNL A   1      39.344  33.641  38.360  1.00  0.00     0.135 A 
ATOM     97  C   UNL A   1      40.592  35.514  37.514  1.00  0.00     0.135 A 
ATOM     98  F   UNL A   1      38.884  32.385  38.249  1.00  0.00    -0.206 F 
ATOM     99  C   UNL A   1      38.980  34.379  39.482  1.00  0.00     0.059 A 
ATOM    100  C   UNL A   1      40.267  36.260  38.642  1.00  0.00     0.059 A 
ATOM    101  F   UNL A   1      41.370  36.087  36.582  1.00  0.00    -0.206 F 
ATOM    102  C   UNL A   1      39.450  35.688  39.615  1.00  0.00     0.060 A 
BRANCH 102 103
ATOM    103  S   UNL A   1      38.999  36.621  41.094  1.00  0.00     0.124 S 
ATOM    104  O   UNL A   1      37.909  35.814  41.631  1.00  0.00    -0.237 OA
ATOM    105  O   UNL A   1      40.238  36.606  41.863  1.00  0.00    -0.237 OA
ATOM    106  O   UNL A   1      38.612  37.926  40.567  1.00  0.00    -0.744 OA
ENDBRANCH 102 103
ENDBRANCH  70  95
ENDBRANCH  44  45
ENDBRANCH  36  39
ENDBRANCH  34  35
ENDBRANCH  33  34
ENDBRANCH   1  33
TORSDOF 17
ENDMDL
