MODEL 1
REMARK VINA RESULT:     -11.9      0.000      0.000
REMARK SMILES CC[N@@H+]1CCO[C@@H](Cn2cc(C(=O)NCCCCNC(=O)c3ccc(-c4c5nc(c(-c6c(F)cc(S(=O)(=O)[O-])cc6F)c6ccc([nH]6)c(-c6c(F)cc(S(=O)(=O)[O-])cc6F)c6nc(c(-c7c(F)cc(S(=O)(=O)[O-])cc7F)c7ccc4[nH]7)C=C6)C=C5)cc3)nn2)C1
REMARK SMILES IDX 16 1 15 2 14 3 12 4 13 5 11 7 9 8 10 9 89 10 88 11 8 12 7 13
REMARK SMILES IDX 3 14 4 15 90 16 5 18 6 19 2 20 1 21 17 22 18 23 19 24 20 25
REMARK SMILES IDX 21 27 22 28 23 29 87 30 24 31 86 32 25 33 26 34 27 35 80 36
REMARK SMILES IDX 28 37 85 38 79 39 81 40 29 41 84 42 78 43 77 44 30 46 64 47
REMARK SMILES IDX 43 48 63 49 44 50 47 51 62 52 82 53 45 54 46 55 61 57 83 58
REMARK SMILES IDX 48 59 31 60 32 61 41 62 33 63 34 64 40 65 42 66 35 67 36 68
REMARK SMILES IDX 37 69 38 70 39 71 65 72 66 73 75 74 67 75 68 76 74 77 76 78
REMARK SMILES IDX 69 79 70 80 71 81 72 82 73 83 49 84 50 85 59 86 51 87 52 88
REMARK SMILES IDX 58 89 60 90 53 91 54 92 55 93 56 94 57 95
REMARK H PARENT 14 6 3 17 19 26 81 45 47 56
REMARK Flexibility Score: inf
ROOT
ATOM      1  C   UNL A   1      36.058  22.206  23.923  1.00  0.00     0.023 C 
ENDROOT
BRANCH   1   2
ATOM      2  C   UNL A   1      34.581  22.520  23.671  1.00  0.00     0.116 C 
BRANCH   2   3
ATOM      3  N   UNL A   1      33.712  21.495  24.211  1.00  0.00    -0.351 N 
ATOM      4  C   UNL A   1      32.408  21.520  24.655  1.00  0.00     0.273 C 
ATOM      5  O   UNL A   1      31.935  20.438  25.004  1.00  0.00    -0.267 OA
ATOM      6  H   UNL A   1      34.134  20.609  24.273  1.00  0.00     0.163 HD
BRANCH   4   7
ATOM      7  C   UNL A   1      31.614  22.748  24.695  1.00  0.00     0.170 A 
ATOM      8  N   UNL A   1      30.531  24.576  25.148  1.00  0.00    -0.249 N 
ATOM      9  C   UNL A   1      31.086  23.479  25.745  1.00  0.00     0.145 A 
ATOM     10  N   UNL A   1      30.580  24.485  23.816  1.00  0.00    -0.067 NA
ATOM     11  N   UNL A   1      31.238  23.374  23.521  1.00  0.00    -0.125 NA
BRANCH   8  12
ATOM     12  C   UNL A   1      30.065  25.796  25.768  1.00  0.00     0.184 C 
BRANCH  12  13
ATOM     13  C   UNL A   1      31.185  26.822  25.958  1.00  0.00     0.194 C 
ATOM     14  N   UNL A   1      32.196  28.956  25.066  1.00  0.00    -0.331 N 
ATOM     15  C   UNL A   1      32.246  29.416  26.457  1.00  0.00     0.291 C 
ATOM     16  C   UNL A   1      31.157  27.934  24.879  1.00  0.00     0.296 C 
ATOM     17  H   UNL A   1      31.898  29.762  24.516  1.00  0.00     0.348 HD
ATOM     18  C   UNL A   1      32.161  28.305  27.514  1.00  0.00     0.222 C 
ATOM     19  O   UNL A   1      31.069  27.403  27.273  1.00  0.00    -0.365 OA
BRANCH  14  20
ATOM     20  C   UNL A   1      33.484  28.691  24.425  1.00  0.00     0.258 C 
ATOM     21  C   UNL A   1      33.543  28.668  22.904  1.00  0.00     0.071 C 
ENDBRANCH  14  20
ENDBRANCH  12  13
ENDBRANCH   8  12
ENDBRANCH   4   7
ENDBRANCH   2   3
ENDBRANCH   1   2
BRANCH   1  22
ATOM     22  C   UNL A   1      36.862  23.326  24.609  1.00  0.00     0.023 C 
BRANCH  22  23
ATOM     23  C   UNL A   1      37.158  23.093  26.088  1.00  0.00     0.116 C 
BRANCH  23  24
ATOM     24  N   UNL A   1      38.220  22.110  26.310  1.00  0.00    -0.352 N 
ATOM     25  C   UNL A   1      39.570  22.343  26.489  1.00  0.00     0.251 C 
ATOM     26  H   UNL A   1      37.938  21.167  26.336  1.00  0.00     0.163 HD
ATOM     27  O   UNL A   1      40.392  21.448  26.285  1.00  0.00    -0.269 OA
BRANCH  25  28
ATOM     28  C   UNL A   1      40.010  23.673  26.937  1.00  0.00     0.039 A 
ATOM     29  C   UNL A   1      39.337  24.841  26.556  1.00  0.00     0.014 A 
ATOM     30  C   UNL A   1      41.108  23.730  27.791  1.00  0.00     0.014 A 
ATOM     31  C   UNL A   1      39.725  26.057  27.118  1.00  0.00     0.010 A 
ATOM     32  C   UNL A   1      41.393  24.899  28.448  1.00  0.00     0.010 A 
ATOM     33  C   UNL A   1      40.744  26.075  28.081  1.00  0.00    -0.014 A 
BRANCH  33  34
ATOM     34  C   UNL A   1      41.066  27.291  28.828  1.00  0.00     0.031 A 
ATOM     35  C   UNL A   1      42.187  28.089  28.252  1.00  0.00     0.074 A 
ATOM     36  C   UNL A   1      40.227  27.789  29.764  1.00  0.00     0.049 A 
ATOM     37  N   UNL A   1      43.348  28.331  28.766  1.00  0.00    -0.248 NA
ATOM     38  C   UNL A   1      42.057  28.547  26.856  1.00  0.00     0.031 C 
ATOM     39  C   UNL A   1      38.916  27.254  30.165  1.00  0.00     0.029 A 
ATOM     40  N   UNL A   1      40.287  28.958  30.458  1.00  0.00    -0.354 N 
ATOM     41  C   UNL A   1      43.987  29.192  27.871  1.00  0.00     0.074 A 
ATOM     42  C   UNL A   1      43.259  29.085  26.637  1.00  0.00     0.031 C 
ATOM     43  C   UNL A   1      38.214  28.208  30.812  1.00  0.00     0.029 A 
ATOM     44  C   UNL A   1      39.080  29.349  31.035  1.00  0.00     0.049 A 
ATOM     45  H   UNL A   1      41.115  29.483  30.548  1.00  0.00     0.167 HD
ATOM     46  C   UNL A   1      44.868  30.137  28.310  1.00  0.00     0.037 A 
ATOM     47  C   UNL A   1      38.801  30.536  31.629  1.00  0.00     0.037 A 
ATOM     48  C   UNL A   1      45.262  29.862  29.672  1.00  0.00     0.049 A 
ATOM     49  C   UNL A   1      40.103  31.151  31.984  1.00  0.00     0.074 A 
ATOM     50  C   UNL A   1      45.901  28.832  30.330  1.00  0.00     0.029 A 
ATOM     51  N   UNL A   1      44.645  30.613  30.641  1.00  0.00    -0.354 N 
ATOM     52  N   UNL A   1      40.930  30.649  32.859  1.00  0.00    -0.248 NA
ATOM     53  C   UNL A   1      40.685  32.109  31.056  1.00  0.00     0.031 C 
ATOM     54  C   UNL A   1      45.289  28.774  31.617  1.00  0.00     0.029 A 
ATOM     55  C   UNL A   1      44.355  29.807  31.706  1.00  0.00     0.049 A 
ATOM     56  H   UNL A   1      44.443  31.576  30.578  1.00  0.00     0.167 HD
ATOM     57  C   UNL A   1      42.190  30.881  32.328  1.00  0.00     0.074 A 
ATOM     58  C   UNL A   1      41.981  31.892  31.295  1.00  0.00     0.031 C 
ATOM     59  C   UNL A   1      43.219  30.018  32.578  1.00  0.00     0.037 A 
BRANCH  46  60
ATOM     60  C   UNL A   1      45.020  31.538  27.724  1.00  0.00     0.058 A 
ATOM     61  C   UNL A   1      46.235  31.869  27.080  1.00  0.00     0.135 A 
ATOM     62  C   UNL A   1      44.194  32.640  28.039  1.00  0.00     0.135 A 
ATOM     63  F   UNL A   1      47.092  30.908  26.697  1.00  0.00    -0.206 F 
ATOM     64  C   UNL A   1      46.657  33.186  26.896  1.00  0.00     0.059 A 
ATOM     65  C   UNL A   1      44.574  33.961  27.817  1.00  0.00     0.059 A 
ATOM     66  F   UNL A   1      43.017  32.513  28.656  1.00  0.00    -0.206 F 
ATOM     67  C   UNL A   1      45.828  34.226  27.297  1.00  0.00     0.060 A 
BRANCH  67  68
ATOM     68  S   UNL A   1      46.419  35.924  27.193  1.00  0.00     0.124 S 
ATOM     69  O   UNL A   1      45.167  36.655  27.040  1.00  0.00    -0.237 OA
ATOM     70  O   UNL A   1      47.104  36.082  28.472  1.00  0.00    -0.237 OA
ATOM     71  O   UNL A   1      47.289  35.904  26.021  1.00  0.00    -0.744 OA
ENDBRANCH  67  68
ENDBRANCH  46  60
BRANCH  47  72
ATOM     72  C   UNL A   1      37.526  31.302  31.644  1.00  0.00     0.058 A 
ATOM     73  C   UNL A   1      36.851  31.566  32.849  1.00  0.00     0.135 A 
ATOM     74  C   UNL A   1      37.100  32.039  30.520  1.00  0.00     0.135 A 
ATOM     75  F   UNL A   1      37.199  30.919  33.971  1.00  0.00    -0.206 F 
ATOM     76  C   UNL A   1      35.855  32.545  32.950  1.00  0.00     0.059 A 
ATOM     77  C   UNL A   1      36.104  33.013  30.594  1.00  0.00     0.059 A 
ATOM     78  F   UNL A   1      37.707  31.898  29.332  1.00  0.00    -0.206 F 
ATOM     79  C   UNL A   1      35.505  33.281  31.819  1.00  0.00     0.060 A 
BRANCH  79  80
ATOM     80  S   UNL A   1      34.356  34.671  31.986  1.00  0.00     0.124 S 
ATOM     81  O   UNL A   1      35.168  35.648  32.704  1.00  0.00    -0.237 OA
ATOM     82  O   UNL A   1      34.055  34.991  30.596  1.00  0.00    -0.237 OA
ATOM     83  O   UNL A   1      33.246  34.102  32.747  1.00  0.00    -0.744 OA
ENDBRANCH  79  80
ENDBRANCH  47  72
BRANCH  59  84
ATOM     84  C   UNL A   1      43.078  29.072  33.742  1.00  0.00     0.058 A 
ATOM     85  C   UNL A   1      43.320  29.402  35.086  1.00  0.00     0.135 A 
ATOM     86  C   UNL A   1      42.537  27.804  33.481  1.00  0.00     0.135 A 
ATOM     87  F   UNL A   1      43.746  30.624  35.433  1.00  0.00    -0.206 F 
ATOM     88  C   UNL A   1      43.070  28.496  36.121  1.00  0.00     0.059 A 
ATOM     89  C   UNL A   1      42.250  26.899  34.497  1.00  0.00     0.059 A 
ATOM     90  F   UNL A   1      42.230  27.451  32.221  1.00  0.00    -0.206 F 
ATOM     91  C   UNL A   1      42.531  27.247  35.815  1.00  0.00     0.060 A 
BRANCH  91  92
ATOM     92  S   UNL A   1      42.135  26.104  37.155  1.00  0.00     0.124 S 
ATOM     93  O   UNL A   1      42.396  24.807  36.542  1.00  0.00    -0.237 OA
ATOM     94  O   UNL A   1      43.068  26.509  38.204  1.00  0.00    -0.237 OA
ATOM     95  O   UNL A   1      40.731  26.387  37.441  1.00  0.00    -0.744 OA
ENDBRANCH  91  92
ENDBRANCH  59  84
ENDBRANCH  33  34
ENDBRANCH  25  28
ENDBRANCH  23  24
ENDBRANCH  22  23
ENDBRANCH   1  22
TORSDOF 17
ENDMDL
MODEL 2
REMARK VINA RESULT:     -11.8      2.466      9.136
REMARK SMILES CC[N@@H+]1CCO[C@@H](Cn2cc(C(=O)NCCCCNC(=O)c3ccc(-c4c5nc(c(-c6c(F)cc(S(=O)(=O)[O-])cc6F)c6ccc([nH]6)c(-c6c(F)cc(S(=O)(=O)[O-])cc6F)c6nc(c(-c7c(F)cc(S(=O)(=O)[O-])cc7F)c7ccc4[nH]7)C=C6)C=C5)cc3)nn2)C1
REMARK SMILES IDX 16 1 15 2 14 3 12 4 13 5 11 7 9 8 10 9 89 10 88 11 8 12 7 13
REMARK SMILES IDX 3 14 4 15 90 16 5 18 6 19 2 20 1 21 17 22 18 23 19 24 20 25
REMARK SMILES IDX 21 27 22 28 23 29 87 30 24 31 86 32 25 33 26 34 27 35 80 36
REMARK SMILES IDX 28 37 85 38 79 39 81 40 29 41 84 42 78 43 77 44 30 46 64 47
REMARK SMILES IDX 43 48 63 49 44 50 47 51 62 52 82 53 45 54 46 55 61 57 83 58
REMARK SMILES IDX 48 59 31 60 32 61 41 62 33 63 34 64 40 65 42 66 35 67 36 68
REMARK SMILES IDX 37 69 38 70 39 71 65 72 66 73 75 74 67 75 68 76 74 77 76 78
REMARK SMILES IDX 69 79 70 80 71 81 72 82 73 83 49 84 50 85 59 86 51 87 52 88
REMARK SMILES IDX 58 89 60 90 53 91 54 92 55 93 56 94 57 95
REMARK H PARENT 14 6 3 17 19 26 81 45 47 56
REMARK Flexibility Score: inf
ROOT
ATOM      1  C   UNL A   1      35.011  30.772  27.850  1.00  0.00     0.023 C 
ENDROOT
BRANCH   1   2
ATOM      2  C   UNL A   1      34.492  29.453  27.271  1.00  0.00     0.116 C 
BRANCH   2   3
ATOM      3  N   UNL A   1      34.006  29.611  25.916  1.00  0.00    -0.351 N 
ATOM      4  C   UNL A   1      33.096  28.902  25.165  1.00  0.00     0.273 C 
ATOM      5  O   UNL A   1      32.859  29.346  24.040  1.00  0.00    -0.267 OA
ATOM      6  H   UNL A   1      34.404  30.375  25.439  1.00  0.00     0.163 HD
BRANCH   4   7
ATOM      7  C   UNL A   1      32.426  27.702  25.666  1.00  0.00     0.170 A 
ATOM      8  N   UNL A   1      31.742  25.723  26.244  1.00  0.00    -0.249 N 
ATOM      9  C   UNL A   1      32.592  26.358  25.383  1.00  0.00     0.145 A 
ATOM     10  N   UNL A   1      30.994  26.595  26.927  1.00  0.00    -0.067 NA
ATOM     11  N   UNL A   1      31.398  27.810  26.585  1.00  0.00    -0.125 NA
BRANCH   8  12
ATOM     12  C   UNL A   1      31.680  24.315  26.571  1.00  0.00     0.184 C 
BRANCH  12  13
ATOM     13  C   UNL A   1      32.623  23.472  25.709  1.00  0.00     0.194 C 
ATOM     14  N   UNL A   1      34.842  22.270  25.655  1.00  0.00    -0.331 N 
ATOM     15  C   UNL A   1      34.124  21.143  25.053  1.00  0.00     0.291 C 
ATOM     16  C   UNL A   1      33.939  23.117  26.445  1.00  0.00     0.296 C 
ATOM     17  H   UNL A   1      35.497  21.859  26.321  1.00  0.00     0.348 HD
ATOM     18  C   UNL A   1      32.768  21.496  24.423  1.00  0.00     0.222 C 
ATOM     19  O   UNL A   1      31.938  22.267  25.308  1.00  0.00    -0.365 OA
BRANCH  14  20
ATOM     20  C   UNL A   1      35.790  22.971  24.788  1.00  0.00     0.258 C 
ATOM     21  C   UNL A   1      36.938  23.732  25.437  1.00  0.00     0.071 C 
ENDBRANCH  14  20
ENDBRANCH  12  13
ENDBRANCH   8  12
ENDBRANCH   4   7
ENDBRANCH   2   3
ENDBRANCH   1   2
BRANCH   1  22
ATOM     22  C   UNL A   1      33.988  31.921  27.888  1.00  0.00     0.023 C 
BRANCH  22  23
ATOM     23  C   UNL A   1      34.593  33.317  28.012  1.00  0.00     0.116 C 
BRANCH  23  24
ATOM     24  N   UNL A   1      34.142  34.032  29.207  1.00  0.00    -0.352 N 
ATOM     25  C   UNL A   1      34.460  33.770  30.526  1.00  0.00     0.251 C 
ATOM     26  H   UNL A   1      33.536  34.793  29.052  1.00  0.00     0.163 HD
ATOM     27  O   UNL A   1      33.739  34.179  31.436  1.00  0.00    -0.269 OA
BRANCH  25  28
ATOM     28  C   UNL A   1      35.681  33.006  30.825  1.00  0.00     0.039 A 
ATOM     29  C   UNL A   1      35.631  31.667  31.235  1.00  0.00     0.014 A 
ATOM     30  C   UNL A   1      36.900  33.653  30.651  1.00  0.00     0.014 A 
ATOM     31  C   UNL A   1      36.826  30.961  31.378  1.00  0.00     0.010 A 
ATOM     32  C   UNL A   1      38.060  32.922  30.652  1.00  0.00     0.010 A 
ATOM     33  C   UNL A   1      38.038  31.592  31.064  1.00  0.00    -0.014 A 
BRANCH  33  34
ATOM     34  C   UNL A   1      39.297  30.848  31.025  1.00  0.00     0.031 A 
ATOM     35  C   UNL A   1      39.924  30.629  32.361  1.00  0.00     0.074 A 
ATOM     36  C   UNL A   1      39.683  30.167  29.922  1.00  0.00     0.049 A 
ATOM     37  N   UNL A   1      41.047  31.091  32.807  1.00  0.00    -0.248 NA
ATOM     38  C   UNL A   1      39.127  29.934  33.389  1.00  0.00     0.031 C 
ATOM     39  C   UNL A   1      38.953  30.038  28.652  1.00  0.00     0.029 A 
ATOM     40  N   UNL A   1      40.735  29.324  29.740  1.00  0.00    -0.354 N 
ATOM     41  C   UNL A   1      41.214  30.523  34.072  1.00  0.00     0.074 A 
ATOM     42  C   UNL A   1      39.919  30.038  34.459  1.00  0.00     0.031 C 
ATOM     43  C   UNL A   1      39.437  28.989  27.953  1.00  0.00     0.029 A 
ATOM     44  C   UNL A   1      40.618  28.489  28.629  1.00  0.00     0.049 A 
ATOM     45  H   UNL A   1      41.515  29.306  30.341  1.00  0.00     0.167 HD
ATOM     46  C   UNL A   1      42.458  30.234  34.555  1.00  0.00     0.037 A 
ATOM     47  C   UNL A   1      41.418  27.444  28.302  1.00  0.00     0.037 A 
ATOM     48  C   UNL A   1      43.470  30.899  33.768  1.00  0.00     0.049 A 
ATOM     49  C   UNL A   1      42.689  27.631  29.042  1.00  0.00     0.074 A 
ATOM     50  C   UNL A   1      43.792  32.207  33.468  1.00  0.00     0.029 A 
ATOM     51  N   UNL A   1      44.123  30.120  32.846  1.00  0.00    -0.354 N 
ATOM     52  N   UNL A   1      43.513  28.620  28.833  1.00  0.00    -0.248 NA
ATOM     53  C   UNL A   1      42.848  26.948  30.316  1.00  0.00     0.031 C 
ATOM     54  C   UNL A   1      44.281  32.172  32.127  1.00  0.00     0.029 A 
ATOM     55  C   UNL A   1      44.295  30.844  31.699  1.00  0.00     0.049 A 
ATOM     56  H   UNL A   1      44.419  29.191  32.987  1.00  0.00     0.167 HD
ATOM     57  C   UNL A   1      43.984  28.960  30.093  1.00  0.00     0.074 A 
ATOM     58  C   UNL A   1      43.646  27.819  30.939  1.00  0.00     0.031 C 
ATOM     59  C   UNL A   1      44.333  30.249  30.380  1.00  0.00     0.037 A 
BRANCH  46  60
ATOM     60  C   UNL A   1      42.810  29.019  35.408  1.00  0.00     0.058 A 
ATOM     61  C   UNL A   1      43.646  29.207  36.533  1.00  0.00     0.135 A 
ATOM     62  C   UNL A   1      42.646  27.675  35.007  1.00  0.00     0.135 A 
ATOM     63  F   UNL A   1      43.855  30.435  37.036  1.00  0.00    -0.206 F 
ATOM     64  C   UNL A   1      44.371  28.166  37.117  1.00  0.00     0.059 A 
ATOM     65  C   UNL A   1      43.319  26.615  35.608  1.00  0.00     0.059 A 
ATOM     66  F   UNL A   1      41.899  27.315  33.960  1.00  0.00    -0.206 F 
ATOM     67  C   UNL A   1      44.221  26.876  36.624  1.00  0.00     0.060 A 
BRANCH  67  68
ATOM     68  S   UNL A   1      45.251  25.551  37.276  1.00  0.00     0.124 S 
ATOM     69  O   UNL A   1      46.459  25.706  36.476  1.00  0.00    -0.237 OA
ATOM     70  O   UNL A   1      45.360  25.921  38.684  1.00  0.00    -0.237 OA
ATOM     71  O   UNL A   1      44.462  24.352  37.009  1.00  0.00    -0.744 OA
ENDBRANCH  67  68
ENDBRANCH  46  60
BRANCH  47  72
ATOM     72  C   UNL A   1      41.061  26.160  27.640  1.00  0.00     0.058 A 
ATOM     73  C   UNL A   1      41.924  25.560  26.705  1.00  0.00     0.135 A 
ATOM     74  C   UNL A   1      40.013  25.351  28.125  1.00  0.00     0.135 A 
ATOM     75  F   UNL A   1      42.956  26.251  26.200  1.00  0.00    -0.206 F 
ATOM     76  C   UNL A   1      41.794  24.220  26.320  1.00  0.00     0.059 A 
ATOM     77  C   UNL A   1      39.858  24.017  27.749  1.00  0.00     0.059 A 
ATOM     78  F   UNL A   1      39.161  25.811  29.054  1.00  0.00    -0.206 F 
ATOM     79  C   UNL A   1      40.770  23.449  26.867  1.00  0.00     0.060 A 
BRANCH  79  80
ATOM     80  S   UNL A   1      40.712  21.674  26.516  1.00  0.00     0.124 S 
ATOM     81  O   UNL A   1      39.439  21.547  25.814  1.00  0.00    -0.237 OA
ATOM     82  O   UNL A   1      41.909  21.479  25.706  1.00  0.00    -0.237 OA
ATOM     83  O   UNL A   1      40.755  21.066  27.844  1.00  0.00    -0.744 OA
ENDBRANCH  79  80
ENDBRANCH  47  72
BRANCH  59  84
ATOM     84  C   UNL A   1      44.590  31.183  29.226  1.00  0.00     0.058 A 
ATOM     85  C   UNL A   1      45.747  31.183  28.428  1.00  0.00     0.135 A 
ATOM     86  C   UNL A   1      43.541  32.029  28.835  1.00  0.00     0.135 A 
ATOM     87  F   UNL A   1      46.757  30.339  28.674  1.00  0.00    -0.206 F 
ATOM     88  C   UNL A   1      45.868  32.015  27.312  1.00  0.00     0.059 A 
ATOM     89  C   UNL A   1      43.628  32.841  27.710  1.00  0.00     0.059 A 
ATOM     90  F   UNL A   1      42.388  32.032  29.524  1.00  0.00    -0.206 F 
ATOM     91  C   UNL A   1      44.799  32.839  26.959  1.00  0.00     0.060 A 
BRANCH  91  92
ATOM     92  S   UNL A   1      44.924  33.857  25.474  1.00  0.00     0.124 S 
ATOM     93  O   UNL A   1      46.351  34.155  25.423  1.00  0.00    -0.237 OA
ATOM     94  O   UNL A   1      44.425  32.963  24.433  1.00  0.00    -0.237 OA
ATOM     95  O   UNL A   1      44.059  34.998  25.768  1.00  0.00    -0.744 OA
ENDBRANCH  91  92
ENDBRANCH  59  84
ENDBRANCH  33  34
ENDBRANCH  25  28
ENDBRANCH  23  24
ENDBRANCH  22  23
ENDBRANCH   1  22
TORSDOF 17
ENDMDL
MODEL 3
REMARK VINA RESULT:     -11.8      1.924      2.759
REMARK SMILES CC[N@@H+]1CCO[C@@H](Cn2cc(C(=O)NCCCCNC(=O)c3ccc(-c4c5nc(c(-c6c(F)cc(S(=O)(=O)[O-])cc6F)c6ccc([nH]6)c(-c6c(F)cc(S(=O)(=O)[O-])cc6F)c6nc(c(-c7c(F)cc(S(=O)(=O)[O-])cc7F)c7ccc4[nH]7)C=C6)C=C5)cc3)nn2)C1
REMARK SMILES IDX 16 1 15 2 14 3 12 4 13 5 11 7 9 8 10 9 89 10 88 11 8 12 7 13
REMARK SMILES IDX 3 14 4 15 90 16 5 18 6 19 2 20 1 21 17 22 18 23 19 24 20 25
REMARK SMILES IDX 21 27 22 28 23 29 87 30 24 31 86 32 25 33 26 34 27 35 80 36
REMARK SMILES IDX 28 37 85 38 79 39 81 40 29 41 84 42 78 43 77 44 30 46 64 47
REMARK SMILES IDX 43 48 63 49 44 50 47 51 62 52 82 53 45 54 46 55 61 57 83 58
REMARK SMILES IDX 48 59 31 60 32 61 41 62 33 63 34 64 40 65 42 66 35 67 36 68
REMARK SMILES IDX 37 69 38 70 39 71 65 72 66 73 75 74 67 75 68 76 74 77 76 78
REMARK SMILES IDX 69 79 70 80 71 81 72 82 73 83 49 84 50 85 59 86 51 87 52 88
REMARK SMILES IDX 58 89 60 90 53 91 54 92 55 93 56 94 57 95
REMARK H PARENT 14 6 3 17 19 26 81 45 47 56
REMARK Flexibility Score: inf
ROOT
ATOM      1  C   UNL A   1      39.053  23.218  26.487  1.00  0.00     0.023 C 
ENDROOT
BRANCH   1   2
ATOM      2  C   UNL A   1      37.711  23.649  25.889  1.00  0.00     0.116 C 
BRANCH   2   3
ATOM      3  N   UNL A   1      36.851  22.515  25.620  1.00  0.00    -0.351 N 
ATOM      4  C   UNL A   1      35.660  22.392  24.939  1.00  0.00     0.273 C 
ATOM      5  O   UNL A   1      35.210  21.249  24.841  1.00  0.00    -0.267 OA
ATOM      6  H   UNL A   1      37.182  21.668  25.997  1.00  0.00     0.163 HD
BRANCH   4   7
ATOM      7  C   UNL A   1      34.971  23.536  24.344  1.00  0.00     0.170 A 
ATOM      8  N   UNL A   1      34.038  25.423  23.808  1.00  0.00    -0.249 N 
ATOM      9  C   UNL A   1      34.491  24.715  24.885  1.00  0.00     0.145 A 
ATOM     10  N   UNL A   1      34.099  24.699  22.686  1.00  0.00    -0.067 NA
ATOM     11  N   UNL A   1      34.665  23.542  22.995  1.00  0.00    -0.125 NA
BRANCH   8  12
ATOM     12  C   UNL A   1      33.667  26.819  23.742  1.00  0.00     0.184 C 
BRANCH  12  13
ATOM     13  C   UNL A   1      32.172  27.041  23.988  1.00  0.00     0.194 C 
ATOM     14  N   UNL A   1      29.944  27.469  22.882  1.00  0.00    -0.331 N 
ATOM     15  C   UNL A   1      29.403  26.423  23.754  1.00  0.00     0.291 C 
ATOM     16  C   UNL A   1      31.388  27.298  22.677  1.00  0.00     0.296 C 
ATOM     17  H   UNL A   1      29.511  27.323  21.970  1.00  0.00     0.348 HD
ATOM     18  C   UNL A   1      30.252  26.104  24.994  1.00  0.00     0.222 C 
ATOM     19  O   UNL A   1      31.635  25.887  24.669  1.00  0.00    -0.365 OA
BRANCH  14  20
ATOM     20  C   UNL A   1      29.487  28.833  23.148  1.00  0.00     0.258 C 
ATOM     21  C   UNL A   1      28.083  29.225  22.707  1.00  0.00     0.071 C 
ENDBRANCH  14  20
ENDBRANCH  12  13
ENDBRANCH   8  12
ENDBRANCH   4   7
ENDBRANCH   2   3
ENDBRANCH   1   2
BRANCH   1  22
ATOM     22  C   UNL A   1      39.428  21.741  26.269  1.00  0.00     0.023 C 
BRANCH  22  23
ATOM     23  C   UNL A   1      40.493  21.200  27.219  1.00  0.00     0.116 C 
BRANCH  23  24
ATOM     24  N   UNL A   1      41.724  20.806  26.532  1.00  0.00    -0.352 N 
ATOM     25  C   UNL A   1      42.723  21.624  26.038  1.00  0.00     0.251 C 
ATOM     26  H   UNL A   1      41.857  19.838  26.405  1.00  0.00     0.163 HD
ATOM     27  O   UNL A   1      43.492  21.217  25.167  1.00  0.00    -0.269 OA
BRANCH  25  28
ATOM     28  C   UNL A   1      42.859  22.985  26.579  1.00  0.00     0.039 A 
ATOM     29  C   UNL A   1      42.502  24.115  25.833  1.00  0.00     0.014 A 
ATOM     30  C   UNL A   1      43.328  23.112  27.884  1.00  0.00     0.014 A 
ATOM     31  C   UNL A   1      42.534  25.367  26.448  1.00  0.00     0.010 A 
ATOM     32  C   UNL A   1      43.221  24.318  28.527  1.00  0.00     0.010 A 
ATOM     33  C   UNL A   1      42.876  25.458  27.804  1.00  0.00    -0.014 A 
BRANCH  33  34
ATOM     34  C   UNL A   1      42.752  26.716  28.540  1.00  0.00     0.031 A 
ATOM     35  C   UNL A   1      43.862  27.683  28.297  1.00  0.00     0.074 A 
ATOM     36  C   UNL A   1      41.592  27.078  29.133  1.00  0.00     0.049 A 
ATOM     37  N   UNL A   1      44.747  28.117  29.134  1.00  0.00    -0.248 NA
ATOM     38  C   UNL A   1      44.117  28.102  26.907  1.00  0.00     0.031 C 
ATOM     39  C   UNL A   1      40.320  26.338  29.133  1.00  0.00     0.029 A 
ATOM     40  N   UNL A   1      41.248  28.247  29.739  1.00  0.00    -0.354 N 
ATOM     41  C   UNL A   1      45.499  29.063  28.435  1.00  0.00     0.074 A 
ATOM     42  C   UNL A   1      45.228  28.828  27.044  1.00  0.00     0.031 C 
ATOM     43  C   UNL A   1      39.310  27.169  29.468  1.00  0.00     0.029 A 
ATOM     44  C   UNL A   1      39.874  28.439  29.882  1.00  0.00     0.049 A 
ATOM     45  H   UNL A   1      41.913  28.901  30.052  1.00  0.00     0.167 HD
ATOM     46  C   UNL A   1      46.037  30.145  29.070  1.00  0.00     0.037 A 
ATOM     47  C   UNL A   1      39.243  29.570  30.285  1.00  0.00     0.037 A 
ATOM     48  C   UNL A   1      46.013  29.950  30.501  1.00  0.00     0.049 A 
ATOM     49  C   UNL A   1      40.252  30.393  30.993  1.00  0.00     0.074 A 
ATOM     50  C   UNL A   1      46.558  29.044  31.388  1.00  0.00     0.029 A 
ATOM     51  N   UNL A   1      45.011  30.597  31.180  1.00  0.00    -0.354 N 
ATOM     52  N   UNL A   1      40.822  30.041  32.113  1.00  0.00    -0.248 NA
ATOM     53  C   UNL A   1      40.946  31.425  30.239  1.00  0.00     0.031 C 
ATOM     54  C   UNL A   1      45.582  28.897  32.419  1.00  0.00     0.029 A 
ATOM     55  C   UNL A   1      44.522  29.764  32.147  1.00  0.00     0.049 A 
ATOM     56  H   UNL A   1      44.695  31.513  30.999  1.00  0.00     0.167 HD
ATOM     57  C   UNL A   1      42.135  30.472  31.991  1.00  0.00     0.074 A 
ATOM     58  C   UNL A   1      42.115  31.426  30.886  1.00  0.00     0.031 C 
ATOM     59  C   UNL A   1      43.149  29.792  32.604  1.00  0.00     0.037 A 
BRANCH  46  60
ATOM     60  C   UNL A   1      46.152  31.546  28.478  1.00  0.00     0.058 A 
ATOM     61  C   UNL A   1      44.996  32.134  27.914  1.00  0.00     0.135 A 
ATOM     62  C   UNL A   1      47.367  32.187  28.148  1.00  0.00     0.135 A 
ATOM     63  F   UNL A   1      43.775  31.640  28.180  1.00  0.00    -0.206 F 
ATOM     64  C   UNL A   1      45.055  33.178  26.989  1.00  0.00     0.059 A 
ATOM     65  C   UNL A   1      47.443  33.262  27.267  1.00  0.00     0.059 A 
ATOM     66  F   UNL A   1      48.555  31.761  28.583  1.00  0.00    -0.206 F 
ATOM     67  C   UNL A   1      46.291  33.715  26.651  1.00  0.00     0.060 A 
BRANCH  67  68
ATOM     68  S   UNL A   1      46.392  34.965  25.358  1.00  0.00     0.124 S 
ATOM     69  O   UNL A   1      45.411  34.469  24.401  1.00  0.00    -0.237 OA
ATOM     70  O   UNL A   1      46.027  36.177  26.084  1.00  0.00    -0.237 OA
ATOM     71  O   UNL A   1      47.786  34.893  24.932  1.00  0.00    -0.744 OA
ENDBRANCH  67  68
ENDBRANCH  46  60
BRANCH  47  72
ATOM     72  C   UNL A   1      37.928  30.116  29.852  1.00  0.00     0.058 A 
ATOM     73  C   UNL A   1      37.044  30.700  30.777  1.00  0.00     0.135 A 
ATOM     74  C   UNL A   1      37.640  30.342  28.491  1.00  0.00     0.135 A 
ATOM     75  F   UNL A   1      37.248  30.547  32.094  1.00  0.00    -0.206 F 
ATOM     76  C   UNL A   1      35.974  31.510  30.380  1.00  0.00     0.059 A 
ATOM     77  C   UNL A   1      36.574  31.138  28.071  1.00  0.00     0.059 A 
ATOM     78  F   UNL A   1      38.445  29.867  27.528  1.00  0.00    -0.206 F 
ATOM     79  C   UNL A   1      35.761  31.743  29.022  1.00  0.00     0.060 A 
BRANCH  79  80
ATOM     80  S   UNL A   1      34.499  32.937  28.513  1.00  0.00     0.124 S 
ATOM     81  O   UNL A   1      33.532  32.081  27.834  1.00  0.00    -0.237 OA
ATOM     82  O   UNL A   1      34.069  33.495  29.790  1.00  0.00    -0.237 OA
ATOM     83  O   UNL A   1      35.233  33.858  27.649  1.00  0.00    -0.744 OA
ENDBRANCH  79  80
ENDBRANCH  47  72
BRANCH  59  84
ATOM     84  C   UNL A   1      42.790  28.846  33.720  1.00  0.00     0.058 A 
ATOM     85  C   UNL A   1      42.467  29.229  35.033  1.00  0.00     0.135 A 
ATOM     86  C   UNL A   1      42.636  27.490  33.391  1.00  0.00     0.135 A 
ATOM     87  F   UNL A   1      42.494  30.516  35.404  1.00  0.00    -0.206 F 
ATOM     88  C   UNL A   1      42.047  28.298  35.986  1.00  0.00     0.059 A 
ATOM     89  C   UNL A   1      42.188  26.552  34.315  1.00  0.00     0.059 A 
ATOM     90  F   UNL A   1      42.873  27.072  32.137  1.00  0.00    -0.206 F 
ATOM     91  C   UNL A   1      41.907  26.961  35.615  1.00  0.00     0.060 A 
BRANCH  91  92
ATOM     92  S   UNL A   1      41.290  25.770  36.824  1.00  0.00     0.124 S 
ATOM     93  O   UNL A   1      42.525  25.204  37.356  1.00  0.00    -0.237 OA
ATOM     94  O   UNL A   1      40.531  26.614  37.742  1.00  0.00    -0.237 OA
ATOM     95  O   UNL A   1      40.481  24.856  36.020  1.00  0.00    -0.744 OA
ENDBRANCH  91  92
ENDBRANCH  59  84
ENDBRANCH  33  34
ENDBRANCH  25  28
ENDBRANCH  23  24
ENDBRANCH  22  23
ENDBRANCH   1  22
TORSDOF 17
ENDMDL
