MODEL 1
REMARK VINA RESULT:     -11.9      0.000      0.000
REMARK SMILES CC(C)(C)OC(=O)N1[C@@H](C(=O)NCCCCNC(=O)c2ccc(-c3c4nc(c(-c5c(F)cc(S(=O)(=O)[O-])cc5F)c5ccc([nH]5)c(-c5c(F)cc(S(=O)(=O)[O-])cc5F)c5nc(c(-c6c(F)cc(S(=O)(=O)[O-])cc6F)c6ccc3[nH]6)C=C5)C=C4)cc2)C[C@H]2CCCC[C@@H]21
REMARK SMILES IDX 14 1 13 2 12 3 10 4 11 5 9 7 8 8 92 9 86 10 87 11 91 12
REMARK SMILES IDX 88 13 90 14 89 15 6 16 7 17 5 18 2 19 1 20 3 21 4 22 15 23
REMARK SMILES IDX 16 24 17 25 18 26 19 28 20 29 21 30 85 31 22 32 84 33 23 34
REMARK SMILES IDX 24 35 25 36 78 37 26 38 83 39 77 40 79 41 27 42 82 43 76 44
REMARK SMILES IDX 75 45 28 47 62 48 41 49 61 50 42 51 45 52 60 53 80 54 43 55
REMARK SMILES IDX 44 56 59 58 81 59 46 60 29 61 30 62 39 63 31 64 32 65 38 66
REMARK SMILES IDX 40 67 33 68 34 69 35 70 36 71 37 72 63 73 64 74 73 75 65 76
REMARK SMILES IDX 66 77 72 78 74 79 67 80 68 81 69 82 70 83 71 84 47 85 48 86
REMARK SMILES IDX 57 87 49 88 50 89 56 90 58 91 51 92 52 93 53 94 54 95 55 96
REMARK H PARENT 12 6 17 27 79 46 45 57
REMARK Flexibility Score: inf
ROOT
ATOM      1  C   UNL A   1      35.997  23.873  25.314  1.00  0.00     0.023 C 
ENDROOT
BRANCH   1   2
ATOM      2  C   UNL A   1      35.076  23.116  24.350  1.00  0.00     0.116 C 
BRANCH   2   3
ATOM      3  N   UNL A   1      34.665  23.934  23.222  1.00  0.00    -0.354 N 
ATOM      4  C   UNL A   1      33.827  24.992  23.060  1.00  0.00     0.242 C 
ATOM      5  O   UNL A   1      33.813  25.465  21.913  1.00  0.00    -0.273 OA
ATOM      6  H   UNL A   1      35.093  23.657  22.379  1.00  0.00     0.163 HD
BRANCH   4   7
ATOM      7  C   UNL A   1      33.004  25.710  24.175  1.00  0.00     0.178 C 
ATOM      8  N   UNL A   1      31.569  25.555  23.883  1.00  0.00    -0.293 N 
ATOM      9  C   UNL A   1      31.050  26.762  23.300  1.00  0.00     0.092 C 
ATOM     10  C   UNL A   1      33.189  27.215  24.393  1.00  0.00     0.041 C 
ATOM     11  C   UNL A   1      31.822  27.830  24.083  1.00  0.00     0.014 C 
ATOM     12  C   UNL A   1      29.564  27.101  23.442  1.00  0.00     0.025 C 
ATOM     13  C   UNL A   1      31.734  29.146  23.332  1.00  0.00     0.006 C 
ATOM     14  C   UNL A   1      29.288  28.489  22.846  1.00  0.00     0.002 C 
ATOM     15  C   UNL A   1      30.262  29.587  23.303  1.00  0.00     0.000 C 
BRANCH   8  16
ATOM     16  C   UNL A   1      30.828  24.413  24.052  1.00  0.00     0.411 C 
ATOM     17  O   UNL A   1      30.502  23.685  23.123  1.00  0.00    -0.224 OA
BRANCH  16  18
ATOM     18  O   UNL A   1      30.374  24.283  25.325  1.00  0.00    -0.444 OA
BRANCH  18  19
ATOM     19  C   UNL A   1      30.910  23.233  26.178  1.00  0.00     0.106 C 
ATOM     20  C   UNL A   1      31.979  23.920  27.045  1.00  0.00     0.056 C 
ATOM     21  C   UNL A   1      31.577  22.149  25.329  1.00  0.00     0.056 C 
ATOM     22  C   UNL A   1      29.862  22.639  27.135  1.00  0.00     0.056 C 
ENDBRANCH  18  19
ENDBRANCH  16  18
ENDBRANCH   8  16
ENDBRANCH   4   7
ENDBRANCH   2   3
ENDBRANCH   1   2
BRANCH   1  23
ATOM     23  C   UNL A   1      37.450  23.386  25.338  1.00  0.00     0.023 C 
BRANCH  23  24
ATOM     24  C   UNL A   1      38.333  23.985  26.432  1.00  0.00     0.116 C 
BRANCH  24  25
ATOM     25  N   UNL A   1      39.759  23.769  26.226  1.00  0.00    -0.352 N 
ATOM     26  C   UNL A   1      40.811  24.514  26.712  1.00  0.00     0.251 C 
ATOM     27  H   UNL A   1      40.002  22.993  25.670  1.00  0.00     0.163 HD
ATOM     28  O   UNL A   1      41.964  24.249  26.388  1.00  0.00    -0.269 OA
BRANCH  26  29
ATOM     29  C   UNL A   1      40.522  25.665  27.592  1.00  0.00     0.039 A 
ATOM     30  C   UNL A   1      39.535  25.541  28.573  1.00  0.00     0.014 A 
ATOM     31  C   UNL A   1      41.291  26.829  27.502  1.00  0.00     0.014 A 
ATOM     32  C   UNL A   1      39.385  26.549  29.528  1.00  0.00     0.010 A 
ATOM     33  C   UNL A   1      41.189  27.795  28.497  1.00  0.00     0.010 A 
ATOM     34  C   UNL A   1      40.247  27.658  29.529  1.00  0.00    -0.014 A 
BRANCH  34  35
ATOM     35  C   UNL A   1      40.207  28.672  30.614  1.00  0.00     0.031 A 
ATOM     36  C   UNL A   1      41.116  28.540  31.804  1.00  0.00     0.074 A 
ATOM     37  C   UNL A   1      39.293  29.663  30.567  1.00  0.00     0.049 A 
ATOM     38  N   UNL A   1      41.173  29.273  32.886  1.00  0.00    -0.248 NA
ATOM     39  C   UNL A   1      42.066  27.417  31.788  1.00  0.00     0.031 C 
ATOM     40  C   UNL A   1      38.326  29.873  29.487  1.00  0.00     0.029 A 
ATOM     41  N   UNL A   1      39.021  30.675  31.454  1.00  0.00    -0.354 N 
ATOM     42  C   UNL A   1      42.153  28.693  33.683  1.00  0.00     0.074 A 
ATOM     43  C   UNL A   1      42.619  27.515  32.987  1.00  0.00     0.031 C 
ATOM     44  C   UNL A   1      37.592  30.964  29.759  1.00  0.00     0.029 A 
ATOM     45  C   UNL A   1      38.001  31.505  31.051  1.00  0.00     0.049 A 
ATOM     46  H   UNL A   1      39.510  30.795  32.300  1.00  0.00     0.167 HD
ATOM     47  C   UNL A   1      42.636  29.118  34.876  1.00  0.00     0.037 A 
ATOM     48  C   UNL A   1      37.454  32.578  31.655  1.00  0.00     0.037 A 
ATOM     49  C   UNL A   1      42.175  30.301  35.555  1.00  0.00     0.049 A 
ATOM     50  C   UNL A   1      37.985  33.013  32.995  1.00  0.00     0.074 A 
ATOM     51  C   UNL A   1      42.637  30.850  36.737  1.00  0.00     0.029 A 
ATOM     52  N   UNL A   1      41.136  31.112  35.118  1.00  0.00    -0.354 N 
ATOM     53  N   UNL A   1      38.959  32.494  33.703  1.00  0.00    -0.248 NA
ATOM     54  C   UNL A   1      37.339  34.176  33.619  1.00  0.00     0.031 C 
ATOM     55  C   UNL A   1      41.846  31.963  37.041  1.00  0.00     0.029 A 
ATOM     56  C   UNL A   1      40.924  32.139  36.022  1.00  0.00     0.049 A 
ATOM     57  H   UNL A   1      40.625  30.976  34.288  1.00  0.00     0.167 HD
ATOM     58  C   UNL A   1      39.065  33.286  34.842  1.00  0.00     0.074 A 
ATOM     59  C   UNL A   1      38.060  34.323  34.723  1.00  0.00     0.031 C 
ATOM     60  C   UNL A   1      39.920  33.169  35.888  1.00  0.00     0.037 A 
BRANCH  47  61
ATOM     61  C   UNL A   1      43.716  28.289  35.518  1.00  0.00     0.058 A 
ATOM     62  C   UNL A   1      45.071  28.461  35.191  1.00  0.00     0.135 A 
ATOM     63  C   UNL A   1      43.393  27.306  36.467  1.00  0.00     0.135 A 
ATOM     64  F   UNL A   1      45.437  29.377  34.281  1.00  0.00    -0.206 F 
ATOM     65  C   UNL A   1      46.062  27.655  35.744  1.00  0.00     0.059 A 
ATOM     66  C   UNL A   1      44.371  26.511  37.058  1.00  0.00     0.059 A 
ATOM     67  F   UNL A   1      42.115  27.100  36.820  1.00  0.00    -0.206 F 
ATOM     68  C   UNL A   1      45.701  26.678  36.672  1.00  0.00     0.060 A 
BRANCH  68  69
ATOM     69  S   UNL A   1      46.993  25.619  37.354  1.00  0.00     0.124 S 
ATOM     70  O   UNL A   1      48.170  26.100  36.637  1.00  0.00    -0.237 OA
ATOM     71  O   UNL A   1      46.943  25.940  38.777  1.00  0.00    -0.237 OA
ATOM     72  O   UNL A   1      46.551  24.274  37.001  1.00  0.00    -0.744 OA
ENDBRANCH  68  69
ENDBRANCH  47  61
BRANCH  48  73
ATOM     73  C   UNL A   1      36.370  33.342  30.980  1.00  0.00     0.058 A 
ATOM     74  C   UNL A   1      35.052  33.279  31.453  1.00  0.00     0.135 A 
ATOM     75  C   UNL A   1      36.628  34.161  29.870  1.00  0.00     0.135 A 
ATOM     76  F   UNL A   1      34.753  32.503  32.506  1.00  0.00    -0.206 F 
ATOM     77  C   UNL A   1      34.024  33.992  30.846  1.00  0.00     0.059 A 
ATOM     78  C   UNL A   1      35.620  34.904  29.260  1.00  0.00     0.059 A 
ATOM     79  F   UNL A   1      37.875  34.268  29.387  1.00  0.00    -0.206 F 
ATOM     80  C   UNL A   1      34.319  34.807  29.753  1.00  0.00     0.060 A 
BRANCH  80  81
ATOM     81  S   UNL A   1      32.986  35.774  29.010  1.00  0.00     0.124 S 
ATOM     82  O   UNL A   1      32.360  34.790  28.135  1.00  0.00    -0.237 OA
ATOM     83  O   UNL A   1      32.210  36.171  30.182  1.00  0.00    -0.237 OA
ATOM     84  O   UNL A   1      33.692  36.860  28.339  1.00  0.00    -0.744 OA
ENDBRANCH  80  81
ENDBRANCH  48  73
BRANCH  60  85
ATOM     85  C   UNL A   1      39.834  34.203  36.975  1.00  0.00     0.058 A 
ATOM     86  C   UNL A   1      40.417  35.472  36.837  1.00  0.00     0.135 A 
ATOM     87  C   UNL A   1      39.104  33.941  38.147  1.00  0.00     0.135 A 
ATOM     88  F   UNL A   1      41.135  35.770  35.741  1.00  0.00    -0.206 F 
ATOM     89  C   UNL A   1      40.293  36.441  37.827  1.00  0.00     0.059 A 
ATOM     90  C   UNL A   1      38.943  34.905  39.137  1.00  0.00     0.059 A 
ATOM     91  F   UNL A   1      38.520  32.747  38.327  1.00  0.00    -0.206 F 
ATOM     92  C   UNL A   1      39.548  36.150  38.972  1.00  0.00     0.060 A 
BRANCH  92  93
ATOM     93  S   UNL A   1      39.352  37.433  40.226  1.00  0.00     0.124 S 
ATOM     94  O   UNL A   1      38.557  38.425  39.510  1.00  0.00    -0.237 OA
ATOM     95  O   UNL A   1      38.663  36.721  41.297  1.00  0.00    -0.237 OA
ATOM     96  O   UNL A   1      40.725  37.828  40.526  1.00  0.00    -0.744 OA
ENDBRANCH  92  93
ENDBRANCH  60  85
ENDBRANCH  34  35
ENDBRANCH  26  29
ENDBRANCH  24  25
ENDBRANCH  23  24
ENDBRANCH   1  23
TORSDOF 17
ENDMDL
MODEL 2
REMARK VINA RESULT:     -11.7      1.546      2.583
REMARK SMILES CC(C)(C)OC(=O)N1[C@@H](C(=O)NCCCCNC(=O)c2ccc(-c3c4nc(c(-c5c(F)cc(S(=O)(=O)[O-])cc5F)c5ccc([nH]5)c(-c5c(F)cc(S(=O)(=O)[O-])cc5F)c5nc(c(-c6c(F)cc(S(=O)(=O)[O-])cc6F)c6ccc3[nH]6)C=C5)C=C4)cc2)C[C@H]2CCCC[C@@H]21
REMARK SMILES IDX 14 1 13 2 12 3 10 4 11 5 9 7 8 8 92 9 86 10 87 11 91 12
REMARK SMILES IDX 88 13 90 14 89 15 6 16 7 17 5 18 2 19 1 20 3 21 4 22 15 23
REMARK SMILES IDX 16 24 17 25 18 26 19 28 20 29 21 30 85 31 22 32 84 33 23 34
REMARK SMILES IDX 24 35 25 36 78 37 26 38 83 39 77 40 79 41 27 42 82 43 76 44
REMARK SMILES IDX 75 45 28 47 62 48 41 49 61 50 42 51 45 52 60 53 80 54 43 55
REMARK SMILES IDX 44 56 59 58 81 59 46 60 29 61 30 62 39 63 31 64 32 65 38 66
REMARK SMILES IDX 40 67 33 68 34 69 35 70 36 71 37 72 63 73 64 74 73 75 65 76
REMARK SMILES IDX 66 77 72 78 74 79 67 80 68 81 69 82 70 83 71 84 47 85 48 86
REMARK SMILES IDX 57 87 49 88 50 89 56 90 58 91 51 92 52 93 53 94 54 95 55 96
REMARK H PARENT 12 6 17 27 79 46 45 57
REMARK Flexibility Score: inf
ROOT
ATOM      1  C   UNL A   1      38.277  22.381  26.076  1.00  0.00     0.023 C 
ENDROOT
BRANCH   1   2
ATOM      2  C   UNL A   1      37.737  21.470  24.968  1.00  0.00     0.116 C 
BRANCH   2   3
ATOM      3  N   UNL A   1      36.915  22.191  24.012  1.00  0.00    -0.354 N 
ATOM      4  C   UNL A   1      35.628  22.630  23.992  1.00  0.00     0.242 C 
ATOM      5  O   UNL A   1      35.327  23.293  22.988  1.00  0.00    -0.273 OA
ATOM      6  H   UNL A   1      37.403  22.413  23.186  1.00  0.00     0.163 HD
BRANCH   4   7
ATOM      7  C   UNL A   1      34.574  22.479  25.133  1.00  0.00     0.178 C 
ATOM      8  N   UNL A   1      33.232  22.387  24.534  1.00  0.00    -0.293 N 
ATOM      9  C   UNL A   1      32.555  23.651  24.638  1.00  0.00     0.092 C 
ATOM     10  C   UNL A   1      34.446  23.585  26.187  1.00  0.00     0.041 C 
ATOM     11  C   UNL A   1      33.026  24.130  26.016  1.00  0.00     0.014 C 
ATOM     12  C   UNL A   1      31.026  23.699  24.655  1.00  0.00     0.025 C 
ATOM     13  C   UNL A   1      32.767  25.622  26.130  1.00  0.00     0.006 C 
ATOM     14  C   UNL A   1      30.553  25.140  24.897  1.00  0.00     0.002 C 
ATOM     15  C   UNL A   1      31.248  25.853  26.069  1.00  0.00     0.000 C 
BRANCH   8  16
ATOM     16  C   UNL A   1      32.709  21.296  23.888  1.00  0.00     0.411 C 
ATOM     17  O   UNL A   1      32.457  21.287  22.690  1.00  0.00    -0.224 OA
BRANCH  16  18
ATOM     18  O   UNL A   1      32.362  20.309  24.753  1.00  0.00    -0.444 OA
BRANCH  18  19
ATOM     19  C   UNL A   1      32.900  18.970  24.572  1.00  0.00     0.106 C 
ATOM     20  C   UNL A   1      34.426  19.148  24.522  1.00  0.00     0.056 C 
ATOM     21  C   UNL A   1      32.422  18.381  23.243  1.00  0.00     0.056 C 
ATOM     22  C   UNL A   1      32.590  18.030  25.751  1.00  0.00     0.056 C 
ENDBRANCH  18  19
ENDBRANCH  16  18
ENDBRANCH   8  16
ENDBRANCH   4   7
ENDBRANCH   2   3
ENDBRANCH   1   2
BRANCH   1  23
ATOM     23  C   UNL A   1      39.719  22.091  26.508  1.00  0.00     0.023 C 
BRANCH  23  24
ATOM     24  C   UNL A   1      40.519  23.295  27.000  1.00  0.00     0.116 C 
BRANCH  24  25
ATOM     25  N   UNL A   1      41.099  24.098  25.931  1.00  0.00    -0.352 N 
ATOM     26  C   UNL A   1      41.554  25.397  25.993  1.00  0.00     0.251 C 
ATOM     27  H   UNL A   1      41.176  23.657  25.054  1.00  0.00     0.163 HD
ATOM     28  O   UNL A   1      41.949  25.968  24.982  1.00  0.00    -0.269 OA
BRANCH  26  29
ATOM     29  C   UNL A   1      41.513  26.105  27.290  1.00  0.00     0.039 A 
ATOM     30  C   UNL A   1      42.535  27.004  27.605  1.00  0.00     0.014 A 
ATOM     31  C   UNL A   1      40.419  25.944  28.144  1.00  0.00     0.014 A 
ATOM     32  C   UNL A   1      42.410  27.816  28.735  1.00  0.00     0.010 A 
ATOM     33  C   UNL A   1      40.263  26.805  29.225  1.00  0.00     0.010 A 
ATOM     34  C   UNL A   1      41.248  27.760  29.524  1.00  0.00    -0.014 A 
BRANCH  34  35
ATOM     35  C   UNL A   1      41.023  28.710  30.644  1.00  0.00     0.031 A 
ATOM     36  C   UNL A   1      41.844  28.605  31.898  1.00  0.00     0.074 A 
ATOM     37  C   UNL A   1      40.022  29.610  30.563  1.00  0.00     0.049 A 
ATOM     38  N   UNL A   1      41.743  29.285  33.011  1.00  0.00    -0.248 NA
ATOM     39  C   UNL A   1      42.900  27.580  31.913  1.00  0.00     0.031 C 
ATOM     40  C   UNL A   1      39.127  29.781  29.417  1.00  0.00     0.029 A 
ATOM     41  N   UNL A   1      39.582  30.545  31.467  1.00  0.00    -0.354 N 
ATOM     42  C   UNL A   1      42.710  28.762  33.862  1.00  0.00     0.074 A 
ATOM     43  C   UNL A   1      43.345  27.669  33.158  1.00  0.00     0.031 C 
ATOM     44  C   UNL A   1      38.269  30.781  29.672  1.00  0.00     0.029 A 
ATOM     45  C   UNL A   1      38.520  31.294  31.015  1.00  0.00     0.049 A 
ATOM     46  H   UNL A   1      39.989  30.669  32.354  1.00  0.00     0.167 HD
ATOM     47  C   UNL A   1      43.054  29.170  35.107  1.00  0.00     0.037 A 
ATOM     48  C   UNL A   1      37.824  32.278  31.617  1.00  0.00     0.037 A 
ATOM     49  C   UNL A   1      42.426  30.268  35.796  1.00  0.00     0.049 A 
ATOM     50  C   UNL A   1      38.202  32.693  33.014  1.00  0.00     0.074 A 
ATOM     51  C   UNL A   1      42.738  30.798  37.034  1.00  0.00     0.029 A 
ATOM     52  N   UNL A   1      41.350  30.997  35.308  1.00  0.00    -0.354 N 
ATOM     53  N   UNL A   1      39.164  32.235  33.778  1.00  0.00    -0.248 NA
ATOM     54  C   UNL A   1      37.397  33.757  33.631  1.00  0.00     0.031 C 
ATOM     55  C   UNL A   1      41.819  31.815  37.318  1.00  0.00     0.029 A 
ATOM     56  C   UNL A   1      40.967  31.953  36.234  1.00  0.00     0.049 A 
ATOM     57  H   UNL A   1      40.922  30.855  34.434  1.00  0.00     0.167 HD
ATOM     58  C   UNL A   1      39.102  32.975  34.954  1.00  0.00     0.074 A 
ATOM     59  C   UNL A   1      38.011  33.916  34.796  1.00  0.00     0.031 C 
ATOM     60  C   UNL A   1      39.880  32.888  36.061  1.00  0.00     0.037 A 
BRANCH  47  61
ATOM     61  C   UNL A   1      44.157  28.416  35.801  1.00  0.00     0.058 A 
ATOM     62  C   UNL A   1      43.891  27.312  36.627  1.00  0.00     0.135 A 
ATOM     63  C   UNL A   1      45.497  28.804  35.642  1.00  0.00     0.135 A 
ATOM     64  F   UNL A   1      42.627  26.904  36.825  1.00  0.00    -0.206 F 
ATOM     65  C   UNL A   1      44.907  26.651  37.310  1.00  0.00     0.059 A 
ATOM     66  C   UNL A   1      46.534  28.137  36.290  1.00  0.00     0.059 A 
ATOM     67  F   UNL A   1      45.811  29.850  34.861  1.00  0.00    -0.206 F 
ATOM     68  C   UNL A   1      46.225  27.076  37.140  1.00  0.00     0.060 A 
BRANCH  68  69
ATOM     69  S   UNL A   1      47.527  26.231  38.061  1.00  0.00     0.124 S 
ATOM     70  O   UNL A   1      47.768  27.171  39.151  1.00  0.00    -0.237 OA
ATOM     71  O   UNL A   1      46.881  24.978  38.438  1.00  0.00    -0.237 OA
ATOM     72  O   UNL A   1      48.607  26.109  37.087  1.00  0.00    -0.744 OA
ENDBRANCH  68  69
ENDBRANCH  47  61
BRANCH  48  73
ATOM     73  C   UNL A   1      36.726  32.968  30.888  1.00  0.00     0.058 A 
ATOM     74  C   UNL A   1      35.385  32.714  31.210  1.00  0.00     0.135 A 
ATOM     75  C   UNL A   1      36.989  33.904  29.875  1.00  0.00     0.135 A 
ATOM     76  F   UNL A   1      35.082  31.821  32.165  1.00  0.00    -0.206 F 
ATOM     77  C   UNL A   1      34.342  33.354  30.550  1.00  0.00     0.059 A 
ATOM     78  C   UNL A   1      35.962  34.576  29.217  1.00  0.00     0.059 A 
ATOM     79  F   UNL A   1      38.255  34.194  29.538  1.00  0.00    -0.206 F 
ATOM     80  C   UNL A   1      34.640  34.289  29.558  1.00  0.00     0.060 A 
BRANCH  80  81
ATOM     81  S   UNL A   1      33.279  35.157  28.750  1.00  0.00     0.124 S 
ATOM     82  O   UNL A   1      33.989  36.185  27.998  1.00  0.00    -0.237 OA
ATOM     83  O   UNL A   1      32.668  34.094  27.957  1.00  0.00    -0.237 OA
ATOM     84  O   UNL A   1      32.473  35.635  29.869  1.00  0.00    -0.744 OA
ENDBRANCH  80  81
ENDBRANCH  48  73
BRANCH  60  85
ATOM     85  C   UNL A   1      39.607  33.853  37.181  1.00  0.00     0.058 A 
ATOM     86  C   UNL A   1      38.789  33.510  38.269  1.00  0.00     0.135 A 
ATOM     87  C   UNL A   1      40.223  35.115  37.196  1.00  0.00     0.135 A 
ATOM     88  F   UNL A   1      38.167  32.320  38.299  1.00  0.00    -0.206 F 
ATOM     89  C   UNL A   1      38.578  34.389  39.325  1.00  0.00     0.059 A 
ATOM     90  C   UNL A   1      40.049  36.000  38.256  1.00  0.00     0.059 A 
ATOM     91  F   UNL A   1      41.021  35.490  36.185  1.00  0.00    -0.206 F 
ATOM     92  C   UNL A   1      39.218  35.631  39.313  1.00  0.00     0.060 A 
BRANCH  92  93
ATOM     93  S   UNL A   1      38.977  36.742  40.714  1.00  0.00     0.124 S 
ATOM     94  O   UNL A   1      38.100  35.951  41.571  1.00  0.00    -0.237 OA
ATOM     95  O   UNL A   1      40.340  36.929  41.203  1.00  0.00    -0.237 OA
ATOM     96  O   UNL A   1      38.367  37.924  40.112  1.00  0.00    -0.744 OA
ENDBRANCH  92  93
ENDBRANCH  60  85
ENDBRANCH  34  35
ENDBRANCH  26  29
ENDBRANCH  24  25
ENDBRANCH  23  24
ENDBRANCH   1  23
TORSDOF 17
ENDMDL
MODEL 3
REMARK VINA RESULT:     -11.6      4.564     10.218
REMARK SMILES CC(C)(C)OC(=O)N1[C@@H](C(=O)NCCCCNC(=O)c2ccc(-c3c4nc(c(-c5c(F)cc(S(=O)(=O)[O-])cc5F)c5ccc([nH]5)c(-c5c(F)cc(S(=O)(=O)[O-])cc5F)c5nc(c(-c6c(F)cc(S(=O)(=O)[O-])cc6F)c6ccc3[nH]6)C=C5)C=C4)cc2)C[C@H]2CCCC[C@@H]21
REMARK SMILES IDX 14 1 13 2 12 3 10 4 11 5 9 7 8 8 92 9 86 10 87 11 91 12
REMARK SMILES IDX 88 13 90 14 89 15 6 16 7 17 5 18 2 19 1 20 3 21 4 22 15 23
REMARK SMILES IDX 16 24 17 25 18 26 19 28 20 29 21 30 85 31 22 32 84 33 23 34
REMARK SMILES IDX 24 35 25 36 78 37 26 38 83 39 77 40 79 41 27 42 82 43 76 44
REMARK SMILES IDX 75 45 28 47 62 48 41 49 61 50 42 51 45 52 60 53 80 54 43 55
REMARK SMILES IDX 44 56 59 58 81 59 46 60 29 61 30 62 39 63 31 64 32 65 38 66
REMARK SMILES IDX 40 67 33 68 34 69 35 70 36 71 37 72 63 73 64 74 73 75 65 76
REMARK SMILES IDX 66 77 72 78 74 79 67 80 68 81 69 82 70 83 71 84 47 85 48 86
REMARK SMILES IDX 57 87 49 88 50 89 56 90 58 91 51 92 52 93 53 94 54 95 55 96
REMARK H PARENT 12 6 17 27 79 46 45 57
REMARK Flexibility Score: inf
ROOT
ATOM      1  C   UNL A   1      32.262  26.585  26.842  1.00  0.00     0.023 C 
ENDROOT
BRANCH   1   2
ATOM      2  C   UNL A   1      30.920  25.944  26.468  1.00  0.00     0.116 C 
BRANCH   2   3
ATOM      3  N   UNL A   1      31.044  24.523  26.193  1.00  0.00    -0.354 N 
ATOM      4  C   UNL A   1      31.174  23.772  25.067  1.00  0.00     0.242 C 
ATOM      5  O   UNL A   1      31.333  22.559  25.274  1.00  0.00    -0.273 OA
ATOM      6  H   UNL A   1      31.032  23.977  27.013  1.00  0.00     0.163 HD
BRANCH   4   7
ATOM      7  C   UNL A   1      31.256  24.298  23.600  1.00  0.00     0.178 C 
ATOM      8  N   UNL A   1      32.543  24.988  23.412  1.00  0.00    -0.293 N 
ATOM      9  C   UNL A   1      32.355  26.412  23.473  1.00  0.00     0.092 C 
ATOM     10  C   UNL A   1      30.209  25.301  23.102  1.00  0.00     0.041 C 
ATOM     11  C   UNL A   1      31.003  26.566  22.768  1.00  0.00     0.014 C 
ATOM     12  C   UNL A   1      33.334  27.343  22.755  1.00  0.00     0.025 C 
ATOM     13  C   UNL A   1      30.429  27.932  23.104  1.00  0.00     0.006 C 
ATOM     14  C   UNL A   1      32.848  28.796  22.867  1.00  0.00     0.002 C 
ATOM     15  C   UNL A   1      31.365  29.003  22.519  1.00  0.00     0.000 C 
BRANCH   8  16
ATOM     16  C   UNL A   1      33.770  24.390  23.281  1.00  0.00     0.411 C 
ATOM     17  O   UNL A   1      34.090  23.727  22.302  1.00  0.00    -0.224 OA
BRANCH  16  18
ATOM     18  O   UNL A   1      34.509  24.487  24.416  1.00  0.00    -0.444 OA
BRANCH  18  19
ATOM     19  C   UNL A   1      35.068  23.286  25.017  1.00  0.00     0.106 C 
ATOM     20  C   UNL A   1      34.619  23.320  26.488  1.00  0.00     0.056 C 
ATOM     21  C   UNL A   1      36.597  23.328  24.962  1.00  0.00     0.056 C 
ATOM     22  C   UNL A   1      34.514  21.989  24.403  1.00  0.00     0.056 C 
ENDBRANCH  18  19
ENDBRANCH  16  18
ENDBRANCH   8  16
ENDBRANCH   4   7
ENDBRANCH   2   3
ENDBRANCH   1   2
BRANCH   1  23
ATOM     23  C   UNL A   1      32.282  28.117  26.800  1.00  0.00     0.023 C 
BRANCH  23  24
ATOM     24  C   UNL A   1      33.647  28.769  27.011  1.00  0.00     0.116 C 
BRANCH  24  25
ATOM     25  N   UNL A   1      33.582  30.104  27.591  1.00  0.00    -0.352 N 
ATOM     26  C   UNL A   1      34.562  30.777  28.287  1.00  0.00     0.251 C 
ATOM     27  H   UNL A   1      32.732  30.586  27.469  1.00  0.00     0.163 HD
ATOM     28  O   UNL A   1      34.331  31.875  28.783  1.00  0.00    -0.269 OA
BRANCH  26  29
ATOM     29  C   UNL A   1      35.880  30.133  28.467  1.00  0.00     0.039 A 
ATOM     30  C   UNL A   1      36.806  30.179  27.422  1.00  0.00     0.014 A 
ATOM     31  C   UNL A   1      36.224  29.568  29.698  1.00  0.00     0.014 A 
ATOM     32  C   UNL A   1      38.115  29.743  27.646  1.00  0.00     0.010 A 
ATOM     33  C   UNL A   1      37.544  29.204  29.939  1.00  0.00     0.010 A 
ATOM     34  C   UNL A   1      38.507  29.303  28.921  1.00  0.00    -0.014 A 
BRANCH  34  35
ATOM     35  C   UNL A   1      39.923  28.971  29.226  1.00  0.00     0.031 A 
ATOM     36  C   UNL A   1      40.813  29.991  29.879  1.00  0.00     0.074 A 
ATOM     37  C   UNL A   1      40.427  27.782  28.839  1.00  0.00     0.049 A 
ATOM     38  N   UNL A   1      42.090  29.920  30.151  1.00  0.00    -0.248 NA
ATOM     39  C   UNL A   1      40.189  31.272  30.249  1.00  0.00     0.031 C 
ATOM     40  C   UNL A   1      39.676  26.725  28.158  1.00  0.00     0.029 A 
ATOM     41  N   UNL A   1      41.694  27.265  28.953  1.00  0.00    -0.354 N 
ATOM     42  C   UNL A   1      42.426  31.148  30.709  1.00  0.00     0.074 A 
ATOM     43  C   UNL A   1      41.232  31.965  30.681  1.00  0.00     0.031 C 
ATOM     44  C   UNL A   1      40.486  25.675  27.946  1.00  0.00     0.029 A 
ATOM     45  C   UNL A   1      41.824  25.998  28.432  1.00  0.00     0.049 A 
ATOM     46  H   UNL A   1      42.439  27.754  29.368  1.00  0.00     0.167 HD
ATOM     47  C   UNL A   1      43.615  31.550  31.220  1.00  0.00     0.037 A 
ATOM     48  C   UNL A   1      42.899  25.190  28.352  1.00  0.00     0.037 A 
ATOM     49  C   UNL A   1      44.794  30.726  31.257  1.00  0.00     0.049 A 
ATOM     50  C   UNL A   1      44.217  25.671  28.896  1.00  0.00     0.074 A 
ATOM     51  C   UNL A   1      46.031  31.017  31.804  1.00  0.00     0.029 A 
ATOM     52  N   UNL A   1      44.888  29.451  30.714  1.00  0.00    -0.354 N 
ATOM     53  N   UNL A   1      44.501  26.808  29.484  1.00  0.00    -0.248 NA
ATOM     54  C   UNL A   1      45.362  24.758  28.764  1.00  0.00     0.031 C 
ATOM     55  C   UNL A   1      46.887  29.940  31.549  1.00  0.00     0.029 A 
ATOM     56  C   UNL A   1      46.169  28.955  30.887  1.00  0.00     0.049 A 
ATOM     57  H   UNL A   1      44.152  28.972  30.271  1.00  0.00     0.167 HD
ATOM     58  C   UNL A   1      45.849  26.737  29.820  1.00  0.00     0.074 A 
ATOM     59  C   UNL A   1      46.321  25.441  29.376  1.00  0.00     0.031 C 
ATOM     60  C   UNL A   1      46.624  27.658  30.444  1.00  0.00     0.037 A 
BRANCH  47  61
ATOM     61  C   UNL A   1      43.690  32.948  31.774  1.00  0.00     0.058 A 
ATOM     62  C   UNL A   1      43.412  33.224  33.123  1.00  0.00     0.135 A 
ATOM     63  C   UNL A   1      44.040  34.027  30.947  1.00  0.00     0.135 A 
ATOM     64  F   UNL A   1      43.060  32.233  33.957  1.00  0.00    -0.206 F 
ATOM     65  C   UNL A   1      43.428  34.524  33.619  1.00  0.00     0.059 A 
ATOM     66  C   UNL A   1      44.095  35.332  31.429  1.00  0.00     0.059 A 
ATOM     67  F   UNL A   1      44.320  33.822  29.650  1.00  0.00    -0.206 F 
ATOM     68  C   UNL A   1      43.765  35.572  32.763  1.00  0.00     0.060 A 
BRANCH  68  69
ATOM     69  S   UNL A   1      43.747  37.255  33.413  1.00  0.00     0.124 S 
ATOM     70  O   UNL A   1      44.997  37.288  34.165  1.00  0.00    -0.237 OA
ATOM     71  O   UNL A   1      43.719  38.061  32.197  1.00  0.00    -0.237 OA
ATOM     72  O   UNL A   1      42.530  37.296  34.218  1.00  0.00    -0.744 OA
ENDBRANCH  68  69
ENDBRANCH  47  61
BRANCH  48  73
ATOM     73  C   UNL A   1      42.765  23.828  27.769  1.00  0.00     0.058 A 
ATOM     74  C   UNL A   1      42.512  22.721  28.592  1.00  0.00     0.135 A 
ATOM     75  C   UNL A   1      42.866  23.605  26.387  1.00  0.00     0.135 A 
ATOM     76  F   UNL A   1      42.416  22.881  29.920  1.00  0.00    -0.206 F 
ATOM     77  C   UNL A   1      42.372  21.440  28.069  1.00  0.00     0.059 A 
ATOM     78  C   UNL A   1      42.705  22.336  25.837  1.00  0.00     0.059 A 
ATOM     79  F   UNL A   1      43.093  24.632  25.554  1.00  0.00    -0.206 F 
ATOM     80  C   UNL A   1      42.465  21.258  26.689  1.00  0.00     0.060 A 
BRANCH  80  81
ATOM     81  S   UNL A   1      42.222  19.599  26.017  1.00  0.00     0.124 S 
ATOM     82  O   UNL A   1      40.799  19.616  25.697  1.00  0.00    -0.237 OA
ATOM     83  O   UNL A   1      43.133  19.597  24.876  1.00  0.00    -0.237 OA
ATOM     84  O   UNL A   1      42.612  18.728  27.122  1.00  0.00    -0.744 OA
ENDBRANCH  80  81
ENDBRANCH  48  73
BRANCH  60  85
ATOM     85  C   UNL A   1      48.056  27.292  30.716  1.00  0.00     0.058 A 
ATOM     86  C   UNL A   1      48.434  26.598  31.877  1.00  0.00     0.135 A 
ATOM     87  C   UNL A   1      49.056  27.585  29.774  1.00  0.00     0.135 A 
ATOM     88  F   UNL A   1      47.520  26.302  32.815  1.00  0.00    -0.206 F 
ATOM     89  C   UNL A   1      49.753  26.220  32.100  1.00  0.00     0.059 A 
ATOM     90  C   UNL A   1      50.377  27.192  29.963  1.00  0.00     0.059 A 
ATOM     91  F   UNL A   1      48.748  28.241  28.644  1.00  0.00    -0.206 F 
ATOM     92  C   UNL A   1      50.717  26.517  31.134  1.00  0.00     0.060 A 
BRANCH  92  93
ATOM     93  S   UNL A   1      52.417  25.975  31.413  1.00  0.00     0.124 S 
ATOM     94  O   UNL A   1      52.213  24.652  31.992  1.00  0.00    -0.237 OA
ATOM     95  O   UNL A   1      52.977  25.999  30.066  1.00  0.00    -0.237 OA
ATOM     96  O   UNL A   1      52.950  26.983  32.325  1.00  0.00    -0.744 OA
ENDBRANCH  92  93
ENDBRANCH  60  85
ENDBRANCH  34  35
ENDBRANCH  26  29
ENDBRANCH  24  25
ENDBRANCH  23  24
ENDBRANCH   1  23
TORSDOF 17
ENDMDL
