MODEL 1
REMARK VINA RESULT:     -12.8      0.000      0.000
REMARK SMILES COc1ccc2c(c1)c(CC(=O)NCCCCNC(=O)c1ccc(-c3c4nc(c(-c5c(F)cc(S(=O)(=O)[O-])cc5F)c5ccc([nH]5)c(-c5c(F)cc(S(=O)(=O)[O-])cc5F)c5nc(c(-c6c(F)cc(S(=O)(=O)[O-])cc6F)c6ccc3[nH]6)C=C5)C=C4)cc1)c(C)n2C(=O)c1ccc(Cl)cc1
REMARK SMILES IDX 15 1 14 2 13 3 11 4 12 5 10 7 9 8 3 9 4 10 8 11 5 12 7 13
REMARK SMILES IDX 6 14 89 15 87 16 88 17 2 18 1 19 90 20 91 21 92 22 93 23
REMARK SMILES IDX 98 24 94 25 97 26 95 27 96 28 16 29 17 30 18 31 19 32 20 34
REMARK SMILES IDX 21 35 22 36 86 37 23 38 85 39 24 40 25 41 26 42 79 43 27 44
REMARK SMILES IDX 84 45 78 46 80 47 28 48 83 49 77 50 76 51 29 53 63 54 42 55
REMARK SMILES IDX 62 56 43 57 46 58 61 59 81 60 44 61 45 62 60 64 82 65 47 66
REMARK SMILES IDX 30 67 31 68 40 69 32 70 33 71 39 72 41 73 34 74 35 75 36 76
REMARK SMILES IDX 37 77 38 78 64 79 65 80 74 81 66 82 67 83 73 84 75 85 68 86
REMARK SMILES IDX 69 87 70 88 71 89 72 90 48 91 49 92 58 93 50 94 51 95 57 96
REMARK SMILES IDX 59 97 52 98 53 99 54 100 55 101 56 102
REMARK H PARENT 13 6 18 33 80 52 46 63
REMARK Flexibility Score: inf
ROOT
ATOM      1  C   UNL A   1      31.907  27.766  25.714  1.00  0.00     0.023 C 
ENDROOT
BRANCH   1   2
ATOM      2  C   UNL A   1      31.061  26.542  26.060  1.00  0.00     0.116 C 
BRANCH   2   3
ATOM      3  N   UNL A   1      30.781  25.719  24.904  1.00  0.00    -0.356 N 
ATOM      4  C   UNL A   1      31.015  24.382  24.746  1.00  0.00     0.224 C 
ATOM      5  O   UNL A   1      30.656  23.840  23.698  1.00  0.00    -0.275 OA
ATOM      6  H   UNL A   1      30.371  26.179  24.136  1.00  0.00     0.163 HD
BRANCH   4   7
ATOM      7  C   UNL A   1      31.637  23.578  25.882  1.00  0.00     0.138 C 
BRANCH   7   8
ATOM      8  C   UNL A   1      32.965  22.968  25.529  1.00  0.00    -0.009 A 
ATOM      9  C   UNL A   1      32.868  19.199  24.961  1.00  0.00     0.119 A 
ATOM     10  C   UNL A   1      34.223  19.046  24.722  1.00  0.00     0.048 A 
ATOM     11  C   UNL A   1      32.345  20.468  25.200  1.00  0.00     0.057 A 
ATOM     12  C   UNL A   1      35.083  20.148  24.756  1.00  0.00     0.031 A 
ATOM     13  C   UNL A   1      33.197  21.597  25.236  1.00  0.00     0.008 A 
ATOM     14  C   UNL A   1      34.562  21.438  24.981  1.00  0.00     0.057 A 
ATOM     15  N   UNL A   1      35.153  22.714  24.978  1.00  0.00    -0.280 N 
ATOM     16  C   UNL A   1      34.199  23.612  25.490  1.00  0.00     0.028 A 
ATOM     17  C   UNL A   1      34.477  25.033  25.873  1.00  0.00     0.065 C 
BRANCH   9  18
ATOM     18  O   UNL A   1      31.968  18.168  24.958  1.00  0.00    -0.497 OA
ATOM     19  C   UNL A   1      32.446  16.985  25.590  1.00  0.00     0.278 C 
ENDBRANCH   9  18
BRANCH  15  20
ATOM     20  C   UNL A   1      36.476  23.048  24.549  1.00  0.00     0.262 C 
ATOM     21  O   UNL A   1      36.638  23.577  23.464  1.00  0.00    -0.268 OA
BRANCH  20  22
ATOM     22  C   UNL A   1      37.702  22.827  25.343  1.00  0.00     0.040 A 
ATOM     23  C   UNL A   1      38.357  21.591  25.341  1.00  0.00     0.015 A 
ATOM     24  C   UNL A   1      38.172  23.888  26.126  1.00  0.00     0.015 A 
ATOM     25  C   UNL A   1      39.436  21.390  26.207  1.00  0.00     0.021 A 
ATOM     26  C   UNL A   1      39.256  23.683  26.979  1.00  0.00     0.021 A 
ATOM     27  C   UNL A   1      39.869  22.431  27.032  1.00  0.00     0.041 A 
ATOM     28  Cl  UNL A   1      41.151  22.167  28.148  1.00  0.00    -0.084 Cl
ENDBRANCH  20  22
ENDBRANCH  15  20
ENDBRANCH   7   8
ENDBRANCH   4   7
ENDBRANCH   2   3
ENDBRANCH   1   2
BRANCH   1  29
ATOM     29  C   UNL A   1      32.058  28.770  26.865  1.00  0.00     0.023 C 
BRANCH  29  30
ATOM     30  C   UNL A   1      33.508  29.146  27.178  1.00  0.00     0.116 C 
BRANCH  30  31
ATOM     31  N   UNL A   1      33.627  30.368  27.949  1.00  0.00    -0.352 N 
ATOM     32  C   UNL A   1      34.671  31.102  28.433  1.00  0.00     0.251 C 
ATOM     33  H   UNL A   1      32.752  30.758  28.176  1.00  0.00     0.163 HD
ATOM     34  O   UNL A   1      34.375  32.184  28.947  1.00  0.00    -0.269 OA
BRANCH  32  35
ATOM     35  C   UNL A   1      36.091  30.665  28.440  1.00  0.00     0.039 A 
ATOM     36  C   UNL A   1      36.548  29.394  28.089  1.00  0.00     0.014 A 
ATOM     37  C   UNL A   1      37.021  31.610  28.916  1.00  0.00     0.014 A 
ATOM     38  C   UNL A   1      37.870  29.037  28.306  1.00  0.00     0.010 A 
ATOM     39  C   UNL A   1      38.348  31.264  29.123  1.00  0.00     0.010 A 
ATOM     40  C   UNL A   1      38.749  29.957  28.869  1.00  0.00    -0.014 A 
BRANCH  40  41
ATOM     41  C   UNL A   1      40.106  29.503  29.128  1.00  0.00     0.031 A 
ATOM     42  C   UNL A   1      40.446  29.322  30.568  1.00  0.00     0.074 A 
ATOM     43  C   UNL A   1      40.954  29.191  28.128  1.00  0.00     0.049 A 
ATOM     44  N   UNL A   1      41.358  29.921  31.264  1.00  0.00    -0.248 NA
ATOM     45  C   UNL A   1      39.563  28.454  31.364  1.00  0.00     0.031 C 
ATOM     46  C   UNL A   1      40.668  29.086  26.695  1.00  0.00     0.029 A 
ATOM     47  N   UNL A   1      42.251  28.795  28.209  1.00  0.00    -0.354 N 
ATOM     48  C   UNL A   1      41.298  29.358  32.538  1.00  0.00     0.074 A 
ATOM     49  C   UNL A   1      40.086  28.582  32.584  1.00  0.00     0.031 C 
ATOM     50  C   UNL A   1      41.677  28.422  26.090  1.00  0.00     0.029 A 
ATOM     51  C   UNL A   1      42.726  28.175  27.063  1.00  0.00     0.049 A 
ATOM     52  H   UNL A   1      42.805  28.937  29.010  1.00  0.00     0.167 HD
ATOM     53  C   UNL A   1      42.350  29.397  33.400  1.00  0.00     0.037 A 
ATOM     54  C   UNL A   1      43.850  27.420  26.969  1.00  0.00     0.037 A 
ATOM     55  C   UNL A   1      43.287  30.432  33.056  1.00  0.00     0.049 A 
ATOM     56  C   UNL A   1      44.732  27.815  28.103  1.00  0.00     0.074 A 
ATOM     57  C   UNL A   1      43.200  31.807  32.947  1.00  0.00     0.029 A 
ATOM     58  N   UNL A   1      44.440  30.082  32.394  1.00  0.00    -0.354 N 
ATOM     59  N   UNL A   1      45.261  29.005  28.230  1.00  0.00    -0.248 NA
ATOM     60  C   UNL A   1      44.628  27.050  29.338  1.00  0.00     0.031 C 
ATOM     61  C   UNL A   1      43.998  32.136  31.812  1.00  0.00     0.029 A 
ATOM     62  C   UNL A   1      44.570  30.953  31.340  1.00  0.00     0.049 A 
ATOM     63  H   UNL A   1      45.052  29.349  32.631  1.00  0.00     0.167 HD
ATOM     64  C   UNL A   1      45.174  29.300  29.584  1.00  0.00     0.074 A 
ATOM     65  C   UNL A   1      44.837  28.028  30.225  1.00  0.00     0.031 C 
ATOM     66  C   UNL A   1      45.100  30.586  30.042  1.00  0.00     0.037 A 
BRANCH  53  67
ATOM     67  C   UNL A   1      42.673  28.286  34.369  1.00  0.00     0.058 A 
ATOM     68  C   UNL A   1      42.781  28.555  35.747  1.00  0.00     0.135 A 
ATOM     69  C   UNL A   1      43.141  27.017  33.956  1.00  0.00     0.135 A 
ATOM     70  F   UNL A   1      42.390  29.739  36.246  1.00  0.00    -0.206 F 
ATOM     71  C   UNL A   1      43.356  27.648  36.641  1.00  0.00     0.059 A 
ATOM     72  C   UNL A   1      43.664  26.079  34.836  1.00  0.00     0.059 A 
ATOM     73  F   UNL A   1      43.203  26.668  32.666  1.00  0.00    -0.206 F 
ATOM     74  C   UNL A   1      43.805  26.417  36.172  1.00  0.00     0.060 A 
BRANCH  74  75
ATOM     75  S   UNL A   1      44.645  25.289  37.298  1.00  0.00     0.124 S 
ATOM     76  O   UNL A   1      43.934  25.541  38.546  1.00  0.00    -0.237 OA
ATOM     77  O   UNL A   1      44.399  23.996  36.668  1.00  0.00    -0.237 OA
ATOM     78  O   UNL A   1      46.032  25.744  37.258  1.00  0.00    -0.744 OA
ENDBRANCH  74  75
ENDBRANCH  53  67
BRANCH  54  79
ATOM     79  C   UNL A   1      43.953  26.125  26.237  1.00  0.00     0.058 A 
ATOM     80  C   UNL A   1      45.025  25.837  25.375  1.00  0.00     0.135 A 
ATOM     81  C   UNL A   1      43.105  25.037  26.547  1.00  0.00     0.135 A 
ATOM     82  F   UNL A   1      45.912  26.793  25.061  1.00  0.00    -0.206 F 
ATOM     83  C   UNL A   1      45.243  24.551  24.858  1.00  0.00     0.059 A 
ATOM     84  C   UNL A   1      43.292  23.757  26.032  1.00  0.00     0.059 A 
ATOM     85  F   UNL A   1      42.106  25.164  27.432  1.00  0.00    -0.206 F 
ATOM     86  C   UNL A   1      44.374  23.514  25.200  1.00  0.00     0.060 A 
BRANCH  86  87
ATOM     87  S   UNL A   1      44.704  21.831  24.628  1.00  0.00     0.124 S 
ATOM     88  O   UNL A   1      44.634  21.985  23.179  1.00  0.00    -0.237 OA
ATOM     89  O   UNL A   1      46.031  21.575  25.179  1.00  0.00    -0.237 OA
ATOM     90  O   UNL A   1      43.624  21.050  25.223  1.00  0.00    -0.744 OA
ENDBRANCH  86  87
ENDBRANCH  54  79
BRANCH  66  91
ATOM     91  C   UNL A   1      45.325  31.723  29.072  1.00  0.00     0.058 A 
ATOM     92  C   UNL A   1      46.598  32.204  28.714  1.00  0.00     0.135 A 
ATOM     93  C   UNL A   1      44.238  32.188  28.317  1.00  0.00     0.135 A 
ATOM     94  F   UNL A   1      47.703  31.735  29.306  1.00  0.00    -0.206 F 
ATOM     95  C   UNL A   1      46.779  33.120  27.675  1.00  0.00     0.059 A 
ATOM     96  C   UNL A   1      44.397  33.078  27.256  1.00  0.00     0.059 A 
ATOM     97  F   UNL A   1      43.002  31.720  28.561  1.00  0.00    -0.206 F 
ATOM     98  C   UNL A   1      45.673  33.544  26.942  1.00  0.00     0.060 A 
BRANCH  98  99
ATOM     99  S   UNL A   1      45.928  34.636  25.526  1.00  0.00     0.124 S 
ATOM    100  O   UNL A   1      47.351  34.460  25.254  1.00  0.00    -0.237 OA
ATOM    101  O   UNL A   1      45.019  34.078  24.528  1.00  0.00    -0.237 OA
ATOM    102  O   UNL A   1      45.548  35.952  26.035  1.00  0.00    -0.744 OA
ENDBRANCH  98  99
ENDBRANCH  66  91
ENDBRANCH  40  41
ENDBRANCH  32  35
ENDBRANCH  30  31
ENDBRANCH  29  30
ENDBRANCH   1  29
TORSDOF 18
ENDMDL
MODEL 2
REMARK VINA RESULT:     -12.6      3.312      9.853
REMARK SMILES COc1ccc2c(c1)c(CC(=O)NCCCCNC(=O)c1ccc(-c3c4nc(c(-c5c(F)cc(S(=O)(=O)[O-])cc5F)c5ccc([nH]5)c(-c5c(F)cc(S(=O)(=O)[O-])cc5F)c5nc(c(-c6c(F)cc(S(=O)(=O)[O-])cc6F)c6ccc3[nH]6)C=C5)C=C4)cc1)c(C)n2C(=O)c1ccc(Cl)cc1
REMARK SMILES IDX 15 1 14 2 13 3 11 4 12 5 10 7 9 8 3 9 4 10 8 11 5 12 7 13
REMARK SMILES IDX 6 14 89 15 87 16 88 17 2 18 1 19 90 20 91 21 92 22 93 23
REMARK SMILES IDX 98 24 94 25 97 26 95 27 96 28 16 29 17 30 18 31 19 32 20 34
REMARK SMILES IDX 21 35 22 36 86 37 23 38 85 39 24 40 25 41 26 42 79 43 27 44
REMARK SMILES IDX 84 45 78 46 80 47 28 48 83 49 77 50 76 51 29 53 63 54 42 55
REMARK SMILES IDX 62 56 43 57 46 58 61 59 81 60 44 61 45 62 60 64 82 65 47 66
REMARK SMILES IDX 30 67 31 68 40 69 32 70 33 71 39 72 41 73 34 74 35 75 36 76
REMARK SMILES IDX 37 77 38 78 64 79 65 80 74 81 66 82 67 83 73 84 75 85 68 86
REMARK SMILES IDX 69 87 70 88 71 89 72 90 48 91 49 92 58 93 50 94 51 95 57 96
REMARK SMILES IDX 59 97 52 98 53 99 54 100 55 101 56 102
REMARK H PARENT 13 6 18 33 80 52 46 63
REMARK Flexibility Score: inf
ROOT
ATOM      1  C   UNL A   1      37.421  22.805  24.746  1.00  0.00     0.023 C 
ENDROOT
BRANCH   1   2
ATOM      2  C   UNL A   1      36.911  23.935  25.639  1.00  0.00     0.116 C 
BRANCH   2   3
ATOM      3  N   UNL A   1      35.616  23.643  26.215  1.00  0.00    -0.356 N 
ATOM      4  C   UNL A   1      34.405  24.176  25.874  1.00  0.00     0.224 C 
ATOM      5  O   UNL A   1      33.396  23.760  26.448  1.00  0.00    -0.275 OA
ATOM      6  H   UNL A   1      35.607  22.979  26.941  1.00  0.00     0.163 HD
BRANCH   4   7
ATOM      7  C   UNL A   1      34.312  25.205  24.754  1.00  0.00     0.138 C 
BRANCH   7   8
ATOM      8  C   UNL A   1      33.086  26.072  24.834  1.00  0.00    -0.009 A 
ATOM      9  C   UNL A   1      33.563  29.295  26.815  1.00  0.00     0.119 A 
ATOM     10  C   UNL A   1      32.260  29.746  26.688  1.00  0.00     0.048 A 
ATOM     11  C   UNL A   1      33.948  28.105  26.201  1.00  0.00     0.057 A 
ATOM     12  C   UNL A   1      31.312  28.999  25.983  1.00  0.00     0.031 A 
ATOM     13  C   UNL A   1      33.005  27.335  25.480  1.00  0.00     0.008 A 
ATOM     14  C   UNL A   1      31.695  27.802  25.345  1.00  0.00     0.057 A 
ATOM     15  N   UNL A   1      31.002  26.910  24.507  1.00  0.00    -0.280 N 
ATOM     16  C   UNL A   1      31.814  25.773  24.354  1.00  0.00     0.028 A 
ATOM     17  C   UNL A   1      31.377  24.482  23.729  1.00  0.00     0.065 C 
BRANCH   9  18
ATOM     18  O   UNL A   1      34.542  29.962  27.500  1.00  0.00    -0.497 OA
ATOM     19  C   UNL A   1      35.738  29.207  27.675  1.00  0.00     0.278 C 
ENDBRANCH   9  18
BRANCH  15  20
ATOM     20  C   UNL A   1      29.711  27.104  23.924  1.00  0.00     0.262 C 
ATOM     21  O   UNL A   1      28.828  26.293  24.140  1.00  0.00    -0.268 OA
BRANCH  20  22
ATOM     22  C   UNL A   1      29.331  28.253  23.076  1.00  0.00     0.040 A 
ATOM     23  C   UNL A   1      30.282  28.950  22.325  1.00  0.00     0.015 A 
ATOM     24  C   UNL A   1      27.987  28.644  23.074  1.00  0.00     0.015 A 
ATOM     25  C   UNL A   1      29.898  30.107  21.642  1.00  0.00     0.021 A 
ATOM     26  C   UNL A   1      27.608  29.794  22.381  1.00  0.00     0.021 A 
ATOM     27  C   UNL A   1      28.568  30.532  21.687  1.00  0.00     0.041 A 
ATOM     28  Cl  UNL A   1      28.105  31.993  20.906  1.00  0.00    -0.084 Cl
ENDBRANCH  20  22
ENDBRANCH  15  20
ENDBRANCH   7   8
ENDBRANCH   4   7
ENDBRANCH   2   3
ENDBRANCH   1   2
BRANCH   1  29
ATOM     29  C   UNL A   1      38.069  21.644  25.512  1.00  0.00     0.023 C 
BRANCH  29  30
ATOM     30  C   UNL A   1      39.220  22.066  26.428  1.00  0.00     0.116 C 
BRANCH  30  31
ATOM     31  N   UNL A   1      40.522  21.935  25.803  1.00  0.00    -0.352 N 
ATOM     32  C   UNL A   1      41.702  22.618  25.887  1.00  0.00     0.251 C 
ATOM     33  H   UNL A   1      40.566  21.180  25.174  1.00  0.00     0.163 HD
ATOM     34  O   UNL A   1      42.655  22.118  25.285  1.00  0.00    -0.269 OA
BRANCH  32  35
ATOM     35  C   UNL A   1      41.888  23.918  26.580  1.00  0.00     0.039 A 
ATOM     36  C   UNL A   1      42.565  24.103  27.786  1.00  0.00     0.014 A 
ATOM     37  C   UNL A   1      41.253  25.027  25.986  1.00  0.00     0.014 A 
ATOM     38  C   UNL A   1      42.522  25.325  28.437  1.00  0.00     0.010 A 
ATOM     39  C   UNL A   1      41.217  26.257  26.626  1.00  0.00     0.010 A 
ATOM     40  C   UNL A   1      41.805  26.380  27.879  1.00  0.00    -0.014 A 
BRANCH  40  41
ATOM     41  C   UNL A   1      41.747  27.617  28.640  1.00  0.00     0.031 A 
ATOM     42  C   UNL A   1      42.950  28.489  28.517  1.00  0.00     0.074 A 
ATOM     43  C   UNL A   1      40.649  27.976  29.333  1.00  0.00     0.049 A 
ATOM     44  N   UNL A   1      43.762  28.881  29.445  1.00  0.00    -0.248 NA
ATOM     45  C   UNL A   1      43.374  28.862  27.157  1.00  0.00     0.031 C 
ATOM     46  C   UNL A   1      39.328  27.339  29.333  1.00  0.00     0.029 A 
ATOM     47  N   UNL A   1      40.459  29.069  30.116  1.00  0.00    -0.354 N 
ATOM     48  C   UNL A   1      44.685  29.717  28.817  1.00  0.00     0.074 A 
ATOM     49  C   UNL A   1      44.493  29.545  27.400  1.00  0.00     0.031 C 
ATOM     50  C   UNL A   1      38.428  28.191  29.871  1.00  0.00     0.029 A 
ATOM     51  C   UNL A   1      39.127  29.364  30.365  1.00  0.00     0.049 A 
ATOM     52  H   UNL A   1      41.202  29.605  30.476  1.00  0.00     0.167 HD
ATOM     53  C   UNL A   1      45.403  30.650  29.501  1.00  0.00     0.037 A 
ATOM     54  C   UNL A   1      38.642  30.539  30.840  1.00  0.00     0.037 A 
ATOM     55  C   UNL A   1      45.454  30.361  30.908  1.00  0.00     0.049 A 
ATOM     56  C   UNL A   1      39.767  31.221  31.539  1.00  0.00     0.074 A 
ATOM     57  C   UNL A   1      45.936  29.302  31.654  1.00  0.00     0.029 A 
ATOM     58  N   UNL A   1      44.622  31.057  31.753  1.00  0.00    -0.354 N 
ATOM     59  N   UNL A   1      40.340  30.752  32.618  1.00  0.00    -0.248 NA
ATOM     60  C   UNL A   1      40.574  32.157  30.768  1.00  0.00     0.031 C 
ATOM     61  C   UNL A   1      44.987  29.129  32.703  1.00  0.00     0.029 A 
ATOM     62  C   UNL A   1      44.022  30.130  32.569  1.00  0.00     0.049 A 
ATOM     63  H   UNL A   1      44.484  32.031  31.769  1.00  0.00     0.167 HD
ATOM     64  C   UNL A   1      41.696  30.999  32.447  1.00  0.00     0.074 A 
ATOM     65  C   UNL A   1      41.770  31.928  31.319  1.00  0.00     0.031 C 
ATOM     66  C   UNL A   1      42.654  30.222  33.038  1.00  0.00     0.037 A 
BRANCH  53  67
ATOM     67  C   UNL A   1      45.792  31.988  28.923  1.00  0.00     0.058 A 
ATOM     68  C   UNL A   1      44.808  32.844  28.389  1.00  0.00     0.135 A 
ATOM     69  C   UNL A   1      47.130  32.343  28.637  1.00  0.00     0.135 A 
ATOM     70  F   UNL A   1      43.503  32.587  28.578  1.00  0.00    -0.206 F 
ATOM     71  C   UNL A   1      45.131  33.943  27.589  1.00  0.00     0.059 A 
ATOM     72  C   UNL A   1      47.474  33.463  27.891  1.00  0.00     0.059 A 
ATOM     73  F   UNL A   1      48.161  31.565  28.984  1.00  0.00    -0.206 F 
ATOM     74  C   UNL A   1      46.468  34.236  27.337  1.00  0.00     0.060 A 
BRANCH  74  75
ATOM     75  S   UNL A   1      46.887  35.586  26.219  1.00  0.00     0.124 S 
ATOM     76  O   UNL A   1      45.741  36.471  26.390  1.00  0.00    -0.237 OA
ATOM     77  O   UNL A   1      48.150  36.057  26.776  1.00  0.00    -0.237 OA
ATOM     78  O   UNL A   1      46.988  34.927  24.920  1.00  0.00    -0.744 OA
ENDBRANCH  74  75
ENDBRANCH  53  67
BRANCH  54  79
ATOM     79  C   UNL A   1      37.430  31.238  30.321  1.00  0.00     0.058 A 
ATOM     80  C   UNL A   1      36.273  31.404  31.101  1.00  0.00     0.135 A 
ATOM     81  C   UNL A   1      37.464  31.964  29.109  1.00  0.00     0.135 A 
ATOM     82  F   UNL A   1      36.170  30.793  32.291  1.00  0.00    -0.206 F 
ATOM     83  C   UNL A   1      35.219  32.242  30.705  1.00  0.00     0.059 A 
ATOM     84  C   UNL A   1      36.423  32.788  28.688  1.00  0.00     0.059 A 
ATOM     85  F   UNL A   1      38.552  31.962  28.326  1.00  0.00    -0.206 F 
ATOM     86  C   UNL A   1      35.309  32.937  29.499  1.00  0.00     0.060 A 
BRANCH  86  87
ATOM     87  S   UNL A   1      34.008  34.102  29.028  1.00  0.00     0.124 S 
ATOM     88  O   UNL A   1      34.779  35.215  28.486  1.00  0.00    -0.237 OA
ATOM     89  O   UNL A   1      33.238  33.327  28.059  1.00  0.00    -0.237 OA
ATOM     90  O   UNL A   1      33.323  34.376  30.288  1.00  0.00    -0.744 OA
ENDBRANCH  86  87
ENDBRANCH  54  79
BRANCH  66  91
ATOM     91  C   UNL A   1      42.234  29.197  34.065  1.00  0.00     0.058 A 
ATOM     92  C   UNL A   1      41.765  27.911  33.738  1.00  0.00     0.135 A 
ATOM     93  C   UNL A   1      42.520  29.441  35.417  1.00  0.00     0.135 A 
ATOM     94  F   UNL A   1      41.568  27.553  32.463  1.00  0.00    -0.206 F 
ATOM     95  C   UNL A   1      41.571  26.924  34.708  1.00  0.00     0.059 A 
ATOM     96  C   UNL A   1      42.363  28.463  36.398  1.00  0.00     0.059 A 
ATOM     97  F   UNL A   1      43.033  30.626  35.791  1.00  0.00    -0.206 F 
ATOM     98  C   UNL A   1      41.883  27.206  36.036  1.00  0.00     0.060 A 
BRANCH  98  99
ATOM     99  S   UNL A   1      41.739  25.890  37.266  1.00  0.00     0.124 S 
ATOM    100  O   UNL A   1      42.057  24.700  36.483  1.00  0.00    -0.237 OA
ATOM    101  O   UNL A   1      42.736  26.276  38.261  1.00  0.00    -0.237 OA
ATOM    102  O   UNL A   1      40.352  25.989  37.715  1.00  0.00    -0.744 OA
ENDBRANCH  98  99
ENDBRANCH  66  91
ENDBRANCH  40  41
ENDBRANCH  32  35
ENDBRANCH  30  31
ENDBRANCH  29  30
ENDBRANCH   1  29
TORSDOF 18
ENDMDL
MODEL 3
REMARK VINA RESULT:     -12.5      2.702      9.065
REMARK SMILES COc1ccc2c(c1)c(CC(=O)NCCCCNC(=O)c1ccc(-c3c4nc(c(-c5c(F)cc(S(=O)(=O)[O-])cc5F)c5ccc([nH]5)c(-c5c(F)cc(S(=O)(=O)[O-])cc5F)c5nc(c(-c6c(F)cc(S(=O)(=O)[O-])cc6F)c6ccc3[nH]6)C=C5)C=C4)cc1)c(C)n2C(=O)c1ccc(Cl)cc1
REMARK SMILES IDX 15 1 14 2 13 3 11 4 12 5 10 7 9 8 3 9 4 10 8 11 5 12 7 13
REMARK SMILES IDX 6 14 89 15 87 16 88 17 2 18 1 19 90 20 91 21 92 22 93 23
REMARK SMILES IDX 98 24 94 25 97 26 95 27 96 28 16 29 17 30 18 31 19 32 20 34
REMARK SMILES IDX 21 35 22 36 86 37 23 38 85 39 24 40 25 41 26 42 79 43 27 44
REMARK SMILES IDX 84 45 78 46 80 47 28 48 83 49 77 50 76 51 29 53 63 54 42 55
REMARK SMILES IDX 62 56 43 57 46 58 61 59 81 60 44 61 45 62 60 64 82 65 47 66
REMARK SMILES IDX 30 67 31 68 40 69 32 70 33 71 39 72 41 73 34 74 35 75 36 76
REMARK SMILES IDX 37 77 38 78 64 79 65 80 74 81 66 82 67 83 73 84 75 85 68 86
REMARK SMILES IDX 69 87 70 88 71 89 72 90 48 91 49 92 58 93 50 94 51 95 57 96
REMARK SMILES IDX 59 97 52 98 53 99 54 100 55 101 56 102
REMARK H PARENT 13 6 18 33 80 52 46 63
REMARK Flexibility Score: inf
ROOT
ATOM      1  C   UNL A   1      39.541  23.105  27.200  1.00  0.00     0.023 C 
ENDROOT
BRANCH   1   2
ATOM      2  C   UNL A   1      38.843  24.324  26.601  1.00  0.00     0.116 C 
BRANCH   2   3
ATOM      3  N   UNL A   1      38.256  24.046  25.308  1.00  0.00    -0.356 N 
ATOM      4  C   UNL A   1      36.997  23.589  25.038  1.00  0.00     0.224 C 
ATOM      5  O   UNL A   1      36.657  23.461  23.859  1.00  0.00    -0.275 OA
ATOM      6  H   UNL A   1      38.834  24.205  24.528  1.00  0.00     0.163 HD
BRANCH   4   7
ATOM      7  C   UNL A   1      36.021  23.322  26.177  1.00  0.00     0.138 C 
BRANCH   7   8
ATOM      8  C   UNL A   1      34.750  22.650  25.735  1.00  0.00    -0.009 A 
ATOM      9  C   UNL A   1      31.595  24.710  26.314  1.00  0.00     0.119 A 
ATOM     10  C   UNL A   1      30.704  23.762  25.840  1.00  0.00     0.048 A 
ATOM     11  C   UNL A   1      32.964  24.452  26.284  1.00  0.00     0.057 A 
ATOM     12  C   UNL A   1      31.160  22.528  25.366  1.00  0.00     0.031 A 
ATOM     13  C   UNL A   1      33.447  23.212  25.806  1.00  0.00     0.008 A 
ATOM     14  C   UNL A   1      32.545  22.263  25.317  1.00  0.00     0.057 A 
ATOM     15  N   UNL A   1      33.286  21.178  24.817  1.00  0.00    -0.280 N 
ATOM     16  C   UNL A   1      34.614  21.354  25.243  1.00  0.00     0.028 A 
ATOM     17  C   UNL A   1      35.696  20.324  25.129  1.00  0.00     0.065 C 
BRANCH   9  18
ATOM     18  O   UNL A   1      31.224  25.932  26.805  1.00  0.00    -0.497 OA
ATOM     19  C   UNL A   1      31.961  27.021  26.257  1.00  0.00     0.278 C 
ENDBRANCH   9  18
BRANCH  15  20
ATOM     20  C   UNL A   1      32.793  20.089  24.032  1.00  0.00     0.262 C 
ATOM     21  O   UNL A   1      32.209  20.319  22.988  1.00  0.00    -0.268 OA
BRANCH  20  22
ATOM     22  C   UNL A   1      32.957  18.660  24.372  1.00  0.00     0.040 A 
ATOM     23  C   UNL A   1      33.449  17.742  23.440  1.00  0.00     0.015 A 
ATOM     24  C   UNL A   1      32.572  18.248  25.654  1.00  0.00     0.015 A 
ATOM     25  C   UNL A   1      33.464  16.382  23.764  1.00  0.00     0.021 A 
ATOM     26  C   UNL A   1      32.600  16.891  25.974  1.00  0.00     0.021 A 
ATOM     27  C   UNL A   1      33.025  15.962  25.022  1.00  0.00     0.041 A 
ATOM     28  Cl  UNL A   1      32.976  14.285  25.401  1.00  0.00    -0.084 Cl
ENDBRANCH  20  22
ENDBRANCH  15  20
ENDBRANCH   7   8
ENDBRANCH   4   7
ENDBRANCH   2   3
ENDBRANCH   1   2
BRANCH   1  29
ATOM     29  C   UNL A   1      39.719  21.938  26.219  1.00  0.00     0.023 C 
BRANCH  29  30
ATOM     30  C   UNL A   1      40.904  21.027  26.543  1.00  0.00     0.116 C 
BRANCH  30  31
ATOM     31  N   UNL A   1      42.008  21.177  25.617  1.00  0.00    -0.352 N 
ATOM     32  C   UNL A   1      43.012  22.089  25.457  1.00  0.00     0.251 C 
ATOM     33  H   UNL A   1      42.042  20.455  24.948  1.00  0.00     0.163 HD
ATOM     34  O   UNL A   1      43.866  21.805  24.612  1.00  0.00    -0.269 OA
BRANCH  32  35
ATOM     35  C   UNL A   1      43.104  23.390  26.167  1.00  0.00     0.039 A 
ATOM     36  C   UNL A   1      43.603  23.575  27.457  1.00  0.00     0.014 A 
ATOM     37  C   UNL A   1      42.567  24.500  25.485  1.00  0.00     0.014 A 
ATOM     38  C   UNL A   1      43.474  24.799  28.092  1.00  0.00     0.010 A 
ATOM     39  C   UNL A   1      42.447  25.732  26.110  1.00  0.00     0.010 A 
ATOM     40  C   UNL A   1      42.850  25.856  27.434  1.00  0.00    -0.014 A 
BRANCH  40  41
ATOM     41  C   UNL A   1      42.691  27.096  28.176  1.00  0.00     0.031 A 
ATOM     42  C   UNL A   1      43.779  28.095  27.975  1.00  0.00     0.074 A 
ATOM     43  C   UNL A   1      41.595  27.344  28.920  1.00  0.00     0.049 A 
ATOM     44  N   UNL A   1      44.587  28.596  28.853  1.00  0.00    -0.248 NA
ATOM     45  C   UNL A   1      44.089  28.482  26.589  1.00  0.00     0.031 C 
ATOM     46  C   UNL A   1      40.357  26.564  29.000  1.00  0.00     0.029 A 
ATOM     47  N   UNL A   1      41.322  28.426  29.693  1.00  0.00    -0.354 N 
ATOM     48  C   UNL A   1      45.376  29.516  28.163  1.00  0.00     0.074 A 
ATOM     49  C   UNL A   1      45.134  29.292  26.761  1.00  0.00     0.031 C 
ATOM     50  C   UNL A   1      39.394  27.320  29.571  1.00  0.00     0.029 A 
ATOM     51  C   UNL A   1      39.980  28.575  30.008  1.00  0.00     0.049 A 
ATOM     52  H   UNL A   1      42.017  29.051  30.005  1.00  0.00     0.167 HD
ATOM     53  C   UNL A   1      46.018  30.539  28.792  1.00  0.00     0.037 A 
ATOM     54  C   UNL A   1      39.389  29.699  30.487  1.00  0.00     0.037 A 
ATOM     55  C   UNL A   1      46.172  30.290  30.200  1.00  0.00     0.049 A 
ATOM     56  C   UNL A   1      40.464  30.519  31.114  1.00  0.00     0.074 A 
ATOM     57  C   UNL A   1      46.809  29.309  30.936  1.00  0.00     0.029 A 
ATOM     58  N   UNL A   1      45.310  30.907  31.075  1.00  0.00    -0.354 N 
ATOM     59  N   UNL A   1      41.140  30.142  32.169  1.00  0.00    -0.248 NA
ATOM     60  C   UNL A   1      41.119  31.522  30.286  1.00  0.00     0.031 C 
ATOM     61  C   UNL A   1      45.939  29.055  32.037  1.00  0.00     0.029 A 
ATOM     62  C   UNL A   1      44.861  29.937  31.937  1.00  0.00     0.049 A 
ATOM     63  H   UNL A   1      45.063  31.860  31.081  1.00  0.00     0.167 HD
ATOM     64  C   UNL A   1      42.449  30.536  31.923  1.00  0.00     0.074 A 
ATOM     65  C   UNL A   1      42.360  31.442  30.777  1.00  0.00     0.031 C 
ATOM     66  C   UNL A   1      43.517  29.886  32.476  1.00  0.00     0.037 A 
BRANCH  53  67
ATOM     67  C   UNL A   1      46.222  31.899  28.172  1.00  0.00     0.058 A 
ATOM     68  C   UNL A   1      47.510  32.468  28.115  1.00  0.00     0.135 A 
ATOM     69  C   UNL A   1      45.155  32.776  27.870  1.00  0.00     0.135 A 
ATOM     70  F   UNL A   1      48.595  31.732  28.407  1.00  0.00    -0.206 F 
ATOM     71  C   UNL A   1      47.716  33.819  27.827  1.00  0.00     0.059 A 
ATOM     72  C   UNL A   1      45.342  34.108  27.527  1.00  0.00     0.059 A 
ATOM     73  F   UNL A   1      43.874  32.404  27.991  1.00  0.00    -0.206 F 
ATOM     74  C   UNL A   1      46.623  34.633  27.545  1.00  0.00     0.060 A 
BRANCH  74  75
ATOM     75  S   UNL A   1      46.872  36.398  27.281  1.00  0.00     0.124 S 
ATOM     76  O   UNL A   1      47.768  36.395  26.130  1.00  0.00    -0.237 OA
ATOM     77  O   UNL A   1      45.511  36.861  27.034  1.00  0.00    -0.237 OA
ATOM     78  O   UNL A   1      47.462  36.846  28.539  1.00  0.00    -0.744 OA
ENDBRANCH  74  75
ENDBRANCH  53  67
BRANCH  54  79
ATOM     79  C   UNL A   1      38.081  30.245  30.022  1.00  0.00     0.058 A 
ATOM     80  C   UNL A   1      37.147  30.805  30.909  1.00  0.00     0.135 A 
ATOM     81  C   UNL A   1      37.812  30.434  28.647  1.00  0.00     0.135 A 
ATOM     82  F   UNL A   1      37.342  30.718  32.234  1.00  0.00    -0.206 F 
ATOM     83  C   UNL A   1      36.021  31.512  30.461  1.00  0.00     0.059 A 
ATOM     84  C   UNL A   1      36.693  31.118  28.179  1.00  0.00     0.059 A 
ATOM     85  F   UNL A   1      38.677  30.030  27.706  1.00  0.00    -0.206 F 
ATOM     86  C   UNL A   1      35.808  31.670  29.091  1.00  0.00     0.060 A 
BRANCH  86  87
ATOM     87  S   UNL A   1      34.420  32.669  28.502  1.00  0.00     0.124 S 
ATOM     88  O   UNL A   1      33.548  31.659  27.913  1.00  0.00    -0.237 OA
ATOM     89  O   UNL A   1      33.941  33.286  29.735  1.00  0.00    -0.237 OA
ATOM     90  O   UNL A   1      35.040  33.586  27.549  1.00  0.00    -0.744 OA
ENDBRANCH  86  87
ENDBRANCH  54  79
BRANCH  66  91
ATOM     91  C   UNL A   1      43.268  28.843  33.541  1.00  0.00     0.058 A 
ATOM     92  C   UNL A   1      43.010  29.151  34.890  1.00  0.00     0.135 A 
ATOM     93  C   UNL A   1      43.066  27.513  33.146  1.00  0.00     0.135 A 
ATOM     94  F   UNL A   1      43.072  30.413  35.333  1.00  0.00    -0.206 F 
ATOM     95  C   UNL A   1      42.595  28.181  35.805  1.00  0.00     0.059 A 
ATOM     96  C   UNL A   1      42.622  26.534  34.034  1.00  0.00     0.059 A 
ATOM     97  F   UNL A   1      43.229  27.162  31.859  1.00  0.00    -0.206 F 
ATOM     98  C   UNL A   1      42.392  26.875  35.366  1.00  0.00     0.060 A 
BRANCH  98  99
ATOM     99  S   UNL A   1      41.743  25.653  36.527  1.00  0.00     0.124 S 
ATOM    100  O   UNL A   1      42.694  24.555  36.384  1.00  0.00    -0.237 OA
ATOM    101  O   UNL A   1      41.791  26.368  37.800  1.00  0.00    -0.237 OA
ATOM    102  O   UNL A   1      40.398  25.382  36.025  1.00  0.00    -0.744 OA
ENDBRANCH  98  99
ENDBRANCH  66  91
ENDBRANCH  40  41
ENDBRANCH  32  35
ENDBRANCH  30  31
ENDBRANCH  29  30
ENDBRANCH   1  29
TORSDOF 18
ENDMDL
