MODEL 1
REMARK VINA RESULT:     -12.0      0.000      0.000
REMARK SMILES Cc1c(Br)c(C)c2c(c1Br)O[C@H](C(F)(F)F)C(C(=O)NCCCCNC(=O)c1ccc(-c3c4nc(c(-c5c(F)cc(S(=O)(=O)[O-])cc5F)c5ccc([nH]5)c(-c5c(F)cc(S(=O)(=O)[O-])cc5F)c5nc(c(-c6c(F)cc(S(=O)(=O)[O-])cc6F)c6ccc3[nH]6)C=C5)C=C4)cc1)=C2
REMARK SMILES IDX 23 1 22 2 21 3 20 4 18 5 19 6 17 8 1 9 2 10 3 11 9 12 4 13
REMARK SMILES IDX 5 14 8 15 10 16 6 17 7 18 11 19 94 20 12 21 13 22 14 23
REMARK SMILES IDX 15 24 16 25 24 26 25 27 26 28 27 30 28 31 29 32 93 33 30 34
REMARK SMILES IDX 92 35 31 36 32 37 33 38 86 39 34 40 91 41 85 42 87 43 35 44
REMARK SMILES IDX 90 45 84 46 83 47 36 49 70 50 49 51 69 52 50 53 53 54 68 55
REMARK SMILES IDX 88 56 51 57 52 58 67 60 89 61 54 62 37 63 38 64 47 65 39 66
REMARK SMILES IDX 40 67 46 68 48 69 41 70 42 71 43 72 44 73 45 74 71 75 72 76
REMARK SMILES IDX 81 77 73 78 74 79 80 80 82 81 75 82 76 83 77 84 78 85 79 86
REMARK SMILES IDX 55 87 56 88 65 89 57 90 58 91 64 92 66 93 59 94 60 95 61 96
REMARK SMILES IDX 62 97 63 98
REMARK H PARENT 20 7 25 29 87 48 53 59
REMARK Flexibility Score: inf
ROOT
ATOM      1  C   UNL A   1      33.727  28.706  25.306  1.00  0.00     0.023 C 
ENDROOT
BRANCH   1   2
ATOM      2  C   UNL A   1      33.756  27.358  24.582  1.00  0.00     0.023 C 
BRANCH   2   3
ATOM      3  C   UNL A   1      32.381  26.843  24.165  1.00  0.00     0.116 C 
BRANCH   3   4
ATOM      4  N   UNL A   1      31.653  26.273  25.285  1.00  0.00    -0.352 N 
ATOM      5  C   UNL A   1      31.609  25.085  25.929  1.00  0.00     0.251 C 
ATOM      6  O   UNL A   1      30.806  25.022  26.866  1.00  0.00    -0.270 OA
ATOM      7  H   UNL A   1      31.026  26.923  25.678  1.00  0.00     0.163 HD
BRANCH   5   8
ATOM      8  C   UNL A   1      32.443  23.891  25.598  1.00  0.00     0.067 C 
ATOM      9  C   UNL A   1      37.148  19.383  24.837  1.00  0.00     0.047 C 
ATOM     10  C   UNL A   1      36.308  20.608  25.114  1.00  0.00    -0.019 A 
ATOM     11  C   UNL A   1      36.866  21.826  25.576  1.00  0.00     0.025 A 
ATOM     12  C   UNL A   1      34.908  20.537  24.964  1.00  0.00     0.064 A 
ATOM     13  Br  UNL A   1      38.751  21.917  25.933  1.00  0.00    -0.050 Br
ATOM     14  C   UNL A   1      36.056  22.969  25.820  1.00  0.00    -0.026 A 
ATOM     15  C   UNL A   1      34.096  21.650  25.225  1.00  0.00     0.142 A 
ATOM     16  Br  UNL A   1      34.058  18.908  24.416  1.00  0.00    -0.046 Br
ATOM     17  C   UNL A   1      36.638  24.289  26.280  1.00  0.00     0.046 C 
ATOM     18  C   UNL A   1      34.654  22.859  25.659  1.00  0.00     0.022 A 
ATOM     19  O   UNL A   1      32.741  21.492  25.097  1.00  0.00    -0.474 OA
ATOM     20  C   UNL A   1      33.731  23.955  25.982  1.00  0.00     0.026 C 
ATOM     21  C   UNL A   1      31.954  22.688  24.857  1.00  0.00     0.314 C 
BRANCH  21  22
ATOM     22  C   UNL A   1      31.819  22.929  23.343  1.00  0.00     0.429 C 
ATOM     23  F   UNL A   1      30.640  23.537  23.060  1.00  0.00    -0.167 F 
ATOM     24  F   UNL A   1      32.792  23.735  22.858  1.00  0.00    -0.167 F 
ATOM     25  F   UNL A   1      31.864  21.782  22.628  1.00  0.00    -0.167 F 
ENDBRANCH  21  22
ENDBRANCH   5   8
ENDBRANCH   3   4
ENDBRANCH   2   3
ENDBRANCH   1   2
BRANCH   1  26
ATOM     26  C   UNL A   1      33.919  28.644  26.820  1.00  0.00     0.116 C 
BRANCH  26  27
ATOM     27  N   UNL A   1      33.802  29.935  27.483  1.00  0.00    -0.352 N 
ATOM     28  C   UNL A   1      34.760  30.593  28.220  1.00  0.00     0.251 C 
ATOM     29  H   UNL A   1      32.934  30.391  27.394  1.00  0.00     0.163 HD
ATOM     30  O   UNL A   1      34.503  31.654  28.779  1.00  0.00    -0.269 OA
BRANCH  28  31
ATOM     31  C   UNL A   1      36.086  29.966  28.360  1.00  0.00     0.039 A 
ATOM     32  C   UNL A   1      36.981  30.047  27.293  1.00  0.00     0.014 A 
ATOM     33  C   UNL A   1      36.467  29.397  29.579  1.00  0.00     0.014 A 
ATOM     34  C   UNL A   1      38.297  29.625  27.476  1.00  0.00     0.010 A 
ATOM     35  C   UNL A   1      37.793  29.032  29.776  1.00  0.00     0.010 A 
ATOM     36  C   UNL A   1      38.721  29.153  28.731  1.00  0.00    -0.014 A 
BRANCH  36  37
ATOM     37  C   UNL A   1      40.140  28.797  28.963  1.00  0.00     0.031 A 
ATOM     38  C   UNL A   1      41.069  29.790  29.597  1.00  0.00     0.074 A 
ATOM     39  C   UNL A   1      40.595  27.592  28.565  1.00  0.00     0.049 A 
ATOM     40  N   UNL A   1      42.341  29.669  29.869  1.00  0.00    -0.248 NA
ATOM     41  C   UNL A   1      40.499  31.100  29.951  1.00  0.00     0.031 C 
ATOM     42  C   UNL A   1      39.796  26.564  27.893  1.00  0.00     0.029 A 
ATOM     43  N   UNL A   1      41.840  27.026  28.672  1.00  0.00    -0.354 N 
ATOM     44  C   UNL A   1      42.725  30.883  30.424  1.00  0.00     0.074 A 
ATOM     45  C   UNL A   1      41.566  31.747  30.396  1.00  0.00     0.031 C 
ATOM     46  C   UNL A   1      40.560  25.480  27.685  1.00  0.00     0.029 A 
ATOM     47  C   UNL A   1      41.906  25.742  28.184  1.00  0.00     0.049 A 
ATOM     48  H   UNL A   1      42.614  27.494  29.060  1.00  0.00     0.167 HD
ATOM     49  C   UNL A   1      43.925  31.233  30.941  1.00  0.00     0.037 A 
ATOM     50  C   UNL A   1      42.933  24.872  28.156  1.00  0.00     0.037 A 
ATOM     51  C   UNL A   1      45.066  30.360  30.994  1.00  0.00     0.049 A 
ATOM     52  C   UNL A   1      44.260  25.285  28.732  1.00  0.00     0.074 A 
ATOM     53  C   UNL A   1      46.312  30.603  31.541  1.00  0.00     0.029 A 
ATOM     54  N   UNL A   1      45.095  29.071  30.482  1.00  0.00    -0.354 N 
ATOM     55  N   UNL A   1      44.591  26.419  29.300  1.00  0.00    -0.248 NA
ATOM     56  C   UNL A   1      45.351  24.303  28.663  1.00  0.00     0.031 C 
ATOM     57  C   UNL A   1      47.104  29.468  31.341  1.00  0.00     0.029 A 
ATOM     58  C   UNL A   1      46.342  28.508  30.691  1.00  0.00     0.049 A 
ATOM     59  H   UNL A   1      44.340  28.622  30.038  1.00  0.00     0.167 HD
ATOM     60  C   UNL A   1      45.922  26.284  29.670  1.00  0.00     0.074 A 
ATOM     61  C   UNL A   1      46.336  24.954  29.270  1.00  0.00     0.031 C 
ATOM     62  C   UNL A   1      46.730  27.181  30.286  1.00  0.00     0.037 A 
BRANCH  49  63
ATOM     63  C   UNL A   1      44.048  32.615  31.513  1.00  0.00     0.058 A 
ATOM     64  C   UNL A   1      44.467  33.694  30.720  1.00  0.00     0.135 A 
ATOM     65  C   UNL A   1      43.743  32.867  32.859  1.00  0.00     0.135 A 
ATOM     66  F   UNL A   1      44.790  33.500  29.430  1.00  0.00    -0.206 F 
ATOM     67  C   UNL A   1      44.607  34.972  31.248  1.00  0.00     0.059 A 
ATOM     68  C   UNL A   1      43.855  34.143  33.404  1.00  0.00     0.059 A 
ATOM     69  F   UNL A   1      43.342  31.867  33.661  1.00  0.00    -0.206 F 
ATOM     70  C   UNL A   1      44.304  35.185  32.593  1.00  0.00     0.060 A 
BRANCH  70  71
ATOM     71  S   UNL A   1      44.505  36.848  33.268  1.00  0.00     0.124 S 
ATOM     72  O   UNL A   1      43.311  37.513  32.757  1.00  0.00    -0.237 OA
ATOM     73  O   UNL A   1      44.525  36.601  34.706  1.00  0.00    -0.237 OA
ATOM     74  O   UNL A   1      45.769  37.296  32.694  1.00  0.00    -0.744 OA
ENDBRANCH  70  71
ENDBRANCH  49  63
BRANCH  50  75
ATOM     75  C   UNL A   1      42.730  23.507  27.609  1.00  0.00     0.058 A 
ATOM     76  C   UNL A   1      42.908  23.253  26.241  1.00  0.00     0.135 A 
ATOM     77  C   UNL A   1      42.391  22.428  28.439  1.00  0.00     0.135 A 
ATOM     78  F   UNL A   1      43.229  24.256  25.411  1.00  0.00    -0.206 F 
ATOM     79  C   UNL A   1      42.755  21.977  25.712  1.00  0.00     0.059 A 
ATOM     80  C   UNL A   1      42.248  21.138  27.934  1.00  0.00     0.059 A 
ATOM     81  F   UNL A   1      42.225  22.619  29.757  1.00  0.00    -0.206 F 
ATOM     82  C   UNL A   1      42.427  20.924  26.568  1.00  0.00     0.060 A 
BRANCH  82  83
ATOM     83  S   UNL A   1      42.295  19.258  25.880  1.00  0.00     0.124 S 
ATOM     84  O   UNL A   1      42.857  18.451  26.957  1.00  0.00    -0.237 OA
ATOM     85  O   UNL A   1      40.856  19.128  25.668  1.00  0.00    -0.237 OA
ATOM     86  O   UNL A   1      43.094  19.335  24.662  1.00  0.00    -0.744 OA
ENDBRANCH  82  83
ENDBRANCH  50  75
BRANCH  62  87
ATOM     87  C   UNL A   1      48.142  26.764  30.571  1.00  0.00     0.058 A 
ATOM     88  C   UNL A   1      49.186  27.091  29.694  1.00  0.00     0.135 A 
ATOM     89  C   UNL A   1      48.467  26.126  31.778  1.00  0.00     0.135 A 
ATOM     90  F   UNL A   1      48.922  27.694  28.525  1.00  0.00    -0.206 F 
ATOM     91  C   UNL A   1      50.510  26.805  30.006  1.00  0.00     0.059 A 
ATOM     92  C   UNL A   1      49.787  25.845  32.119  1.00  0.00     0.059 A 
ATOM     93  F   UNL A   1      47.501  25.799  32.651  1.00  0.00    -0.206 F 
ATOM     94  C   UNL A   1      50.801  26.190  31.227  1.00  0.00     0.060 A 
BRANCH  94  95
ATOM     95  S   UNL A   1      52.531  25.899  31.656  1.00  0.00     0.124 S 
ATOM     96  O   UNL A   1      52.488  24.520  32.132  1.00  0.00    -0.237 OA
ATOM     97  O   UNL A   1      53.209  26.108  30.381  1.00  0.00    -0.237 OA
ATOM     98  O   UNL A   1      52.801  26.908  32.676  1.00  0.00    -0.744 OA
ENDBRANCH  94  95
ENDBRANCH  62  87
ENDBRANCH  36  37
ENDBRANCH  28  31
ENDBRANCH  26  27
ENDBRANCH   1  26
TORSDOF 15
ENDMDL
MODEL 2
REMARK VINA RESULT:     -11.8      3.465      9.518
REMARK SMILES Cc1c(Br)c(C)c2c(c1Br)O[C@H](C(F)(F)F)C(C(=O)NCCCCNC(=O)c1ccc(-c3c4nc(c(-c5c(F)cc(S(=O)(=O)[O-])cc5F)c5ccc([nH]5)c(-c5c(F)cc(S(=O)(=O)[O-])cc5F)c5nc(c(-c6c(F)cc(S(=O)(=O)[O-])cc6F)c6ccc3[nH]6)C=C5)C=C4)cc1)=C2
REMARK SMILES IDX 23 1 22 2 21 3 20 4 18 5 19 6 17 8 1 9 2 10 3 11 9 12 4 13
REMARK SMILES IDX 5 14 8 15 10 16 6 17 7 18 11 19 94 20 12 21 13 22 14 23
REMARK SMILES IDX 15 24 16 25 24 26 25 27 26 28 27 30 28 31 29 32 93 33 30 34
REMARK SMILES IDX 92 35 31 36 32 37 33 38 86 39 34 40 91 41 85 42 87 43 35 44
REMARK SMILES IDX 90 45 84 46 83 47 36 49 70 50 49 51 69 52 50 53 53 54 68 55
REMARK SMILES IDX 88 56 51 57 52 58 67 60 89 61 54 62 37 63 38 64 47 65 39 66
REMARK SMILES IDX 40 67 46 68 48 69 41 70 42 71 43 72 44 73 45 74 71 75 72 76
REMARK SMILES IDX 81 77 73 78 74 79 80 80 82 81 75 82 76 83 77 84 78 85 79 86
REMARK SMILES IDX 55 87 56 88 65 89 57 90 58 91 64 92 66 93 59 94 60 95 61 96
REMARK SMILES IDX 62 97 63 98
REMARK H PARENT 20 7 25 29 87 48 53 59
REMARK Flexibility Score: inf
ROOT
ATOM      1  C   UNL A   1      35.819  23.214  26.122  1.00  0.00     0.023 C 
ENDROOT
BRANCH   1   2
ATOM      2  C   UNL A   1      34.542  24.033  25.913  1.00  0.00     0.023 C 
BRANCH   2   3
ATOM      3  C   UNL A   1      33.498  23.348  25.036  1.00  0.00     0.116 C 
BRANCH   3   4
ATOM      4  N   UNL A   1      33.645  23.708  23.637  1.00  0.00    -0.352 N 
ATOM      5  C   UNL A   1      33.329  24.764  22.853  1.00  0.00     0.251 C 
ATOM      6  O   UNL A   1      33.639  24.649  21.663  1.00  0.00    -0.270 OA
ATOM      7  H   UNL A   1      34.092  22.996  23.125  1.00  0.00     0.163 HD
BRANCH   5   8
ATOM      8  C   UNL A   1      32.661  26.016  23.318  1.00  0.00     0.067 C 
ATOM      9  C   UNL A   1      30.983  31.741  26.050  1.00  0.00     0.047 C 
ATOM     10  C   UNL A   1      31.625  30.443  25.618  1.00  0.00    -0.019 A 
ATOM     11  C   UNL A   1      32.824  29.956  26.195  1.00  0.00     0.025 A 
ATOM     12  C   UNL A   1      31.050  29.702  24.565  1.00  0.00     0.064 A 
ATOM     13  Br  UNL A   1      33.716  31.011  27.530  1.00  0.00    -0.050 Br
ATOM     14  C   UNL A   1      33.404  28.727  25.779  1.00  0.00    -0.026 A 
ATOM     15  C   UNL A   1      31.626  28.500  24.130  1.00  0.00     0.142 A 
ATOM     16  Br  UNL A   1      29.469  30.321  23.674  1.00  0.00    -0.046 Br
ATOM     17  C   UNL A   1      34.666  28.174  26.408  1.00  0.00     0.046 C 
ATOM     18  C   UNL A   1      32.799  28.011  24.719  1.00  0.00     0.022 A 
ATOM     19  O   UNL A   1      31.034  27.857  23.074  1.00  0.00    -0.474 OA
ATOM     20  C   UNL A   1      33.380  26.784  24.157  1.00  0.00     0.026 C 
ATOM     21  C   UNL A   1      31.273  26.432  22.947  1.00  0.00     0.314 C 
BRANCH  21  22
ATOM     22  C   UNL A   1      30.188  25.650  23.709  1.00  0.00     0.429 C 
ATOM     23  F   UNL A   1      30.058  24.398  23.203  1.00  0.00    -0.167 F 
ATOM     24  F   UNL A   1      30.482  25.505  25.023  1.00  0.00    -0.167 F 
ATOM     25  F   UNL A   1      28.975  26.243  23.639  1.00  0.00    -0.167 F 
ENDBRANCH  21  22
ENDBRANCH   5   8
ENDBRANCH   3   4
ENDBRANCH   2   3
ENDBRANCH   1   2
BRANCH   1  26
ATOM     26  C   UNL A   1      37.050  23.709  25.365  1.00  0.00     0.116 C 
BRANCH  26  27
ATOM     27  N   UNL A   1      38.214  22.844  25.503  1.00  0.00    -0.352 N 
ATOM     28  C   UNL A   1      39.386  23.112  26.172  1.00  0.00     0.251 C 
ATOM     29  H   UNL A   1      38.156  21.965  25.065  1.00  0.00     0.163 HD
ATOM     30  O   UNL A   1      40.316  22.313  26.154  1.00  0.00    -0.269 OA
BRANCH  28  31
ATOM     31  C   UNL A   1      39.513  24.405  26.868  1.00  0.00     0.039 A 
ATOM     32  C   UNL A   1      38.988  24.527  28.155  1.00  0.00     0.014 A 
ATOM     33  C   UNL A   1      40.240  25.447  26.285  1.00  0.00     0.014 A 
ATOM     34  C   UNL A   1      39.262  25.676  28.895  1.00  0.00     0.010 A 
ATOM     35  C   UNL A   1      40.561  26.564  27.046  1.00  0.00     0.010 A 
ATOM     36  C   UNL A   1      40.084  26.683  28.360  1.00  0.00    -0.014 A 
BRANCH  36  37
ATOM     37  C   UNL A   1      40.462  27.861  29.175  1.00  0.00     0.031 A 
ATOM     38  C   UNL A   1      41.797  27.901  29.860  1.00  0.00     0.074 A 
ATOM     39  C   UNL A   1      39.584  28.872  29.327  1.00  0.00     0.049 A 
ATOM     40  N   UNL A   1      42.301  28.835  30.623  1.00  0.00    -0.248 NA
ATOM     41  C   UNL A   1      42.670  26.730  29.683  1.00  0.00     0.031 C 
ATOM     42  C   UNL A   1      38.238  28.920  28.750  1.00  0.00     0.029 A 
ATOM     43  N   UNL A   1      39.694  30.057  30.010  1.00  0.00    -0.354 N 
ATOM     44  C   UNL A   1      43.548  28.366  31.017  1.00  0.00     0.074 A 
ATOM     45  C   UNL A   1      43.699  27.040  30.458  1.00  0.00     0.031 C 
ATOM     46  C   UNL A   1      37.665  30.091  29.069  1.00  0.00     0.029 A 
ATOM     47  C   UNL A   1      38.588  30.866  29.892  1.00  0.00     0.049 A 
ATOM     48  H   UNL A   1      40.489  30.306  30.535  1.00  0.00     0.167 HD
ATOM     49  C   UNL A   1      44.493  28.995  31.751  1.00  0.00     0.037 A 
ATOM     50  C   UNL A   1      38.353  32.098  30.382  1.00  0.00     0.037 A 
ATOM     51  C   UNL A   1      44.350  30.325  32.280  1.00  0.00     0.049 A 
ATOM     52  C   UNL A   1      39.418  32.778  31.198  1.00  0.00     0.074 A 
ATOM     53  C   UNL A   1      45.270  31.071  32.995  1.00  0.00     0.029 A 
ATOM     54  N   UNL A   1      43.213  31.108  32.145  1.00  0.00    -0.354 N 
ATOM     55  N   UNL A   1      40.611  32.340  31.519  1.00  0.00    -0.248 NA
ATOM     56  C   UNL A   1      39.105  34.115  31.721  1.00  0.00     0.031 C 
ATOM     57  C   UNL A   1      44.680  32.299  33.312  1.00  0.00     0.029 A 
ATOM     58  C   UNL A   1      43.402  32.327  32.774  1.00  0.00     0.049 A 
ATOM     59  H   UNL A   1      42.394  30.837  31.673  1.00  0.00     0.167 HD
ATOM     60  C   UNL A   1      41.198  33.352  32.267  1.00  0.00     0.074 A 
ATOM     61  C   UNL A   1      40.233  34.429  32.346  1.00  0.00     0.031 C 
ATOM     62  C   UNL A   1      42.427  33.385  32.837  1.00  0.00     0.037 A 
BRANCH  49  63
ATOM     63  C   UNL A   1      45.776  28.256  31.997  1.00  0.00     0.058 A 
ATOM     64  C   UNL A   1      45.947  27.461  33.141  1.00  0.00     0.135 A 
ATOM     65  C   UNL A   1      46.839  28.336  31.086  1.00  0.00     0.135 A 
ATOM     66  F   UNL A   1      44.965  27.369  34.053  1.00  0.00    -0.206 F 
ATOM     67  C   UNL A   1      47.140  26.793  33.389  1.00  0.00     0.059 A 
ATOM     68  C   UNL A   1      48.036  27.658  31.303  1.00  0.00     0.059 A 
ATOM     69  F   UNL A   1      46.727  29.087  29.979  1.00  0.00    -0.206 F 
ATOM     70  C   UNL A   1      48.180  26.902  32.466  1.00  0.00     0.060 A 
BRANCH  70  71
ATOM     71  S   UNL A   1      49.729  26.039  32.809  1.00  0.00     0.124 S 
ATOM     72  O   UNL A   1      50.096  26.607  34.103  1.00  0.00    -0.237 OA
ATOM     73  O   UNL A   1      49.313  24.641  32.827  1.00  0.00    -0.237 OA
ATOM     74  O   UNL A   1      50.585  26.421  31.690  1.00  0.00    -0.744 OA
ENDBRANCH  70  71
ENDBRANCH  49  63
BRANCH  50  75
ATOM     75  C   UNL A   1      37.076  32.787  30.067  1.00  0.00     0.058 A 
ATOM     76  C   UNL A   1      35.950  32.608  30.882  1.00  0.00     0.135 A 
ATOM     77  C   UNL A   1      36.964  33.659  28.974  1.00  0.00     0.135 A 
ATOM     78  F   UNL A   1      36.011  31.780  31.936  1.00  0.00    -0.206 F 
ATOM     79  C   UNL A   1      34.753  33.268  30.625  1.00  0.00     0.059 A 
ATOM     80  C   UNL A   1      35.782  34.343  28.705  1.00  0.00     0.059 A 
ATOM     81  F   UNL A   1      38.020  33.873  28.173  1.00  0.00    -0.206 F 
ATOM     82  C   UNL A   1      34.680  34.137  29.535  1.00  0.00     0.060 A 
BRANCH  82  83
ATOM     83  S   UNL A   1      33.141  35.038  29.249  1.00  0.00     0.124 S 
ATOM     84  O   UNL A   1      33.639  36.344  28.833  1.00  0.00    -0.237 OA
ATOM     85  O   UNL A   1      32.504  34.236  28.208  1.00  0.00    -0.237 OA
ATOM     86  O   UNL A   1      32.482  34.996  30.550  1.00  0.00    -0.744 OA
ENDBRANCH  82  83
ENDBRANCH  50  75
BRANCH  62  87
ATOM     87  C   UNL A   1      42.808  34.621  33.596  1.00  0.00     0.058 A 
ATOM     88  C   UNL A   1      42.643  34.698  34.986  1.00  0.00     0.135 A 
ATOM     89  C   UNL A   1      43.437  35.693  32.944  1.00  0.00     0.135 A 
ATOM     90  F   UNL A   1      42.039  33.700  35.651  1.00  0.00    -0.206 F 
ATOM     91  C   UNL A   1      43.096  35.795  35.710  1.00  0.00     0.059 A 
ATOM     92  C   UNL A   1      43.913  36.794  33.650  1.00  0.00     0.059 A 
ATOM     93  F   UNL A   1      43.621  35.662  31.615  1.00  0.00    -0.206 F 
ATOM     94  C   UNL A   1      43.738  36.835  35.033  1.00  0.00     0.060 A 
BRANCH  94  95
ATOM     95  S   UNL A   1      44.394  38.216  35.994  1.00  0.00     0.124 S 
ATOM     96  O   UNL A   1      43.717  38.031  37.274  1.00  0.00    -0.237 OA
ATOM     97  O   UNL A   1      45.828  37.947  35.990  1.00  0.00    -0.237 OA
ATOM     98  O   UNL A   1      43.979  39.388  35.228  1.00  0.00    -0.744 OA
ENDBRANCH  94  95
ENDBRANCH  62  87
ENDBRANCH  36  37
ENDBRANCH  28  31
ENDBRANCH  26  27
ENDBRANCH   1  26
TORSDOF 15
ENDMDL
MODEL 3
REMARK VINA RESULT:     -11.5      2.512      3.294
REMARK SMILES Cc1c(Br)c(C)c2c(c1Br)O[C@H](C(F)(F)F)C(C(=O)NCCCCNC(=O)c1ccc(-c3c4nc(c(-c5c(F)cc(S(=O)(=O)[O-])cc5F)c5ccc([nH]5)c(-c5c(F)cc(S(=O)(=O)[O-])cc5F)c5nc(c(-c6c(F)cc(S(=O)(=O)[O-])cc6F)c6ccc3[nH]6)C=C5)C=C4)cc1)=C2
REMARK SMILES IDX 23 1 22 2 21 3 20 4 18 5 19 6 17 8 1 9 2 10 3 11 9 12 4 13
REMARK SMILES IDX 5 14 8 15 10 16 6 17 7 18 11 19 94 20 12 21 13 22 14 23
REMARK SMILES IDX 15 24 16 25 24 26 25 27 26 28 27 30 28 31 29 32 93 33 30 34
REMARK SMILES IDX 92 35 31 36 32 37 33 38 86 39 34 40 91 41 85 42 87 43 35 44
REMARK SMILES IDX 90 45 84 46 83 47 36 49 70 50 49 51 69 52 50 53 53 54 68 55
REMARK SMILES IDX 88 56 51 57 52 58 67 60 89 61 54 62 37 63 38 64 47 65 39 66
REMARK SMILES IDX 40 67 46 68 48 69 41 70 42 71 43 72 44 73 45 74 71 75 72 76
REMARK SMILES IDX 81 77 73 78 74 79 80 80 82 81 75 82 76 83 77 84 78 85 79 86
REMARK SMILES IDX 55 87 56 88 65 89 57 90 58 91 64 92 66 93 59 94 60 95 61 96
REMARK SMILES IDX 62 97 63 98
REMARK H PARENT 20 7 25 29 87 48 53 59
REMARK Flexibility Score: inf
ROOT
ATOM      1  C   UNL A   1      33.727  29.043  27.047  1.00  0.00     0.023 C 
ENDROOT
BRANCH   1   2
ATOM      2  C   UNL A   1      33.597  28.772  25.546  1.00  0.00     0.023 C 
BRANCH   2   3
ATOM      3  C   UNL A   1      33.405  27.300  25.191  1.00  0.00     0.116 C 
BRANCH   3   4
ATOM      4  N   UNL A   1      32.280  26.714  25.899  1.00  0.00    -0.352 N 
ATOM      5  C   UNL A   1      31.847  25.469  26.200  1.00  0.00     0.251 C 
ATOM      6  O   UNL A   1      30.791  25.419  26.840  1.00  0.00    -0.270 OA
ATOM      7  H   UNL A   1      31.675  27.405  26.253  1.00  0.00     0.163 HD
BRANCH   5   8
ATOM      8  C   UNL A   1      32.539  24.199  25.829  1.00  0.00     0.067 C 
ATOM      9  C   UNL A   1      36.739  19.267  24.790  1.00  0.00     0.047 C 
ATOM     10  C   UNL A   1      36.039  20.568  25.107  1.00  0.00    -0.019 A 
ATOM     11  C   UNL A   1      36.740  21.736  25.498  1.00  0.00     0.025 A 
ATOM     12  C   UNL A   1      34.631  20.623  25.071  1.00  0.00     0.064 A 
ATOM     13  Br  UNL A   1      38.648  21.657  25.702  1.00  0.00    -0.050 Br
ATOM     14  C   UNL A   1      36.060  22.951  25.782  1.00  0.00    -0.026 A 
ATOM     15  C   UNL A   1      33.947  21.810  25.372  1.00  0.00     0.142 A 
ATOM     16  Br  UNL A   1      33.594  19.072  24.626  1.00  0.00    -0.046 Br
ATOM     17  C   UNL A   1      36.795  24.218  26.167  1.00  0.00     0.046 C 
ATOM     18  C   UNL A   1      34.646  22.969  25.735  1.00  0.00     0.022 A 
ATOM     19  O   UNL A   1      32.577  21.776  25.356  1.00  0.00    -0.474 OA
ATOM     20  C   UNL A   1      33.854  24.149  26.108  1.00  0.00     0.026 C 
ATOM     21  C   UNL A   1      31.885  23.036  25.155  1.00  0.00     0.314 C 
BRANCH  21  22
ATOM     22  C   UNL A   1      31.650  23.268  23.651  1.00  0.00     0.429 C 
ATOM     23  F   UNL A   1      31.912  22.138  22.948  1.00  0.00    -0.167 F 
ATOM     24  F   UNL A   1      30.368  23.603  23.374  1.00  0.00    -0.167 F 
ATOM     25  F   UNL A   1      32.433  24.248  23.148  1.00  0.00    -0.167 F 
ENDBRANCH  21  22
ENDBRANCH   5   8
ENDBRANCH   3   4
ENDBRANCH   2   3
ENDBRANCH   1   2
BRANCH   1  26
ATOM     26  C   UNL A   1      35.144  29.314  27.547  1.00  0.00     0.116 C 
BRANCH  26  27
ATOM     27  N   UNL A   1      35.197  30.084  28.783  1.00  0.00    -0.352 N 
ATOM     28  C   UNL A   1      36.278  30.271  29.612  1.00  0.00     0.251 C 
ATOM     29  H   UNL A   1      34.359  30.520  29.057  1.00  0.00     0.163 HD
ATOM     30  O   UNL A   1      36.164  30.894  30.661  1.00  0.00    -0.269 OA
BRANCH  28  31
ATOM     31  C   UNL A   1      37.564  29.660  29.231  1.00  0.00     0.039 A 
ATOM     32  C   UNL A   1      37.955  29.703  27.892  1.00  0.00     0.014 A 
ATOM     33  C   UNL A   1      38.415  29.146  30.214  1.00  0.00     0.014 A 
ATOM     34  C   UNL A   1      39.244  29.300  27.547  1.00  0.00     0.010 A 
ATOM     35  C   UNL A   1      39.718  28.800  29.876  1.00  0.00     0.010 A 
ATOM     36  C   UNL A   1      40.147  28.884  28.543  1.00  0.00    -0.014 A 
BRANCH  36  37
ATOM     37  C   UNL A   1      41.548  28.548  28.199  1.00  0.00     0.031 A 
ATOM     38  C   UNL A   1      42.602  29.615  28.227  1.00  0.00     0.074 A 
ATOM     39  C   UNL A   1      41.856  27.291  27.824  1.00  0.00     0.049 A 
ATOM     40  N   UNL A   1      43.876  29.520  27.948  1.00  0.00    -0.248 NA
ATOM     41  C   UNL A   1      42.166  30.972  28.596  1.00  0.00     0.031 C 
ATOM     42  C   UNL A   1      40.904  26.183  27.712  1.00  0.00     0.029 A 
ATOM     43  N   UNL A   1      43.058  26.732  27.472  1.00  0.00    -0.354 N 
ATOM     44  C   UNL A   1      44.392  30.799  28.105  1.00  0.00     0.074 A 
ATOM     45  C   UNL A   1      43.285  31.665  28.447  1.00  0.00     0.031 C 
ATOM     46  C   UNL A   1      41.566  25.069  27.358  1.00  0.00     0.029 A 
ATOM     47  C   UNL A   1      42.981  25.387  27.194  1.00  0.00     0.049 A 
ATOM     48  H   UNL A   1      43.897  27.244  27.423  1.00  0.00     0.167 HD
ATOM     49  C   UNL A   1      45.677  31.209  28.006  1.00  0.00     0.037 A 
ATOM     50  C   UNL A   1      43.945  24.509  26.859  1.00  0.00     0.037 A 
ATOM     51  C   UNL A   1      46.779  30.339  27.695  1.00  0.00     0.049 A 
ATOM     52  C   UNL A   1      45.366  24.988  26.751  1.00  0.00     0.074 A 
ATOM     53  C   UNL A   1      48.125  30.647  27.618  1.00  0.00     0.029 A 
ATOM     54  N   UNL A   1      46.659  28.987  27.412  1.00  0.00    -0.354 N 
ATOM     55  N   UNL A   1      45.845  26.192  26.953  1.00  0.00    -0.248 NA
ATOM     56  C   UNL A   1      46.378  23.993  26.367  1.00  0.00     0.031 C 
ATOM     57  C   UNL A   1      48.818  29.484  27.268  1.00  0.00     0.029 A 
ATOM     58  C   UNL A   1      47.906  28.446  27.150  1.00  0.00     0.049 A 
ATOM     59  H   UNL A   1      45.812  28.485  27.401  1.00  0.00     0.167 HD
ATOM     60  C   UNL A   1      47.214  26.097  26.737  1.00  0.00     0.074 A 
ATOM     61  C   UNL A   1      47.491  24.716  26.396  1.00  0.00     0.031 C 
ATOM     62  C   UNL A   1      48.157  27.067  26.815  1.00  0.00     0.037 A 
BRANCH  49  63
ATOM     63  C   UNL A   1      45.957  32.661  28.265  1.00  0.00     0.058 A 
ATOM     64  C   UNL A   1      45.939  33.600  27.223  1.00  0.00     0.135 A 
ATOM     65  C   UNL A   1      46.239  33.120  29.560  1.00  0.00     0.135 A 
ATOM     66  F   UNL A   1      45.693  33.207  25.962  1.00  0.00    -0.206 F 
ATOM     67  C   UNL A   1      46.220  34.942  27.450  1.00  0.00     0.059 A 
ATOM     68  C   UNL A   1      46.502  34.463  29.815  1.00  0.00     0.059 A 
ATOM     69  F   UNL A   1      46.272  32.260  30.591  1.00  0.00    -0.206 F 
ATOM     70  C   UNL A   1      46.506  35.363  28.749  1.00  0.00     0.060 A 
BRANCH  70  71
ATOM     71  S   UNL A   1      46.884  37.106  29.027  1.00  0.00     0.124 S 
ATOM     72  O   UNL A   1      47.509  37.472  27.760  1.00  0.00    -0.237 OA
ATOM     73  O   UNL A   1      45.564  37.679  29.269  1.00  0.00    -0.237 OA
ATOM     74  O   UNL A   1      47.775  37.081  30.182  1.00  0.00    -0.744 OA
ENDBRANCH  70  71
ENDBRANCH  49  63
BRANCH  50  75
ATOM     75  C   UNL A   1      43.604  23.079  26.654  1.00  0.00     0.058 A 
ATOM     76  C   UNL A   1      43.249  22.268  27.741  1.00  0.00     0.135 A 
ATOM     77  C   UNL A   1      43.590  22.505  25.374  1.00  0.00     0.135 A 
ATOM     78  F   UNL A   1      43.252  22.775  28.984  1.00  0.00    -0.206 F 
ATOM     79  C   UNL A   1      42.895  20.935  27.571  1.00  0.00     0.059 A 
ATOM     80  C   UNL A   1      43.224  21.176  25.176  1.00  0.00     0.059 A 
ATOM     81  F   UNL A   1      43.908  23.245  24.301  1.00  0.00    -0.206 F 
ATOM     82  C   UNL A   1      42.882  20.398  26.282  1.00  0.00     0.060 A 
BRANCH  82  83
ATOM     83  S   UNL A   1      42.356  18.684  26.064  1.00  0.00     0.124 S 
ATOM     84  O   UNL A   1      43.252  18.234  25.005  1.00  0.00    -0.237 OA
ATOM     85  O   UNL A   1      42.598  18.118  27.388  1.00  0.00    -0.237 OA
ATOM     86  O   UNL A   1      40.950  18.809  25.693  1.00  0.00    -0.744 OA
ENDBRANCH  82  83
ENDBRANCH  50  75
BRANCH  62  87
ATOM     87  C   UNL A   1      49.577  26.680  26.531  1.00  0.00     0.058 A 
ATOM     88  C   UNL A   1      50.363  26.044  27.502  1.00  0.00     0.135 A 
ATOM     89  C   UNL A   1      50.121  26.851  25.248  1.00  0.00     0.135 A 
ATOM     90  F   UNL A   1      49.888  25.866  28.745  1.00  0.00    -0.206 F 
ATOM     91  C   UNL A   1      51.642  25.583  27.211  1.00  0.00     0.059 A 
ATOM     92  C   UNL A   1      51.392  26.383  24.929  1.00  0.00     0.059 A 
ATOM     93  F   UNL A   1      49.403  27.450  24.284  1.00  0.00    -0.206 F 
ATOM     94  C   UNL A   1      52.144  25.749  25.917  1.00  0.00     0.060 A 
BRANCH  94  95
ATOM     95  S   UNL A   1      53.773  25.073  25.530  1.00  0.00     0.124 S 
ATOM     96  O   UNL A   1      54.091  25.765  24.286  1.00  0.00    -0.237 OA
ATOM     97  O   UNL A   1      54.560  25.468  26.694  1.00  0.00    -0.237 OA
ATOM     98  O   UNL A   1      53.524  23.639  25.406  1.00  0.00    -0.744 OA
ENDBRANCH  94  95
ENDBRANCH  62  87
ENDBRANCH  36  37
ENDBRANCH  28  31
ENDBRANCH  26  27
ENDBRANCH   1  26
TORSDOF 15
ENDMDL
