MODEL 1
REMARK VINA RESULT:     -11.8      0.000      0.000
REMARK SMILES Cc1nn(Cc2ccc(C(=O)NCCCCNC(=O)c3ccc(-c4c5nc(c(-c6c(F)cc(S(=O)(=O)[O-])cc6F)c6ccc([nH]6)c(-c6c(F)cc(S(=O)(=O)[O-])cc6F)c6nc(c(-c7c(F)cc(S(=O)(=O)[O-])cc7F)c7ccc4[nH]7)C=C6)C=C5)cc3)o2)c(C)c1C
REMARK SMILES IDX 15 1 14 2 13 3 12 4 10 5 11 6 9 8 6 9 7 10 86 11 8 12 5 13
REMARK SMILES IDX 4 14 1 15 2 16 3 17 89 18 87 19 90 20 88 21 16 22 17 23
REMARK SMILES IDX 18 24 19 26 20 27 21 28 85 29 22 30 84 31 23 32 24 33 25 34
REMARK SMILES IDX 78 35 26 36 83 37 77 38 79 39 27 40 82 41 76 42 75 43 28 45
REMARK SMILES IDX 62 46 41 47 61 48 42 49 45 50 60 51 80 52 43 53 44 54 59 56
REMARK SMILES IDX 81 57 46 58 29 59 30 60 39 61 31 62 32 63 38 64 40 65 33 66
REMARK SMILES IDX 34 67 35 68 36 69 37 70 63 71 64 72 73 73 65 74 66 75 72 76
REMARK SMILES IDX 74 77 67 78 68 79 69 80 70 81 71 82 47 83 48 84 57 85 49 86
REMARK SMILES IDX 50 87 56 88 58 89 51 90 52 91 53 92 54 93 55 94
REMARK H PARENT 12 7 17 25 79 44 45 55
REMARK Flexibility Score: inf
ROOT
ATOM      1  C   UNL A   1      41.931  20.088  27.226  1.00  0.00     0.023 C 
ENDROOT
BRANCH   1   2
ATOM      2  C   UNL A   1      40.781  21.020  27.646  1.00  0.00     0.023 C 
BRANCH   2   3
ATOM      3  C   UNL A   1      39.802  21.425  26.537  1.00  0.00     0.116 C 
BRANCH   3   4
ATOM      4  N   UNL A   1      39.339  22.791  26.691  1.00  0.00    -0.349 N 
ATOM      5  C   UNL A   1      38.206  23.439  26.260  1.00  0.00     0.286 C 
ATOM      6  O   UNL A   1      38.143  24.641  26.536  1.00  0.00    -0.266 OA
ATOM      7  H   UNL A   1      39.954  23.363  27.204  1.00  0.00     0.163 HD
BRANCH   5   8
ATOM      8  C   UNL A   1      37.140  22.771  25.536  1.00  0.00     0.191 A 
ATOM      9  C   UNL A   1      35.291  21.607  25.205  1.00  0.00     0.126 A 
ATOM     10  C   UNL A   1      35.739  21.980  23.956  1.00  0.00     0.048 A 
ATOM     11  O   UNL A   1      36.146  22.068  26.163  1.00  0.00    -0.454 OA
ATOM     12  C   UNL A   1      36.921  22.724  24.168  1.00  0.00     0.056 A 
BRANCH   9  13
ATOM     13  C   UNL A   1      34.077  20.891  25.674  1.00  0.00     0.219 C 
BRANCH  13  14
ATOM     14  N   UNL A   1      33.678  19.820  24.763  1.00  0.00    -0.262 N 
ATOM     15  C   UNL A   1      34.184  16.484  23.693  1.00  0.00     0.069 C 
ATOM     16  C   UNL A   1      33.754  17.894  23.864  1.00  0.00     0.063 A 
ATOM     17  N   UNL A   1      34.304  18.626  24.837  1.00  0.00    -0.177 NA
ATOM     18  C   UNL A   1      32.821  18.647  23.100  1.00  0.00    -0.007 A 
ATOM     19  C   UNL A   1      32.809  19.898  23.699  1.00  0.00     0.039 A 
ATOM     20  C   UNL A   1      32.042  18.217  21.914  1.00  0.00     0.048 C 
ATOM     21  C   UNL A   1      32.060  21.131  23.342  1.00  0.00     0.066 C 
ENDBRANCH  13  14
ENDBRANCH   9  13
ENDBRANCH   5   8
ENDBRANCH   3   4
ENDBRANCH   2   3
ENDBRANCH   1   2
BRANCH   1  22
ATOM     22  C   UNL A   1      42.058  19.863  25.726  1.00  0.00     0.116 C 
BRANCH  22  23
ATOM     23  N   UNL A   1      43.437  19.623  25.284  1.00  0.00    -0.352 N 
ATOM     24  C   UNL A   1      44.376  20.564  24.900  1.00  0.00     0.251 C 
ATOM     25  H   UNL A   1      43.727  18.682  25.257  1.00  0.00     0.163 HD
ATOM     26  O   UNL A   1      45.337  20.248  24.195  1.00  0.00    -0.269 OA
BRANCH  24  27
ATOM     27  C   UNL A   1      44.217  21.950  25.370  1.00  0.00     0.039 A 
ATOM     28  C   UNL A   1      43.167  22.779  24.960  1.00  0.00     0.014 A 
ATOM     29  C   UNL A   1      45.152  22.395  26.296  1.00  0.00     0.014 A 
ATOM     30  C   UNL A   1      43.035  24.033  25.557  1.00  0.00     0.010 A 
ATOM     31  C   UNL A   1      44.892  23.516  27.030  1.00  0.00     0.010 A 
ATOM     32  C   UNL A   1      43.899  24.386  26.604  1.00  0.00    -0.014 A 
BRANCH  32  33
ATOM     33  C   UNL A   1      43.743  25.619  27.365  1.00  0.00     0.031 A 
ATOM     34  C   UNL A   1      44.745  26.668  27.035  1.00  0.00     0.074 A 
ATOM     35  C   UNL A   1      42.624  25.872  28.082  1.00  0.00     0.049 A 
ATOM     36  N   UNL A   1      45.677  27.137  27.797  1.00  0.00    -0.248 NA
ATOM     37  C   UNL A   1      44.836  27.133  25.639  1.00  0.00     0.031 C 
ATOM     38  C   UNL A   1      41.416  25.044  28.216  1.00  0.00     0.029 A 
ATOM     39  N   UNL A   1      42.268  27.002  28.745  1.00  0.00    -0.354 N 
ATOM     40  C   UNL A   1      46.294  28.144  27.061  1.00  0.00     0.074 A 
ATOM     41  C   UNL A   1      45.901  27.936  25.693  1.00  0.00     0.031 C 
ATOM     42  C   UNL A   1      40.396  25.796  28.683  1.00  0.00     0.029 A 
ATOM     43  C   UNL A   1      40.909  27.102  29.042  1.00  0.00     0.049 A 
ATOM     44  H   UNL A   1      42.920  27.698  28.995  1.00  0.00     0.167 HD
ATOM     45  C   UNL A   1      46.853  29.224  27.676  1.00  0.00     0.037 A 
ATOM     46  C   UNL A   1      40.266  28.210  29.499  1.00  0.00     0.037 A 
ATOM     47  C   UNL A   1      47.044  28.977  29.086  1.00  0.00     0.049 A 
ATOM     48  C   UNL A   1      41.318  29.088  30.089  1.00  0.00     0.074 A 
ATOM     49  C   UNL A   1      47.698  27.994  29.807  1.00  0.00     0.029 A 
ATOM     50  N   UNL A   1      46.159  29.553  29.968  1.00  0.00    -0.354 N 
ATOM     51  N   UNL A   1      42.017  28.762  31.146  1.00  0.00    -0.248 NA
ATOM     52  C   UNL A   1      41.942  30.064  29.206  1.00  0.00     0.031 C 
ATOM     53  C   UNL A   1      46.809  27.679  30.878  1.00  0.00     0.029 A 
ATOM     54  C   UNL A   1      45.727  28.557  30.810  1.00  0.00     0.049 A 
ATOM     55  H   UNL A   1      45.888  30.499  29.992  1.00  0.00     0.167 HD
ATOM     56  C   UNL A   1      43.317  29.147  30.846  1.00  0.00     0.074 A 
ATOM     57  C   UNL A   1      43.198  29.992  29.657  1.00  0.00     0.031 C 
ATOM     58  C   UNL A   1      44.401  28.511  31.388  1.00  0.00     0.037 A 
BRANCH  45  59
ATOM     59  C   UNL A   1      46.880  30.615  27.087  1.00  0.00     0.058 A 
ATOM     60  C   UNL A   1      48.090  31.338  27.072  1.00  0.00     0.135 A 
ATOM     61  C   UNL A   1      45.723  31.368  26.780  1.00  0.00     0.135 A 
ATOM     62  F   UNL A   1      49.252  30.731  27.367  1.00  0.00    -0.206 F 
ATOM     63  C   UNL A   1      48.139  32.712  26.830  1.00  0.00     0.059 A 
ATOM     64  C   UNL A   1      45.755  32.724  26.477  1.00  0.00     0.059 A 
ATOM     65  F   UNL A   1      44.491  30.850  26.852  1.00  0.00    -0.206 F 
ATOM     66  C   UNL A   1      46.962  33.396  26.542  1.00  0.00     0.060 A 
BRANCH  66  67
ATOM     67  S   UNL A   1      47.010  35.180  26.305  1.00  0.00     0.124 S 
ATOM     68  O   UNL A   1      45.693  35.433  25.735  1.00  0.00    -0.237 OA
ATOM     69  O   UNL A   1      47.222  35.659  27.666  1.00  0.00    -0.237 OA
ATOM     70  O   UNL A   1      48.139  35.367  25.398  1.00  0.00    -0.744 OA
ENDBRANCH  66  67
ENDBRANCH  45  59
BRANCH  46  71
ATOM     71  C   UNL A   1      38.918  28.714  29.096  1.00  0.00     0.058 A 
ATOM     72  C   UNL A   1      37.902  28.922  30.047  1.00  0.00     0.135 A 
ATOM     73  C   UNL A   1      38.685  29.269  27.820  1.00  0.00     0.135 A 
ATOM     74  F   UNL A   1      38.035  28.438  31.293  1.00  0.00    -0.206 F 
ATOM     75  C   UNL A   1      36.758  29.687  29.773  1.00  0.00     0.059 A 
ATOM     76  C   UNL A   1      37.551  30.026  27.520  1.00  0.00     0.059 A 
ATOM     77  F   UNL A   1      39.597  29.176  26.843  1.00  0.00    -0.206 F 
ATOM     78  C   UNL A   1      36.606  30.259  28.510  1.00  0.00     0.060 A 
BRANCH  78  79
ATOM     79  S   UNL A   1      35.244  31.412  28.204  1.00  0.00     0.124 S 
ATOM     80  O   UNL A   1      34.748  31.661  29.553  1.00  0.00    -0.237 OA
ATOM     81  O   UNL A   1      35.925  32.529  27.559  1.00  0.00    -0.237 OA
ATOM     82  O   UNL A   1      34.344  30.652  27.340  1.00  0.00    -0.744 OA
ENDBRANCH  78  79
ENDBRANCH  46  71
BRANCH  58  83
ATOM     83  C   UNL A   1      44.192  27.530  32.519  1.00  0.00     0.058 A 
ATOM     84  C   UNL A   1      44.054  26.137  32.364  1.00  0.00     0.135 A 
ATOM     85  C   UNL A   1      44.315  28.008  33.832  1.00  0.00     0.135 A 
ATOM     86  F   UNL A   1      44.039  25.575  31.148  1.00  0.00    -0.206 F 
ATOM     87  C   UNL A   1      44.000  25.272  33.461  1.00  0.00     0.059 A 
ATOM     88  C   UNL A   1      44.297  27.163  34.937  1.00  0.00     0.059 A 
ATOM     89  F   UNL A   1      44.513  29.319  34.053  1.00  0.00    -0.206 F 
ATOM     90  C   UNL A   1      44.124  25.795  34.746  1.00  0.00     0.060 A 
BRANCH  90  91
ATOM     91  S   UNL A   1      44.110  24.676  36.164  1.00  0.00     0.124 S 
ATOM     92  O   UNL A   1      43.978  23.372  35.523  1.00  0.00    -0.237 OA
ATOM     93  O   UNL A   1      45.400  24.945  36.794  1.00  0.00    -0.237 OA
ATOM     94  O   UNL A   1      42.947  25.112  36.933  1.00  0.00    -0.744 OA
ENDBRANCH  90  91
ENDBRANCH  58  83
ENDBRANCH  32  33
ENDBRANCH  24  27
ENDBRANCH  22  23
ENDBRANCH   1  22
TORSDOF 16
ENDMDL
MODEL 2
REMARK VINA RESULT:     -11.7      2.885      3.945
REMARK SMILES Cc1nn(Cc2ccc(C(=O)NCCCCNC(=O)c3ccc(-c4c5nc(c(-c6c(F)cc(S(=O)(=O)[O-])cc6F)c6ccc([nH]6)c(-c6c(F)cc(S(=O)(=O)[O-])cc6F)c6nc(c(-c7c(F)cc(S(=O)(=O)[O-])cc7F)c7ccc4[nH]7)C=C6)C=C5)cc3)o2)c(C)c1C
REMARK SMILES IDX 15 1 14 2 13 3 12 4 10 5 11 6 9 8 6 9 7 10 86 11 8 12 5 13
REMARK SMILES IDX 4 14 1 15 2 16 3 17 89 18 87 19 90 20 88 21 16 22 17 23
REMARK SMILES IDX 18 24 19 26 20 27 21 28 85 29 22 30 84 31 23 32 24 33 25 34
REMARK SMILES IDX 78 35 26 36 83 37 77 38 79 39 27 40 82 41 76 42 75 43 28 45
REMARK SMILES IDX 62 46 41 47 61 48 42 49 45 50 60 51 80 52 43 53 44 54 59 56
REMARK SMILES IDX 81 57 46 58 29 59 30 60 39 61 31 62 32 63 38 64 40 65 33 66
REMARK SMILES IDX 34 67 35 68 36 69 37 70 63 71 64 72 73 73 65 74 66 75 72 76
REMARK SMILES IDX 74 77 67 78 68 79 69 80 70 81 71 82 47 83 48 84 57 85 49 86
REMARK SMILES IDX 50 87 56 88 58 89 51 90 52 91 53 92 54 93 55 94
REMARK H PARENT 12 7 17 25 79 44 45 55
REMARK Flexibility Score: inf
ROOT
ATOM      1  C   UNL A   1      39.309  22.469  26.469  1.00  0.00     0.023 C 
ENDROOT
BRANCH   1   2
ATOM      2  C   UNL A   1      38.738  21.279  25.679  1.00  0.00     0.023 C 
BRANCH   2   3
ATOM      3  C   UNL A   1      37.293  21.428  25.186  1.00  0.00     0.116 C 
BRANCH   3   4
ATOM      4  N   UNL A   1      36.433  22.018  26.193  1.00  0.00    -0.349 N 
ATOM      5  C   UNL A   1      35.113  22.403  26.174  1.00  0.00     0.286 C 
ATOM      6  O   UNL A   1      34.695  22.919  27.214  1.00  0.00    -0.266 OA
ATOM      7  H   UNL A   1      36.879  22.171  27.057  1.00  0.00     0.163 HD
BRANCH   5   8
ATOM      8  C   UNL A   1      34.252  22.215  25.021  1.00  0.00     0.191 A 
ATOM      9  C   UNL A   1      33.283  22.647  23.082  1.00  0.00     0.126 A 
ATOM     10  C   UNL A   1      32.830  21.404  23.471  1.00  0.00     0.048 A 
ATOM     11  O   UNL A   1      34.130  23.149  24.027  1.00  0.00    -0.454 OA
ATOM     12  C   UNL A   1      33.449  21.129  24.710  1.00  0.00     0.056 A 
BRANCH   9  13
ATOM     13  C   UNL A   1      33.080  23.462  21.858  1.00  0.00     0.219 C 
BRANCH  13  14
ATOM     14  N   UNL A   1      32.779  24.859  22.165  1.00  0.00    -0.262 N 
ATOM     15  C   UNL A   1      33.923  28.208  22.198  1.00  0.00     0.069 C 
ATOM     16  C   UNL A   1      33.165  26.942  22.353  1.00  0.00     0.063 A 
ATOM     17  N   UNL A   1      33.719  25.800  21.935  1.00  0.00    -0.177 NA
ATOM     18  C   UNL A   1      31.887  26.725  22.935  1.00  0.00    -0.007 A 
ATOM     19  C   UNL A   1      31.674  25.360  22.813  1.00  0.00     0.039 A 
ATOM     20  C   UNL A   1      30.977  27.719  23.556  1.00  0.00     0.048 C 
ATOM     21  C   UNL A   1      30.534  24.518  23.259  1.00  0.00     0.066 C 
ENDBRANCH  13  14
ENDBRANCH   9  13
ENDBRANCH   5   8
ENDBRANCH   3   4
ENDBRANCH   2   3
ENDBRANCH   1   2
BRANCH   1  22
ATOM     22  C   UNL A   1      40.635  22.199  27.167  1.00  0.00     0.116 C 
BRANCH  22  23
ATOM     23  N   UNL A   1      41.774  22.105  26.246  1.00  0.00    -0.352 N 
ATOM     24  C   UNL A   1      42.433  23.141  25.608  1.00  0.00     0.251 C 
ATOM     25  H   UNL A   1      42.108  21.197  26.059  1.00  0.00     0.163 HD
ATOM     26  O   UNL A   1      43.093  22.938  24.587  1.00  0.00    -0.269 OA
BRANCH  24  27
ATOM     27  C   UNL A   1      42.347  24.492  26.187  1.00  0.00     0.039 A 
ATOM     28  C   UNL A   1      41.461  25.468  25.717  1.00  0.00     0.014 A 
ATOM     29  C   UNL A   1      43.171  24.746  27.275  1.00  0.00     0.014 A 
ATOM     30  C   UNL A   1      41.369  26.675  26.411  1.00  0.00     0.010 A 
ATOM     31  C   UNL A   1      42.918  25.824  28.073  1.00  0.00     0.010 A 
ATOM     32  C   UNL A   1      42.096  26.836  27.600  1.00  0.00    -0.014 A 
BRANCH  32  33
ATOM     33  C   UNL A   1      41.953  28.011  28.451  1.00  0.00     0.031 A 
ATOM     34  C   UNL A   1      43.023  29.028  28.267  1.00  0.00     0.074 A 
ATOM     35  C   UNL A   1      40.806  28.264  29.122  1.00  0.00     0.049 A 
ATOM     36  N   UNL A   1      43.927  29.385  29.117  1.00  0.00    -0.248 NA
ATOM     37  C   UNL A   1      43.221  29.598  26.922  1.00  0.00     0.031 C 
ATOM     38  C   UNL A   1      39.554  27.494  29.117  1.00  0.00     0.029 A 
ATOM     39  N   UNL A   1      40.465  29.356  29.854  1.00  0.00    -0.354 N 
ATOM     40  C   UNL A   1      44.637  30.414  28.503  1.00  0.00     0.074 A 
ATOM     41  C   UNL A   1      44.318  30.337  27.102  1.00  0.00     0.031 C 
ATOM     42  C   UNL A   1      38.544  28.258  29.586  1.00  0.00     0.029 A 
ATOM     43  C   UNL A   1      39.097  29.503  30.081  1.00  0.00     0.049 A 
ATOM     44  H   UNL A   1      41.133  29.993  30.198  1.00  0.00     0.167 HD
ATOM     45  C   UNL A   1      45.208  31.410  29.236  1.00  0.00     0.037 A 
ATOM     46  C   UNL A   1      38.480  30.603  30.591  1.00  0.00     0.037 A 
ATOM     47  C   UNL A   1      45.300  31.041  30.629  1.00  0.00     0.049 A 
ATOM     48  C   UNL A   1      39.536  31.374  31.311  1.00  0.00     0.074 A 
ATOM     49  C   UNL A   1      45.861  29.971  31.303  1.00  0.00     0.029 A 
ATOM     50  N   UNL A   1      44.391  31.591  31.505  1.00  0.00    -0.354 N 
ATOM     51  N   UNL A   1      40.152  30.929  32.375  1.00  0.00    -0.248 NA
ATOM     52  C   UNL A   1      40.259  32.383  30.549  1.00  0.00     0.031 C 
ATOM     53  C   UNL A   1      44.895  29.618  32.291  1.00  0.00     0.029 A 
ATOM     54  C   UNL A   1      43.862  30.554  32.235  1.00  0.00     0.049 A 
ATOM     55  H   UNL A   1      44.165  32.545  31.592  1.00  0.00     0.167 HD
ATOM     56  C   UNL A   1      41.485  31.266  32.183  1.00  0.00     0.074 A 
ATOM     57  C   UNL A   1      41.480  32.209  31.063  1.00  0.00     0.031 C 
ATOM     58  C   UNL A   1      42.502  30.533  32.731  1.00  0.00     0.037 A 
BRANCH  45  59
ATOM     59  C   UNL A   1      45.337  32.841  28.767  1.00  0.00     0.058 A 
ATOM     60  C   UNL A   1      46.598  33.472  28.808  1.00  0.00     0.135 A 
ATOM     61  C   UNL A   1      44.239  33.699  28.531  1.00  0.00     0.135 A 
ATOM     62  F   UNL A   1      47.711  32.758  29.045  1.00  0.00    -0.206 F 
ATOM     63  C   UNL A   1      46.747  34.854  28.682  1.00  0.00     0.059 A 
ATOM     64  C   UNL A   1      44.372  35.070  28.344  1.00  0.00     0.059 A 
ATOM     65  F   UNL A   1      42.972  33.269  28.564  1.00  0.00    -0.206 F 
ATOM     66  C   UNL A   1      45.624  35.644  28.459  1.00  0.00     0.060 A 
BRANCH  66  67
ATOM     67  S   UNL A   1      45.803  37.433  28.374  1.00  0.00     0.124 S 
ATOM     68  O   UNL A   1      44.597  37.812  27.649  1.00  0.00    -0.237 OA
ATOM     69  O   UNL A   1      45.843  37.799  29.786  1.00  0.00    -0.237 OA
ATOM     70  O   UNL A   1      47.060  37.610  27.652  1.00  0.00    -0.744 OA
ENDBRANCH  66  67
ENDBRANCH  45  59
BRANCH  46  71
ATOM     71  C   UNL A   1      37.186  31.208  30.154  1.00  0.00     0.058 A 
ATOM     72  C   UNL A   1      36.297  31.780  31.085  1.00  0.00     0.135 A 
ATOM     73  C   UNL A   1      36.920  31.495  28.799  1.00  0.00     0.135 A 
ATOM     74  F   UNL A   1      36.472  31.572  32.399  1.00  0.00    -0.206 F 
ATOM     75  C   UNL A   1      35.252  32.634  30.701  1.00  0.00     0.059 A 
ATOM     76  C   UNL A   1      35.881  32.333  28.392  1.00  0.00     0.059 A 
ATOM     77  F   UNL A   1      37.720  31.044  27.823  1.00  0.00    -0.206 F 
ATOM     78  C   UNL A   1      35.069  32.925  29.350  1.00  0.00     0.060 A 
BRANCH  78  79
ATOM     79  S   UNL A   1      33.859  34.179  28.857  1.00  0.00     0.124 S 
ATOM     80  O   UNL A   1      33.044  33.451  27.890  1.00  0.00    -0.237 OA
ATOM     81  O   UNL A   1      33.212  34.499  30.124  1.00  0.00    -0.237 OA
ATOM     82  O   UNL A   1      34.686  35.245  28.296  1.00  0.00    -0.744 OA
ENDBRANCH  78  79
ENDBRANCH  46  71
BRANCH  58  83
ATOM     83  C   UNL A   1      42.177  29.477  33.763  1.00  0.00     0.058 A 
ATOM     84  C   UNL A   1      41.832  28.143  33.471  1.00  0.00     0.135 A 
ATOM     85  C   UNL A   1      42.402  29.789  35.112  1.00  0.00     0.135 A 
ATOM     86  F   UNL A   1      41.705  27.723  32.205  1.00  0.00    -0.206 F 
ATOM     87  C   UNL A   1      41.677  27.182  34.475  1.00  0.00     0.059 A 
ATOM     88  C   UNL A   1      42.285  28.842  36.125  1.00  0.00     0.059 A 
ATOM     89  F   UNL A   1      42.796  31.026  35.458  1.00  0.00    -0.206 F 
ATOM     90  C   UNL A   1      41.907  27.542  35.802  1.00  0.00     0.060 A 
BRANCH  90  91
ATOM     91  S   UNL A   1      41.762  26.291  37.097  1.00  0.00     0.124 S 
ATOM     92  O   UNL A   1      40.447  26.584  37.659  1.00  0.00    -0.237 OA
ATOM     93  O   UNL A   1      41.867  25.043  36.347  1.00  0.00    -0.237 OA
ATOM     94  O   UNL A   1      42.892  26.577  37.977  1.00  0.00    -0.744 OA
ENDBRANCH  90  91
ENDBRANCH  58  83
ENDBRANCH  32  33
ENDBRANCH  24  27
ENDBRANCH  22  23
ENDBRANCH   1  22
TORSDOF 16
ENDMDL
MODEL 3
REMARK VINA RESULT:     -11.7      1.050      1.779
REMARK SMILES Cc1nn(Cc2ccc(C(=O)NCCCCNC(=O)c3ccc(-c4c5nc(c(-c6c(F)cc(S(=O)(=O)[O-])cc6F)c6ccc([nH]6)c(-c6c(F)cc(S(=O)(=O)[O-])cc6F)c6nc(c(-c7c(F)cc(S(=O)(=O)[O-])cc7F)c7ccc4[nH]7)C=C6)C=C5)cc3)o2)c(C)c1C
REMARK SMILES IDX 15 1 14 2 13 3 12 4 10 5 11 6 9 8 6 9 7 10 86 11 8 12 5 13
REMARK SMILES IDX 4 14 1 15 2 16 3 17 89 18 87 19 90 20 88 21 16 22 17 23
REMARK SMILES IDX 18 24 19 26 20 27 21 28 85 29 22 30 84 31 23 32 24 33 25 34
REMARK SMILES IDX 78 35 26 36 83 37 77 38 79 39 27 40 82 41 76 42 75 43 28 45
REMARK SMILES IDX 62 46 41 47 61 48 42 49 45 50 60 51 80 52 43 53 44 54 59 56
REMARK SMILES IDX 81 57 46 58 29 59 30 60 39 61 31 62 32 63 38 64 40 65 33 66
REMARK SMILES IDX 34 67 35 68 36 69 37 70 63 71 64 72 73 73 65 74 66 75 72 76
REMARK SMILES IDX 74 77 67 78 68 79 69 80 70 81 71 82 47 83 48 84 57 85 49 86
REMARK SMILES IDX 50 87 56 88 58 89 51 90 52 91 53 92 54 93 55 94
REMARK H PARENT 12 7 17 25 79 44 45 55
REMARK Flexibility Score: inf
ROOT
ATOM      1  C   UNL A   1      42.156  20.157  27.244  1.00  0.00     0.023 C 
ENDROOT
BRANCH   1   2
ATOM      2  C   UNL A   1      41.096  21.196  27.650  1.00  0.00     0.023 C 
BRANCH   2   3
ATOM      3  C   UNL A   1      39.878  21.313  26.725  1.00  0.00     0.116 C 
BRANCH   3   4
ATOM      4  N   UNL A   1      39.366  22.668  26.668  1.00  0.00    -0.349 N 
ATOM      5  C   UNL A   1      38.161  23.187  26.256  1.00  0.00     0.286 C 
ATOM      6  O   UNL A   1      38.067  24.417  26.302  1.00  0.00    -0.266 OA
ATOM      7  H   UNL A   1      40.003  23.348  26.985  1.00  0.00     0.163 HD
BRANCH   5   8
ATOM      8  C   UNL A   1      37.057  22.359  25.805  1.00  0.00     0.191 A 
ATOM      9  C   UNL A   1      35.026  21.490  25.742  1.00  0.00     0.126 A 
ATOM     10  C   UNL A   1      35.709  20.950  24.674  1.00  0.00     0.048 A 
ATOM     11  O   UNL A   1      35.845  22.330  26.440  1.00  0.00    -0.454 OA
ATOM     12  C   UNL A   1      37.007  21.505  24.714  1.00  0.00     0.056 A 
BRANCH   9  13
ATOM     13  C   UNL A   1      33.620  21.381  26.205  1.00  0.00     0.219 C 
BRANCH  13  14
ATOM     14  N   UNL A   1      32.762  22.411  25.621  1.00  0.00    -0.262 N 
ATOM     15  C   UNL A   1      31.040  25.467  26.096  1.00  0.00     0.069 C 
ATOM     16  C   UNL A   1      31.593  24.187  25.586  1.00  0.00     0.063 A 
ATOM     17  N   UNL A   1      32.395  23.467  26.377  1.00  0.00    -0.177 NA
ATOM     18  C   UNL A   1      31.375  23.549  24.336  1.00  0.00    -0.007 A 
ATOM     19  C   UNL A   1      32.134  22.390  24.398  1.00  0.00     0.039 A 
ATOM     20  C   UNL A   1      30.517  23.996  23.212  1.00  0.00     0.048 C 
ATOM     21  C   UNL A   1      32.297  21.290  23.412  1.00  0.00     0.066 C 
ENDBRANCH  13  14
ENDBRANCH   9  13
ENDBRANCH   5   8
ENDBRANCH   3   4
ENDBRANCH   2   3
ENDBRANCH   1   2
BRANCH   1  22
ATOM     22  C   UNL A   1      42.110  19.731  25.783  1.00  0.00     0.116 C 
BRANCH  22  23
ATOM     23  N   UNL A   1      43.437  19.510  25.196  1.00  0.00    -0.352 N 
ATOM     24  C   UNL A   1      44.322  20.465  24.726  1.00  0.00     0.251 C 
ATOM     25  H   UNL A   1      43.731  18.573  25.127  1.00  0.00     0.163 HD
ATOM     26  O   UNL A   1      45.205  20.166  23.919  1.00  0.00    -0.269 OA
BRANCH  24  27
ATOM     27  C   UNL A   1      44.201  21.844  25.226  1.00  0.00     0.039 A 
ATOM     28  C   UNL A   1      43.225  22.737  24.772  1.00  0.00     0.014 A 
ATOM     29  C   UNL A   1      45.091  22.214  26.226  1.00  0.00     0.014 A 
ATOM     30  C   UNL A   1      43.115  23.980  25.396  1.00  0.00     0.010 A 
ATOM     31  C   UNL A   1      44.838  23.326  26.975  1.00  0.00     0.010 A 
ATOM     32  C   UNL A   1      43.922  24.258  26.509  1.00  0.00    -0.014 A 
BRANCH  32  33
ATOM     33  C   UNL A   1      43.776  25.477  27.296  1.00  0.00     0.031 A 
ATOM     34  C   UNL A   1      44.779  26.529  26.978  1.00  0.00     0.074 A 
ATOM     35  C   UNL A   1      42.664  25.719  28.027  1.00  0.00     0.049 A 
ATOM     36  N   UNL A   1      45.718  26.981  27.740  1.00  0.00    -0.248 NA
ATOM     37  C   UNL A   1      44.859  27.021  25.590  1.00  0.00     0.031 C 
ATOM     38  C   UNL A   1      41.455  24.893  28.155  1.00  0.00     0.029 A 
ATOM     39  N   UNL A   1      42.317  26.838  28.714  1.00  0.00    -0.354 N 
ATOM     40  C   UNL A   1      46.332  28.001  27.018  1.00  0.00     0.074 A 
ATOM     41  C   UNL A   1      45.926  27.820  25.650  1.00  0.00     0.031 C 
ATOM     42  C   UNL A   1      40.441  25.638  28.646  1.00  0.00     0.029 A 
ATOM     43  C   UNL A   1      40.961  26.936  29.025  1.00  0.00     0.049 A 
ATOM     44  H   UNL A   1      42.973  27.527  28.972  1.00  0.00     0.167 HD
ATOM     45  C   UNL A   1      46.900  29.067  27.649  1.00  0.00     0.037 A 
ATOM     46  C   UNL A   1      40.325  28.036  29.509  1.00  0.00     0.037 A 
ATOM     47  C   UNL A   1      47.102  28.792  29.052  1.00  0.00     0.049 A 
ATOM     48  C   UNL A   1      41.385  28.900  30.107  1.00  0.00     0.074 A 
ATOM     49  C   UNL A   1      47.759  27.793  29.749  1.00  0.00     0.029 A 
ATOM     50  N   UNL A   1      46.226  29.353  29.953  1.00  0.00    -0.354 N 
ATOM     51  N   UNL A   1      42.092  28.552  31.151  1.00  0.00    -0.248 NA
ATOM     52  C   UNL A   1      42.005  29.891  29.238  1.00  0.00     0.031 C 
ATOM     53  C   UNL A   1      46.879  27.460  30.821  1.00  0.00     0.029 A 
ATOM     54  C   UNL A   1      45.799  28.342  30.779  1.00  0.00     0.049 A 
ATOM     55  H   UNL A   1      45.958  30.299  29.998  1.00  0.00     0.167 HD
ATOM     56  C   UNL A   1      43.391  28.938  30.848  1.00  0.00     0.074 A 
ATOM     57  C   UNL A   1      43.264  29.806  29.676  1.00  0.00     0.031 C 
ATOM     58  C   UNL A   1      44.477  28.289  31.368  1.00  0.00     0.037 A 
BRANCH  45  59
ATOM     59  C   UNL A   1      46.926  30.469  27.087  1.00  0.00     0.058 A 
ATOM     60  C   UNL A   1      48.135  31.193  27.088  1.00  0.00     0.135 A 
ATOM     61  C   UNL A   1      45.768  31.226  26.793  1.00  0.00     0.135 A 
ATOM     62  F   UNL A   1      49.297  30.582  27.372  1.00  0.00    -0.206 F 
ATOM     63  C   UNL A   1      48.183  32.571  26.871  1.00  0.00     0.059 A 
ATOM     64  C   UNL A   1      45.800  32.587  26.517  1.00  0.00     0.059 A 
ATOM     65  F   UNL A   1      44.536  30.706  26.854  1.00  0.00    -0.206 F 
ATOM     66  C   UNL A   1      47.006  33.260  26.595  1.00  0.00     0.060 A 
BRANCH  66  67
ATOM     67  S   UNL A   1      47.053  35.047  26.393  1.00  0.00     0.124 S 
ATOM     68  O   UNL A   1      46.289  35.221  25.163  1.00  0.00    -0.237 OA
ATOM     69  O   UNL A   1      46.406  35.506  27.617  1.00  0.00    -0.237 OA
ATOM     70  O   UNL A   1      48.480  35.337  26.299  1.00  0.00    -0.744 OA
ENDBRANCH  66  67
ENDBRANCH  45  59
BRANCH  46  71
ATOM     71  C   UNL A   1      38.976  28.552  29.127  1.00  0.00     0.058 A 
ATOM     72  C   UNL A   1      37.948  28.683  30.080  1.00  0.00     0.135 A 
ATOM     73  C   UNL A   1      38.748  29.191  27.890  1.00  0.00     0.135 A 
ATOM     74  F   UNL A   1      38.075  28.118  31.291  1.00  0.00    -0.206 F 
ATOM     75  C   UNL A   1      36.798  29.453  29.847  1.00  0.00     0.059 A 
ATOM     76  C   UNL A   1      37.609  29.954  27.631  1.00  0.00     0.059 A 
ATOM     77  F   UNL A   1      39.671  29.174  26.918  1.00  0.00    -0.206 F 
ATOM     78  C   UNL A   1      36.651  30.108  28.624  1.00  0.00     0.060 A 
BRANCH  78  79
ATOM     79  S   UNL A   1      35.279  31.265  28.383  1.00  0.00     0.124 S 
ATOM     80  O   UNL A   1      35.889  32.288  27.541  1.00  0.00    -0.237 OA
ATOM     81  O   UNL A   1      34.276  30.424  27.739  1.00  0.00    -0.237 OA
ATOM     82  O   UNL A   1      34.952  31.690  29.742  1.00  0.00    -0.744 OA
ENDBRANCH  78  79
ENDBRANCH  46  71
BRANCH  58  83
ATOM     83  C   UNL A   1      44.275  27.287  32.481  1.00  0.00     0.058 A 
ATOM     84  C   UNL A   1      44.126  25.898  32.300  1.00  0.00     0.135 A 
ATOM     85  C   UNL A   1      44.417  27.738  33.802  1.00  0.00     0.135 A 
ATOM     86  F   UNL A   1      44.093  25.361  31.073  1.00  0.00    -0.206 F 
ATOM     87  C   UNL A   1      44.079  25.011  33.381  1.00  0.00     0.059 A 
ATOM     88  C   UNL A   1      44.406  26.870  34.891  1.00  0.00     0.059 A 
ATOM     89  F   UNL A   1      44.626  29.042  34.047  1.00  0.00    -0.206 F 
ATOM     90  C   UNL A   1      44.221  25.508  34.674  1.00  0.00     0.060 A 
BRANCH  90  91
ATOM     91  S   UNL A   1      44.217  24.361  36.070  1.00  0.00     0.124 S 
ATOM     92  O   UNL A   1      43.774  23.119  35.443  1.00  0.00    -0.237 OA
ATOM     93  O   UNL A   1      45.609  24.388  36.508  1.00  0.00    -0.237 OA
ATOM     94  O   UNL A   1      43.266  24.959  37.002  1.00  0.00    -0.744 OA
ENDBRANCH  90  91
ENDBRANCH  58  83
ENDBRANCH  32  33
ENDBRANCH  24  27
ENDBRANCH  22  23
ENDBRANCH   1  22
TORSDOF 16
ENDMDL
