MODEL 1
REMARK VINA RESULT:     -12.5      0.000      0.000
REMARK SMILES C[C@H]1CN(C(=O)N2CC[NH+]([C@@H](C)C(=O)NCCCCNC(=O)c3ccc(-c4c5nc(c(-c6c(F)cc(S(=O)(=O)[O-])cc6F)c6ccc([nH]6)c(-c6c(F)cc(S(=O)(=O)[O-])cc6F)c6nc(c(-c7c(F)cc(S(=O)(=O)[O-])cc7F)c7ccc4[nH]7)C=C6)C=C5)cc3)CC2)C[C@@H]1C
REMARK SMILES IDX 18 1 17 2 16 3 15 4 13 5 14 6 11 8 12 9 10 10 1 11 2 12 3 13
REMARK SMILES IDX 92 14 4 15 91 16 93 17 5 18 6 19 7 20 8 21 90 22 9 23 89 24
REMARK SMILES IDX 19 26 20 27 21 28 22 30 23 31 24 32 88 33 25 34 87 35 26 36
REMARK SMILES IDX 27 37 28 38 81 39 29 40 86 41 80 42 82 43 30 44 85 45 79 46
REMARK SMILES IDX 78 47 31 49 65 50 44 51 64 52 45 53 48 54 63 55 83 56 46 57
REMARK SMILES IDX 47 58 62 60 84 61 49 62 32 63 33 64 42 65 34 66 35 67 41 68
REMARK SMILES IDX 43 69 36 70 37 71 38 72 39 73 40 74 66 75 67 76 76 77 68 78
REMARK SMILES IDX 69 79 75 80 77 81 70 82 71 83 72 84 73 85 74 86 50 87 51 88
REMARK SMILES IDX 60 89 52 90 53 91 59 92 61 93 54 94 55 95 56 96 57 97 58 98
REMARK H PARENT 15 7 10 25 20 29 82 48 48 59
REMARK Flexibility Score: inf
ROOT
ATOM      1  C   UNL A   1      41.088  21.947  27.418  1.00  0.00     0.023 C 
ENDROOT
BRANCH   1   2
ATOM      2  C   UNL A   1      40.158  21.756  26.228  1.00  0.00     0.023 C 
BRANCH   2   3
ATOM      3  C   UNL A   1      38.775  22.405  26.369  1.00  0.00     0.116 C 
BRANCH   3   4
ATOM      4  N   UNL A   1      38.138  22.577  25.078  1.00  0.00    -0.351 N 
ATOM      5  C   UNL A   1      36.940  22.163  24.576  1.00  0.00     0.278 C 
ATOM      6  O   UNL A   1      36.760  22.380  23.370  1.00  0.00    -0.268 OA
ATOM      7  H   UNL A   1      38.677  23.095  24.438  1.00  0.00     0.163 HD
BRANCH   5   8
ATOM      8  C   UNL A   1      35.819  21.483  25.416  1.00  0.00     0.271 C 
ATOM      9  C   UNL A   1      35.385  20.114  24.897  1.00  0.00     0.086 C 
BRANCH   8  10
ATOM     10  N   UNL A   1      34.802  22.437  25.927  1.00  0.00    -0.322 N 
ATOM     11  C   UNL A   1      28.925  26.340  23.943  1.00  0.00     0.010 C 
ATOM     12  C   UNL A   1      30.215  26.994  24.437  1.00  0.00     0.010 C 
ATOM     13  C   UNL A   1      31.323  25.954  24.620  1.00  0.00     0.125 C 
ATOM     14  C   UNL A   1      30.811  27.953  23.386  1.00  0.00     0.010 C 
ATOM     15  N   UNL A   1      32.038  25.943  23.354  1.00  0.00    -0.324 N 
ATOM     16  C   UNL A   1      31.608  27.014  22.477  1.00  0.00     0.125 C 
ATOM     17  C   UNL A   1      31.728  28.995  24.035  1.00  0.00     0.010 C 
ATOM     18  C   UNL A   1      33.152  25.193  23.068  1.00  0.00     0.320 C 
ATOM     19  O   UNL A   1      33.801  25.308  22.033  1.00  0.00    -0.248 OA
ATOM     20  N   UNL A   1      33.554  24.372  24.102  1.00  0.00    -0.313 N 
ATOM     21  C   UNL A   1      34.915  24.562  24.568  1.00  0.00     0.183 C 
ATOM     22  C   UNL A   1      33.097  22.987  24.095  1.00  0.00     0.183 C 
ATOM     23  C   UNL A   1      35.127  23.864  25.914  1.00  0.00     0.284 C 
ATOM     24  C   UNL A   1      33.436  22.238  25.404  1.00  0.00     0.284 C 
ATOM     25  H   UNL A   1      34.827  22.161  26.909  1.00  0.00     0.348 HD
ENDBRANCH   8  10
ENDBRANCH   5   8
ENDBRANCH   3   4
ENDBRANCH   2   3
ENDBRANCH   1   2
BRANCH   1  26
ATOM     26  C   UNL A   1      42.166  23.001  27.223  1.00  0.00     0.116 C 
BRANCH  26  27
ATOM     27  N   UNL A   1      41.957  23.856  26.061  1.00  0.00    -0.352 N 
ATOM     28  C   UNL A   1      41.705  25.211  26.039  1.00  0.00     0.251 C 
ATOM     29  H   UNL A   1      42.000  23.411  25.184  1.00  0.00     0.163 HD
ATOM     30  O   UNL A   1      41.473  25.789  24.986  1.00  0.00    -0.269 OA
BRANCH  28  31
ATOM     31  C   UNL A   1      41.668  25.941  27.324  1.00  0.00     0.039 A 
ATOM     32  C   UNL A   1      42.709  26.819  27.633  1.00  0.00     0.014 A 
ATOM     33  C   UNL A   1      40.553  25.839  28.158  1.00  0.00     0.014 A 
ATOM     34  C   UNL A   1      42.583  27.669  28.734  1.00  0.00     0.010 A 
ATOM     35  C   UNL A   1      40.390  26.747  29.195  1.00  0.00     0.010 A 
ATOM     36  C   UNL A   1      41.400  27.677  29.491  1.00  0.00    -0.014 A 
BRANCH  36  37
ATOM     37  C   UNL A   1      41.188  28.646  30.597  1.00  0.00     0.031 A 
ATOM     38  C   UNL A   1      42.033  28.553  31.839  1.00  0.00     0.074 A 
ATOM     39  C   UNL A   1      40.180  29.540  30.524  1.00  0.00     0.049 A 
ATOM     40  N   UNL A   1      41.927  29.216  32.960  1.00  0.00    -0.248 NA
ATOM     41  C   UNL A   1      43.113  27.551  31.834  1.00  0.00     0.031 C 
ATOM     42  C   UNL A   1      39.244  29.678  29.405  1.00  0.00     0.029 A 
ATOM     43  N   UNL A   1      39.763  30.492  31.420  1.00  0.00    -0.354 N 
ATOM     44  C   UNL A   1      42.898  28.689  33.803  1.00  0.00     0.074 A 
ATOM     45  C   UNL A   1      43.554  27.622  33.082  1.00  0.00     0.031 C 
ATOM     46  C   UNL A   1      38.377  30.670  29.674  1.00  0.00     0.029 A 
ATOM     47  C   UNL A   1      38.675  31.217  30.993  1.00  0.00     0.049 A 
ATOM     48  H   UNL A   1      40.203  30.643  32.287  1.00  0.00     0.167 HD
ATOM     49  C   UNL A   1      43.229  29.077  35.057  1.00  0.00     0.037 A 
ATOM     50  C   UNL A   1      37.992  32.207  31.600  1.00  0.00     0.037 A 
ATOM     51  C   UNL A   1      42.623  30.187  35.741  1.00  0.00     0.049 A 
ATOM     52  C   UNL A   1      38.430  32.667  32.966  1.00  0.00     0.074 A 
ATOM     53  C   UNL A   1      42.954  30.721  36.974  1.00  0.00     0.029 A 
ATOM     54  N   UNL A   1      41.575  30.945  35.243  1.00  0.00    -0.354 N 
ATOM     55  N   UNL A   1      39.400  32.204  33.718  1.00  0.00    -0.248 NA
ATOM     56  C   UNL A   1      37.689  33.789  33.561  1.00  0.00     0.031 C 
ATOM     57  C   UNL A   1      42.090  31.790  37.232  1.00  0.00     0.029 A 
ATOM     58  C   UNL A   1      41.242  31.939  36.147  1.00  0.00     0.049 A 
ATOM     59  H   UNL A   1      41.132  30.797  34.377  1.00  0.00     0.167 HD
ATOM     60  C   UNL A   1      39.401  32.994  34.862  1.00  0.00     0.074 A 
ATOM     61  C   UNL A   1      38.346  33.971  34.699  1.00  0.00     0.031 C 
ATOM     62  C   UNL A   1      40.204  32.916  35.951  1.00  0.00     0.037 A 
BRANCH  49  63
ATOM     63  C   UNL A   1      44.315  28.317  35.762  1.00  0.00     0.058 A 
ATOM     64  C   UNL A   1      45.664  28.688  35.645  1.00  0.00     0.135 A 
ATOM     65  C   UNL A   1      44.000  27.242  36.606  1.00  0.00     0.135 A 
ATOM     66  F   UNL A   1      46.019  29.697  34.834  1.00  0.00    -0.206 F 
ATOM     67  C   UNL A   1      46.665  28.010  36.330  1.00  0.00     0.059 A 
ATOM     68  C   UNL A   1      44.983  26.563  37.321  1.00  0.00     0.059 A 
ATOM     69  F   UNL A   1      42.726  26.843  36.748  1.00  0.00    -0.206 F 
ATOM     70  C   UNL A   1      46.315  26.950  37.169  1.00  0.00     0.060 A 
BRANCH  70  71
ATOM     71  S   UNL A   1      47.622  26.102  38.079  1.00  0.00     0.124 S 
ATOM     72  O   UNL A   1      47.507  26.722  39.397  1.00  0.00    -0.237 OA
ATOM     73  O   UNL A   1      47.207  24.706  37.998  1.00  0.00    -0.237 OA
ATOM     74  O   UNL A   1      48.829  26.439  37.331  1.00  0.00    -0.744 OA
ENDBRANCH  70  71
ENDBRANCH  49  63
BRANCH  50  75
ATOM     75  C   UNL A   1      36.837  32.855  30.922  1.00  0.00     0.058 A 
ATOM     76  C   UNL A   1      37.039  33.819  29.922  1.00  0.00     0.135 A 
ATOM     77  C   UNL A   1      35.515  32.546  31.274  1.00  0.00     0.135 A 
ATOM     78  F   UNL A   1      38.287  34.150  29.554  1.00  0.00    -0.206 F 
ATOM     79  C   UNL A   1      35.974  34.477  29.318  1.00  0.00     0.059 A 
ATOM     80  C   UNL A   1      34.432  33.175  30.669  1.00  0.00     0.059 A 
ATOM     81  F   UNL A   1      35.269  31.616  32.211  1.00  0.00    -0.206 F 
ATOM     82  C   UNL A   1      34.673  34.153  29.703  1.00  0.00     0.060 A 
BRANCH  82  83
ATOM     83  S   UNL A   1      33.291  35.002  28.906  1.00  0.00     0.124 S 
ATOM     84  O   UNL A   1      33.962  36.142  28.296  1.00  0.00    -0.237 OA
ATOM     85  O   UNL A   1      32.793  33.985  27.984  1.00  0.00    -0.237 OA
ATOM     86  O   UNL A   1      32.404  35.311  30.023  1.00  0.00    -0.744 OA
ENDBRANCH  82  83
ENDBRANCH  50  75
BRANCH  62  87
ATOM     87  C   UNL A   1      40.001  33.938  37.031  1.00  0.00     0.058 A 
ATOM     88  C   UNL A   1      40.573  35.216  36.950  1.00  0.00     0.135 A 
ATOM     89  C   UNL A   1      39.176  33.653  38.130  1.00  0.00     0.135 A 
ATOM     90  F   UNL A   1      41.375  35.533  35.920  1.00  0.00    -0.206 F 
ATOM     91  C   UNL A   1      40.346  36.175  37.931  1.00  0.00     0.059 A 
ATOM     92  C   UNL A   1      38.917  34.604  39.112  1.00  0.00     0.059 A 
ATOM     93  F   UNL A   1      38.597  32.447  38.247  1.00  0.00    -0.206 F 
ATOM     94  C   UNL A   1      39.515  35.859  39.008  1.00  0.00     0.060 A 
BRANCH  94  95
ATOM     95  S   UNL A   1      39.192  37.124  40.255  1.00  0.00     0.124 S 
ATOM     96  O   UNL A   1      40.546  37.495  40.653  1.00  0.00    -0.237 OA
ATOM     97  O   UNL A   1      38.455  38.131  39.500  1.00  0.00    -0.237 OA
ATOM     98  O   UNL A   1      38.414  36.411  41.265  1.00  0.00    -0.744 OA
ENDBRANCH  94  95
ENDBRANCH  62  87
ENDBRANCH  36  37
ENDBRANCH  28  31
ENDBRANCH  26  27
ENDBRANCH   1  26
TORSDOF 15
ENDMDL
MODEL 2
REMARK VINA RESULT:     -12.5      5.156     12.323
REMARK SMILES C[C@H]1CN(C(=O)N2CC[NH+]([C@@H](C)C(=O)NCCCCNC(=O)c3ccc(-c4c5nc(c(-c6c(F)cc(S(=O)(=O)[O-])cc6F)c6ccc([nH]6)c(-c6c(F)cc(S(=O)(=O)[O-])cc6F)c6nc(c(-c7c(F)cc(S(=O)(=O)[O-])cc7F)c7ccc4[nH]7)C=C6)C=C5)cc3)CC2)C[C@@H]1C
REMARK SMILES IDX 18 1 17 2 16 3 15 4 13 5 14 6 11 8 12 9 10 10 1 11 2 12 3 13
REMARK SMILES IDX 92 14 4 15 91 16 93 17 5 18 6 19 7 20 8 21 90 22 9 23 89 24
REMARK SMILES IDX 19 26 20 27 21 28 22 30 23 31 24 32 88 33 25 34 87 35 26 36
REMARK SMILES IDX 27 37 28 38 81 39 29 40 86 41 80 42 82 43 30 44 85 45 79 46
REMARK SMILES IDX 78 47 31 49 65 50 44 51 64 52 45 53 48 54 63 55 83 56 46 57
REMARK SMILES IDX 47 58 62 60 84 61 49 62 32 63 33 64 42 65 34 66 35 67 41 68
REMARK SMILES IDX 43 69 36 70 37 71 38 72 39 73 40 74 66 75 67 76 76 77 68 78
REMARK SMILES IDX 69 79 75 80 77 81 70 82 71 83 72 84 73 85 74 86 50 87 51 88
REMARK SMILES IDX 60 89 52 90 53 91 59 92 61 93 54 94 55 95 56 96 57 97 58 98
REMARK H PARENT 15 7 10 25 20 29 82 48 48 59
REMARK Flexibility Score: inf
ROOT
ATOM      1  C   UNL A   1      33.399  33.346  28.211  1.00  0.00     0.023 C 
ENDROOT
BRANCH   1   2
ATOM      2  C   UNL A   1      34.055  34.693  27.940  1.00  0.00     0.023 C 
BRANCH   2   3
ATOM      3  C   UNL A   1      34.266  35.575  29.178  1.00  0.00     0.116 C 
BRANCH   3   4
ATOM      4  N   UNL A   1      33.118  35.530  30.062  1.00  0.00    -0.351 N 
ATOM      5  C   UNL A   1      32.994  35.374  31.411  1.00  0.00     0.278 C 
ATOM      6  O   UNL A   1      31.836  35.252  31.833  1.00  0.00    -0.268 OA
ATOM      7  H   UNL A   1      32.256  35.630  29.596  1.00  0.00     0.163 HD
BRANCH   5   8
ATOM      8  C   UNL A   1      34.188  35.369  32.411  1.00  0.00     0.271 C 
ATOM      9  C   UNL A   1      34.371  36.676  33.180  1.00  0.00     0.086 C 
BRANCH   8  10
ATOM     10  N   UNL A   1      35.376  34.633  31.910  1.00  0.00    -0.322 N 
ATOM     11  C   UNL A   1      39.342  28.552  32.916  1.00  0.00     0.010 C 
ATOM     12  C   UNL A   1      39.924  29.952  33.110  1.00  0.00     0.010 C 
ATOM     13  C   UNL A   1      38.834  31.021  32.996  1.00  0.00     0.125 C 
ATOM     14  C   UNL A   1      40.461  30.157  34.541  1.00  0.00     0.010 C 
ATOM     15  N   UNL A   1      38.372  31.231  34.359  1.00  0.00    -0.324 N 
ATOM     16  C   UNL A   1      39.205  30.544  35.327  1.00  0.00     0.125 C 
ATOM     17  C   UNL A   1      41.506  31.276  34.593  1.00  0.00     0.010 C 
ATOM     18  C   UNL A   1      37.427  32.144  34.754  1.00  0.00     0.320 C 
ATOM     19  O   UNL A   1      37.158  32.379  35.929  1.00  0.00    -0.248 OA
ATOM     20  N   UNL A   1      36.879  32.868  33.715  1.00  0.00    -0.313 N 
ATOM     21  C   UNL A   1      37.003  34.310  33.815  1.00  0.00     0.183 C 
ATOM     22  C   UNL A   1      35.623  32.399  33.140  1.00  0.00     0.183 C 
ATOM     23  C   UNL A   1      36.684  34.973  32.471  1.00  0.00     0.284 C 
ATOM     24  C   UNL A   1      35.230  33.165  31.856  1.00  0.00     0.284 C 
ATOM     25  H   UNL A   1      35.384  35.003  30.959  1.00  0.00     0.348 HD
ENDBRANCH   8  10
ENDBRANCH   5   8
ENDBRANCH   3   4
ENDBRANCH   2   3
ENDBRANCH   1   2
BRANCH   1  26
ATOM     26  C   UNL A   1      34.369  32.200  28.449  1.00  0.00     0.116 C 
BRANCH  26  27
ATOM     27  N   UNL A   1      33.860  30.897  28.038  1.00  0.00    -0.352 N 
ATOM     28  C   UNL A   1      34.560  29.716  27.908  1.00  0.00     0.251 C 
ATOM     29  H   UNL A   1      32.900  30.856  27.828  1.00  0.00     0.163 HD
ATOM     30  O   UNL A   1      34.014  28.709  27.478  1.00  0.00    -0.269 OA
BRANCH  28  31
ATOM     31  C   UNL A   1      35.998  29.709  28.249  1.00  0.00     0.039 A 
ATOM     32  C   UNL A   1      36.386  29.337  29.538  1.00  0.00     0.014 A 
ATOM     33  C   UNL A   1      36.955  29.958  27.263  1.00  0.00     0.014 A 
ATOM     34  C   UNL A   1      37.738  29.119  29.809  1.00  0.00     0.010 A 
ATOM     35  C   UNL A   1      38.286  29.652  27.510  1.00  0.00     0.010 A 
ATOM     36  C   UNL A   1      38.692  29.223  28.784  1.00  0.00    -0.014 A 
BRANCH  36  37
ATOM     37  C   UNL A   1      40.121  28.888  29.012  1.00  0.00     0.031 A 
ATOM     38  C   UNL A   1      41.062  29.947  29.520  1.00  0.00     0.074 A 
ATOM     39  C   UNL A   1      40.589  27.669  28.673  1.00  0.00     0.049 A 
ATOM     40  N   UNL A   1      42.359  29.897  29.667  1.00  0.00    -0.248 NA
ATOM     41  C   UNL A   1      40.469  31.250  29.869  1.00  0.00     0.031 C 
ATOM     42  C   UNL A   1      39.792  26.580  28.100  1.00  0.00     0.029 A 
ATOM     43  N   UNL A   1      41.855  27.144  28.746  1.00  0.00    -0.354 N 
ATOM     44  C   UNL A   1      42.740  31.165  30.087  1.00  0.00     0.074 A 
ATOM     45  C   UNL A   1      41.545  31.977  30.131  1.00  0.00     0.031 C 
ATOM     46  C   UNL A   1      40.584  25.514  27.892  1.00  0.00     0.029 A 
ATOM     47  C   UNL A   1      41.947  25.850  28.288  1.00  0.00     0.049 A 
ATOM     48  H   UNL A   1      42.626  27.648  29.093  1.00  0.00     0.167 HD
ATOM     49  C   UNL A   1      43.973  31.607  30.431  1.00  0.00     0.037 A 
ATOM     50  C   UNL A   1      43.013  25.031  28.194  1.00  0.00     0.037 A 
ATOM     51  C   UNL A   1      45.145  30.776  30.457  1.00  0.00     0.049 A 
ATOM     52  C   UNL A   1      44.359  25.526  28.653  1.00  0.00     0.074 A 
ATOM     53  C   UNL A   1      46.421  31.102  30.883  1.00  0.00     0.029 A 
ATOM     54  N   UNL A   1      45.182  29.448  30.059  1.00  0.00    -0.354 N 
ATOM     55  N   UNL A   1      44.686  26.708  29.117  1.00  0.00    -0.248 NA
ATOM     56  C   UNL A   1      45.479  24.575  28.583  1.00  0.00     0.031 C 
ATOM     57  C   UNL A   1      47.236  29.977  30.721  1.00  0.00     0.029 A 
ATOM     58  C   UNL A   1      46.460  28.943  30.223  1.00  0.00     0.049 A 
ATOM     59  H   UNL A   1      44.414  28.942  29.710  1.00  0.00     0.167 HD
ATOM     60  C   UNL A   1      46.041  26.634  29.420  1.00  0.00     0.074 A 
ATOM     61  C   UNL A   1      46.470  25.289  29.097  1.00  0.00     0.031 C 
ATOM     62  C   UNL A   1      46.858  27.594  29.919  1.00  0.00     0.037 A 
BRANCH  49  63
ATOM     63  C   UNL A   1      44.115  33.046  30.836  1.00  0.00     0.058 A 
ATOM     64  C   UNL A   1      44.204  34.071  29.882  1.00  0.00     0.135 A 
ATOM     65  C   UNL A   1      44.105  33.409  32.191  1.00  0.00     0.135 A 
ATOM     66  F   UNL A   1      44.237  33.775  28.572  1.00  0.00    -0.206 F 
ATOM     67  C   UNL A   1      44.294  35.406  30.257  1.00  0.00     0.059 A 
ATOM     68  C   UNL A   1      44.170  34.741  32.590  1.00  0.00     0.059 A 
ATOM     69  F   UNL A   1      44.028  32.466  33.144  1.00  0.00    -0.206 F 
ATOM     70  C   UNL A   1      44.273  35.732  31.614  1.00  0.00     0.060 A 
BRANCH  70  71
ATOM     71  S   UNL A   1      44.355  37.472  32.085  1.00  0.00     0.124 S 
ATOM     72  O   UNL A   1      43.942  38.128  30.846  1.00  0.00    -0.237 OA
ATOM     73  O   UNL A   1      43.401  37.545  33.187  1.00  0.00    -0.237 OA
ATOM     74  O   UNL A   1      45.753  37.658  32.457  1.00  0.00    -0.744 OA
ENDBRANCH  70  71
ENDBRANCH  49  63
BRANCH  50  75
ATOM     75  C   UNL A   1      42.858  23.648  27.667  1.00  0.00     0.058 A 
ATOM     76  C   UNL A   1      42.969  23.386  26.293  1.00  0.00     0.135 A 
ATOM     77  C   UNL A   1      42.572  22.570  28.517  1.00  0.00     0.135 A 
ATOM     78  F   UNL A   1      43.237  24.387  25.440  1.00  0.00    -0.206 F 
ATOM     79  C   UNL A   1      42.770  22.111  25.775  1.00  0.00     0.059 A 
ATOM     80  C   UNL A   1      42.390  21.281  28.026  1.00  0.00     0.059 A 
ATOM     81  F   UNL A   1      42.476  22.765  29.842  1.00  0.00    -0.206 F 
ATOM     82  C   UNL A   1      42.473  21.065  26.650  1.00  0.00     0.060 A 
BRANCH  82  83
ATOM     83  S   UNL A   1      42.228  19.407  25.974  1.00  0.00     0.124 S 
ATOM     84  O   UNL A   1      40.781  19.373  25.804  1.00  0.00    -0.237 OA
ATOM     85  O   UNL A   1      43.015  19.454  24.746  1.00  0.00    -0.237 OA
ATOM     86  O   UNL A   1      42.764  18.541  27.020  1.00  0.00    -0.744 OA
ENDBRANCH  82  83
ENDBRANCH  50  75
BRANCH  62  87
ATOM     87  C   UNL A   1      48.285  27.215  30.186  1.00  0.00     0.058 A 
ATOM     88  C   UNL A   1      49.279  27.360  29.207  1.00  0.00     0.135 A 
ATOM     89  C   UNL A   1      48.671  26.759  31.456  1.00  0.00     0.135 A 
ATOM     90  F   UNL A   1      48.956  27.787  27.975  1.00  0.00    -0.206 F 
ATOM     91  C   UNL A   1      50.607  27.050  29.473  1.00  0.00     0.059 A 
ATOM     92  C   UNL A   1      49.998  26.463  31.750  1.00  0.00     0.059 A 
ATOM     93  F   UNL A   1      47.757  26.613  32.429  1.00  0.00    -0.206 F 
ATOM     94  C   UNL A   1      50.957  26.603  30.749  1.00  0.00     0.060 A 
BRANCH  94  95
ATOM     95  S   UNL A   1      52.692  26.243  31.098  1.00  0.00     0.124 S 
ATOM     96  O   UNL A   1      53.066  27.383  31.929  1.00  0.00    -0.237 OA
ATOM     97  O   UNL A   1      52.616  24.957  31.783  1.00  0.00    -0.237 OA
ATOM     98  O   UNL A   1      53.302  26.205  29.771  1.00  0.00    -0.744 OA
ENDBRANCH  94  95
ENDBRANCH  62  87
ENDBRANCH  36  37
ENDBRANCH  28  31
ENDBRANCH  26  27
ENDBRANCH   1  26
TORSDOF 15
ENDMDL
MODEL 3
REMARK VINA RESULT:     -12.4      6.566     12.120
REMARK SMILES C[C@H]1CN(C(=O)N2CC[NH+]([C@@H](C)C(=O)NCCCCNC(=O)c3ccc(-c4c5nc(c(-c6c(F)cc(S(=O)(=O)[O-])cc6F)c6ccc([nH]6)c(-c6c(F)cc(S(=O)(=O)[O-])cc6F)c6nc(c(-c7c(F)cc(S(=O)(=O)[O-])cc7F)c7ccc4[nH]7)C=C6)C=C5)cc3)CC2)C[C@@H]1C
REMARK SMILES IDX 18 1 17 2 16 3 15 4 13 5 14 6 11 8 12 9 10 10 1 11 2 12 3 13
REMARK SMILES IDX 92 14 4 15 91 16 93 17 5 18 6 19 7 20 8 21 90 22 9 23 89 24
REMARK SMILES IDX 19 26 20 27 21 28 22 30 23 31 24 32 88 33 25 34 87 35 26 36
REMARK SMILES IDX 27 37 28 38 81 39 29 40 86 41 80 42 82 43 30 44 85 45 79 46
REMARK SMILES IDX 78 47 31 49 65 50 44 51 64 52 45 53 48 54 63 55 83 56 46 57
REMARK SMILES IDX 47 58 62 60 84 61 49 62 32 63 33 64 42 65 34 66 35 67 41 68
REMARK SMILES IDX 43 69 36 70 37 71 38 72 39 73 40 74 66 75 67 76 76 77 68 78
REMARK SMILES IDX 69 79 75 80 77 81 70 82 71 83 72 84 73 85 74 86 50 87 51 88
REMARK SMILES IDX 60 89 52 90 53 91 59 92 61 93 54 94 55 95 56 96 57 97 58 98
REMARK H PARENT 15 7 10 25 20 29 82 48 48 59
REMARK Flexibility Score: inf
ROOT
ATOM      1  C   UNL A   1      34.441  29.079  26.862  1.00  0.00     0.023 C 
ENDROOT
BRANCH   1   2
ATOM      2  C   UNL A   1      33.200  29.899  27.188  1.00  0.00     0.023 C 
BRANCH   2   3
ATOM      3  C   UNL A   1      32.289  30.208  25.992  1.00  0.00     0.116 C 
BRANCH   3   4
ATOM      4  N   UNL A   1      32.914  29.827  24.740  1.00  0.00    -0.351 N 
ATOM      5  C   UNL A   1      32.487  29.080  23.683  1.00  0.00     0.278 C 
ATOM      6  O   UNL A   1      33.337  28.843  22.814  1.00  0.00    -0.268 OA
ATOM      7  H   UNL A   1      33.828  30.177  24.633  1.00  0.00     0.163 HD
BRANCH   5   8
ATOM      8  C   UNL A   1      31.032  28.554  23.506  1.00  0.00     0.271 C 
ATOM      9  C   UNL A   1      29.967  29.649  23.465  1.00  0.00     0.086 C 
BRANCH   8  10
ATOM     10  N   UNL A   1      30.766  27.290  24.238  1.00  0.00    -0.322 N 
ATOM     11  C   UNL A   1      34.060  21.535  27.359  1.00  0.00     0.010 C 
ATOM     12  C   UNL A   1      33.110  21.391  26.169  1.00  0.00     0.010 C 
ATOM     13  C   UNL A   1      32.703  22.762  25.622  1.00  0.00     0.125 C 
ATOM     14  C   UNL A   1      33.800  20.727  24.961  1.00  0.00     0.010 C 
ATOM     15  N   UNL A   1      33.669  23.047  24.573  1.00  0.00    -0.324 N 
ATOM     16  C   UNL A   1      34.510  21.902  24.282  1.00  0.00     0.125 C 
ATOM     17  C   UNL A   1      32.780  20.084  24.016  1.00  0.00     0.010 C 
ATOM     18  C   UNL A   1      33.669  24.154  23.762  1.00  0.00     0.320 C 
ATOM     19  O   UNL A   1      34.423  24.295  22.804  1.00  0.00    -0.248 OA
ATOM     20  N   UNL A   1      32.661  25.054  24.043  1.00  0.00    -0.313 N 
ATOM     21  C   UNL A   1      31.768  25.367  22.944  1.00  0.00     0.183 C 
ATOM     22  C   UNL A   1      32.970  26.177  24.921  1.00  0.00     0.183 C 
ATOM     23  C   UNL A   1      30.513  26.081  23.455  1.00  0.00     0.284 C 
ATOM     24  C   UNL A   1      31.715  26.983  25.326  1.00  0.00     0.284 C 
ATOM     25  H   UNL A   1      29.865  27.546  24.643  1.00  0.00     0.348 HD
ENDBRANCH   8  10
ENDBRANCH   5   8
ENDBRANCH   3   4
ENDBRANCH   2   3
ENDBRANCH   1   2
BRANCH   1  26
ATOM     26  C   UNL A   1      35.675  29.438  27.673  1.00  0.00     0.116 C 
BRANCH  26  27
ATOM     27  N   UNL A   1      35.396  29.748  29.070  1.00  0.00    -0.352 N 
ATOM     28  C   UNL A   1      36.300  29.925  30.097  1.00  0.00     0.251 C 
ATOM     29  H   UNL A   1      34.446  29.841  29.311  1.00  0.00     0.163 HD
ATOM     30  O   UNL A   1      35.917  30.107  31.244  1.00  0.00    -0.269 OA
BRANCH  28  31
ATOM     31  C   UNL A   1      37.742  29.837  29.787  1.00  0.00     0.039 A 
ATOM     32  C   UNL A   1      38.631  29.478  30.803  1.00  0.00     0.014 A 
ATOM     33  C   UNL A   1      38.191  29.997  28.474  1.00  0.00     0.014 A 
ATOM     34  C   UNL A   1      39.958  29.183  30.479  1.00  0.00     0.010 A 
ATOM     35  C   UNL A   1      39.484  29.615  28.142  1.00  0.00     0.010 A 
ATOM     36  C   UNL A   1      40.379  29.198  29.139  1.00  0.00    -0.014 A 
BRANCH  36  37
ATOM     37  C   UNL A   1      41.750  28.780  28.749  1.00  0.00     0.031 A 
ATOM     38  C   UNL A   1      42.850  29.806  28.684  1.00  0.00     0.074 A 
ATOM     39  C   UNL A   1      41.982  27.508  28.364  1.00  0.00     0.049 A 
ATOM     40  N   UNL A   1      44.075  29.674  28.251  1.00  0.00    -0.248 NA
ATOM     41  C   UNL A   1      42.513  31.170  29.125  1.00  0.00     0.031 C 
ATOM     42  C   UNL A   1      40.982  26.438  28.311  1.00  0.00     0.029 A 
ATOM     43  N   UNL A   1      43.133  26.902  27.925  1.00  0.00    -0.354 N 
ATOM     44  C   UNL A   1      44.642  30.941  28.331  1.00  0.00     0.074 A 
ATOM     45  C   UNL A   1      43.615  31.837  28.813  1.00  0.00     0.031 C 
ATOM     46  C   UNL A   1      41.567  25.306  27.885  1.00  0.00     0.029 A 
ATOM     47  C   UNL A   1      42.974  25.573  27.606  1.00  0.00     0.049 A 
ATOM     48  H   UNL A   1      43.993  27.375  27.847  1.00  0.00     0.167 HD
ATOM     49  C   UNL A   1      45.912  31.319  28.053  1.00  0.00     0.037 A 
ATOM     50  C   UNL A   1      43.862  24.675  27.137  1.00  0.00     0.037 A 
ATOM     51  C   UNL A   1      46.949  30.410  27.645  1.00  0.00     0.049 A 
ATOM     52  C   UNL A   1      45.286  25.107  26.906  1.00  0.00     0.074 A 
ATOM     53  C   UNL A   1      48.290  30.676  27.433  1.00  0.00     0.029 A 
ATOM     54  N   UNL A   1      46.765  29.057  27.407  1.00  0.00    -0.354 N 
ATOM     55  N   UNL A   1      45.821  26.295  27.058  1.00  0.00    -0.248 NA
ATOM     56  C   UNL A   1      46.229  24.076  26.448  1.00  0.00     0.031 C 
ATOM     57  C   UNL A   1      48.914  29.487  27.043  1.00  0.00     0.029 A 
ATOM     58  C   UNL A   1      47.967  28.476  27.043  1.00  0.00     0.049 A 
ATOM     59  H   UNL A   1      45.907  28.581  27.483  1.00  0.00     0.167 HD
ATOM     60  C   UNL A   1      47.166  26.147  26.742  1.00  0.00     0.074 A 
ATOM     61  C   UNL A   1      47.367  24.755  26.400  1.00  0.00     0.031 C 
ATOM     62  C   UNL A   1      48.148  27.082  26.732  1.00  0.00     0.037 A 
BRANCH  49  63
ATOM     63  C   UNL A   1      46.262  32.770  28.208  1.00  0.00     0.058 A 
ATOM     64  C   UNL A   1      46.764  33.278  29.416  1.00  0.00     0.135 A 
ATOM     65  C   UNL A   1      46.146  33.651  27.122  1.00  0.00     0.135 A 
ATOM     66  F   UNL A   1      46.876  32.480  30.490  1.00  0.00    -0.206 F 
ATOM     67  C   UNL A   1      47.127  34.613  29.547  1.00  0.00     0.059 A 
ATOM     68  C   UNL A   1      46.525  34.987  27.223  1.00  0.00     0.059 A 
ATOM     69  F   UNL A   1      45.664  33.217  25.946  1.00  0.00    -0.206 F 
ATOM     70  C   UNL A   1      47.007  35.460  28.443  1.00  0.00     0.060 A 
BRANCH  70  71
ATOM     71  S   UNL A   1      47.515  37.183  28.618  1.00  0.00     0.124 S 
ATOM     72  O   UNL A   1      48.331  37.123  29.828  1.00  0.00    -0.237 OA
ATOM     73  O   UNL A   1      48.241  37.425  27.376  1.00  0.00    -0.237 OA
ATOM     74  O   UNL A   1      46.250  37.898  28.750  1.00  0.00    -0.744 OA
ENDBRANCH  70  71
ENDBRANCH  49  63
BRANCH  50  75
ATOM     75  C   UNL A   1      43.448  23.271  26.873  1.00  0.00     0.058 A 
ATOM     76  C   UNL A   1      43.196  22.386  27.932  1.00  0.00     0.135 A 
ATOM     77  C   UNL A   1      43.322  22.779  25.566  1.00  0.00     0.135 A 
ATOM     78  F   UNL A   1      43.308  22.810  29.201  1.00  0.00    -0.206 F 
ATOM     79  C   UNL A   1      42.865  21.054  27.707  1.00  0.00     0.059 A 
ATOM     80  C   UNL A   1      42.970  21.456  25.314  1.00  0.00     0.059 A 
ATOM     81  F   UNL A   1      43.532  23.592  24.518  1.00  0.00    -0.206 F 
ATOM     82  C   UNL A   1      42.762  20.596  26.393  1.00  0.00     0.060 A 
BRANCH  82  83
ATOM     83  S   UNL A   1      42.319  18.868  26.105  1.00  0.00     0.124 S 
ATOM     84  O   UNL A   1      42.573  18.280  27.413  1.00  0.00    -0.237 OA
ATOM     85  O   UNL A   1      40.917  18.969  25.710  1.00  0.00    -0.237 OA
ATOM     86  O   UNL A   1      43.233  18.466  25.040  1.00  0.00    -0.744 OA
ENDBRANCH  82  83
ENDBRANCH  50  75
BRANCH  62  87
ATOM     87  C   UNL A   1      49.533  26.624  26.383  1.00  0.00     0.058 A 
ATOM     88  C   UNL A   1      50.363  26.006  27.330  1.00  0.00     0.135 A 
ATOM     89  C   UNL A   1      50.011  26.749  25.069  1.00  0.00     0.135 A 
ATOM     90  F   UNL A   1      49.952  25.869  28.601  1.00  0.00    -0.206 F 
ATOM     91  C   UNL A   1      51.629  25.542  26.990  1.00  0.00     0.059 A 
ATOM     92  C   UNL A   1      51.265  26.273  24.701  1.00  0.00     0.059 A 
ATOM     93  F   UNL A   1      49.248  27.324  24.124  1.00  0.00    -0.206 F 
ATOM     94  C   UNL A   1      52.070  25.680  25.672  1.00  0.00     0.060 A 
BRANCH  94  95
ATOM     95  S   UNL A   1      53.699  25.037  25.230  1.00  0.00     0.124 S 
ATOM     96  O   UNL A   1      54.537  25.623  26.270  1.00  0.00    -0.237 OA
ATOM     97  O   UNL A   1      53.502  23.594  25.314  1.00  0.00    -0.237 OA
ATOM     98  O   UNL A   1      53.913  25.557  23.882  1.00  0.00    -0.744 OA
ENDBRANCH  94  95
ENDBRANCH  62  87
ENDBRANCH  36  37
ENDBRANCH  28  31
ENDBRANCH  26  27
ENDBRANCH   1  26
TORSDOF 15
ENDMDL
