MODEL 1
REMARK VINA RESULT:     -11.8      0.000      0.000
REMARK SMILES COc1cc(C[N@@H+]2CCO[C@@H](CC(=O)NCCCCNC(=O)c3ccc(-c4c5nc(c(-c6c(F)cc(S(=O)(=O)[O-])cc6F)c6ccc([nH]6)c(-c6c(F)cc(S(=O)(=O)[O-])cc6F)c6nc(c(-c7c(F)cc(S(=O)(=O)[O-])cc7F)c7ccc4[nH]7)C=C6)C=C5)cc3)C2)ccc1O
REMARK SMILES IDX 17 1 16 2 15 3 13 4 14 5 12 7 11 8 7 9 8 10 89 11 9 13 10 14
REMARK SMILES IDX 6 15 5 16 3 17 4 18 92 19 91 20 90 21 2 22 1 23 93 24 18 26
REMARK SMILES IDX 19 27 20 28 21 29 22 31 23 32 24 33 88 34 25 35 87 36 26 37
REMARK SMILES IDX 27 38 28 39 81 40 29 41 86 42 80 43 82 44 30 45 85 46 79 47
REMARK SMILES IDX 78 48 31 50 65 51 44 52 64 53 45 54 48 55 63 56 83 57 46 58
REMARK SMILES IDX 47 59 62 61 84 62 49 63 32 64 33 65 42 66 34 67 35 68 41 69
REMARK SMILES IDX 43 70 36 71 37 72 38 73 39 74 40 75 66 76 67 77 76 78 68 79
REMARK SMILES IDX 69 80 75 81 77 82 70 83 71 84 72 85 73 86 74 87 50 88 51 89
REMARK SMILES IDX 60 90 52 91 53 92 59 93 61 94 54 95 55 96 56 97 57 98 58 99
REMARK H PARENT 15 6 7 12 93 25 20 30 82 49 48 60
REMARK Flexibility Score: inf
ROOT
ATOM      1  C   UNL A   1      37.719  22.226  25.611  1.00  0.00     0.023 C 
ENDROOT
BRANCH   1   2
ATOM      2  C   UNL A   1      36.411  21.487  25.310  1.00  0.00     0.116 C 
BRANCH   2   3
ATOM      3  N   UNL A   1      35.553  21.467  26.484  1.00  0.00    -0.356 N 
ATOM      4  C   UNL A   1      34.242  21.829  26.610  1.00  0.00     0.222 C 
ATOM      5  O   UNL A   1      33.757  21.920  27.738  1.00  0.00    -0.275 OA
ATOM      6  H   UNL A   1      35.980  21.146  27.310  1.00  0.00     0.163 HD
BRANCH   4   7
ATOM      7  C   UNL A   1      33.408  22.103  25.378  1.00  0.00     0.138 C 
BRANCH   7   8
ATOM      8  C   UNL A   1      33.362  23.567  24.922  1.00  0.00     0.182 C 
ATOM      9  N   UNL A   1      31.836  25.643  24.881  1.00  0.00    -0.327 N 
ATOM     10  C   UNL A   1      32.891  26.321  25.629  1.00  0.00     0.291 C 
ATOM     11  C   UNL A   1      31.953  24.189  25.004  1.00  0.00     0.295 C 
ATOM     12  H   UNL A   1      30.971  25.909  25.352  1.00  0.00     0.348 HD
ATOM     13  C   UNL A   1      34.281  25.675  25.512  1.00  0.00     0.222 C 
ATOM     14  O   UNL A   1      34.257  24.277  25.809  1.00  0.00    -0.366 OA
BRANCH   9  15
ATOM     15  C   UNL A   1      31.494  26.158  23.559  1.00  0.00     0.299 C 
BRANCH  15  16
ATOM     16  C   UNL A   1      30.186  26.899  23.460  1.00  0.00     0.010 A 
ATOM     17  C   UNL A   1      28.859  28.666  22.491  1.00  0.00     0.160 A 
ATOM     18  C   UNL A   1      30.101  28.085  22.716  1.00  0.00     0.060 A 
ATOM     19  C   UNL A   1      27.718  28.149  23.100  1.00  0.00     0.157 A 
ATOM     20  C   UNL A   1      27.791  27.012  23.889  1.00  0.00     0.051 A 
ATOM     21  C   UNL A   1      29.023  26.379  24.060  1.00  0.00     0.013 A 
BRANCH  17  22
ATOM     22  O   UNL A   1      28.740  29.737  21.644  1.00  0.00    -0.493 OA
ATOM     23  C   UNL A   1      29.122  30.933  22.335  1.00  0.00     0.278 C 
ENDBRANCH  17  22
BRANCH  19  24
ATOM     24  O   UNL A   1      26.504  28.745  22.906  1.00  0.00    -0.504 OA
ATOM     25  H   UNL A   1      26.431  29.678  22.934  1.00  0.00     0.293 HD
ENDBRANCH  19  24
ENDBRANCH  15  16
ENDBRANCH   9  15
ENDBRANCH   7   8
ENDBRANCH   4   7
ENDBRANCH   2   3
ENDBRANCH   1   2
BRANCH   1  26
ATOM     26  C   UNL A   1      37.556  23.564  26.308  1.00  0.00     0.023 C 
BRANCH  26  27
ATOM     27  C   UNL A   1      38.835  24.089  26.929  1.00  0.00     0.116 C 
BRANCH  27  28
ATOM     28  N   UNL A   1      39.878  24.391  25.954  1.00  0.00    -0.352 N 
ATOM     29  C   UNL A   1      40.867  25.342  26.057  1.00  0.00     0.251 C 
ATOM     30  H   UNL A   1      39.872  23.855  25.128  1.00  0.00     0.163 HD
ATOM     31  O   UNL A   1      41.639  25.561  25.132  1.00  0.00    -0.269 OA
BRANCH  29  32
ATOM     32  C   UNL A   1      40.935  26.123  27.306  1.00  0.00     0.039 A 
ATOM     33  C   UNL A   1      41.958  27.059  27.469  1.00  0.00     0.014 A 
ATOM     34  C   UNL A   1      39.892  26.029  28.231  1.00  0.00     0.014 A 
ATOM     35  C   UNL A   1      41.890  27.962  28.530  1.00  0.00     0.010 A 
ATOM     36  C   UNL A   1      39.774  26.992  29.220  1.00  0.00     0.010 A 
ATOM     37  C   UNL A   1      40.776  27.963  29.386  1.00  0.00    -0.014 A 
BRANCH  37  38
ATOM     38  C   UNL A   1      40.640  28.937  30.494  1.00  0.00     0.031 A 
ATOM     39  C   UNL A   1      41.531  28.796  31.698  1.00  0.00     0.074 A 
ATOM     40  C   UNL A   1      39.669  29.871  30.465  1.00  0.00     0.049 A 
ATOM     41  N   UNL A   1      41.483  29.425  32.841  1.00  0.00    -0.248 NA
ATOM     42  C   UNL A   1      42.589  27.773  31.618  1.00  0.00     0.031 C 
ATOM     43  C   UNL A   1      38.709  30.070  29.377  1.00  0.00     0.029 A 
ATOM     44  N   UNL A   1      39.321  30.823  31.390  1.00  0.00    -0.354 N 
ATOM     45  C   UNL A   1      42.473  28.849  33.628  1.00  0.00     0.074 A 
ATOM     46  C   UNL A   1      43.067  27.783  32.853  1.00  0.00     0.031 C 
ATOM     47  C   UNL A   1      37.900  31.097  29.685  1.00  0.00     0.029 A 
ATOM     48  C   UNL A   1      38.257  31.605  31.006  1.00  0.00     0.049 A 
ATOM     49  H   UNL A   1      39.790  30.937  32.248  1.00  0.00     0.167 HD
ATOM     50  C   UNL A   1      42.874  29.197  34.873  1.00  0.00     0.037 A 
ATOM     51  C   UNL A   1      37.640  32.614  31.652  1.00  0.00     0.037 A 
ATOM     52  C   UNL A   1      42.321  30.299  35.609  1.00  0.00     0.049 A 
ATOM     53  C   UNL A   1      38.135  33.016  33.015  1.00  0.00     0.074 A 
ATOM     54  C   UNL A   1      42.694  30.779  36.852  1.00  0.00     0.029 A 
ATOM     55  N   UNL A   1      41.286  31.106  35.160  1.00  0.00    -0.354 N 
ATOM     56  N   UNL A   1      39.101  32.488  33.729  1.00  0.00    -0.248 NA
ATOM     57  C   UNL A   1      37.462  34.153  33.658  1.00  0.00     0.031 C 
ATOM     58  C   UNL A   1      41.870  31.867  37.161  1.00  0.00     0.029 A 
ATOM     59  C   UNL A   1      41.007  32.083  36.098  1.00  0.00     0.049 A 
ATOM     60  H   UNL A   1      40.819  30.999  34.299  1.00  0.00     0.167 HD
ATOM     61  C   UNL A   1      39.172  33.246  34.892  1.00  0.00     0.074 A 
ATOM     62  C   UNL A   1      38.154  34.272  34.784  1.00  0.00     0.031 C 
ATOM     63  C   UNL A   1      40.004  33.108  35.953  1.00  0.00     0.037 A 
BRANCH  50  64
ATOM     64  C   UNL A   1      43.973  28.383  35.495  1.00  0.00     0.058 A 
ATOM     65  C   UNL A   1      45.326  28.679  35.266  1.00  0.00     0.135 A 
ATOM     66  C   UNL A   1      43.672  27.291  36.324  1.00  0.00     0.135 A 
ATOM     67  F   UNL A   1      45.669  29.699  34.463  1.00  0.00    -0.206 F 
ATOM     68  C   UNL A   1      46.343  27.898  35.803  1.00  0.00     0.059 A 
ATOM     69  C   UNL A   1      44.673  26.512  36.896  1.00  0.00     0.059 A 
ATOM     70  F   UNL A   1      42.394  26.963  36.573  1.00  0.00    -0.206 F 
ATOM     71  C   UNL A   1      46.006  26.812  36.613  1.00  0.00     0.060 A 
BRANCH  71  72
ATOM     72  S   UNL A   1      47.335  25.798  37.293  1.00  0.00     0.124 S 
ATOM     73  O   UNL A   1      47.685  26.547  38.495  1.00  0.00    -0.237 OA
ATOM     74  O   UNL A   1      46.670  24.518  37.517  1.00  0.00    -0.237 OA
ATOM     75  O   UNL A   1      48.339  25.802  36.234  1.00  0.00    -0.744 OA
ENDBRANCH  71  72
ENDBRANCH  50  64
BRANCH  51  76
ATOM     76  C   UNL A   1      36.518  33.341  31.001  1.00  0.00     0.058 A 
ATOM     77  C   UNL A   1      36.749  34.163  29.888  1.00  0.00     0.135 A 
ATOM     78  C   UNL A   1      35.199  33.221  31.463  1.00  0.00     0.135 A 
ATOM     79  F   UNL A   1      37.995  34.314  29.413  1.00  0.00    -0.206 F 
ATOM     80  C   UNL A   1      35.716  34.855  29.264  1.00  0.00     0.059 A 
ATOM     81  C   UNL A   1      34.145  33.887  30.843  1.00  0.00     0.059 A 
ATOM     82  F   UNL A   1      34.923  32.431  32.512  1.00  0.00    -0.206 F 
ATOM     83  C   UNL A   1      34.416  34.709  29.750  1.00  0.00     0.060 A 
BRANCH  83  84
ATOM     84  S   UNL A   1      33.074  35.572  28.902  1.00  0.00     0.124 S 
ATOM     85  O   UNL A   1      32.447  34.485  28.160  1.00  0.00    -0.237 OA
ATOM     86  O   UNL A   1      32.302  36.114  30.017  1.00  0.00    -0.237 OA
ATOM     87  O   UNL A   1      33.775  36.568  28.096  1.00  0.00    -0.744 OA
ENDBRANCH  83  84
ENDBRANCH  51  76
BRANCH  63  88
ATOM     88  C   UNL A   1      39.885  34.112  37.062  1.00  0.00     0.058 A 
ATOM     89  C   UNL A   1      40.500  35.370  36.982  1.00  0.00     0.135 A 
ATOM     90  C   UNL A   1      39.081  33.837  38.180  1.00  0.00     0.135 A 
ATOM     91  F   UNL A   1      41.283  35.674  35.935  1.00  0.00    -0.206 F 
ATOM     92  C   UNL A   1      40.330  36.321  37.982  1.00  0.00     0.059 A 
ATOM     93  C   UNL A   1      38.880  34.782  39.180  1.00  0.00     0.059 A 
ATOM     94  F   UNL A   1      38.464  32.651  38.294  1.00  0.00    -0.206 F 
ATOM     95  C   UNL A   1      39.514  36.020  39.075  1.00  0.00     0.060 A 
BRANCH  95  96
ATOM     96  S   UNL A   1      39.255  37.283  40.339  1.00  0.00     0.124 S 
ATOM     97  O   UNL A   1      38.484  38.280  39.603  1.00  0.00    -0.237 OA
ATOM     98  O   UNL A   1      38.525  36.550  41.368  1.00  0.00    -0.237 OA
ATOM     99  O   UNL A   1      40.611  37.679  40.703  1.00  0.00    -0.744 OA
ENDBRANCH  95  96
ENDBRANCH  63  88
ENDBRANCH  37  38
ENDBRANCH  29  32
ENDBRANCH  27  28
ENDBRANCH  26  27
ENDBRANCH   1  26
TORSDOF 19
ENDMDL
MODEL 2
REMARK VINA RESULT:     -11.7      2.591      3.375
REMARK SMILES COc1cc(C[N@@H+]2CCO[C@@H](CC(=O)NCCCCNC(=O)c3ccc(-c4c5nc(c(-c6c(F)cc(S(=O)(=O)[O-])cc6F)c6ccc([nH]6)c(-c6c(F)cc(S(=O)(=O)[O-])cc6F)c6nc(c(-c7c(F)cc(S(=O)(=O)[O-])cc7F)c7ccc4[nH]7)C=C6)C=C5)cc3)C2)ccc1O
REMARK SMILES IDX 17 1 16 2 15 3 13 4 14 5 12 7 11 8 7 9 8 10 89 11 9 13 10 14
REMARK SMILES IDX 6 15 5 16 3 17 4 18 92 19 91 20 90 21 2 22 1 23 93 24 18 26
REMARK SMILES IDX 19 27 20 28 21 29 22 31 23 32 24 33 88 34 25 35 87 36 26 37
REMARK SMILES IDX 27 38 28 39 81 40 29 41 86 42 80 43 82 44 30 45 85 46 79 47
REMARK SMILES IDX 78 48 31 50 65 51 44 52 64 53 45 54 48 55 63 56 83 57 46 58
REMARK SMILES IDX 47 59 62 61 84 62 49 63 32 64 33 65 42 66 34 67 35 68 41 69
REMARK SMILES IDX 43 70 36 71 37 72 38 73 39 74 40 75 66 76 67 77 76 78 68 79
REMARK SMILES IDX 69 80 75 81 77 82 70 83 71 84 72 85 73 86 74 87 50 88 51 89
REMARK SMILES IDX 60 90 52 91 53 92 59 93 61 94 54 95 55 96 56 97 57 98 58 99
REMARK H PARENT 15 6 7 12 93 25 20 30 82 49 48 60
REMARK Flexibility Score: inf
ROOT
ATOM      1  C   UNL A   1      35.712  21.588  24.728  1.00  0.00     0.023 C 
ENDROOT
BRANCH   1   2
ATOM      2  C   UNL A   1      34.690  21.465  25.863  1.00  0.00     0.116 C 
BRANCH   2   3
ATOM      3  N   UNL A   1      33.913  20.243  25.722  1.00  0.00    -0.356 N 
ATOM      4  C   UNL A   1      32.753  20.025  25.037  1.00  0.00     0.222 C 
ATOM      5  O   UNL A   1      32.154  18.963  25.207  1.00  0.00    -0.275 OA
ATOM      6  H   UNL A   1      34.278  19.459  26.191  1.00  0.00     0.163 HD
BRANCH   4   7
ATOM      7  C   UNL A   1      32.226  21.073  24.082  1.00  0.00     0.138 C 
BRANCH   7   8
ATOM      8  C   UNL A   1      32.192  22.507  24.626  1.00  0.00     0.182 C 
ATOM      9  N   UNL A   1      31.173  24.832  24.185  1.00  0.00    -0.327 N 
ATOM     10  C   UNL A   1      30.595  24.731  25.522  1.00  0.00     0.291 C 
ATOM     11  C   UNL A   1      31.527  23.511  23.663  1.00  0.00     0.295 C 
ATOM     12  H   UNL A   1      30.416  25.186  23.600  1.00  0.00     0.348 HD
ATOM     13  C   UNL A   1      31.294  23.727  26.453  1.00  0.00     0.222 C 
ATOM     14  O   UNL A   1      31.432  22.437  25.854  1.00  0.00    -0.366 OA
BRANCH   9  15
ATOM     15  C   UNL A   1      32.124  25.908  23.929  1.00  0.00     0.299 C 
BRANCH  15  16
ATOM     16  C   UNL A   1      31.544  27.297  23.860  1.00  0.00     0.010 A 
ATOM     17  C   UNL A   1      29.932  28.839  22.941  1.00  0.00     0.160 A 
ATOM     18  C   UNL A   1      30.583  27.612  22.889  1.00  0.00     0.060 A 
ATOM     19  C   UNL A   1      30.315  29.802  23.873  1.00  0.00     0.157 A 
ATOM     20  C   UNL A   1      31.305  29.530  24.804  1.00  0.00     0.051 A 
ATOM     21  C   UNL A   1      31.912  28.273  24.805  1.00  0.00     0.013 A 
BRANCH  17  22
ATOM     22  O   UNL A   1      28.888  29.105  22.094  1.00  0.00    -0.493 OA
ATOM     23  C   UNL A   1      27.652  28.802  22.754  1.00  0.00     0.278 C 
ENDBRANCH  17  22
BRANCH  19  24
ATOM     24  O   UNL A   1      29.698  31.020  23.898  1.00  0.00    -0.504 OA
ATOM     25  H   UNL A   1      29.167  31.291  23.175  1.00  0.00     0.293 HD
ENDBRANCH  19  24
ENDBRANCH  15  16
ENDBRANCH   9  15
ENDBRANCH   7   8
ENDBRANCH   4   7
ENDBRANCH   2   3
ENDBRANCH   1   2
BRANCH   1  26
ATOM     26  C   UNL A   1      36.101  23.010  24.366  1.00  0.00     0.023 C 
BRANCH  26  27
ATOM     27  C   UNL A   1      37.171  23.597  25.264  1.00  0.00     0.116 C 
BRANCH  27  28
ATOM     28  N   UNL A   1      38.331  22.729  25.437  1.00  0.00    -0.352 N 
ATOM     29  C   UNL A   1      39.490  23.012  26.125  1.00  0.00     0.251 C 
ATOM     30  H   UNL A   1      38.280  21.843  25.013  1.00  0.00     0.163 HD
ATOM     31  O   UNL A   1      40.434  22.230  26.129  1.00  0.00    -0.269 OA
BRANCH  29  32
ATOM     32  C   UNL A   1      39.573  24.311  26.816  1.00  0.00     0.039 A 
ATOM     33  C   UNL A   1      39.001  24.445  28.082  1.00  0.00     0.014 A 
ATOM     34  C   UNL A   1      40.355  25.331  26.267  1.00  0.00     0.014 A 
ATOM     35  C   UNL A   1      39.281  25.584  28.837  1.00  0.00     0.010 A 
ATOM     36  C   UNL A   1      40.714  26.409  27.059  1.00  0.00     0.010 A 
ATOM     37  C   UNL A   1      40.175  26.552  28.349  1.00  0.00    -0.014 A 
BRANCH  37  38
ATOM     38  C   UNL A   1      40.539  27.753  29.138  1.00  0.00     0.031 A 
ATOM     39  C   UNL A   1      41.842  27.759  29.891  1.00  0.00     0.074 A 
ATOM     40  C   UNL A   1      39.674  28.779  29.256  1.00  0.00     0.049 A 
ATOM     41  N   UNL A   1      42.289  28.622  30.763  1.00  0.00    -0.248 NA
ATOM     42  C   UNL A   1      42.739  26.612  29.664  1.00  0.00     0.031 C 
ATOM     43  C   UNL A   1      38.358  28.862  28.618  1.00  0.00     0.029 A 
ATOM     44  N   UNL A   1      39.769  29.946  29.971  1.00  0.00    -0.354 N 
ATOM     45  C   UNL A   1      43.496  28.103  31.216  1.00  0.00     0.074 A 
ATOM     46  C   UNL A   1      43.683  26.826  30.567  1.00  0.00     0.031 C 
ATOM     47  C   UNL A   1      37.781  30.030  28.948  1.00  0.00     0.029 A 
ATOM     48  C   UNL A   1      38.666  30.760  29.850  1.00  0.00     0.049 A 
ATOM     49  H   UNL A   1      40.552  30.180  30.519  1.00  0.00     0.167 HD
ATOM     50  C   UNL A   1      44.385  28.657  32.074  1.00  0.00     0.037 A 
ATOM     51  C   UNL A   1      38.404  31.958  30.408  1.00  0.00     0.037 A 
ATOM     52  C   UNL A   1      44.221  29.956  32.665  1.00  0.00     0.049 A 
ATOM     53  C   UNL A   1      39.428  32.577  31.320  1.00  0.00     0.074 A 
ATOM     54  C   UNL A   1      45.087  30.640  33.497  1.00  0.00     0.029 A 
ATOM     55  N   UNL A   1      43.119  30.776  32.468  1.00  0.00    -0.354 N 
ATOM     56  N   UNL A   1      40.585  32.093  31.708  1.00  0.00    -0.248 NA
ATOM     57  C   UNL A   1      39.119  33.905  31.866  1.00  0.00     0.031 C 
ATOM     58  C   UNL A   1      44.500  31.868  33.819  1.00  0.00     0.029 A 
ATOM     59  C   UNL A   1      43.283  31.962  33.162  1.00  0.00     0.049 A 
ATOM     60  H   UNL A   1      42.336  30.548  31.916  1.00  0.00     0.167 HD
ATOM     61  C   UNL A   1      41.154  33.068  32.518  1.00  0.00     0.074 A 
ATOM     62  C   UNL A   1      40.216  34.173  32.562  1.00  0.00     0.031 C 
ATOM     63  C   UNL A   1      42.344  33.054  33.167  1.00  0.00     0.037 A 
BRANCH  50  64
ATOM     64  C   UNL A   1      45.615  27.859  32.400  1.00  0.00     0.058 A 
ATOM     65  C   UNL A   1      46.736  27.858  31.555  1.00  0.00     0.135 A 
ATOM     66  C   UNL A   1      45.674  27.080  33.567  1.00  0.00     0.135 A 
ATOM     67  F   UNL A   1      46.724  28.568  30.415  1.00  0.00    -0.206 F 
ATOM     68  C   UNL A   1      47.856  27.083  31.832  1.00  0.00     0.059 A 
ATOM     69  C   UNL A   1      46.796  26.319  33.880  1.00  0.00     0.059 A 
ATOM     70  F   UNL A   1      44.629  27.043  34.408  1.00  0.00    -0.206 F 
ATOM     71  C   UNL A   1      47.874  26.312  32.995  1.00  0.00     0.060 A 
BRANCH  71  72
ATOM     72  S   UNL A   1      49.329  25.299  33.337  1.00  0.00     0.124 S 
ATOM     73  O   UNL A   1      49.908  26.000  34.479  1.00  0.00    -0.237 OA
ATOM     74  O   UNL A   1      48.743  23.994  33.626  1.00  0.00    -0.237 OA
ATOM     75  O   UNL A   1      50.094  25.378  32.097  1.00  0.00    -0.744 OA
ENDBRANCH  71  72
ENDBRANCH  50  64
BRANCH  51  76
ATOM     76  C   UNL A   1      37.138  32.669  30.088  1.00  0.00     0.058 A 
ATOM     77  C   UNL A   1      37.096  33.627  29.063  1.00  0.00     0.135 A 
ATOM     78  C   UNL A   1      35.949  32.400  30.781  1.00  0.00     0.135 A 
ATOM     79  F   UNL A   1      38.210  33.922  28.375  1.00  0.00    -0.206 F 
ATOM     80  C   UNL A   1      35.924  34.307  28.747  1.00  0.00     0.059 A 
ATOM     81  C   UNL A   1      34.758  33.052  30.469  1.00  0.00     0.059 A 
ATOM     82  F   UNL A   1      35.932  31.479  31.756  1.00  0.00    -0.206 F 
ATOM     83  C   UNL A   1      34.759  34.011  29.457  1.00  0.00     0.060 A 
BRANCH  83  84
ATOM     84  S   UNL A   1      33.231  34.863  29.005  1.00  0.00     0.124 S 
ATOM     85  O   UNL A   1      32.555  34.955  30.294  1.00  0.00    -0.237 OA
ATOM     86  O   UNL A   1      33.730  36.120  28.454  1.00  0.00    -0.237 OA
ATOM     87  O   UNL A   1      32.622  33.960  28.032  1.00  0.00    -0.744 OA
ENDBRANCH  83  84
ENDBRANCH  51  76
BRANCH  63  88
ATOM     88  C   UNL A   1      42.725  34.282  33.941  1.00  0.00     0.058 A 
ATOM     89  C   UNL A   1      42.416  34.418  35.302  1.00  0.00     0.135 A 
ATOM     90  C   UNL A   1      43.477  35.297  33.328  1.00  0.00     0.135 A 
ATOM     91  F   UNL A   1      41.694  33.476  35.929  1.00  0.00    -0.206 F 
ATOM     92  C   UNL A   1      42.832  35.528  36.030  1.00  0.00     0.059 A 
ATOM     93  C   UNL A   1      43.921  36.404  34.042  1.00  0.00     0.059 A 
ATOM     94  F   UNL A   1      43.806  35.205  32.030  1.00  0.00    -0.206 F 
ATOM     95  C   UNL A   1      43.588  36.513  35.392  1.00  0.00     0.060 A 
BRANCH  95  96
ATOM     96  S   UNL A   1      44.171  37.922  36.360  1.00  0.00     0.124 S 
ATOM     97  O   UNL A   1      43.828  39.039  35.487  1.00  0.00    -0.237 OA
ATOM     98  O   UNL A   1      43.384  37.808  37.583  1.00  0.00    -0.237 OA
ATOM     99  O   UNL A   1      45.598  37.658  36.514  1.00  0.00    -0.744 OA
ENDBRANCH  95  96
ENDBRANCH  63  88
ENDBRANCH  37  38
ENDBRANCH  29  32
ENDBRANCH  27  28
ENDBRANCH  26  27
ENDBRANCH   1  26
TORSDOF 19
ENDMDL
MODEL 3
REMARK VINA RESULT:     -11.6      6.183     10.906
REMARK SMILES COc1cc(C[N@@H+]2CCO[C@@H](CC(=O)NCCCCNC(=O)c3ccc(-c4c5nc(c(-c6c(F)cc(S(=O)(=O)[O-])cc6F)c6ccc([nH]6)c(-c6c(F)cc(S(=O)(=O)[O-])cc6F)c6nc(c(-c7c(F)cc(S(=O)(=O)[O-])cc7F)c7ccc4[nH]7)C=C6)C=C5)cc3)C2)ccc1O
REMARK SMILES IDX 17 1 16 2 15 3 13 4 14 5 12 7 11 8 7 9 8 10 89 11 9 13 10 14
REMARK SMILES IDX 6 15 5 16 3 17 4 18 92 19 91 20 90 21 2 22 1 23 93 24 18 26
REMARK SMILES IDX 19 27 20 28 21 29 22 31 23 32 24 33 88 34 25 35 87 36 26 37
REMARK SMILES IDX 27 38 28 39 81 40 29 41 86 42 80 43 82 44 30 45 85 46 79 47
REMARK SMILES IDX 78 48 31 50 65 51 44 52 64 53 45 54 48 55 63 56 83 57 46 58
REMARK SMILES IDX 47 59 62 61 84 62 49 63 32 64 33 65 42 66 34 67 35 68 41 69
REMARK SMILES IDX 43 70 36 71 37 72 38 73 39 74 40 75 66 76 67 77 76 78 68 79
REMARK SMILES IDX 69 80 75 81 77 82 70 83 71 84 72 85 73 86 74 87 50 88 51 89
REMARK SMILES IDX 60 90 52 91 53 92 59 93 61 94 54 95 55 96 56 97 57 98 58 99
REMARK H PARENT 15 6 7 12 93 25 20 30 82 49 48 60
REMARK Flexibility Score: inf
ROOT
ATOM      1  C   UNL A   1      36.936  19.446  24.984  1.00  0.00     0.023 C 
ENDROOT
BRANCH   1   2
ATOM      2  C   UNL A   1      35.693  20.342  25.001  1.00  0.00     0.116 C 
BRANCH   2   3
ATOM      3  N   UNL A   1      34.484  19.538  25.075  1.00  0.00    -0.356 N 
ATOM      4  C   UNL A   1      33.185  19.898  24.853  1.00  0.00     0.222 C 
ATOM      5  O   UNL A   1      32.290  19.110  25.160  1.00  0.00    -0.275 OA
ATOM      6  H   UNL A   1      34.621  18.596  25.323  1.00  0.00     0.163 HD
BRANCH   4   7
ATOM      7  C   UNL A   1      32.864  21.238  24.231  1.00  0.00     0.138 C 
BRANCH   7   8
ATOM      8  C   UNL A   1      32.503  22.356  25.218  1.00  0.00     0.182 C 
ATOM      9  N   UNL A   1      31.812  24.835  25.327  1.00  0.00    -0.327 N 
ATOM     10  C   UNL A   1      30.612  24.376  26.020  1.00  0.00     0.291 C 
ATOM     11  C   UNL A   1      32.428  23.750  24.563  1.00  0.00     0.295 C 
ATOM     12  H   UNL A   1      31.475  25.519  24.648  1.00  0.00     0.348 HD
ATOM     13  C   UNL A   1      30.733  22.987  26.668  1.00  0.00     0.222 C 
ATOM     14  O   UNL A   1      31.207  21.999  25.749  1.00  0.00    -0.366 OA
BRANCH   9  15
ATOM     15  C   UNL A   1      32.721  25.721  26.047  1.00  0.00     0.299 C 
BRANCH  15  16
ATOM     16  C   UNL A   1      32.446  27.197  25.914  1.00  0.00     0.010 A 
ATOM     17  C   UNL A   1      31.300  29.012  24.812  1.00  0.00     0.160 A 
ATOM     18  C   UNL A   1      31.691  27.678  24.835  1.00  0.00     0.060 A 
ATOM     19  C   UNL A   1      31.756  29.897  25.787  1.00  0.00     0.157 A 
ATOM     20  C   UNL A   1      32.554  29.451  26.829  1.00  0.00     0.051 A 
ATOM     21  C   UNL A   1      32.889  28.098  26.900  1.00  0.00     0.013 A 
BRANCH  17  22
ATOM     22  O   UNL A   1      30.440  29.464  23.846  1.00  0.00    -0.493 OA
ATOM     23  C   UNL A   1      30.930  29.079  22.555  1.00  0.00     0.278 C 
ENDBRANCH  17  22
BRANCH  19  24
ATOM     24  O   UNL A   1      31.400  31.214  25.741  1.00  0.00    -0.504 OA
ATOM     25  H   UNL A   1      31.812  31.831  26.314  1.00  0.00     0.293 HD
ENDBRANCH  19  24
ENDBRANCH  15  16
ENDBRANCH   9  15
ENDBRANCH   7   8
ENDBRANCH   4   7
ENDBRANCH   2   3
ENDBRANCH   1   2
BRANCH   1  26
ATOM     26  C   UNL A   1      38.257  20.182  24.850  1.00  0.00     0.023 C 
BRANCH  26  27
ATOM     27  C   UNL A   1      39.111  20.134  26.100  1.00  0.00     0.116 C 
BRANCH  27  28
ATOM     28  N   UNL A   1      40.253  19.232  25.995  1.00  0.00    -0.352 N 
ATOM     29  C   UNL A   1      41.585  19.550  26.135  1.00  0.00     0.251 C 
ATOM     30  H   UNL A   1      40.048  18.289  25.801  1.00  0.00     0.163 HD
ATOM     31  O   UNL A   1      42.462  18.718  25.940  1.00  0.00    -0.269 OA
BRANCH  29  32
ATOM     32  C   UNL A   1      41.920  20.944  26.481  1.00  0.00     0.039 A 
ATOM     33  C   UNL A   1      42.261  21.254  27.799  1.00  0.00     0.014 A 
ATOM     34  C   UNL A   1      42.045  21.892  25.463  1.00  0.00     0.014 A 
ATOM     35  C   UNL A   1      42.807  22.506  28.083  1.00  0.00     0.010 A 
ATOM     36  C   UNL A   1      42.683  23.092  25.730  1.00  0.00     0.010 A 
ATOM     37  C   UNL A   1      43.063  23.416  27.043  1.00  0.00    -0.014 A 
BRANCH  37  38
ATOM     38  C   UNL A   1      43.688  24.737  27.293  1.00  0.00     0.031 A 
ATOM     39  C   UNL A   1      42.814  25.883  27.723  1.00  0.00     0.074 A 
ATOM     40  C   UNL A   1      44.998  24.928  27.045  1.00  0.00     0.049 A 
ATOM     41  N   UNL A   1      43.111  27.149  27.843  1.00  0.00    -0.248 NA
ATOM     42  C   UNL A   1      41.404  25.566  28.010  1.00  0.00     0.031 C 
ATOM     43  C   UNL A   1      45.935  23.906  26.572  1.00  0.00     0.029 A 
ATOM     44  N   UNL A   1      45.767  26.060  27.145  1.00  0.00    -0.354 N 
ATOM     45  C   UNL A   1      41.920  27.782  28.179  1.00  0.00     0.074 A 
ATOM     46  C   UNL A   1      40.887  26.771  28.188  1.00  0.00     0.031 C 
ATOM     47  C   UNL A   1      47.157  24.451  26.449  1.00  0.00     0.029 A 
ATOM     48  C   UNL A   1      47.084  25.867  26.796  1.00  0.00     0.049 A 
ATOM     49  H   UNL A   1      45.411  26.929  27.438  1.00  0.00     0.167 HD
ATOM     50  C   UNL A   1      41.711  29.085  28.484  1.00  0.00     0.037 A 
ATOM     51  C   UNL A   1      48.111  26.738  26.759  1.00  0.00     0.037 A 
ATOM     52  C   UNL A   1      42.755  30.069  28.535  1.00  0.00     0.049 A 
ATOM     53  C   UNL A   1      47.866  28.170  27.149  1.00  0.00     0.074 A 
ATOM     54  C   UNL A   1      42.667  31.402  28.892  1.00  0.00     0.029 A 
ATOM     55  N   UNL A   1      44.087  29.820  28.236  1.00  0.00    -0.354 N 
ATOM     56  N   UNL A   1      46.741  28.746  27.505  1.00  0.00    -0.248 NA
ATOM     57  C   UNL A   1      49.027  29.071  27.140  1.00  0.00     0.031 C 
ATOM     58  C   UNL A   1      43.944  31.963  28.791  1.00  0.00     0.029 A 
ATOM     59  C   UNL A   1      44.832  30.973  28.402  1.00  0.00     0.049 A 
ATOM     60  H   UNL A   1      44.448  28.949  27.947  1.00  0.00     0.167 HD
ATOM     61  C   UNL A   1      47.064  30.067  27.791  1.00  0.00     0.074 A 
ATOM     62  C   UNL A   1      48.490  30.206  27.570  1.00  0.00     0.031 C 
ATOM     63  C   UNL A   1      46.255  31.076  28.199  1.00  0.00     0.037 A 
BRANCH  50  64
ATOM     64  C   UNL A   1      40.302  29.499  28.800  1.00  0.00     0.058 A 
ATOM     65  C   UNL A   1      39.336  29.649  27.793  1.00  0.00     0.135 A 
ATOM     66  C   UNL A   1      39.913  29.757  30.124  1.00  0.00     0.135 A 
ATOM     67  F   UNL A   1      39.661  29.436  26.507  1.00  0.00    -0.206 F 
ATOM     68  C   UNL A   1      38.045  30.078  28.079  1.00  0.00     0.059 A 
ATOM     69  C   UNL A   1      38.619  30.159  30.439  1.00  0.00     0.059 A 
ATOM     70  F   UNL A   1      40.798  29.632  31.126  1.00  0.00    -0.206 F 
ATOM     71  C   UNL A   1      37.698  30.336  29.406  1.00  0.00     0.060 A 
BRANCH  71  72
ATOM     72  S   UNL A   1      36.023  30.906  29.764  1.00  0.00     0.124 S 
ATOM     73  O   UNL A   1      35.225  29.978  28.968  1.00  0.00    -0.237 OA
ATOM     74  O   UNL A   1      35.935  30.735  31.211  1.00  0.00    -0.237 OA
ATOM     75  O   UNL A   1      36.030  32.289  29.299  1.00  0.00    -0.744 OA
ENDBRANCH  71  72
ENDBRANCH  50  64
BRANCH  51  76
ATOM     76  C   UNL A   1      49.471  26.272  26.379  1.00  0.00     0.058 A 
ATOM     77  C   UNL A   1      49.963  26.486  25.082  1.00  0.00     0.135 A 
ATOM     78  C   UNL A   1      50.309  25.623  27.298  1.00  0.00     0.135 A 
ATOM     79  F   UNL A   1      49.197  27.098  24.167  1.00  0.00    -0.206 F 
ATOM     80  C   UNL A   1      51.231  26.058  24.703  1.00  0.00     0.059 A 
ATOM     81  C   UNL A   1      51.590  25.203  26.949  1.00  0.00     0.059 A 
ATOM     82  F   UNL A   1      49.892  25.413  28.556  1.00  0.00    -0.206 F 
ATOM     83  C   UNL A   1      52.038  25.417  25.645  1.00  0.00     0.060 A 
BRANCH  83  84
ATOM     84  S   UNL A   1      53.702  24.909  25.158  1.00  0.00     0.124 S 
ATOM     85  O   UNL A   1      53.889  25.664  23.925  1.00  0.00    -0.237 OA
ATOM     86  O   UNL A   1      54.503  25.339  26.300  1.00  0.00    -0.237 OA
ATOM     87  O   UNL A   1      53.576  23.462  25.002  1.00  0.00    -0.744 OA
ENDBRANCH  83  84
ENDBRANCH  51  76
BRANCH  63  88
ATOM     88  C   UNL A   1      46.894  32.404  28.481  1.00  0.00     0.058 A 
ATOM     89  C   UNL A   1      47.013  33.387  27.489  1.00  0.00     0.135 A 
ATOM     90  C   UNL A   1      47.318  32.720  29.782  1.00  0.00     0.135 A 
ATOM     91  F   UNL A   1      46.627  33.127  26.230  1.00  0.00    -0.206 F 
ATOM     92  C   UNL A   1      47.544  34.641  27.774  1.00  0.00     0.059 A 
ATOM     93  C   UNL A   1      47.832  33.974  30.094  1.00  0.00     0.059 A 
ATOM     94  F   UNL A   1      47.214  31.815  30.767  1.00  0.00    -0.206 F 
ATOM     95  C   UNL A   1      47.946  34.926  29.081  1.00  0.00     0.060 A 
BRANCH  95  96
ATOM     96  S   UNL A   1      48.581  36.575  29.452  1.00  0.00     0.124 S 
ATOM     97  O   UNL A   1      49.848  36.571  28.730  1.00  0.00    -0.237 OA
ATOM     98  O   UNL A   1      47.541  37.441  28.905  1.00  0.00    -0.237 OA
ATOM     99  O   UNL A   1      48.685  36.577  30.908  1.00  0.00    -0.744 OA
ENDBRANCH  95  96
ENDBRANCH  63  88
ENDBRANCH  37  38
ENDBRANCH  29  32
ENDBRANCH  27  28
ENDBRANCH  26  27
ENDBRANCH   1  26
TORSDOF 19
ENDMDL
