MODEL 1
REMARK VINA RESULT:     -10.6      0.000      0.000
REMARK SMILES O=C(NCCCCNC(=O)C1CCN(c2ccnnc2)CC1)c1ccc(-c2c3nc(c(-c4c(F)cc(S(=O)(=O)[O-])cc4F)c4ccc([nH]4)c(-c4c(F)cc(S(=O)(=O)[O-])cc4F)c4nc(c(-c5c(F)cc(S(=O)(=O)[O-])cc5F)c5ccc2[nH]5)C=C4)C=C3)cc1
REMARK SMILES IDX 4 1 3 2 1 3 2 4 23 6 24 7 88 8 25 9 87 10 26 11 27 12 28 13
REMARK SMILES IDX 81 14 29 15 86 16 80 17 82 18 30 19 85 20 79 21 78 22 31 24
REMARK SMILES IDX 65 25 44 26 64 27 45 28 48 29 63 30 83 31 46 32 47 33 62 35
REMARK SMILES IDX 84 36 49 37 32 38 33 39 42 40 34 41 35 42 41 43 43 44 36 45
REMARK SMILES IDX 37 46 38 47 39 48 40 49 66 50 67 51 76 52 68 53 69 54 75 55
REMARK SMILES IDX 77 56 70 57 71 58 72 59 73 60 74 61 50 62 51 63 60 64 52 65
REMARK SMILES IDX 53 66 59 67 61 68 54 69 55 70 56 71 57 72 58 73 5 74 6 75
REMARK SMILES IDX 7 76 8 77 9 78 10 80 11 81 12 82 22 83 13 84 21 85 14 86
REMARK SMILES IDX 15 87 16 88 20 89 17 90 19 91 18 92
REMARK H PARENT 3 5 82 23 48 34 8 79
REMARK Flexibility Score: inf
ROOT
ATOM      1  C   UNL A   1      34.441  32.497  28.572  1.00  0.00     0.116 C 
ENDROOT
BRANCH   1   2
ATOM      2  N   UNL A   1      33.804  31.260  28.152  1.00  0.00    -0.352 N 
ATOM      3  O   UNL A   1      33.696  29.127  27.431  1.00  0.00    -0.269 OA
ATOM      4  C   UNL A   1      34.374  30.032  27.910  1.00  0.00     0.251 C 
ATOM      5  H   UNL A   1      32.829  31.308  28.023  1.00  0.00     0.163 HD
BRANCH   4   6
ATOM      6  C   UNL A   1      35.808  29.816  28.202  1.00  0.00     0.039 A 
ATOM      7  C   UNL A   1      36.780  30.064  27.231  1.00  0.00     0.014 A 
ATOM      8  C   UNL A   1      36.183  29.357  29.469  1.00  0.00     0.014 A 
ATOM      9  C   UNL A   1      38.107  29.727  27.479  1.00  0.00     0.010 A 
ATOM     10  C   UNL A   1      37.528  29.089  29.742  1.00  0.00     0.010 A 
ATOM     11  C   UNL A   1      38.497  29.245  28.739  1.00  0.00    -0.014 A 
BRANCH  11  12
ATOM     12  C   UNL A   1      39.933  28.970  29.000  1.00  0.00     0.031 A 
ATOM     13  C   UNL A   1      40.815  29.991  29.664  1.00  0.00     0.074 A 
ATOM     14  C   UNL A   1      40.433  27.770  28.647  1.00  0.00     0.049 A 
ATOM     15  N   UNL A   1      42.082  29.901  29.979  1.00  0.00    -0.248 NA
ATOM     16  C   UNL A   1      40.202  31.280  30.016  1.00  0.00     0.031 C 
ATOM     17  C   UNL A   1      39.676  26.708  27.977  1.00  0.00     0.029 A 
ATOM     18  N   UNL A   1      41.683  27.232  28.811  1.00  0.00    -0.354 N 
ATOM     19  C   UNL A   1      42.425  31.122  30.545  1.00  0.00     0.074 A 
ATOM     20  C   UNL A   1      41.236  31.946  30.514  1.00  0.00     0.031 C 
ATOM     21  C   UNL A   1      40.465  25.636  27.822  1.00  0.00     0.029 A 
ATOM     22  C   UNL A   1      41.795  25.949  28.332  1.00  0.00     0.049 A 
ATOM     23  H   UNL A   1      42.429  27.718  29.232  1.00  0.00     0.167 HD
ATOM     24  C   UNL A   1      43.621  31.516  31.047  1.00  0.00     0.037 A 
ATOM     25  C   UNL A   1      42.853  25.118  28.292  1.00  0.00     0.037 A 
ATOM     26  C   UNL A   1      44.795  30.681  31.092  1.00  0.00     0.049 A 
ATOM     27  C   UNL A   1      44.164  25.576  28.860  1.00  0.00     0.074 A 
ATOM     28  C   UNL A   1      46.040  30.974  31.623  1.00  0.00     0.029 A 
ATOM     29  N   UNL A   1      44.873  29.392  30.586  1.00  0.00    -0.354 N 
ATOM     30  N   UNL A   1      44.458  26.724  29.422  1.00  0.00    -0.248 NA
ATOM     31  C   UNL A   1      45.285  24.632  28.787  1.00  0.00     0.031 C 
ATOM     32  C   UNL A   1      46.881  29.876  31.404  1.00  0.00     0.029 A 
ATOM     33  C   UNL A   1      46.149  28.884  30.773  1.00  0.00     0.049 A 
ATOM     34  H   UNL A   1      44.131  28.908  30.156  1.00  0.00     0.167 HD
ATOM     35  C   UNL A   1      45.799  26.637  29.776  1.00  0.00     0.074 A 
ATOM     36  C   UNL A   1      46.251  25.318  29.384  1.00  0.00     0.031 C 
ATOM     37  C   UNL A   1      46.584  27.570  30.371  1.00  0.00     0.037 A 
BRANCH  24  38
ATOM     38  C   UNL A   1      43.730  32.918  31.580  1.00  0.00     0.058 A 
ATOM     39  C   UNL A   1      44.074  33.998  30.753  1.00  0.00     0.135 A 
ATOM     40  C   UNL A   1      43.437  33.191  32.927  1.00  0.00     0.135 A 
ATOM     41  F   UNL A   1      44.377  33.791  29.463  1.00  0.00    -0.206 F 
ATOM     42  C   UNL A   1      44.146  35.298  31.247  1.00  0.00     0.059 A 
ATOM     43  C   UNL A   1      43.481  34.486  33.437  1.00  0.00     0.059 A 
ATOM     44  F   UNL A   1      43.101  32.196  33.761  1.00  0.00    -0.206 F 
ATOM     45  C   UNL A   1      43.849  35.532  32.591  1.00  0.00     0.060 A 
BRANCH  45  46
ATOM     46  S   UNL A   1      43.942  37.223  33.216  1.00  0.00     0.124 S 
ATOM     47  O   UNL A   1      45.220  37.203  33.920  1.00  0.00    -0.237 OA
ATOM     48  O   UNL A   1      43.907  38.014  31.989  1.00  0.00    -0.237 OA
ATOM     49  O   UNL A   1      42.759  37.338  34.065  1.00  0.00    -0.744 OA
ENDBRANCH  45  46
ENDBRANCH  24  38
BRANCH  25  50
ATOM     50  C   UNL A   1      42.700  23.770  27.689  1.00  0.00     0.058 A 
ATOM     51  C   UNL A   1      42.845  23.575  26.308  1.00  0.00     0.135 A 
ATOM     52  C   UNL A   1      42.456  22.643  28.489  1.00  0.00     0.135 A 
ATOM     53  F   UNL A   1      43.075  24.623  25.503  1.00  0.00    -0.206 F 
ATOM     54  C   UNL A   1      42.752  22.309  25.740  1.00  0.00     0.059 A 
ATOM     55  C   UNL A   1      42.384  21.365  27.948  1.00  0.00     0.059 A 
ATOM     56  F   UNL A   1      42.329  22.778  29.818  1.00  0.00    -0.206 F 
ATOM     57  C   UNL A   1      42.527  21.208  26.570  1.00  0.00     0.060 A 
BRANCH  57  58
ATOM     58  S   UNL A   1      42.485  19.559  25.836  1.00  0.00     0.124 S 
ATOM     59  O   UNL A   1      41.099  19.472  25.393  1.00  0.00    -0.237 OA
ATOM     60  O   UNL A   1      43.489  19.665  24.781  1.00  0.00    -0.237 OA
ATOM     61  O   UNL A   1      42.850  18.689  26.950  1.00  0.00    -0.744 OA
ENDBRANCH  57  58
ENDBRANCH  25  50
BRANCH  37  62
ATOM     62  C   UNL A   1      48.011  27.188  30.641  1.00  0.00     0.058 A 
ATOM     63  C   UNL A   1      49.044  27.541  29.760  1.00  0.00     0.135 A 
ATOM     64  C   UNL A   1      48.352  26.490  31.810  1.00  0.00     0.135 A 
ATOM     65  F   UNL A   1      48.767  28.200  28.624  1.00  0.00    -0.206 F 
ATOM     66  C   UNL A   1      50.366  27.195  30.017  1.00  0.00     0.059 A 
ATOM     67  C   UNL A   1      49.671  26.154  32.100  1.00  0.00     0.059 A 
ATOM     68  F   UNL A   1      47.400  26.136  32.689  1.00  0.00    -0.206 F 
ATOM     69  C   UNL A   1      50.669  26.500  31.190  1.00  0.00     0.060 A 
BRANCH  69  70
ATOM     70  S   UNL A   1      52.392  26.079  31.528  1.00  0.00     0.124 S 
ATOM     71  O   UNL A   1      52.254  24.786  32.187  1.00  0.00    -0.237 OA
ATOM     72  O   UNL A   1      52.978  26.050  30.191  1.00  0.00    -0.237 OA
ATOM     73  O   UNL A   1      52.846  27.175  32.380  1.00  0.00    -0.744 OA
ENDBRANCH  69  70
ENDBRANCH  37  62
ENDBRANCH  11  12
ENDBRANCH   4   6
ENDBRANCH   1   2
BRANCH   1  74
ATOM     74  C   UNL A   1      33.796  33.737  27.962  1.00  0.00     0.023 C 
BRANCH  74  75
ATOM     75  C   UNL A   1      33.085  34.664  28.949  1.00  0.00     0.023 C 
BRANCH  75  76
ATOM     76  C   UNL A   1      33.925  35.106  30.144  1.00  0.00     0.116 C 
BRANCH  76  77
ATOM     77  N   UNL A   1      33.572  34.390  31.357  1.00  0.00    -0.356 N 
ATOM     78  C   UNL A   1      34.352  33.815  32.310  1.00  0.00     0.223 C 
ATOM     79  H   UNL A   1      32.604  34.307  31.515  1.00  0.00     0.163 HD
ATOM     80  O   UNL A   1      33.791  33.301  33.279  1.00  0.00    -0.275 OA
BRANCH  78  81
ATOM     81  C   UNL A   1      35.865  33.785  32.150  1.00  0.00     0.082 C 
ATOM     82  C   UNL A   1      36.314  32.423  31.598  1.00  0.00     0.035 C 
ATOM     83  C   UNL A   1      36.553  34.156  33.473  1.00  0.00     0.035 C 
ATOM     84  C   UNL A   1      36.380  31.339  32.671  1.00  0.00     0.117 C 
ATOM     85  C   UNL A   1      36.604  33.011  34.483  1.00  0.00     0.117 C 
ATOM     86  N   UNL A   1      37.146  31.836  33.810  1.00  0.00    -0.370 N 
BRANCH  86  87
ATOM     87  C   UNL A   1      38.228  31.148  34.310  1.00  0.00     0.059 A 
ATOM     88  C   UNL A   1      39.296  30.762  33.507  1.00  0.00     0.049 A 
ATOM     89  C   UNL A   1      38.327  30.770  35.646  1.00  0.00     0.161 A 
ATOM     90  C   UNL A   1      40.346  30.057  34.069  1.00  0.00     0.138 A 
ATOM     91  N   UNL A   1      39.359  30.067  36.173  1.00  0.00    -0.157 NA
ATOM     92  N   UNL A   1      40.384  29.706  35.370  1.00  0.00    -0.159 NA
ENDBRANCH  86  87
ENDBRANCH  78  81
ENDBRANCH  76  77
ENDBRANCH  75  76
ENDBRANCH  74  75
ENDBRANCH   1  74
TORSDOF 15
ENDMDL
MODEL 2
REMARK VINA RESULT:     -10.5      6.077     12.562
REMARK SMILES O=C(NCCCCNC(=O)C1CCN(c2ccnnc2)CC1)c1ccc(-c2c3nc(c(-c4c(F)cc(S(=O)(=O)[O-])cc4F)c4ccc([nH]4)c(-c4c(F)cc(S(=O)(=O)[O-])cc4F)c4nc(c(-c5c(F)cc(S(=O)(=O)[O-])cc5F)c5ccc2[nH]5)C=C4)C=C3)cc1
REMARK SMILES IDX 4 1 3 2 1 3 2 4 23 6 24 7 88 8 25 9 87 10 26 11 27 12 28 13
REMARK SMILES IDX 81 14 29 15 86 16 80 17 82 18 30 19 85 20 79 21 78 22 31 24
REMARK SMILES IDX 65 25 44 26 64 27 45 28 48 29 63 30 83 31 46 32 47 33 62 35
REMARK SMILES IDX 84 36 49 37 32 38 33 39 42 40 34 41 35 42 41 43 43 44 36 45
REMARK SMILES IDX 37 46 38 47 39 48 40 49 66 50 67 51 76 52 68 53 69 54 75 55
REMARK SMILES IDX 77 56 70 57 71 58 72 59 73 60 74 61 50 62 51 63 60 64 52 65
REMARK SMILES IDX 53 66 59 67 61 68 54 69 55 70 56 71 57 72 58 73 5 74 6 75
REMARK SMILES IDX 7 76 8 77 9 78 10 80 11 81 12 82 22 83 13 84 21 85 14 86
REMARK SMILES IDX 15 87 16 88 20 89 17 90 19 91 18 92
REMARK H PARENT 3 5 82 23 48 34 8 79
REMARK Flexibility Score: inf
ROOT
ATOM      1  C   UNL A   1      38.535  24.179  26.678  1.00  0.00     0.116 C 
ENDROOT
BRANCH   1   2
ATOM      2  N   UNL A   1      39.833  24.278  26.031  1.00  0.00    -0.352 N 
ATOM      3  O   UNL A   1      41.852  25.163  25.565  1.00  0.00    -0.269 OA
ATOM      4  C   UNL A   1      40.874  25.133  26.306  1.00  0.00     0.251 C 
ATOM      5  H   UNL A   1      39.989  23.644  25.294  1.00  0.00     0.163 HD
BRANCH   4   6
ATOM      6  C   UNL A   1      40.796  26.034  27.477  1.00  0.00     0.039 A 
ATOM      7  C   UNL A   1      39.855  25.815  28.485  1.00  0.00     0.014 A 
ATOM      8  C   UNL A   1      41.679  27.115  27.564  1.00  0.00     0.014 A 
ATOM      9  C   UNL A   1      39.707  26.748  29.507  1.00  0.00     0.010 A 
ATOM     10  C   UNL A   1      41.579  28.011  28.632  1.00  0.00     0.010 A 
ATOM     11  C   UNL A   1      40.573  27.851  29.597  1.00  0.00    -0.014 A 
BRANCH  11  12
ATOM     12  C   UNL A   1      40.443  28.786  30.744  1.00  0.00     0.031 A 
ATOM     13  C   UNL A   1      41.350  28.686  31.939  1.00  0.00     0.074 A 
ATOM     14  C   UNL A   1      39.502  29.749  30.686  1.00  0.00     0.049 A 
ATOM     15  N   UNL A   1      41.380  29.434  33.013  1.00  0.00    -0.248 NA
ATOM     16  C   UNL A   1      42.348  27.606  31.935  1.00  0.00     0.031 C 
ATOM     17  C   UNL A   1      38.552  29.929  29.585  1.00  0.00     0.029 A 
ATOM     18  N   UNL A   1      39.197  30.762  31.556  1.00  0.00    -0.354 N 
ATOM     19  C   UNL A   1      42.380  28.908  33.820  1.00  0.00     0.074 A 
ATOM     20  C   UNL A   1      42.923  27.763  33.121  1.00  0.00     0.031 C 
ATOM     21  C   UNL A   1      37.796  31.009  29.828  1.00  0.00     0.029 A 
ATOM     22  C   UNL A   1      38.171  31.567  31.124  1.00  0.00     0.049 A 
ATOM     23  H   UNL A   1      39.668  30.900  32.410  1.00  0.00     0.167 HD
ATOM     24  C   UNL A   1      42.807  29.343  35.030  1.00  0.00     0.037 A 
ATOM     25  C   UNL A   1      37.585  32.629  31.707  1.00  0.00     0.037 A 
ATOM     26  C   UNL A   1      42.273  30.497  35.711  1.00  0.00     0.049 A 
ATOM     27  C   UNL A   1      38.079  33.095  33.044  1.00  0.00     0.074 A 
ATOM     28  C   UNL A   1      42.670  31.045  36.919  1.00  0.00     0.029 A 
ATOM     29  N   UNL A   1      41.226  31.280  35.246  1.00  0.00    -0.354 N 
ATOM     30  N   UNL A   1      39.050  32.602  33.776  1.00  0.00    -0.248 NA
ATOM     31  C   UNL A   1      37.401  34.253  33.636  1.00  0.00     0.031 C 
ATOM     32  C   UNL A   1      41.839  32.135  37.202  1.00  0.00     0.029 A 
ATOM     33  C   UNL A   1      40.950  32.292  36.151  1.00  0.00     0.049 A 
ATOM     34  H   UNL A   1      40.748  31.137  34.396  1.00  0.00     0.167 HD
ATOM     35  C   UNL A   1      39.104  33.398  34.914  1.00  0.00     0.074 A 
ATOM     36  C   UNL A   1      38.082  34.414  34.763  1.00  0.00     0.031 C 
ATOM     37  C   UNL A   1      39.925  33.291  35.988  1.00  0.00     0.037 A 
BRANCH  24  38
ATOM     38  C   UNL A   1      43.898  28.565  35.711  1.00  0.00     0.058 A 
ATOM     39  C   UNL A   1      43.616  27.484  36.561  1.00  0.00     0.135 A 
ATOM     40  C   UNL A   1      45.248  28.873  35.469  1.00  0.00     0.135 A 
ATOM     41  F   UNL A   1      42.346  27.156  36.837  1.00  0.00    -0.206 F 
ATOM     42  C   UNL A   1      44.633  26.749  37.165  1.00  0.00     0.059 A 
ATOM     43  C   UNL A   1      46.281  28.138  36.045  1.00  0.00     0.059 A 
ATOM     44  F   UNL A   1      45.574  29.895  34.663  1.00  0.00    -0.206 F 
ATOM     45  C   UNL A   1      45.963  27.085  36.902  1.00  0.00     0.060 A 
BRANCH  45  46
ATOM     46  S   UNL A   1      47.270  26.121  37.690  1.00  0.00     0.124 S 
ATOM     47  O   UNL A   1      46.502  25.059  38.331  1.00  0.00    -0.237 OA
ATOM     48  O   UNL A   1      48.089  25.712  36.552  1.00  0.00    -0.237 OA
ATOM     49  O   UNL A   1      47.899  27.078  38.597  1.00  0.00    -0.744 OA
ENDBRANCH  45  46
ENDBRANCH  24  38
BRANCH  25  50
ATOM     50  C   UNL A   1      36.463  33.313  31.015  1.00  0.00     0.058 A 
ATOM     51  C   UNL A   1      35.159  33.263  31.527  1.00  0.00     0.135 A 
ATOM     52  C   UNL A   1      36.684  34.074  29.856  1.00  0.00     0.135 A 
ATOM     53  F   UNL A   1      34.899  32.545  32.630  1.00  0.00    -0.206 F 
ATOM     54  C   UNL A   1      34.111  33.942  30.914  1.00  0.00     0.059 A 
ATOM     55  C   UNL A   1      35.659  34.781  29.240  1.00  0.00     0.059 A 
ATOM     56  F   UNL A   1      37.919  34.168  29.340  1.00  0.00    -0.206 F 
ATOM     57  C   UNL A   1      34.372  34.704  29.773  1.00  0.00     0.060 A 
BRANCH  57  58
ATOM     58  S   UNL A   1      33.024  35.644  29.027  1.00  0.00     0.124 S 
ATOM     59  O   UNL A   1      33.752  36.708  28.346  1.00  0.00    -0.237 OA
ATOM     60  O   UNL A   1      32.392  34.648  28.167  1.00  0.00    -0.237 OA
ATOM     61  O   UNL A   1      32.229  36.058  30.179  1.00  0.00    -0.744 OA
ENDBRANCH  57  58
ENDBRANCH  25  50
BRANCH  37  62
ATOM     62  C   UNL A   1      39.756  34.310  37.079  1.00  0.00     0.058 A 
ATOM     63  C   UNL A   1      38.931  34.066  38.187  1.00  0.00     0.135 A 
ATOM     64  C   UNL A   1      40.451  35.528  37.030  1.00  0.00     0.135 A 
ATOM     65  F   UNL A   1      38.238  32.920  38.275  1.00  0.00    -0.206 F 
ATOM     66  C   UNL A   1      38.784  35.006  39.202  1.00  0.00     0.059 A 
ATOM     67  C   UNL A   1      40.337  36.473  38.045  1.00  0.00     0.059 A 
ATOM     68  F   UNL A   1      41.258  35.805  35.993  1.00  0.00    -0.206 F 
ATOM     69  C   UNL A   1      39.490  36.208  39.120  1.00  0.00     0.060 A 
BRANCH  69  70
ATOM     70  S   UNL A   1      39.313  37.411  40.455  1.00  0.00     0.124 S 
ATOM     71  O   UNL A   1      38.962  36.551  41.580  1.00  0.00    -0.237 OA
ATOM     72  O   UNL A   1      40.639  38.018  40.511  1.00  0.00    -0.237 OA
ATOM     73  O   UNL A   1      38.248  38.290  39.978  1.00  0.00    -0.744 OA
ENDBRANCH  69  70
ENDBRANCH  37  62
ENDBRANCH  11  12
ENDBRANCH   4   6
ENDBRANCH   1   2
BRANCH   1  74
ATOM     74  C   UNL A   1      37.625  23.139  26.033  1.00  0.00     0.023 C 
BRANCH  74  75
ATOM     75  C   UNL A   1      36.805  23.631  24.839  1.00  0.00     0.023 C 
BRANCH  75  76
ATOM     76  C   UNL A   1      35.316  23.825  25.110  1.00  0.00     0.116 C 
BRANCH  76  77
ATOM     77  N   UNL A   1      34.493  23.359  24.008  1.00  0.00    -0.356 N 
ATOM     78  C   UNL A   1      33.579  22.354  23.941  1.00  0.00     0.223 C 
ATOM     79  H   UNL A   1      34.617  23.855  23.167  1.00  0.00     0.163 HD
ATOM     80  O   UNL A   1      32.976  22.194  22.879  1.00  0.00    -0.275 OA
BRANCH  78  81
ATOM     81  C   UNL A   1      33.350  21.444  25.139  1.00  0.00     0.082 C 
ATOM     82  C   UNL A   1      34.637  20.677  25.478  1.00  0.00     0.035 C 
ATOM     83  C   UNL A   1      32.145  20.523  24.892  1.00  0.00     0.035 C 
ATOM     84  C   UNL A   1      34.865  19.469  24.571  1.00  0.00     0.117 C 
ATOM     85  C   UNL A   1      32.461  19.324  24.000  1.00  0.00     0.117 C 
ATOM     86  N   UNL A   1      33.648  18.664  24.529  1.00  0.00    -0.370 N 
BRANCH  86  87
ATOM     87  C   UNL A   1      33.660  17.319  24.827  1.00  0.00     0.059 A 
ATOM     88  C   UNL A   1      32.507  16.632  25.193  1.00  0.00     0.049 A 
ATOM     89  C   UNL A   1      34.822  16.554  24.805  1.00  0.00     0.161 A 
ATOM     90  C   UNL A   1      32.589  15.285  25.497  1.00  0.00     0.138 A 
ATOM     91  N   UNL A   1      34.882  15.238  25.120  1.00  0.00    -0.157 NA
ATOM     92  N   UNL A   1      33.747  14.595  25.470  1.00  0.00    -0.159 NA
ENDBRANCH  86  87
ENDBRANCH  78  81
ENDBRANCH  76  77
ENDBRANCH  75  76
ENDBRANCH  74  75
ENDBRANCH   1  74
TORSDOF 15
ENDMDL
MODEL 3
REMARK VINA RESULT:     -10.5      4.036      6.899
REMARK SMILES O=C(NCCCCNC(=O)C1CCN(c2ccnnc2)CC1)c1ccc(-c2c3nc(c(-c4c(F)cc(S(=O)(=O)[O-])cc4F)c4ccc([nH]4)c(-c4c(F)cc(S(=O)(=O)[O-])cc4F)c4nc(c(-c5c(F)cc(S(=O)(=O)[O-])cc5F)c5ccc2[nH]5)C=C4)C=C3)cc1
REMARK SMILES IDX 4 1 3 2 1 3 2 4 23 6 24 7 88 8 25 9 87 10 26 11 27 12 28 13
REMARK SMILES IDX 81 14 29 15 86 16 80 17 82 18 30 19 85 20 79 21 78 22 31 24
REMARK SMILES IDX 65 25 44 26 64 27 45 28 48 29 63 30 83 31 46 32 47 33 62 35
REMARK SMILES IDX 84 36 49 37 32 38 33 39 42 40 34 41 35 42 41 43 43 44 36 45
REMARK SMILES IDX 37 46 38 47 39 48 40 49 66 50 67 51 76 52 68 53 69 54 75 55
REMARK SMILES IDX 77 56 70 57 71 58 72 59 73 60 74 61 50 62 51 63 60 64 52 65
REMARK SMILES IDX 53 66 59 67 61 68 54 69 55 70 56 71 57 72 58 73 5 74 6 75
REMARK SMILES IDX 7 76 8 77 9 78 10 80 11 81 12 82 22 83 13 84 21 85 14 86
REMARK SMILES IDX 15 87 16 88 20 89 17 90 19 91 18 92
REMARK H PARENT 3 5 82 23 48 34 8 79
REMARK Flexibility Score: inf
ROOT
ATOM      1  C   UNL A   1      35.377  29.653  27.805  1.00  0.00     0.116 C 
ENDROOT
BRANCH   1   2
ATOM      2  N   UNL A   1      35.328  30.276  29.118  1.00  0.00    -0.352 N 
ATOM      3  O   UNL A   1      36.096  30.911  31.139  1.00  0.00    -0.269 OA
ATOM      4  C   UNL A   1      36.348  30.485  30.015  1.00  0.00     0.251 C 
ATOM      5  H   UNL A   1      34.441  30.594  29.403  1.00  0.00     0.163 HD
BRANCH   4   6
ATOM      6  C   UNL A   1      37.742  30.168  29.632  1.00  0.00     0.039 A 
ATOM      7  C   UNL A   1      38.113  30.091  28.288  1.00  0.00     0.014 A 
ATOM      8  C   UNL A   1      38.689  29.942  30.635  1.00  0.00     0.014 A 
ATOM      9  C   UNL A   1      39.391  29.659  27.947  1.00  0.00     0.010 A 
ATOM     10  C   UNL A   1      39.995  29.580  30.291  1.00  0.00     0.010 A 
ATOM     11  C   UNL A   1      40.349  29.408  28.944  1.00  0.00    -0.014 A 
BRANCH  11  12
ATOM     12  C   UNL A   1      41.729  29.026  28.548  1.00  0.00     0.031 A 
ATOM     13  C   UNL A   1      42.852  30.025  28.572  1.00  0.00     0.074 A 
ATOM     14  C   UNL A   1      41.964  27.751  28.182  1.00  0.00     0.049 A 
ATOM     15  N   UNL A   1      44.114  29.849  28.275  1.00  0.00    -0.248 NA
ATOM     16  C   UNL A   1      42.519  31.400  28.975  1.00  0.00     0.031 C 
ATOM     17  C   UNL A   1      40.946  26.699  28.102  1.00  0.00     0.029 A 
ATOM     18  N   UNL A   1      43.125  27.116  27.826  1.00  0.00    -0.354 N 
ATOM     19  C   UNL A   1      44.723  31.088  28.432  1.00  0.00     0.074 A 
ATOM     20  C   UNL A   1      43.687  32.015  28.836  1.00  0.00     0.031 C 
ATOM     21  C   UNL A   1      41.533  25.545  27.757  1.00  0.00     0.029 A 
ATOM     22  C   UNL A   1      42.956  25.783  27.542  1.00  0.00     0.049 A 
ATOM     23  H   UNL A   1      43.996  27.573  27.778  1.00  0.00     0.167 HD
ATOM     24  C   UNL A   1      46.026  31.418  28.261  1.00  0.00     0.037 A 
ATOM     25  C   UNL A   1      43.843  24.854  27.139  1.00  0.00     0.037 A 
ATOM     26  C   UNL A   1      47.055  30.484  27.879  1.00  0.00     0.049 A 
ATOM     27  C   UNL A   1      45.281  25.244  26.963  1.00  0.00     0.074 A 
ATOM     28  C   UNL A   1      48.412  30.713  27.724  1.00  0.00     0.029 A 
ATOM     29  N   UNL A   1      46.844  29.144  27.588  1.00  0.00    -0.354 N 
ATOM     30  N   UNL A   1      45.842  26.414  27.150  1.00  0.00    -0.248 NA
ATOM     31  C   UNL A   1      46.204  24.193  26.517  1.00  0.00     0.031 C 
ATOM     32  C   UNL A   1      49.014  29.521  27.304  1.00  0.00     0.029 A 
ATOM     33  C   UNL A   1      48.039  28.539  27.235  1.00  0.00     0.049 A 
ATOM     34  H   UNL A   1      45.971  28.689  27.626  1.00  0.00     0.167 HD
ATOM     35  C   UNL A   1      47.188  26.239  26.853  1.00  0.00     0.074 A 
ATOM     36  C   UNL A   1      47.358  24.845  26.493  1.00  0.00     0.031 C 
ATOM     37  C   UNL A   1      48.190  27.152  26.873  1.00  0.00     0.037 A 
BRANCH  24  38
ATOM     38  C   UNL A   1      46.419  32.854  28.472  1.00  0.00     0.058 A 
ATOM     39  C   UNL A   1      46.392  33.789  27.426  1.00  0.00     0.135 A 
ATOM     40  C   UNL A   1      46.779  33.312  29.751  1.00  0.00     0.135 A 
ATOM     41  F   UNL A   1      46.069  33.403  26.183  1.00  0.00    -0.206 F 
ATOM     42  C   UNL A   1      46.729  35.124  27.635  1.00  0.00     0.059 A 
ATOM     43  C   UNL A   1      47.100  34.647  29.987  1.00  0.00     0.059 A 
ATOM     44  F   UNL A   1      46.821  32.460  30.787  1.00  0.00    -0.206 F 
ATOM     45  C   UNL A   1      47.084  35.543  28.919  1.00  0.00     0.060 A 
BRANCH  45  46
ATOM     46  S   UNL A   1      47.515  37.277  29.175  1.00  0.00     0.124 S 
ATOM     47  O   UNL A   1      46.587  37.654  30.236  1.00  0.00    -0.237 OA
ATOM     48  O   UNL A   1      48.921  37.197  29.563  1.00  0.00    -0.237 OA
ATOM     49  O   UNL A   1      47.263  37.886  27.872  1.00  0.00    -0.744 OA
ENDBRANCH  45  46
ENDBRANCH  24  38
BRANCH  25  50
ATOM     50  C   UNL A   1      43.379  23.467  26.879  1.00  0.00     0.058 A 
ATOM     51  C   UNL A   1      43.226  22.990  25.570  1.00  0.00     0.135 A 
ATOM     52  C   UNL A   1      43.131  22.578  27.936  1.00  0.00     0.135 A 
ATOM     53  F   UNL A   1      43.449  23.805  24.528  1.00  0.00    -0.206 F 
ATOM     54  C   UNL A   1      42.841  21.678  25.316  1.00  0.00     0.059 A 
ATOM     55  C   UNL A   1      42.768  21.256  27.708  1.00  0.00     0.059 A 
ATOM     56  F   UNL A   1      43.283  22.984  29.206  1.00  0.00    -0.206 F 
ATOM     57  C   UNL A   1      42.620  20.816  26.392  1.00  0.00     0.060 A 
BRANCH  57  58
ATOM     58  S   UNL A   1      42.195  19.094  26.056  1.00  0.00     0.124 S 
ATOM     59  O   UNL A   1      40.752  19.181  25.863  1.00  0.00    -0.237 OA
ATOM     60  O   UNL A   1      42.984  18.809  24.861  1.00  0.00    -0.237 OA
ATOM     61  O   UNL A   1      42.632  18.400  27.263  1.00  0.00    -0.744 OA
ENDBRANCH  57  58
ENDBRANCH  25  50
BRANCH  37  62
ATOM     62  C   UNL A   1      49.563  26.666  26.505  1.00  0.00     0.058 A 
ATOM     63  C   UNL A   1      50.364  25.971  27.422  1.00  0.00     0.135 A 
ATOM     64  C   UNL A   1      50.068  26.871  25.212  1.00  0.00     0.135 A 
ATOM     65  F   UNL A   1      49.930  25.758  28.674  1.00  0.00    -0.206 F 
ATOM     66  C   UNL A   1      51.631  25.512  27.076  1.00  0.00     0.059 A 
ATOM     67  C   UNL A   1      51.322  26.401  24.837  1.00  0.00     0.059 A 
ATOM     68  F   UNL A   1      49.336  27.525  24.296  1.00  0.00    -0.206 F 
ATOM     69  C   UNL A   1      52.102  25.734  25.781  1.00  0.00     0.060 A 
BRANCH  69  70
ATOM     70  S   UNL A   1      53.736  25.112  25.333  1.00  0.00     0.124 S 
ATOM     71  O   UNL A   1      54.575  25.729  26.355  1.00  0.00    -0.237 OA
ATOM     72  O   UNL A   1      53.565  23.666  25.442  1.00  0.00    -0.237 OA
ATOM     73  O   UNL A   1      53.928  25.613  23.974  1.00  0.00    -0.744 OA
ENDBRANCH  69  70
ENDBRANCH  37  62
ENDBRANCH  11  12
ENDBRANCH   4   6
ENDBRANCH   1   2
BRANCH   1  74
ATOM     74  C   UNL A   1      34.042  29.703  27.071  1.00  0.00     0.023 C 
BRANCH  74  75
ATOM     75  C   UNL A   1      33.113  28.511  27.311  1.00  0.00     0.023 C 
BRANCH  75  76
ATOM     76  C   UNL A   1      33.096  27.466  26.200  1.00  0.00     0.116 C 
BRANCH  76  77
ATOM     77  N   UNL A   1      31.770  26.915  25.986  1.00  0.00    -0.356 N 
ATOM     78  C   UNL A   1      30.920  27.021  24.929  1.00  0.00     0.223 C 
ATOM     79  H   UNL A   1      31.428  26.372  26.732  1.00  0.00     0.163 HD
ATOM     80  O   UNL A   1      29.854  26.407  24.984  1.00  0.00    -0.275 OA
BRANCH  78  81
ATOM     81  C   UNL A   1      31.278  27.904  23.743  1.00  0.00     0.082 C 
ATOM     82  C   UNL A   1      31.485  29.355  24.203  1.00  0.00     0.035 C 
ATOM     83  C   UNL A   1      30.223  27.768  22.634  1.00  0.00     0.035 C 
ATOM     84  C   UNL A   1      30.172  30.109  24.402  1.00  0.00     0.117 C 
ATOM     85  C   UNL A   1      28.951  28.574  22.892  1.00  0.00     0.117 C 
ATOM     86  N   UNL A   1      29.338  29.942  23.216  1.00  0.00    -0.370 N 
BRANCH  86  87
ATOM     87  C   UNL A   1      28.823  31.023  22.535  1.00  0.00     0.059 A 
ATOM     88  C   UNL A   1      28.372  30.924  21.223  1.00  0.00     0.049 A 
ATOM     89  C   UNL A   1      28.734  32.292  23.097  1.00  0.00     0.161 A 
ATOM     90  C   UNL A   1      27.881  32.052  20.590  1.00  0.00     0.138 A 
ATOM     91  N   UNL A   1      28.262  33.387  22.453  1.00  0.00    -0.157 NA
ATOM     92  N   UNL A   1      27.828  33.263  21.180  1.00  0.00    -0.159 NA
ENDBRANCH  86  87
ENDBRANCH  78  81
ENDBRANCH  76  77
ENDBRANCH  75  76
ENDBRANCH  74  75
ENDBRANCH   1  74
TORSDOF 15
ENDMDL
