MODEL 1
REMARK VINA RESULT:     -12.0      0.000      0.000
REMARK SMILES C[C@@H](C(=O)NCCCCNC(=O)c1ccc(-c2c3nc(c(-c4c(F)cc(S(=O)(=O)[O-])cc4F)c4ccc([nH]4)c(-c4c(F)cc(S(=O)(=O)[O-])cc4F)c4nc(c(-c5c(F)cc(S(=O)(=O)[O-])cc5F)c5ccc2[nH]5)C=C4)C=C3)cc1)c1ccc(-c2ccn(C(F)F)c(=O)c2)cc1
REMARK SMILES IDX 7 1 6 2 5 3 3 4 4 5 2 7 1 8 79 9 80 10 94 11 81 12 93 13
REMARK SMILES IDX 82 14 83 15 84 16 92 17 85 18 90 19 86 20 91 21 87 22 88 23
REMARK SMILES IDX 89 24 8 25 9 26 10 27 11 28 12 30 13 31 14 32 78 33 15 34
REMARK SMILES IDX 77 35 16 36 17 37 18 38 71 39 19 40 76 41 70 42 72 43 20 44
REMARK SMILES IDX 75 45 69 46 68 47 21 49 55 50 34 51 54 52 35 53 38 54 53 55
REMARK SMILES IDX 73 56 36 57 37 58 52 60 74 61 39 62 22 63 23 64 32 65 24 66
REMARK SMILES IDX 25 67 31 68 33 69 26 70 27 71 28 72 29 73 30 74 56 75 57 76
REMARK SMILES IDX 66 77 58 78 59 79 65 80 67 81 60 82 61 83 62 84 63 85 64 86
REMARK SMILES IDX 40 87 41 88 50 89 42 90 43 91 49 92 51 93 44 94 45 95 46 96
REMARK SMILES IDX 47 97 48 98
REMARK H PARENT 5 6 10 29 72 48 38 59
REMARK Flexibility Score: inf
ROOT
ATOM      1  C   UNL A   1      31.575  28.799  25.687  1.00  0.00     0.023 C 
ENDROOT
BRANCH   1   2
ATOM      2  C   UNL A   1      31.035  28.930  24.262  1.00  0.00     0.116 C 
BRANCH   2   3
ATOM      3  N   UNL A   1      30.210  27.799  23.897  1.00  0.00    -0.356 N 
ATOM      4  C   UNL A   1      30.548  26.522  23.552  1.00  0.00     0.227 C 
ATOM      5  O   UNL A   1      29.612  25.768  23.283  1.00  0.00    -0.274 OA
ATOM      6  H   UNL A   1      29.242  27.980  23.896  1.00  0.00     0.163 HD
BRANCH   4   7
ATOM      7  C   UNL A   1      32.025  26.077  23.552  1.00  0.00     0.105 C 
ATOM      8  C   UNL A   1      32.767  26.497  22.280  1.00  0.00     0.023 C 
BRANCH   7   9
ATOM      9  C   UNL A   1      32.204  24.568  23.721  1.00  0.00    -0.036 A 
ATOM     10  C   UNL A   1      32.768  23.795  22.695  1.00  0.00     0.005 A 
ATOM     11  C   UNL A   1      31.749  23.915  24.876  1.00  0.00     0.005 A 
ATOM     12  C   UNL A   1      32.879  22.406  22.827  1.00  0.00     0.009 A 
ATOM     13  C   UNL A   1      31.869  22.533  25.013  1.00  0.00     0.009 A 
ATOM     14  C   UNL A   1      32.433  21.766  23.988  1.00  0.00    -0.018 A 
BRANCH  14  15
ATOM     15  C   UNL A   1      32.535  20.305  24.168  1.00  0.00    -0.011 A 
ATOM     16  C   UNL A   1      32.815  19.702  25.458  1.00  0.00     0.027 A 
ATOM     17  C   UNL A   1      32.445  19.515  23.085  1.00  0.00     0.080 A 
ATOM     18  C   UNL A   1      33.036  18.388  25.562  1.00  0.00     0.095 A 
ATOM     19  C   UNL A   1      32.651  18.044  23.190  1.00  0.00     0.255 A 
ATOM     20  N   UNL A   1      32.973  17.567  24.452  1.00  0.00    -0.258 N 
ATOM     21  O   UNL A   1      32.539  17.360  22.178  1.00  0.00    -0.269 OA
BRANCH  20  22
ATOM     22  C   UNL A   1      33.256  16.161  24.566  1.00  0.00     0.451 C 
ATOM     23  F   UNL A   1      34.328  15.937  25.366  1.00  0.00    -0.185 F 
ATOM     24  F   UNL A   1      32.199  15.489  25.084  1.00  0.00    -0.185 F 
ENDBRANCH  20  22
ENDBRANCH  14  15
ENDBRANCH   7   9
ENDBRANCH   4   7
ENDBRANCH   2   3
ENDBRANCH   1   2
BRANCH   1  25
ATOM     25  C   UNL A   1      33.096  28.920  25.822  1.00  0.00     0.023 C 
BRANCH  25  26
ATOM     26  C   UNL A   1      33.636  28.923  27.249  1.00  0.00     0.116 C 
BRANCH  26  27
ATOM     27  N   UNL A   1      33.639  30.249  27.852  1.00  0.00    -0.352 N 
ATOM     28  C   UNL A   1      34.641  30.884  28.546  1.00  0.00     0.251 C 
ATOM     29  H   UNL A   1      32.806  30.763  27.746  1.00  0.00     0.163 HD
ATOM     30  O   UNL A   1      34.423  31.963  29.089  1.00  0.00    -0.269 OA
BRANCH  28  31
ATOM     31  C   UNL A   1      35.967  30.242  28.670  1.00  0.00     0.039 A 
ATOM     32  C   UNL A   1      36.795  30.183  27.546  1.00  0.00     0.014 A 
ATOM     33  C   UNL A   1      36.408  29.742  29.898  1.00  0.00     0.014 A 
ATOM     34  C   UNL A   1      38.104  29.712  27.675  1.00  0.00     0.010 A 
ATOM     35  C   UNL A   1      37.730  29.323  30.037  1.00  0.00     0.010 A 
ATOM     36  C   UNL A   1      38.597  29.328  28.932  1.00  0.00    -0.014 A 
BRANCH  36  37
ATOM     37  C   UNL A   1      40.033  29.007  29.135  1.00  0.00     0.031 A 
ATOM     38  C   UNL A   1      41.004  30.079  29.545  1.00  0.00     0.074 A 
ATOM     39  C   UNL A   1      40.476  27.767  28.839  1.00  0.00     0.049 A 
ATOM     40  N   UNL A   1      42.307  30.014  29.643  1.00  0.00    -0.248 NA
ATOM     41  C   UNL A   1      40.442  31.401  29.864  1.00  0.00     0.031 C 
ATOM     42  C   UNL A   1      39.637  26.657  28.377  1.00  0.00     0.029 A 
ATOM     43  N   UNL A   1      41.742  27.238  28.851  1.00  0.00    -0.354 N 
ATOM     44  C   UNL A   1      42.724  31.286  30.013  1.00  0.00     0.074 A 
ATOM     45  C   UNL A   1      41.538  32.111  30.099  1.00  0.00     0.031 C 
ATOM     46  C   UNL A   1      40.412  25.585  28.144  1.00  0.00     0.029 A 
ATOM     47  C   UNL A   1      41.804  25.939  28.402  1.00  0.00     0.049 A 
ATOM     48  H   UNL A   1      42.533  27.742  29.154  1.00  0.00     0.167 HD
ATOM     49  C   UNL A   1      43.981  31.719  30.269  1.00  0.00     0.037 A 
ATOM     50  C   UNL A   1      42.862  25.132  28.192  1.00  0.00     0.037 A 
ATOM     51  C   UNL A   1      45.152  30.882  30.221  1.00  0.00     0.049 A 
ATOM     52  C   UNL A   1      44.246  25.643  28.482  1.00  0.00     0.074 A 
ATOM     53  C   UNL A   1      46.451  31.205  30.571  1.00  0.00     0.029 A 
ATOM     54  N   UNL A   1      45.170  29.566  29.787  1.00  0.00    -0.354 N 
ATOM     55  N   UNL A   1      44.611  26.821  28.926  1.00  0.00    -0.248 NA
ATOM     56  C   UNL A   1      45.364  24.718  28.242  1.00  0.00     0.031 C 
ATOM     57  C   UNL A   1      47.264  30.097  30.307  1.00  0.00     0.029 A 
ATOM     58  C   UNL A   1      46.465  29.073  29.827  1.00  0.00     0.049 A 
ATOM     59  H   UNL A   1      44.380  29.056  29.494  1.00  0.00     0.167 HD
ATOM     60  C   UNL A   1      45.996  26.776  29.028  1.00  0.00     0.074 A 
ATOM     61  C   UNL A   1      46.404  25.447  28.620  1.00  0.00     0.031 C 
ATOM     62  C   UNL A   1      46.855  27.749  29.417  1.00  0.00     0.037 A 
BRANCH  49  63
ATOM     63  C   UNL A   1      44.173  33.161  30.638  1.00  0.00     0.058 A 
ATOM     64  C   UNL A   1      44.219  33.576  31.977  1.00  0.00     0.135 A 
ATOM     65  C   UNL A   1      44.413  34.123  29.643  1.00  0.00     0.135 A 
ATOM     66  F   UNL A   1      43.983  32.698  32.965  1.00  0.00    -0.206 F 
ATOM     67  C   UNL A   1      44.495  34.896  32.319  1.00  0.00     0.059 A 
ATOM     68  C   UNL A   1      44.711  35.445  29.962  1.00  0.00     0.059 A 
ATOM     69  F   UNL A   1      44.376  33.777  28.347  1.00  0.00    -0.206 F 
ATOM     70  C   UNL A   1      44.746  35.822  31.305  1.00  0.00     0.060 A 
BRANCH  70  71
ATOM     71  S   UNL A   1      45.152  37.519  31.768  1.00  0.00     0.124 S 
ATOM     72  O   UNL A   1      45.190  38.174  30.465  1.00  0.00    -0.237 OA
ATOM     73  O   UNL A   1      44.030  37.883  32.628  1.00  0.00    -0.237 OA
ATOM     74  O   UNL A   1      46.439  37.389  32.444  1.00  0.00    -0.744 OA
ENDBRANCH  70  71
ENDBRANCH  49  63
BRANCH  50  75
ATOM     75  C   UNL A   1      42.663  23.761  27.651  1.00  0.00     0.058 A 
ATOM     76  C   UNL A   1      42.527  22.659  28.506  1.00  0.00     0.135 A 
ATOM     77  C   UNL A   1      42.624  23.526  26.268  1.00  0.00     0.135 A 
ATOM     78  F   UNL A   1      42.565  22.833  29.836  1.00  0.00    -0.206 F 
ATOM     79  C   UNL A   1      42.390  21.365  28.012  1.00  0.00     0.059 A 
ATOM     80  C   UNL A   1      42.462  22.245  25.749  1.00  0.00     0.059 A 
ATOM     81  F   UNL A   1      42.730  24.550  25.407  1.00  0.00    -0.206 F 
ATOM     82  C   UNL A   1      42.364  21.169  26.630  1.00  0.00     0.060 A 
BRANCH  82  83
ATOM     83  S   UNL A   1      42.165  19.491  25.992  1.00  0.00     0.124 S 
ATOM     84  O   UNL A   1      43.035  19.519  24.822  1.00  0.00    -0.237 OA
ATOM     85  O   UNL A   1      42.627  18.677  27.112  1.00  0.00    -0.237 OA
ATOM     86  O   UNL A   1      40.734  19.406  25.716  1.00  0.00    -0.744 OA
ENDBRANCH  82  83
ENDBRANCH  50  75
BRANCH  62  87
ATOM     87  C   UNL A   1      48.319  27.415  29.432  1.00  0.00     0.058 A 
ATOM     88  C   UNL A   1      49.148  27.724  28.344  1.00  0.00     0.135 A 
ATOM     89  C   UNL A   1      48.910  26.838  30.567  1.00  0.00     0.135 A 
ATOM     90  F   UNL A   1      48.628  28.268  27.231  1.00  0.00    -0.206 F 
ATOM     91  C   UNL A   1      50.514  27.461  28.374  1.00  0.00     0.059 A 
ATOM     92  C   UNL A   1      50.277  26.587  30.629  1.00  0.00     0.059 A 
ATOM     93  F   UNL A   1      48.160  26.530  31.638  1.00  0.00    -0.206 F 
ATOM     94  C   UNL A   1      51.069  26.895  29.524  1.00  0.00     0.060 A 
BRANCH  94  95
ATOM     95  S   UNL A   1      52.851  26.603  29.570  1.00  0.00     0.124 S 
ATOM     96  O   UNL A   1      53.062  25.879  28.321  1.00  0.00    -0.237 OA
ATOM     97  O   UNL A   1      53.390  27.959  29.616  1.00  0.00    -0.237 OA
ATOM     98  O   UNL A   1      53.034  25.820  30.789  1.00  0.00    -0.744 OA
ENDBRANCH  94  95
ENDBRANCH  62  87
ENDBRANCH  36  37
ENDBRANCH  28  31
ENDBRANCH  26  27
ENDBRANCH  25  26
ENDBRANCH   1  25
TORSDOF 17
ENDMDL
MODEL 2
REMARK VINA RESULT:     -11.8      5.044      9.681
REMARK SMILES C[C@@H](C(=O)NCCCCNC(=O)c1ccc(-c2c3nc(c(-c4c(F)cc(S(=O)(=O)[O-])cc4F)c4ccc([nH]4)c(-c4c(F)cc(S(=O)(=O)[O-])cc4F)c4nc(c(-c5c(F)cc(S(=O)(=O)[O-])cc5F)c5ccc2[nH]5)C=C4)C=C3)cc1)c1ccc(-c2ccn(C(F)F)c(=O)c2)cc1
REMARK SMILES IDX 7 1 6 2 5 3 3 4 4 5 2 7 1 8 79 9 80 10 94 11 81 12 93 13
REMARK SMILES IDX 82 14 83 15 84 16 92 17 85 18 90 19 86 20 91 21 87 22 88 23
REMARK SMILES IDX 89 24 8 25 9 26 10 27 11 28 12 30 13 31 14 32 78 33 15 34
REMARK SMILES IDX 77 35 16 36 17 37 18 38 71 39 19 40 76 41 70 42 72 43 20 44
REMARK SMILES IDX 75 45 69 46 68 47 21 49 55 50 34 51 54 52 35 53 38 54 53 55
REMARK SMILES IDX 73 56 36 57 37 58 52 60 74 61 39 62 22 63 23 64 32 65 24 66
REMARK SMILES IDX 25 67 31 68 33 69 26 70 27 71 28 72 29 73 30 74 56 75 57 76
REMARK SMILES IDX 66 77 58 78 59 79 65 80 67 81 60 82 61 83 62 84 63 85 64 86
REMARK SMILES IDX 40 87 41 88 50 89 42 90 43 91 49 92 51 93 44 94 45 95 46 96
REMARK SMILES IDX 47 97 48 98
REMARK H PARENT 5 6 10 29 72 48 38 59
REMARK Flexibility Score: inf
ROOT
ATOM      1  C   UNL A   1      32.831  29.344  27.063  1.00  0.00     0.023 C 
ENDROOT
BRANCH   1   2
ATOM      2  C   UNL A   1      31.773  28.308  26.679  1.00  0.00     0.116 C 
BRANCH   2   3
ATOM      3  N   UNL A   1      31.315  28.492  25.318  1.00  0.00    -0.356 N 
ATOM      4  C   UNL A   1      31.974  28.365  24.129  1.00  0.00     0.227 C 
ATOM      5  O   UNL A   1      31.313  28.594  23.116  1.00  0.00    -0.274 OA
ATOM      6  H   UNL A   1      30.369  28.752  25.235  1.00  0.00     0.163 HD
BRANCH   4   7
ATOM      7  C   UNL A   1      33.451  27.918  24.098  1.00  0.00     0.105 C 
ATOM      8  C   UNL A   1      34.188  28.410  22.849  1.00  0.00     0.023 C 
BRANCH   7   9
ATOM      9  C   UNL A   1      33.628  26.402  24.178  1.00  0.00    -0.036 A 
ATOM     10  C   UNL A   1      33.154  25.570  23.153  1.00  0.00     0.005 A 
ATOM     11  C   UNL A   1      34.208  25.805  25.308  1.00  0.00     0.005 A 
ATOM     12  C   UNL A   1      33.265  24.178  23.254  1.00  0.00     0.009 A 
ATOM     13  C   UNL A   1      34.329  24.420  25.405  1.00  0.00     0.009 A 
ATOM     14  C   UNL A   1      33.856  23.594  24.380  1.00  0.00    -0.018 A 
BRANCH  14  15
ATOM     15  C   UNL A   1      33.996  22.133  24.523  1.00  0.00    -0.011 A 
ATOM     16  C   UNL A   1      35.276  21.500  24.788  1.00  0.00     0.027 A 
ATOM     17  C   UNL A   1      32.916  21.360  24.322  1.00  0.00     0.080 A 
ATOM     18  C   UNL A   1      35.392  20.168  24.777  1.00  0.00     0.095 A 
ATOM     19  C   UNL A   1      33.022  19.874  24.345  1.00  0.00     0.255 A 
ATOM     20  N   UNL A   1      34.294  19.361  24.545  1.00  0.00    -0.258 N 
ATOM     21  O   UNL A   1      32.004  19.209  24.176  1.00  0.00    -0.269 OA
BRANCH  20  22
ATOM     22  C   UNL A   1      34.438  17.930  24.492  1.00  0.00     0.451 C 
ATOM     23  F   UNL A   1      34.227  17.460  23.237  1.00  0.00    -0.185 F 
ATOM     24  F   UNL A   1      35.679  17.548  24.880  1.00  0.00    -0.185 F 
ENDBRANCH  20  22
ENDBRANCH  14  15
ENDBRANCH   7   9
ENDBRANCH   4   7
ENDBRANCH   2   3
ENDBRANCH   1   2
BRANCH   1  25
ATOM     25  C   UNL A   1      32.378  30.804  26.965  1.00  0.00     0.023 C 
BRANCH  25  26
ATOM     26  C   UNL A   1      33.422  31.848  27.352  1.00  0.00     0.116 C 
BRANCH  26  27
ATOM     27  N   UNL A   1      32.850  33.169  27.570  1.00  0.00    -0.352 N 
ATOM     28  C   UNL A   1      33.216  34.133  28.480  1.00  0.00     0.251 C 
ATOM     29  H   UNL A   1      32.097  33.405  26.983  1.00  0.00     0.163 HD
ATOM     30  O   UNL A   1      32.538  35.149  28.601  1.00  0.00    -0.269 OA
BRANCH  28  31
ATOM     31  C   UNL A   1      34.402  33.921  29.337  1.00  0.00     0.039 A 
ATOM     32  C   UNL A   1      34.234  33.301  30.578  1.00  0.00     0.014 A 
ATOM     33  C   UNL A   1      35.676  34.293  28.900  1.00  0.00     0.014 A 
ATOM     34  C   UNL A   1      35.356  32.962  31.339  1.00  0.00     0.010 A 
ATOM     35  C   UNL A   1      36.796  33.907  29.635  1.00  0.00     0.010 A 
ATOM     36  C   UNL A   1      36.646  33.216  30.848  1.00  0.00    -0.014 A 
BRANCH  36  37
ATOM     37  C   UNL A   1      37.854  32.697  31.542  1.00  0.00     0.031 A 
ATOM     38  C   UNL A   1      38.577  31.490  31.015  1.00  0.00     0.074 A 
ATOM     39  C   UNL A   1      38.227  33.256  32.712  1.00  0.00     0.049 A 
ATOM     40  N   UNL A   1      39.564  30.823  31.555  1.00  0.00    -0.248 NA
ATOM     41  C   UNL A   1      38.118  30.948  29.726  1.00  0.00     0.031 C 
ATOM     42  C   UNL A   1      37.568  34.397  33.353  1.00  0.00     0.029 A 
ATOM     43  N   UNL A   1      39.231  32.922  33.587  1.00  0.00    -0.354 N 
ATOM     44  C   UNL A   1      39.832  29.772  30.687  1.00  0.00     0.074 A 
ATOM     45  C   UNL A   1      38.888  29.875  29.595  1.00  0.00     0.031 C 
ATOM     46  C   UNL A   1      38.179  34.662  34.520  1.00  0.00     0.029 A 
ATOM     47  C   UNL A   1      39.247  33.690  34.729  1.00  0.00     0.049 A 
ATOM     48  H   UNL A   1      39.879  32.201  33.413  1.00  0.00     0.167 HD
ATOM     49  C   UNL A   1      40.787  28.818  30.789  1.00  0.00     0.037 A 
ATOM     50  C   UNL A   1      40.014  33.604  35.833  1.00  0.00     0.037 A 
ATOM     51  C   UNL A   1      41.749  28.746  31.858  1.00  0.00     0.049 A 
ATOM     52  C   UNL A   1      41.064  32.532  35.919  1.00  0.00     0.074 A 
ATOM     53  C   UNL A   1      42.823  27.883  31.988  1.00  0.00     0.029 A 
ATOM     54  N   UNL A   1      41.751  29.556  32.982  1.00  0.00    -0.354 N 
ATOM     55  N   UNL A   1      41.367  31.605  35.041  1.00  0.00    -0.248 NA
ATOM     56  C   UNL A   1      41.877  32.488  37.143  1.00  0.00     0.031 C 
ATOM     57  C   UNL A   1      43.447  28.141  33.213  1.00  0.00     0.029 A 
ATOM     58  C   UNL A   1      42.785  29.190  33.828  1.00  0.00     0.049 A 
ATOM     59  H   UNL A   1      41.111  30.285  33.154  1.00  0.00     0.167 HD
ATOM     60  C   UNL A   1      42.409  30.878  35.602  1.00  0.00     0.074 A 
ATOM     61  C   UNL A   1      42.701  31.483  36.885  1.00  0.00     0.031 C 
ATOM     62  C   UNL A   1      43.063  29.801  35.102  1.00  0.00     0.037 A 
BRANCH  49  63
ATOM     63  C   UNL A   1      40.862  27.770  29.716  1.00  0.00     0.058 A 
ATOM     64  C   UNL A   1      39.883  26.773  29.595  1.00  0.00     0.135 A 
ATOM     65  C   UNL A   1      41.870  27.825  28.739  1.00  0.00     0.135 A 
ATOM     66  F   UNL A   1      38.906  26.670  30.511  1.00  0.00    -0.206 F 
ATOM     67  C   UNL A   1      39.900  25.863  28.543  1.00  0.00     0.059 A 
ATOM     68  C   UNL A   1      41.895  26.938  27.667  1.00  0.00     0.059 A 
ATOM     69  F   UNL A   1      42.831  28.758  28.813  1.00  0.00    -0.206 F 
ATOM     70  C   UNL A   1      40.907  25.957  27.580  1.00  0.00     0.060 A 
BRANCH  70  71
ATOM     71  S   UNL A   1      40.885  24.801  26.194  1.00  0.00     0.124 S 
ATOM     72  O   UNL A   1      41.827  23.784  26.649  1.00  0.00    -0.237 OA
ATOM     73  O   UNL A   1      39.483  24.392  26.153  1.00  0.00    -0.237 OA
ATOM     74  O   UNL A   1      41.331  25.612  25.066  1.00  0.00    -0.744 OA
ENDBRANCH  70  71
ENDBRANCH  49  63
BRANCH  50  75
ATOM     75  C   UNL A   1      39.801  34.543  36.967  1.00  0.00     0.058 A 
ATOM     76  C   UNL A   1      40.421  35.800  36.991  1.00  0.00     0.135 A 
ATOM     77  C   UNL A   1      38.991  34.191  38.058  1.00  0.00     0.135 A 
ATOM     78  F   UNL A   1      41.210  36.178  35.974  1.00  0.00    -0.206 F 
ATOM     79  C   UNL A   1      40.269  36.667  38.069  1.00  0.00     0.059 A 
ATOM     80  C   UNL A   1      38.804  35.051  39.136  1.00  0.00     0.059 A 
ATOM     81  F   UNL A   1      38.360  33.006  38.075  1.00  0.00    -0.206 F 
ATOM     82  C   UNL A   1      39.462  36.279  39.140  1.00  0.00     0.060 A 
BRANCH  82  83
ATOM     83  S   UNL A   1      39.252  37.416  40.528  1.00  0.00     0.124 S 
ATOM     84  O   UNL A   1      38.237  38.326  40.009  1.00  0.00    -0.237 OA
ATOM     85  O   UNL A   1      38.819  36.521  41.598  1.00  0.00    -0.237 OA
ATOM     86  O   UNL A   1      40.585  37.984  40.699  1.00  0.00    -0.744 OA
ENDBRANCH  82  83
ENDBRANCH  50  75
BRANCH  62  87
ATOM     87  C   UNL A   1      44.163  29.210  35.936  1.00  0.00     0.058 A 
ATOM     88  C   UNL A   1      43.930  28.113  36.779  1.00  0.00     0.135 A 
ATOM     89  C   UNL A   1      45.473  29.705  35.846  1.00  0.00     0.135 A 
ATOM     90  F   UNL A   1      42.691  27.610  36.907  1.00  0.00    -0.206 F 
ATOM     91  C   UNL A   1      44.958  27.533  37.516  1.00  0.00     0.059 A 
ATOM     92  C   UNL A   1      46.521  29.126  36.555  1.00  0.00     0.059 A 
ATOM     93  F   UNL A   1      45.749  30.749  35.047  1.00  0.00    -0.206 F 
ATOM     94  C   UNL A   1      46.251  28.045  37.394  1.00  0.00     0.060 A 
BRANCH  94  95
ATOM     95  S   UNL A   1      47.586  27.253  38.316  1.00  0.00     0.124 S 
ATOM     96  O   UNL A   1      48.262  26.500  37.265  1.00  0.00    -0.237 OA
ATOM     97  O   UNL A   1      48.321  28.396  38.849  1.00  0.00    -0.237 OA
ATOM     98  O   UNL A   1      46.880  26.450  39.310  1.00  0.00    -0.744 OA
ENDBRANCH  94  95
ENDBRANCH  62  87
ENDBRANCH  36  37
ENDBRANCH  28  31
ENDBRANCH  26  27
ENDBRANCH  25  26
ENDBRANCH   1  25
TORSDOF 17
ENDMDL
MODEL 3
REMARK VINA RESULT:     -11.6      6.815     14.769
REMARK SMILES C[C@@H](C(=O)NCCCCNC(=O)c1ccc(-c2c3nc(c(-c4c(F)cc(S(=O)(=O)[O-])cc4F)c4ccc([nH]4)c(-c4c(F)cc(S(=O)(=O)[O-])cc4F)c4nc(c(-c5c(F)cc(S(=O)(=O)[O-])cc5F)c5ccc2[nH]5)C=C4)C=C3)cc1)c1ccc(-c2ccn(C(F)F)c(=O)c2)cc1
REMARK SMILES IDX 7 1 6 2 5 3 3 4 4 5 2 7 1 8 79 9 80 10 94 11 81 12 93 13
REMARK SMILES IDX 82 14 83 15 84 16 92 17 85 18 90 19 86 20 91 21 87 22 88 23
REMARK SMILES IDX 89 24 8 25 9 26 10 27 11 28 12 30 13 31 14 32 78 33 15 34
REMARK SMILES IDX 77 35 16 36 17 37 18 38 71 39 19 40 76 41 70 42 72 43 20 44
REMARK SMILES IDX 75 45 69 46 68 47 21 49 55 50 34 51 54 52 35 53 38 54 53 55
REMARK SMILES IDX 73 56 36 57 37 58 52 60 74 61 39 62 22 63 23 64 32 65 24 66
REMARK SMILES IDX 25 67 31 68 33 69 26 70 27 71 28 72 29 73 30 74 56 75 57 76
REMARK SMILES IDX 66 77 58 78 59 79 65 80 67 81 60 82 61 83 62 84 63 85 64 86
REMARK SMILES IDX 40 87 41 88 50 89 42 90 43 91 49 92 51 93 44 94 45 95 46 96
REMARK SMILES IDX 47 97 48 98
REMARK H PARENT 5 6 10 29 72 48 38 59
REMARK Flexibility Score: inf
ROOT
ATOM      1  C   UNL A   1      47.110  23.869  37.892  1.00  0.00     0.023 C 
ENDROOT
BRANCH   1   2
ATOM      2  C   UNL A   1      45.658  23.389  37.858  1.00  0.00     0.116 C 
BRANCH   2   3
ATOM      3  N   UNL A   1      45.436  22.433  36.795  1.00  0.00    -0.356 N 
ATOM      4  C   UNL A   1      44.832  22.575  35.579  1.00  0.00     0.227 C 
ATOM      5  O   UNL A   1      44.786  21.564  34.876  1.00  0.00    -0.274 OA
ATOM      6  H   UNL A   1      45.776  21.528  36.979  1.00  0.00     0.163 HD
BRANCH   4   7
ATOM      7  C   UNL A   1      44.289  23.947  35.131  1.00  0.00     0.105 C 
ATOM      8  C   UNL A   1      42.760  24.015  35.163  1.00  0.00     0.023 C 
BRANCH   7   9
ATOM      9  C   UNL A   1      44.745  24.352  33.729  1.00  0.00    -0.036 A 
ATOM     10  C   UNL A   1      45.781  25.282  33.554  1.00  0.00     0.005 A 
ATOM     11  C   UNL A   1      44.094  23.855  32.590  1.00  0.00     0.005 A 
ATOM     12  C   UNL A   1      46.160  25.696  32.271  1.00  0.00     0.009 A 
ATOM     13  C   UNL A   1      44.478  24.258  31.312  1.00  0.00     0.009 A 
ATOM     14  C   UNL A   1      45.512  25.184  31.141  1.00  0.00    -0.018 A 
BRANCH  14  15
ATOM     15  C   UNL A   1      45.883  25.591  29.773  1.00  0.00    -0.011 A 
ATOM     16  C   UNL A   1      45.736  26.958  29.305  1.00  0.00     0.027 A 
ATOM     17  C   UNL A   1      46.294  24.647  28.909  1.00  0.00     0.080 A 
ATOM     18  C   UNL A   1      45.952  27.265  28.022  1.00  0.00     0.095 A 
ATOM     19  C   UNL A   1      46.575  24.982  27.485  1.00  0.00     0.255 A 
ATOM     20  N   UNL A   1      46.350  26.299  27.117  1.00  0.00    -0.258 N 
ATOM     21  O   UNL A   1      46.968  24.091  26.738  1.00  0.00    -0.269 OA
BRANCH  20  22
ATOM     22  C   UNL A   1      46.536  26.631  25.730  1.00  0.00     0.451 C 
ATOM     23  F   UNL A   1      45.349  26.730  25.082  1.00  0.00    -0.185 F 
ATOM     24  F   UNL A   1      47.189  27.811  25.592  1.00  0.00    -0.185 F 
ENDBRANCH  20  22
ENDBRANCH  14  15
ENDBRANCH   7   9
ENDBRANCH   4   7
ENDBRANCH   2   3
ENDBRANCH   1   2
BRANCH   1  25
ATOM     25  C   UNL A   1      47.721  24.196  36.525  1.00  0.00     0.023 C 
BRANCH  25  26
ATOM     26  C   UNL A   1      48.260  25.615  36.365  1.00  0.00     0.116 C 
BRANCH  26  27
ATOM     27  N   UNL A   1      48.190  26.391  37.594  1.00  0.00    -0.352 N 
ATOM     28  C   UNL A   1      47.312  27.392  37.939  1.00  0.00     0.251 C 
ATOM     29  H   UNL A   1      48.865  26.168  38.274  1.00  0.00     0.163 HD
ATOM     30  O   UNL A   1      47.479  28.022  38.979  1.00  0.00    -0.269 OA
BRANCH  28  31
ATOM     31  C   UNL A   1      46.195  27.732  37.032  1.00  0.00     0.039 A 
ATOM     32  C   UNL A   1      44.962  27.102  37.217  1.00  0.00     0.014 A 
ATOM     33  C   UNL A   1      46.352  28.699  36.035  1.00  0.00     0.014 A 
ATOM     34  C   UNL A   1      43.857  27.512  36.466  1.00  0.00     0.010 A 
ATOM     35  C   UNL A   1      45.238  29.143  35.325  1.00  0.00     0.010 A 
ATOM     36  C   UNL A   1      43.975  28.571  35.553  1.00  0.00    -0.014 A 
BRANCH  36  37
ATOM     37  C   UNL A   1      42.783  29.154  34.885  1.00  0.00     0.031 A 
ATOM     38  C   UNL A   1      42.383  28.703  33.509  1.00  0.00     0.074 A 
ATOM     39  C   UNL A   1      42.129  30.172  35.483  1.00  0.00     0.049 A 
ATOM     40  N   UNL A   1      41.456  29.186  32.723  1.00  0.00    -0.248 NA
ATOM     41  C   UNL A   1      43.135  27.578  32.931  1.00  0.00     0.031 C 
ATOM     42  C   UNL A   1      42.460  30.735  36.795  1.00  0.00     0.029 A 
ATOM     43  N   UNL A   1      41.072  30.935  35.055  1.00  0.00    -0.354 N 
ATOM     44  C   UNL A   1      41.525  28.443  31.551  1.00  0.00     0.074 A 
ATOM     45  C   UNL A   1      42.602  27.491  31.719  1.00  0.00     0.031 C 
ATOM     46  C   UNL A   1      41.629  31.756  37.060  1.00  0.00     0.029 A 
ATOM     47  C   UNL A   1      40.731  31.946  35.925  1.00  0.00     0.049 A 
ATOM     48  H   UNL A   1      40.600  30.774  34.206  1.00  0.00     0.167 HD
ATOM     49  C   UNL A   1      40.752  28.541  30.445  1.00  0.00     0.037 A 
ATOM     50  C   UNL A   1      39.822  32.933  35.811  1.00  0.00     0.037 A 
ATOM     51  C   UNL A   1      39.656  29.464  30.301  1.00  0.00     0.049 A 
ATOM     52  C   UNL A   1      38.980  33.018  34.567  1.00  0.00     0.074 A 
ATOM     53  C   UNL A   1      38.747  29.560  29.262  1.00  0.00     0.029 A 
ATOM     54  N   UNL A   1      39.326  30.454  31.213  1.00  0.00    -0.354 N 
ATOM     55  N   UNL A   1      38.996  32.244  33.509  1.00  0.00    -0.248 NA
ATOM     56  C   UNL A   1      37.999  34.111  34.498  1.00  0.00     0.031 C 
ATOM     57  C   UNL A   1      37.895  30.639  29.524  1.00  0.00     0.029 A 
ATOM     58  C   UNL A   1      38.250  31.189  30.743  1.00  0.00     0.049 A 
ATOM     59  H   UNL A   1      39.788  30.612  32.068  1.00  0.00     0.167 HD
ATOM     60  C   UNL A   1      38.023  32.748  32.656  1.00  0.00     0.074 A 
ATOM     61  C   UNL A   1      37.421  33.881  33.327  1.00  0.00     0.031 C 
ATOM     62  C   UNL A   1      37.662  32.315  31.423  1.00  0.00     0.037 A 
BRANCH  49  63
ATOM     63  C   UNL A   1      41.042  27.624  29.292  1.00  0.00     0.058 A 
ATOM     64  C   UNL A   1      42.150  27.823  28.456  1.00  0.00     0.135 A 
ATOM     65  C   UNL A   1      40.259  26.476  29.083  1.00  0.00     0.135 A 
ATOM     66  F   UNL A   1      42.922  28.912  28.605  1.00  0.00    -0.206 F 
ATOM     67  C   UNL A   1      42.473  26.919  27.450  1.00  0.00     0.059 A 
ATOM     68  C   UNL A   1      40.575  25.547  28.096  1.00  0.00     0.059 A 
ATOM     69  F   UNL A   1      39.186  26.242  29.854  1.00  0.00    -0.206 F 
ATOM     70  C   UNL A   1      41.684  25.780  27.282  1.00  0.00     0.060 A 
BRANCH  70  71
ATOM     71  S   UNL A   1      42.147  24.591  26.005  1.00  0.00     0.124 S 
ATOM     72  O   UNL A   1      41.109  23.577  26.162  1.00  0.00    -0.237 OA
ATOM     73  O   UNL A   1      42.068  25.394  24.788  1.00  0.00    -0.237 OA
ATOM     74  O   UNL A   1      43.492  24.179  26.395  1.00  0.00    -0.744 OA
ENDBRANCH  70  71
ENDBRANCH  49  63
BRANCH  50  75
ATOM     75  C   UNL A   1      39.675  33.945  36.890  1.00  0.00     0.058 A 
ATOM     76  C   UNL A   1      40.454  35.111  36.900  1.00  0.00     0.135 A 
ATOM     77  C   UNL A   1      38.767  33.756  37.943  1.00  0.00     0.135 A 
ATOM     78  F   UNL A   1      41.341  35.333  35.917  1.00  0.00    -0.206 F 
ATOM     79  C   UNL A   1      40.361  36.041  37.930  1.00  0.00     0.059 A 
ATOM     80  C   UNL A   1      38.638  34.684  38.972  1.00  0.00     0.059 A 
ATOM     81  F   UNL A   1      37.985  32.666  37.971  1.00  0.00    -0.206 F 
ATOM     82  C   UNL A   1      39.452  35.815  38.965  1.00  0.00     0.060 A 
BRANCH  82  83
ATOM     83  S   UNL A   1      39.320  37.035  40.290  1.00  0.00     0.124 S 
ATOM     84  O   UNL A   1      40.718  37.215  40.662  1.00  0.00    -0.237 OA
ATOM     85  O   UNL A   1      38.690  38.164  39.610  1.00  0.00    -0.237 OA
ATOM     86  O   UNL A   1      38.481  36.364  41.279  1.00  0.00    -0.744 OA
ENDBRANCH  82  83
ENDBRANCH  50  75
BRANCH  62  87
ATOM     87  C   UNL A   1      36.564  33.061  30.721  1.00  0.00     0.058 A 
ATOM     88  C   UNL A   1      35.215  32.841  31.040  1.00  0.00     0.135 A 
ATOM     89  C   UNL A   1      36.863  34.047  29.768  1.00  0.00     0.135 A 
ATOM     90  F   UNL A   1      34.877  31.901  31.938  1.00  0.00    -0.206 F 
ATOM     91  C   UNL A   1      34.198  33.565  30.427  1.00  0.00     0.059 A 
ATOM     92  C   UNL A   1      35.864  34.799  29.160  1.00  0.00     0.059 A 
ATOM     93  F   UNL A   1      38.139  34.300  29.435  1.00  0.00    -0.206 F 
ATOM     94  C   UNL A   1      34.533  34.545  29.490  1.00  0.00     0.060 A 
BRANCH  94  95
ATOM     95  S   UNL A   1      33.207  35.512  28.738  1.00  0.00     0.124 S 
ATOM     96  O   UNL A   1      32.481  34.487  27.994  1.00  0.00    -0.237 OA
ATOM     97  O   UNL A   1      32.517  36.059  29.902  1.00  0.00    -0.237 OA
ATOM     98  O   UNL A   1      33.922  36.491  27.923  1.00  0.00    -0.744 OA
ENDBRANCH  94  95
ENDBRANCH  62  87
ENDBRANCH  36  37
ENDBRANCH  28  31
ENDBRANCH  26  27
ENDBRANCH  25  26
ENDBRANCH   1  25
TORSDOF 17
ENDMDL
