MODEL 1
REMARK VINA RESULT:     -10.6      0.000      0.000
REMARK SMILES CC(C)(C)[N@H+](CCC(=O)Nc1ccccc1F)CC(=O)NCCCCNC(=O)c1ccc(-c2c3nc(c(-c4c(F)cc(S(=O)(=O)[O-])cc4F)c4ccc([nH]4)c(-c4c(F)cc(S(=O)(=O)[O-])cc4F)c4nc(c(-c5c(F)cc(S(=O)(=O)[O-])cc5F)c5ccc2[nH]5)C=C4)C=C3)cc1
REMARK SMILES IDX 22 1 21 2 19 3 20 4 18 6 5 7 2 9 1 10 3 11 4 12 6 13 7 14
REMARK SMILES IDX 8 15 9 16 10 17 11 19 12 20 16 21 13 22 15 23 17 24 14 25
REMARK SMILES IDX 23 26 24 27 25 28 26 29 27 30 28 32 29 33 30 34 94 35 31 36
REMARK SMILES IDX 93 37 32 38 33 39 34 40 87 41 35 42 92 43 86 44 88 45 36 46
REMARK SMILES IDX 91 47 85 48 84 49 37 51 71 52 50 53 70 54 51 55 54 56 69 57
REMARK SMILES IDX 89 58 52 59 53 60 68 62 90 63 55 64 38 65 39 66 48 67 40 68
REMARK SMILES IDX 41 69 47 70 49 71 42 72 43 73 44 74 45 75 46 76 72 77 73 78
REMARK SMILES IDX 82 79 74 80 75 81 81 82 83 83 76 84 77 85 78 86 79 87 80 88
REMARK SMILES IDX 56 89 57 90 66 91 58 92 59 93 65 94 67 95 60 96 61 97 62 98
REMARK SMILES IDX 63 99 64 100
REMARK H PARENT 21 5 5 8 10 18 26 31 88 50 54 61
REMARK Flexibility Score: inf
ROOT
ATOM      1  C   UNL A   1      31.486  26.466  26.384  1.00  0.00     0.116 C 
ENDROOT
BRANCH   1   2
ATOM      2  N   UNL A   1      31.365  25.111  26.872  1.00  0.00    -0.351 N 
ATOM      3  C   UNL A   1      31.049  23.979  26.179  1.00  0.00     0.275 C 
ATOM      4  O   UNL A   1      30.962  22.923  26.814  1.00  0.00    -0.269 OA
ATOM      5  H   UNL A   1      31.533  24.989  27.834  1.00  0.00     0.163 HD
BRANCH   3   6
ATOM      6  C   UNL A   1      31.017  23.969  24.650  1.00  0.00     0.363 C 
BRANCH   6   7
ATOM      7  N   UNL A   1      32.230  23.497  23.940  1.00  0.00    -0.323 N 
ATOM      8  H   UNL A   1      32.941  23.340  24.656  1.00  0.00     0.349 HD
BRANCH   7   9
ATOM      9  C   UNL A   1      32.790  24.545  22.994  1.00  0.00     0.090 C 
ATOM     10  C   UNL A   1      34.080  25.192  23.567  1.00  0.00     0.078 C 
ATOM     11  C   UNL A   1      31.793  25.712  22.797  1.00  0.00     0.078 C 
ATOM     12  C   UNL A   1      33.161  23.996  21.589  1.00  0.00     0.078 C 
ENDBRANCH   7   9
BRANCH   7  13
ATOM     13  C   UNL A   1      32.011  22.191  23.257  1.00  0.00     0.273 C 
BRANCH  13  14
ATOM     14  C   UNL A   1      32.776  20.888  23.600  1.00  0.00     0.161 C 
BRANCH  14  15
ATOM     15  C   UNL A   1      32.980  20.337  25.011  1.00  0.00     0.230 C 
ATOM     16  O   UNL A   1      32.150  19.536  25.463  1.00  0.00    -0.275 OA
ATOM     17  N   UNL A   1      34.043  20.622  25.815  1.00  0.00    -0.323 N 
ATOM     18  H   UNL A   1      34.077  20.107  26.654  1.00  0.00     0.170 HD
BRANCH  17  19
ATOM     19  C   UNL A   1      35.093  21.530  25.639  1.00  0.00     0.077 A 
ATOM     20  C   UNL A   1      36.040  21.236  24.649  1.00  0.00     0.029 A 
ATOM     21  C   UNL A   1      35.203  22.721  26.352  1.00  0.00     0.146 A 
ATOM     22  C   UNL A   1      36.992  22.194  24.291  1.00  0.00     0.002 A 
ATOM     23  C   UNL A   1      36.171  23.664  26.021  1.00  0.00     0.041 A 
ATOM     24  F   UNL A   1      34.357  22.995  27.355  1.00  0.00    -0.205 F 
ATOM     25  C   UNL A   1      37.049  23.411  24.968  1.00  0.00     0.003 A 
ENDBRANCH  17  19
ENDBRANCH  14  15
ENDBRANCH  13  14
ENDBRANCH   7  13
ENDBRANCH   6   7
ENDBRANCH   3   6
ENDBRANCH   1   2
BRANCH   1  26
ATOM     26  C   UNL A   1      32.937  26.937  26.347  1.00  0.00     0.023 C 
BRANCH  26  27
ATOM     27  C   UNL A   1      33.145  28.246  25.591  1.00  0.00     0.023 C 
BRANCH  27  28
ATOM     28  C   UNL A   1      34.233  29.122  26.181  1.00  0.00     0.116 C 
BRANCH  28  29
ATOM     29  N   UNL A   1      33.741  30.413  26.637  1.00  0.00    -0.352 N 
ATOM     30  C   UNL A   1      34.303  31.207  27.614  1.00  0.00     0.251 C 
ATOM     31  H   UNL A   1      32.926  30.755  26.204  1.00  0.00     0.163 HD
ATOM     32  O   UNL A   1      33.753  32.211  28.020  1.00  0.00    -0.269 OA
BRANCH  30  33
ATOM     33  C   UNL A   1      35.592  30.754  28.173  1.00  0.00     0.039 A 
ATOM     34  C   UNL A   1      36.729  31.538  27.979  1.00  0.00     0.014 A 
ATOM     35  C   UNL A   1      35.623  29.617  28.983  1.00  0.00     0.014 A 
ATOM     36  C   UNL A   1      37.910  31.184  28.628  1.00  0.00     0.010 A 
ATOM     37  C   UNL A   1      36.772  29.323  29.701  1.00  0.00     0.010 A 
ATOM     38  C   UNL A   1      37.934  30.081  29.500  1.00  0.00    -0.014 A 
BRANCH  38  39
ATOM     39  C   UNL A   1      39.198  29.647  30.137  1.00  0.00     0.031 A 
ATOM     40  C   UNL A   1      39.619  30.291  31.431  1.00  0.00     0.074 A 
ATOM     41  C   UNL A   1      39.961  28.705  29.551  1.00  0.00     0.049 A 
ATOM     42  N   UNL A   1      40.682  30.068  32.157  1.00  0.00    -0.248 NA
ATOM     43  C   UNL A   1      38.745  31.353  31.961  1.00  0.00     0.031 C 
ATOM     44  C   UNL A   1      39.674  28.063  28.266  1.00  0.00     0.029 A 
ATOM     45  N   UNL A   1      41.127  28.116  29.964  1.00  0.00    -0.354 N 
ATOM     46  C   UNL A   1      40.605  30.965  33.216  1.00  0.00     0.074 A 
ATOM     47  C   UNL A   1      39.444  31.793  32.995  1.00  0.00     0.031 C 
ATOM     48  C   UNL A   1      40.615  27.136  28.019  1.00  0.00     0.029 A 
ATOM     49  C   UNL A   1      41.579  27.132  29.116  1.00  0.00     0.049 A 
ATOM     50  H   UNL A   1      41.598  28.373  30.789  1.00  0.00     0.167 HD
ATOM     51  C   UNL A   1      41.404  31.058  34.304  1.00  0.00     0.037 A 
ATOM     52  C   UNL A   1      42.639  26.308  29.229  1.00  0.00     0.037 A 
ATOM     53  C   UNL A   1      42.532  30.196  34.530  1.00  0.00     0.049 A 
ATOM     54  C   UNL A   1      43.492  26.398  30.465  1.00  0.00     0.074 A 
ATOM     55  C   UNL A   1      43.397  30.172  35.608  1.00  0.00     0.029 A 
ATOM     56  N   UNL A   1      42.937  29.188  33.665  1.00  0.00    -0.354 N 
ATOM     57  N   UNL A   1      43.386  27.224  31.479  1.00  0.00    -0.248 NA
ATOM     58  C   UNL A   1      44.594  25.436  30.585  1.00  0.00     0.031 C 
ATOM     59  C   UNL A   1      44.343  29.167  35.380  1.00  0.00     0.029 A 
ATOM     60  C   UNL A   1      44.039  28.535  34.185  1.00  0.00     0.049 A 
ATOM     61  H   UNL A   1      42.503  28.972  32.808  1.00  0.00     0.167 HD
ATOM     62  C   UNL A   1      44.387  26.862  32.373  1.00  0.00     0.074 A 
ATOM     63  C   UNL A   1      45.083  25.738  31.781  1.00  0.00     0.031 C 
ATOM     64  C   UNL A   1      44.701  27.408  33.575  1.00  0.00     0.037 A 
BRANCH  51  65
ATOM     65  C   UNL A   1      41.063  32.104  35.329  1.00  0.00     0.058 A 
ATOM     66  C   UNL A   1      41.769  33.315  35.383  1.00  0.00     0.135 A 
ATOM     67  C   UNL A   1      40.034  31.904  36.266  1.00  0.00     0.135 A 
ATOM     68  F   UNL A   1      42.754  33.565  34.508  1.00  0.00    -0.206 F 
ATOM     69  C   UNL A   1      41.470  34.289  36.332  1.00  0.00     0.059 A 
ATOM     70  C   UNL A   1      39.697  32.878  37.202  1.00  0.00     0.059 A 
ATOM     71  F   UNL A   1      39.306  30.775  36.241  1.00  0.00    -0.206 F 
ATOM     72  C   UNL A   1      40.429  34.062  37.235  1.00  0.00     0.060 A 
BRANCH  72  73
ATOM     73  S   UNL A   1      40.017  35.359  38.421  1.00  0.00     0.124 S 
ATOM     74  O   UNL A   1      39.632  36.457  37.543  1.00  0.00    -0.237 OA
ATOM     75  O   UNL A   1      38.935  34.745  39.186  1.00  0.00    -0.237 OA
ATOM     76  O   UNL A   1      41.262  35.549  39.159  1.00  0.00    -0.744 OA
ENDBRANCH  72  73
ENDBRANCH  51  65
BRANCH  52  77
ATOM     77  C   UNL A   1      42.887  25.280  28.181  1.00  0.00     0.058 A 
ATOM     78  C   UNL A   1      42.451  23.956  28.338  1.00  0.00     0.135 A 
ATOM     79  C   UNL A   1      43.622  25.592  27.027  1.00  0.00     0.135 A 
ATOM     80  F   UNL A   1      41.756  23.601  29.430  1.00  0.00    -0.206 F 
ATOM     81  C   UNL A   1      42.754  22.972  27.402  1.00  0.00     0.059 A 
ATOM     82  C   UNL A   1      43.920  24.630  26.064  1.00  0.00     0.059 A 
ATOM     83  F   UNL A   1      44.056  26.846  26.828  1.00  0.00    -0.206 F 
ATOM     84  C   UNL A   1      43.496  23.318  26.271  1.00  0.00     0.060 A 
BRANCH  84  85
ATOM     85  S   UNL A   1      43.908  22.019  25.084  1.00  0.00     0.124 S 
ATOM     86  O   UNL A   1      43.702  22.708  23.814  1.00  0.00    -0.237 OA
ATOM     87  O   UNL A   1      45.294  21.721  25.427  1.00  0.00    -0.237 OA
ATOM     88  O   UNL A   1      42.946  20.965  25.391  1.00  0.00    -0.744 OA
ENDBRANCH  84  85
ENDBRANCH  52  77
BRANCH  64  89
ATOM     89  C   UNL A   1      45.820  26.775  34.352  1.00  0.00     0.058 A 
ATOM     90  C   UNL A   1      45.548  25.755  35.277  1.00  0.00     0.135 A 
ATOM     91  C   UNL A   1      47.143  27.232  34.243  1.00  0.00     0.135 A 
ATOM     92  F   UNL A   1      44.297  25.290  35.425  1.00  0.00    -0.206 F 
ATOM     93  C   UNL A   1      46.548  25.216  36.076  1.00  0.00     0.059 A 
ATOM     94  C   UNL A   1      48.164  26.688  35.015  1.00  0.00     0.059 A 
ATOM     95  F   UNL A   1      47.453  28.202  33.369  1.00  0.00    -0.206 F 
ATOM     96  C   UNL A   1      47.853  25.690  35.940  1.00  0.00     0.060 A 
BRANCH  96  97
ATOM     97  S   UNL A   1      49.145  24.963  36.969  1.00  0.00     0.124 S 
ATOM     98  O   UNL A   1      48.874  23.536  36.824  1.00  0.00    -0.237 OA
ATOM     99  O   UNL A   1      50.362  25.447  36.325  1.00  0.00    -0.237 OA
ATOM    100  O   UNL A   1      48.879  25.522  38.291  1.00  0.00    -0.744 OA
ENDBRANCH  96  97
ENDBRANCH  64  89
ENDBRANCH  38  39
ENDBRANCH  30  33
ENDBRANCH  28  29
ENDBRANCH  27  28
ENDBRANCH  26  27
ENDBRANCH   1  26
TORSDOF 20
ENDMDL
MODEL 2
REMARK VINA RESULT:     -10.0      3.997      8.726
REMARK SMILES CC(C)(C)[N@H+](CCC(=O)Nc1ccccc1F)CC(=O)NCCCCNC(=O)c1ccc(-c2c3nc(c(-c4c(F)cc(S(=O)(=O)[O-])cc4F)c4ccc([nH]4)c(-c4c(F)cc(S(=O)(=O)[O-])cc4F)c4nc(c(-c5c(F)cc(S(=O)(=O)[O-])cc5F)c5ccc2[nH]5)C=C4)C=C3)cc1
REMARK SMILES IDX 22 1 21 2 19 3 20 4 18 6 5 7 2 9 1 10 3 11 4 12 6 13 7 14
REMARK SMILES IDX 8 15 9 16 10 17 11 19 12 20 16 21 13 22 15 23 17 24 14 25
REMARK SMILES IDX 23 26 24 27 25 28 26 29 27 30 28 32 29 33 30 34 94 35 31 36
REMARK SMILES IDX 93 37 32 38 33 39 34 40 87 41 35 42 92 43 86 44 88 45 36 46
REMARK SMILES IDX 91 47 85 48 84 49 37 51 71 52 50 53 70 54 51 55 54 56 69 57
REMARK SMILES IDX 89 58 52 59 53 60 68 62 90 63 55 64 38 65 39 66 48 67 40 68
REMARK SMILES IDX 41 69 47 70 49 71 42 72 43 73 44 74 45 75 46 76 72 77 73 78
REMARK SMILES IDX 82 79 74 80 75 81 81 82 83 83 76 84 77 85 78 86 79 87 80 88
REMARK SMILES IDX 56 89 57 90 66 91 58 92 59 93 65 94 67 95 60 96 61 97 62 98
REMARK SMILES IDX 63 99 64 100
REMARK H PARENT 21 5 5 8 10 18 26 31 88 50 54 61
REMARK Flexibility Score: inf
ROOT
ATOM      1  C   UNL A   1      31.845  26.590  26.013  1.00  0.00     0.116 C 
ENDROOT
BRANCH   1   2
ATOM      2  N   UNL A   1      31.241  25.425  26.617  1.00  0.00    -0.351 N 
ATOM      3  C   UNL A   1      30.647  24.359  26.008  1.00  0.00     0.275 C 
ATOM      4  O   UNL A   1      30.157  23.484  26.730  1.00  0.00    -0.269 OA
ATOM      5  H   UNL A   1      31.261  25.397  27.600  1.00  0.00     0.163 HD
BRANCH   3   6
ATOM      6  C   UNL A   1      30.770  24.139  24.499  1.00  0.00     0.363 C 
BRANCH   6   7
ATOM      7  N   UNL A   1      32.022  23.528  23.993  1.00  0.00    -0.323 N 
ATOM      8  H   UNL A   1      32.672  23.509  24.779  1.00  0.00     0.349 HD
BRANCH   7   9
ATOM      9  C   UNL A   1      32.676  24.366  22.908  1.00  0.00     0.090 C 
ATOM     10  C   UNL A   1      31.768  25.552  22.485  1.00  0.00     0.078 C 
ATOM     11  C   UNL A   1      32.903  23.537  21.620  1.00  0.00     0.078 C 
ATOM     12  C   UNL A   1      34.040  24.983  23.321  1.00  0.00     0.078 C 
ENDBRANCH   7   9
BRANCH   7  13
ATOM     13  C   UNL A   1      31.826  22.115  23.562  1.00  0.00     0.273 C 
BRANCH  13  14
ATOM     14  C   UNL A   1      32.874  20.990  23.756  1.00  0.00     0.161 C 
BRANCH  14  15
ATOM     15  C   UNL A   1      33.115  20.233  25.062  1.00  0.00     0.230 C 
ATOM     16  O   UNL A   1      32.334  19.323  25.374  1.00  0.00    -0.275 OA
ATOM     17  N   UNL A   1      34.163  20.446  25.907  1.00  0.00    -0.323 N 
ATOM     18  H   UNL A   1      34.229  19.807  26.653  1.00  0.00     0.170 HD
BRANCH  17  19
ATOM     19  C   UNL A   1      35.157  21.430  25.885  1.00  0.00     0.077 A 
ATOM     20  C   UNL A   1      36.411  21.068  25.377  1.00  0.00     0.029 A 
ATOM     21  C   UNL A   1      34.941  22.747  26.284  1.00  0.00     0.146 A 
ATOM     22  C   UNL A   1      37.377  22.049  25.144  1.00  0.00     0.002 A 
ATOM     23  C   UNL A   1      35.913  23.722  26.085  1.00  0.00     0.041 A 
ATOM     24  F   UNL A   1      33.776  23.106  26.844  1.00  0.00    -0.205 F 
ATOM     25  C   UNL A   1      37.124  23.377  25.487  1.00  0.00     0.003 A 
ENDBRANCH  17  19
ENDBRANCH  14  15
ENDBRANCH  13  14
ENDBRANCH   7  13
ENDBRANCH   6   7
ENDBRANCH   3   6
ENDBRANCH   1   2
BRANCH   1  26
ATOM     26  C   UNL A   1      33.344  26.671  26.288  1.00  0.00     0.023 C 
BRANCH  26  27
ATOM     27  C   UNL A   1      33.996  27.962  25.801  1.00  0.00     0.023 C 
BRANCH  27  28
ATOM     28  C   UNL A   1      34.949  28.578  26.807  1.00  0.00     0.116 C 
BRANCH  28  29
ATOM     29  N   UNL A   1      34.365  29.693  27.537  1.00  0.00    -0.352 N 
ATOM     30  C   UNL A   1      35.002  30.490  28.463  1.00  0.00     0.251 C 
ATOM     31  H   UNL A   1      33.421  29.899  27.350  1.00  0.00     0.163 HD
ATOM     32  O   UNL A   1      34.401  31.319  29.118  1.00  0.00    -0.269 OA
BRANCH  30  33
ATOM     33  C   UNL A   1      36.448  30.262  28.649  1.00  0.00     0.039 A 
ATOM     34  C   UNL A   1      36.902  29.728  29.855  1.00  0.00     0.014 A 
ATOM     35  C   UNL A   1      37.316  30.471  27.575  1.00  0.00     0.014 A 
ATOM     36  C   UNL A   1      38.246  29.380  29.974  1.00  0.00     0.010 A 
ATOM     37  C   UNL A   1      38.629  30.035  27.665  1.00  0.00     0.010 A 
ATOM     38  C   UNL A   1      39.113  29.521  28.876  1.00  0.00    -0.014 A 
BRANCH  38  39
ATOM     39  C   UNL A   1      40.558  29.228  29.010  1.00  0.00     0.031 A 
ATOM     40  C   UNL A   1      41.058  27.856  28.645  1.00  0.00     0.074 A 
ATOM     41  C   UNL A   1      41.400  30.174  29.469  1.00  0.00     0.049 A 
ATOM     42  N   UNL A   1      42.275  27.382  28.687  1.00  0.00    -0.248 NA
ATOM     43  C   UNL A   1      40.048  26.874  28.209  1.00  0.00     0.031 C 
ATOM     44  C   UNL A   1      41.007  31.515  29.908  1.00  0.00     0.029 A 
ATOM     45  N   UNL A   1      42.760  30.155  29.632  1.00  0.00    -0.354 N 
ATOM     46  C   UNL A   1      42.170  26.053  28.293  1.00  0.00     0.074 A 
ATOM     47  C   UNL A   1      40.768  25.769  28.103  1.00  0.00     0.031 C 
ATOM     48  C   UNL A   1      42.109  32.206  30.246  1.00  0.00     0.029 A 
ATOM     49  C   UNL A   1      43.280  31.351  30.067  1.00  0.00     0.049 A 
ATOM     50  H   UNL A   1      43.314  29.360  29.455  1.00  0.00     0.167 HD
ATOM     51  C   UNL A   1      43.161  25.160  28.064  1.00  0.00     0.037 A 
ATOM     52  C   UNL A   1      44.560  31.718  30.273  1.00  0.00     0.037 A 
ATOM     53  C   UNL A   1      44.556  25.473  28.216  1.00  0.00     0.049 A 
ATOM     54  C   UNL A   1      45.651  30.725  29.972  1.00  0.00     0.074 A 
ATOM     55  C   UNL A   1      45.652  24.663  27.984  1.00  0.00     0.029 A 
ATOM     56  N   UNL A   1      45.045  26.706  28.626  1.00  0.00    -0.354 N 
ATOM     57  N   UNL A   1      45.542  29.483  29.563  1.00  0.00    -0.248 NA
ATOM     58  C   UNL A   1      47.034  31.185  30.141  1.00  0.00     0.031 C 
ATOM     59  C   UNL A   1      46.804  25.400  28.279  1.00  0.00     0.029 A 
ATOM     60  C   UNL A   1      46.426  26.682  28.651  1.00  0.00     0.049 A 
ATOM     61  H   UNL A   1      44.488  27.483  28.864  1.00  0.00     0.167 HD
ATOM     62  C   UNL A   1      46.842  29.021  29.394  1.00  0.00     0.074 A 
ATOM     63  C   UNL A   1      47.720  30.121  29.741  1.00  0.00     0.031 C 
ATOM     64  C   UNL A   1      47.272  27.800  28.988  1.00  0.00     0.037 A 
BRANCH  51  65
ATOM     65  C   UNL A   1      42.764  23.786  27.599  1.00  0.00     0.058 A 
ATOM     66  C   UNL A   1      42.625  23.502  26.231  1.00  0.00     0.135 A 
ATOM     67  C   UNL A   1      42.513  22.747  28.511  1.00  0.00     0.135 A 
ATOM     68  F   UNL A   1      42.861  24.453  25.314  1.00  0.00    -0.206 F 
ATOM     69  C   UNL A   1      42.250  22.238  25.786  1.00  0.00     0.059 A 
ATOM     70  C   UNL A   1      42.168  21.467  28.086  1.00  0.00     0.059 A 
ATOM     71  F   UNL A   1      42.658  22.955  29.830  1.00  0.00    -0.206 F 
ATOM     72  C   UNL A   1      42.027  21.226  26.721  1.00  0.00     0.060 A 
BRANCH  72  73
ATOM     73  S   UNL A   1      41.596  19.577  26.124  1.00  0.00     0.124 S 
ATOM     74  O   UNL A   1      42.512  19.417  25.001  1.00  0.00    -0.237 OA
ATOM     75  O   UNL A   1      41.868  18.745  27.293  1.00  0.00    -0.237 OA
ATOM     76  O   UNL A   1      40.184  19.704  25.774  1.00  0.00    -0.744 OA
ENDBRANCH  72  73
ENDBRANCH  51  65
BRANCH  52  77
ATOM     77  C   UNL A   1      44.868  33.108  30.706  1.00  0.00     0.058 A 
ATOM     78  C   UNL A   1      45.093  34.131  29.773  1.00  0.00     0.135 A 
ATOM     79  C   UNL A   1      45.001  33.426  32.067  1.00  0.00     0.135 A 
ATOM     80  F   UNL A   1      44.991  33.878  28.459  1.00  0.00    -0.206 F 
ATOM     81  C   UNL A   1      45.463  35.412  30.169  1.00  0.00     0.059 A 
ATOM     82  C   UNL A   1      45.350  34.706  32.491  1.00  0.00     0.059 A 
ATOM     83  F   UNL A   1      44.790  32.484  32.998  1.00  0.00    -0.206 F 
ATOM     84  C   UNL A   1      45.597  35.688  31.532  1.00  0.00     0.060 A 
BRANCH  84  85
ATOM     85  S   UNL A   1      46.112  37.348  32.025  1.00  0.00     0.124 S 
ATOM     86  O   UNL A   1      46.228  38.013  30.731  1.00  0.00    -0.237 OA
ATOM     87  O   UNL A   1      44.997  37.778  32.862  1.00  0.00    -0.237 OA
ATOM     88  O   UNL A   1      47.370  37.116  32.728  1.00  0.00    -0.744 OA
ENDBRANCH  84  85
ENDBRANCH  52  77
BRANCH  64  89
ATOM     89  C   UNL A   1      48.755  27.596  28.856  1.00  0.00     0.058 A 
ATOM     90  C   UNL A   1      49.383  27.773  27.613  1.00  0.00     0.135 A 
ATOM     91  C   UNL A   1      49.536  27.149  29.932  1.00  0.00     0.135 A 
ATOM     92  F   UNL A   1      48.677  28.190  26.549  1.00  0.00    -0.206 F 
ATOM     93  C   UNL A   1      50.734  27.501  27.439  1.00  0.00     0.059 A 
ATOM     94  C   UNL A   1      50.895  26.897  29.787  1.00  0.00     0.059 A 
ATOM     95  F   UNL A   1      48.980  26.971  31.142  1.00  0.00    -0.206 F 
ATOM     96  C   UNL A   1      51.482  27.061  28.531  1.00  0.00     0.060 A 
BRANCH  96  97
ATOM     97  S   UNL A   1      53.241  26.736  28.294  1.00  0.00     0.124 S 
ATOM     98  O   UNL A   1      53.751  28.066  27.978  1.00  0.00    -0.237 OA
ATOM     99  O   UNL A   1      53.634  26.197  29.593  1.00  0.00    -0.237 OA
ATOM    100  O   UNL A   1      53.262  25.777  27.193  1.00  0.00    -0.744 OA
ENDBRANCH  96  97
ENDBRANCH  64  89
ENDBRANCH  38  39
ENDBRANCH  30  33
ENDBRANCH  28  29
ENDBRANCH  27  28
ENDBRANCH  26  27
ENDBRANCH   1  26
TORSDOF 20
ENDMDL
MODEL 3
REMARK VINA RESULT:     -10.0      4.759     10.083
REMARK SMILES CC(C)(C)[N@H+](CCC(=O)Nc1ccccc1F)CC(=O)NCCCCNC(=O)c1ccc(-c2c3nc(c(-c4c(F)cc(S(=O)(=O)[O-])cc4F)c4ccc([nH]4)c(-c4c(F)cc(S(=O)(=O)[O-])cc4F)c4nc(c(-c5c(F)cc(S(=O)(=O)[O-])cc5F)c5ccc2[nH]5)C=C4)C=C3)cc1
REMARK SMILES IDX 22 1 21 2 19 3 20 4 18 6 5 7 2 9 1 10 3 11 4 12 6 13 7 14
REMARK SMILES IDX 8 15 9 16 10 17 11 19 12 20 16 21 13 22 15 23 17 24 14 25
REMARK SMILES IDX 23 26 24 27 25 28 26 29 27 30 28 32 29 33 30 34 94 35 31 36
REMARK SMILES IDX 93 37 32 38 33 39 34 40 87 41 35 42 92 43 86 44 88 45 36 46
REMARK SMILES IDX 91 47 85 48 84 49 37 51 71 52 50 53 70 54 51 55 54 56 69 57
REMARK SMILES IDX 89 58 52 59 53 60 68 62 90 63 55 64 38 65 39 66 48 67 40 68
REMARK SMILES IDX 41 69 47 70 49 71 42 72 43 73 44 74 45 75 46 76 72 77 73 78
REMARK SMILES IDX 82 79 74 80 75 81 81 82 83 83 76 84 77 85 78 86 79 87 80 88
REMARK SMILES IDX 56 89 57 90 66 91 58 92 59 93 65 94 67 95 60 96 61 97 62 98
REMARK SMILES IDX 63 99 64 100
REMARK H PARENT 21 5 5 8 10 18 26 31 88 50 54 61
REMARK Flexibility Score: inf
ROOT
ATOM      1  C   UNL A   1      34.740  24.673  24.132  1.00  0.00     0.116 C 
ENDROOT
BRANCH   1   2
ATOM      2  N   UNL A   1      34.315  24.726  22.752  1.00  0.00    -0.351 N 
ATOM      3  C   UNL A   1      33.087  24.445  22.226  1.00  0.00     0.275 C 
ATOM      4  O   UNL A   1      32.958  24.520  20.999  1.00  0.00    -0.269 OA
ATOM      5  H   UNL A   1      35.002  25.001  22.105  1.00  0.00     0.163 HD
BRANCH   3   6
ATOM      6  C   UNL A   1      31.864  24.259  23.125  1.00  0.00     0.363 C 
BRANCH   6   7
ATOM      7  N   UNL A   1      31.503  25.373  24.035  1.00  0.00    -0.323 N 
ATOM      8  H   UNL A   1      32.362  25.899  24.202  1.00  0.00     0.349 HD
BRANCH   7   9
ATOM      9  C   UNL A   1      31.025  24.880  25.389  1.00  0.00     0.090 C 
ATOM     10  C   UNL A   1      32.111  25.083  26.481  1.00  0.00     0.078 C 
ATOM     11  C   UNL A   1      30.742  23.358  25.364  1.00  0.00     0.078 C 
ATOM     12  C   UNL A   1      29.745  25.592  25.906  1.00  0.00     0.078 C 
ENDBRANCH   7   9
BRANCH   7  13
ATOM     13  C   UNL A   1      30.533  26.318  23.412  1.00  0.00     0.273 C 
BRANCH  13  14
ATOM     14  C   UNL A   1      30.916  27.400  22.372  1.00  0.00     0.161 C 
BRANCH  14  15
ATOM     15  C   UNL A   1      30.687  28.902  22.545  1.00  0.00     0.230 C 
ATOM     16  O   UNL A   1      29.985  29.496  21.715  1.00  0.00    -0.275 OA
ATOM     17  N   UNL A   1      31.160  29.650  23.581  1.00  0.00    -0.323 N 
ATOM     18  H   UNL A   1      30.839  30.581  23.599  1.00  0.00     0.170 HD
BRANCH  17  19
ATOM     19  C   UNL A   1      32.029  29.307  24.622  1.00  0.00     0.077 A 
ATOM     20  C   UNL A   1      31.512  29.314  25.923  1.00  0.00     0.029 A 
ATOM     21  C   UNL A   1      33.348  28.908  24.418  1.00  0.00     0.146 A 
ATOM     22  C   UNL A   1      32.268  28.792  26.976  1.00  0.00     0.002 A 
ATOM     23  C   UNL A   1      34.117  28.419  25.469  1.00  0.00     0.041 A 
ATOM     24  F   UNL A   1      33.894  28.962  23.194  1.00  0.00    -0.205 F 
ATOM     25  C   UNL A   1      33.565  28.334  26.746  1.00  0.00     0.003 A 
ENDBRANCH  17  19
ENDBRANCH  14  15
ENDBRANCH  13  14
ENDBRANCH   7  13
ENDBRANCH   6   7
ENDBRANCH   3   6
ENDBRANCH   1   2
BRANCH   1  26
ATOM     26  C   UNL A   1      35.417  23.350  24.476  1.00  0.00     0.023 C 
BRANCH  26  27
ATOM     27  C   UNL A   1      35.736  23.183  25.959  1.00  0.00     0.023 C 
BRANCH  27  28
ATOM     28  C   UNL A   1      37.183  23.471  26.306  1.00  0.00     0.116 C 
BRANCH  28  29
ATOM     29  N   UNL A   1      38.032  22.291  26.238  1.00  0.00    -0.352 N 
ATOM     30  C   UNL A   1      39.399  22.253  26.413  1.00  0.00     0.251 C 
ATOM     31  H   UNL A   1      37.585  21.435  26.051  1.00  0.00     0.163 HD
ATOM     32  O   UNL A   1      40.043  21.242  26.213  1.00  0.00    -0.269 OA
BRANCH  30  33
ATOM     33  C   UNL A   1      40.049  23.514  26.818  1.00  0.00     0.039 A 
ATOM     34  C   UNL A   1      39.879  24.651  26.029  1.00  0.00     0.014 A 
ATOM     35  C   UNL A   1      40.720  23.573  28.042  1.00  0.00     0.014 A 
ATOM     36  C   UNL A   1      40.373  25.870  26.488  1.00  0.00     0.010 A 
ATOM     37  C   UNL A   1      41.125  24.802  28.538  1.00  0.00     0.010 A 
ATOM     38  C   UNL A   1      40.988  25.954  27.750  1.00  0.00    -0.014 A 
BRANCH  38  39
ATOM     39  C   UNL A   1      41.585  27.225  28.219  1.00  0.00     0.031 A 
ATOM     40  C   UNL A   1      43.063  27.444  28.037  1.00  0.00     0.074 A 
ATOM     41  C   UNL A   1      40.814  28.155  28.814  1.00  0.00     0.049 A 
ATOM     42  N   UNL A   1      43.793  28.474  28.373  1.00  0.00    -0.248 NA
ATOM     43  C   UNL A   1      43.829  26.342  27.428  1.00  0.00     0.031 C 
ATOM     44  C   UNL A   1      39.383  28.014  29.094  1.00  0.00     0.029 A 
ATOM     45  N   UNL A   1      41.123  29.405  29.281  1.00  0.00    -0.354 N 
ATOM     46  C   UNL A   1      45.095  28.138  28.025  1.00  0.00     0.074 A 
ATOM     47  C   UNL A   1      45.073  26.780  27.536  1.00  0.00     0.031 C 
ATOM     48  C   UNL A   1      38.929  29.154  29.642  1.00  0.00     0.029 A 
ATOM     49  C   UNL A   1      40.038  30.095  29.769  1.00  0.00     0.049 A 
ATOM     50  H   UNL A   1      42.035  29.775  29.269  1.00  0.00     0.167 HD
ATOM     51  C   UNL A   1      46.206  28.910  28.064  1.00  0.00     0.037 A 
ATOM     52  C   UNL A   1      39.951  31.354  30.242  1.00  0.00     0.037 A 
ATOM     53  C   UNL A   1      46.203  30.275  28.513  1.00  0.00     0.049 A 
ATOM     54  C   UNL A   1      41.188  32.211  30.239  1.00  0.00     0.074 A 
ATOM     55  C   UNL A   1      47.257  31.168  28.570  1.00  0.00     0.029 A 
ATOM     56  N   UNL A   1      45.078  30.950  28.968  1.00  0.00    -0.354 N 
ATOM     57  N   UNL A   1      42.408  31.894  29.870  1.00  0.00    -0.248 NA
ATOM     58  C   UNL A   1      41.038  33.598  30.695  1.00  0.00     0.031 C 
ATOM     59  C   UNL A   1      46.773  32.375  29.085  1.00  0.00     0.029 A 
ATOM     60  C   UNL A   1      45.410  32.248  29.305  1.00  0.00     0.049 A 
ATOM     61  H   UNL A   1      44.176  30.560  29.040  1.00  0.00     0.167 HD
ATOM     62  C   UNL A   1      43.164  33.051  30.019  1.00  0.00     0.074 A 
ATOM     63  C   UNL A   1      42.262  34.075  30.507  1.00  0.00     0.031 C 
ATOM     64  C   UNL A   1      44.484  33.249  29.775  1.00  0.00     0.037 A 
BRANCH  51  65
ATOM     65  C   UNL A   1      47.493  28.299  27.582  1.00  0.00     0.058 A 
ATOM     66  C   UNL A   1      48.419  27.763  28.490  1.00  0.00     0.135 A 
ATOM     67  C   UNL A   1      47.814  28.248  26.215  1.00  0.00     0.135 A 
ATOM     68  F   UNL A   1      48.162  27.774  29.807  1.00  0.00    -0.206 F 
ATOM     69  C   UNL A   1      49.618  27.202  28.060  1.00  0.00     0.059 A 
ATOM     70  C   UNL A   1      48.993  27.664  25.760  1.00  0.00     0.059 A 
ATOM     71  F   UNL A   1      46.952  28.721  25.300  1.00  0.00    -0.206 F 
ATOM     72  C   UNL A   1      49.894  27.154  26.692  1.00  0.00     0.060 A 
BRANCH  72  73
ATOM     73  S   UNL A   1      51.428  26.372  26.147  1.00  0.00     0.124 S 
ATOM     74  O   UNL A   1      51.230  24.994  26.579  1.00  0.00    -0.237 OA
ATOM     75  O   UNL A   1      51.395  26.600  24.705  1.00  0.00    -0.237 OA
ATOM     76  O   UNL A   1      52.459  27.116  26.865  1.00  0.00    -0.744 OA
ENDBRANCH  72  73
ENDBRANCH  51  65
BRANCH  52  77
ATOM     77  C   UNL A   1      38.631  31.890  30.672  1.00  0.00     0.058 A 
ATOM     78  C   UNL A   1      37.717  32.412  29.744  1.00  0.00     0.135 A 
ATOM     79  C   UNL A   1      38.283  31.945  32.030  1.00  0.00     0.135 A 
ATOM     80  F   UNL A   1      38.006  32.396  28.433  1.00  0.00    -0.206 F 
ATOM     81  C   UNL A   1      36.518  32.991  30.147  1.00  0.00     0.059 A 
ATOM     82  C   UNL A   1      37.079  32.499  32.458  1.00  0.00     0.059 A 
ATOM     83  F   UNL A   1      39.121  31.453  32.956  1.00  0.00    -0.206 F 
ATOM     84  C   UNL A   1      36.211  33.037  31.509  1.00  0.00     0.060 A 
BRANCH  84  85
ATOM     85  S   UNL A   1      34.666  33.823  32.015  1.00  0.00     0.124 S 
ATOM     86  O   UNL A   1      34.276  34.514  30.790  1.00  0.00    -0.237 OA
ATOM     87  O   UNL A   1      33.845  32.675  32.384  1.00  0.00    -0.237 OA
ATOM     88  O   UNL A   1      35.071  34.685  33.120  1.00  0.00    -0.744 OA
ENDBRANCH  84  85
ENDBRANCH  52  77
BRANCH  64  89
ATOM     89  C   UNL A   1      45.029  34.633  29.989  1.00  0.00     0.058 A 
ATOM     90  C   UNL A   1      45.485  35.022  31.259  1.00  0.00     0.135 A 
ATOM     91  C   UNL A   1      45.024  35.593  28.966  1.00  0.00     0.135 A 
ATOM     92  F   UNL A   1      45.500  34.142  32.273  1.00  0.00    -0.206 F 
ATOM     93  C   UNL A   1      45.907  36.321  31.509  1.00  0.00     0.059 A 
ATOM     94  C   UNL A   1      45.468  36.892  29.189  1.00  0.00     0.059 A 
ATOM     95  F   UNL A   1      44.602  35.266  27.734  1.00  0.00    -0.206 F 
ATOM     96  C   UNL A   1      45.893  37.250  30.469  1.00  0.00     0.060 A 
BRANCH  96  97
ATOM     97  S   UNL A   1      46.467  38.928  30.806  1.00  0.00     0.124 S 
ATOM     98  O   UNL A   1      45.579  39.336  31.889  1.00  0.00    -0.237 OA
ATOM     99  O   UNL A   1      47.862  38.708  31.177  1.00  0.00    -0.237 OA
ATOM    100  O   UNL A   1      46.265  39.616  29.534  1.00  0.00    -0.744 OA
ENDBRANCH  96  97
ENDBRANCH  64  89
ENDBRANCH  38  39
ENDBRANCH  30  33
ENDBRANCH  28  29
ENDBRANCH  27  28
ENDBRANCH  26  27
ENDBRANCH   1  26
TORSDOF 20
ENDMDL
