MODEL 1
REMARK VINA RESULT:     -11.5      0.000      0.000
REMARK SMILES CC1(C)CCC(CCCO)(C(=O)NCCCCNC(=O)c2ccc(-c3c4nc(c(-c5c(F)cc(S(=O)(=O)[O-])cc5F)c5ccc([nH]5)c(-c5c(F)cc(S(=O)(=O)[O-])cc5F)c5nc(c(-c6c(F)cc(S(=O)(=O)[O-])cc6F)c6ccc3[nH]6)C=C5)C=C4)cc2)CC1
REMARK SMILES IDX 15 1 14 2 13 3 11 4 12 5 6 7 1 8 2 9 3 10 4 11 88 12 5 13
REMARK SMILES IDX 87 14 7 15 8 16 9 17 10 18 16 20 17 21 18 22 19 23 20 25
REMARK SMILES IDX 21 26 22 27 86 28 23 29 85 30 24 31 25 32 26 33 79 34 27 35
REMARK SMILES IDX 84 36 78 37 80 38 28 39 83 40 77 41 76 42 29 44 63 45 42 46
REMARK SMILES IDX 62 47 43 48 46 49 61 50 81 51 44 52 45 53 60 55 82 56 47 57
REMARK SMILES IDX 30 58 31 59 40 60 32 61 33 62 39 63 41 64 34 65 35 66 36 67
REMARK SMILES IDX 37 68 38 69 64 70 65 71 74 72 66 73 67 74 73 75 75 76 68 77
REMARK SMILES IDX 69 78 70 79 71 80 72 81 48 82 49 83 58 84 50 85 51 86 57 87
REMARK SMILES IDX 59 88 52 89 53 90 54 91 55 92 56 93
REMARK H PARENT 13 6 10 19 18 24 80 43 46 54
REMARK Flexibility Score: inf
ROOT
ATOM      1  C   UNL A   1      39.112  21.183  25.756  1.00  0.00     0.023 C 
ENDROOT
BRANCH   1   2
ATOM      2  C   UNL A   1      37.783  21.923  25.665  1.00  0.00     0.116 C 
BRANCH   2   3
ATOM      3  N   UNL A   1      37.381  22.228  24.305  1.00  0.00    -0.356 N 
ATOM      4  C   UNL A   1      36.183  22.490  23.718  1.00  0.00     0.226 C 
ATOM      5  O   UNL A   1      36.261  23.062  22.623  1.00  0.00    -0.274 OA
ATOM      6  H   UNL A   1      38.135  22.251  23.673  1.00  0.00     0.163 HD
BRANCH   4   7
ATOM      7  C   UNL A   1      34.796  22.196  24.347  1.00  0.00     0.049 C 
ATOM      8  C   UNL A   1      32.241  24.954  25.308  1.00  0.00     0.011 C 
ATOM      9  C   UNL A   1      33.627  25.029  24.636  1.00  0.00    -0.035 C 
ATOM     10  C   UNL A   1      33.920  26.509  24.330  1.00  0.00     0.011 C 
ATOM     11  C   UNL A   1      34.718  24.490  25.584  1.00  0.00     0.007 C 
ATOM     12  C   UNL A   1      33.624  24.223  23.317  1.00  0.00     0.007 C 
ATOM     13  C   UNL A   1      34.730  22.962  25.719  1.00  0.00     0.017 C 
ATOM     14  C   UNL A   1      33.574  22.710  23.553  1.00  0.00     0.017 C 
BRANCH   7  15
ATOM     15  C   UNL A   1      34.651  20.688  24.717  1.00  0.00     0.019 C 
BRANCH  15  16
ATOM     16  C   UNL A   1      33.267  20.108  25.036  1.00  0.00     0.029 C 
BRANCH  16  17
ATOM     17  C   UNL A   1      33.216  18.588  25.203  1.00  0.00     0.156 C 
BRANCH  17  18
ATOM     18  O   UNL A   1      32.663  18.236  26.463  1.00  0.00    -0.396 OA
ATOM     19  H   UNL A   1      31.932  17.613  26.332  1.00  0.00     0.210 HD
ENDBRANCH  17  18
ENDBRANCH  16  17
ENDBRANCH  15  16
ENDBRANCH   7  15
ENDBRANCH   4   7
ENDBRANCH   2   3
ENDBRANCH   1   2
BRANCH   1  20
ATOM     20  C   UNL A   1      40.044  21.646  26.876  1.00  0.00     0.023 C 
BRANCH  20  21
ATOM     21  C   UNL A   1      40.026  23.142  27.180  1.00  0.00     0.116 C 
BRANCH  21  22
ATOM     22  N   UNL A   1      40.644  23.950  26.139  1.00  0.00    -0.352 N 
ATOM     23  C   UNL A   1      41.089  25.252  26.187  1.00  0.00     0.251 C 
ATOM     24  H   UNL A   1      40.760  23.500  25.272  1.00  0.00     0.163 HD
ATOM     25  O   UNL A   1      41.484  25.803  25.167  1.00  0.00    -0.269 OA
BRANCH  23  26
ATOM     26  C   UNL A   1      41.044  25.990  27.467  1.00  0.00     0.039 A 
ATOM     27  C   UNL A   1      42.176  26.701  27.873  1.00  0.00     0.014 A 
ATOM     28  C   UNL A   1      39.875  26.026  28.230  1.00  0.00     0.014 A 
ATOM     29  C   UNL A   1      42.102  27.531  28.993  1.00  0.00     0.010 A 
ATOM     30  C   UNL A   1      39.781  26.909  29.301  1.00  0.00     0.010 A 
ATOM     31  C   UNL A   1      40.887  27.684  29.682  1.00  0.00    -0.014 A 
BRANCH  31  32
ATOM     32  C   UNL A   1      40.739  28.686  30.768  1.00  0.00     0.031 A 
ATOM     33  C   UNL A   1      41.581  28.597  32.009  1.00  0.00     0.074 A 
ATOM     34  C   UNL A   1      39.782  29.630  30.668  1.00  0.00     0.049 A 
ATOM     35  N   UNL A   1      41.547  29.341  33.084  1.00  0.00    -0.248 NA
ATOM     36  C   UNL A   1      42.572  27.511  32.059  1.00  0.00     0.031 C 
ATOM     37  C   UNL A   1      38.863  29.787  29.539  1.00  0.00     0.029 A 
ATOM     38  N   UNL A   1      39.415  30.631  31.533  1.00  0.00    -0.354 N 
ATOM     39  C   UNL A   1      42.497  28.807  33.944  1.00  0.00     0.074 A 
ATOM     40  C   UNL A   1      43.055  27.645  33.285  1.00  0.00     0.031 C 
ATOM     41  C   UNL A   1      38.060  30.838  29.766  1.00  0.00     0.029 A 
ATOM     42  C   UNL A   1      38.378  31.406  31.073  1.00  0.00     0.049 A 
ATOM     43  H   UNL A   1      39.854  30.779  32.403  1.00  0.00     0.167 HD
ATOM     44  C   UNL A   1      42.882  29.254  35.164  1.00  0.00     0.037 A 
ATOM     45  C   UNL A   1      37.749  32.454  31.639  1.00  0.00     0.037 A 
ATOM     46  C   UNL A   1      42.337  30.422  35.806  1.00  0.00     0.049 A 
ATOM     47  C   UNL A   1      38.187  32.930  32.995  1.00  0.00     0.074 A 
ATOM     48  C   UNL A   1      42.717  31.003  37.003  1.00  0.00     0.029 A 
ATOM     49  N   UNL A   1      41.287  31.180  35.309  1.00  0.00    -0.354 N 
ATOM     50  N   UNL A   1      39.142  32.460  33.762  1.00  0.00    -0.248 NA
ATOM     51  C   UNL A   1      37.465  34.075  33.563  1.00  0.00     0.031 C 
ATOM     52  C   UNL A   1      41.868  32.088  37.251  1.00  0.00     0.029 A 
ATOM     53  C   UNL A   1      40.985  32.207  36.189  1.00  0.00     0.049 A 
ATOM     54  H   UNL A   1      40.824  31.014  34.456  1.00  0.00     0.167 HD
ATOM     55  C   UNL A   1      39.145  33.261  34.898  1.00  0.00     0.074 A 
ATOM     56  C   UNL A   1      38.106  34.254  34.711  1.00  0.00     0.031 C 
ATOM     57  C   UNL A   1      39.939  33.182  35.995  1.00  0.00     0.037 A 
BRANCH  44  58
ATOM     58  C   UNL A   1      43.946  28.466  35.880  1.00  0.00     0.058 A 
ATOM     59  C   UNL A   1      45.312  28.732  35.692  1.00  0.00     0.135 A 
ATOM     60  C   UNL A   1      43.596  27.429  36.759  1.00  0.00     0.135 A 
ATOM     61  F   UNL A   1      45.702  29.705  34.852  1.00  0.00    -0.206 F 
ATOM     62  C   UNL A   1      46.294  27.967  36.313  1.00  0.00     0.059 A 
ATOM     63  C   UNL A   1      44.562  26.668  37.412  1.00  0.00     0.059 A 
ATOM     64  F   UNL A   1      42.305  27.134  36.978  1.00  0.00    -0.206 F 
ATOM     65  C   UNL A   1      45.908  26.931  37.163  1.00  0.00     0.060 A 
BRANCH  65  66
ATOM     66  S   UNL A   1      47.193  25.923  37.935  1.00  0.00     0.124 S 
ATOM     67  O   UNL A   1      46.451  24.709  38.260  1.00  0.00    -0.237 OA
ATOM     68  O   UNL A   1      48.178  25.796  36.866  1.00  0.00    -0.237 OA
ATOM     69  O   UNL A   1      47.613  26.727  39.078  1.00  0.00    -0.744 OA
ENDBRANCH  65  66
ENDBRANCH  44  58
BRANCH  45  70
ATOM     70  C   UNL A   1      36.660  33.144  30.898  1.00  0.00     0.058 A 
ATOM     71  C   UNL A   1      35.317  32.827  31.145  1.00  0.00     0.135 A 
ATOM     72  C   UNL A   1      36.935  34.162  29.974  1.00  0.00     0.135 A 
ATOM     73  F   UNL A   1      35.006  31.854  32.015  1.00  0.00    -0.206 F 
ATOM     74  C   UNL A   1      34.281  33.498  30.505  1.00  0.00     0.059 A 
ATOM     75  C   UNL A   1      35.915  34.862  29.335  1.00  0.00     0.059 A 
ATOM     76  F   UNL A   1      38.204  34.513  29.714  1.00  0.00    -0.206 F 
ATOM     77  C   UNL A   1      34.590  34.521  29.607  1.00  0.00     0.060 A 
BRANCH  77  78
ATOM     78  S   UNL A   1      33.235  35.444  28.848  1.00  0.00     0.124 S 
ATOM     79  O   UNL A   1      32.514  34.388  28.149  1.00  0.00    -0.237 OA
ATOM     80  O   UNL A   1      32.565  36.016  30.012  1.00  0.00    -0.237 OA
ATOM     81  O   UNL A   1      33.925  36.410  27.996  1.00  0.00    -0.744 OA
ENDBRANCH  77  78
ENDBRANCH  45  70
BRANCH  57  82
ATOM     82  C   UNL A   1      39.720  34.200  37.078  1.00  0.00     0.058 A 
ATOM     83  C   UNL A   1      38.935  33.913  38.207  1.00  0.00     0.135 A 
ATOM     84  C   UNL A   1      40.340  35.458  37.013  1.00  0.00     0.135 A 
ATOM     85  F   UNL A   1      38.312  32.728  38.313  1.00  0.00    -0.206 F 
ATOM     86  C   UNL A   1      38.758  34.845  39.225  1.00  0.00     0.059 A 
ATOM     87  C   UNL A   1      40.197  36.395  38.031  1.00  0.00     0.059 A 
ATOM     88  F   UNL A   1      41.107  35.779  35.959  1.00  0.00    -0.206 F 
ATOM     89  C   UNL A   1      39.396  36.083  39.128  1.00  0.00     0.060 A 
BRANCH  89  90
ATOM     90  S   UNL A   1      39.191  37.270  40.474  1.00  0.00     0.124 S 
ATOM     91  O   UNL A   1      38.717  36.410  41.553  1.00  0.00    -0.237 OA
ATOM     92  O   UNL A   1      40.540  37.802  40.632  1.00  0.00    -0.237 OA
ATOM     93  O   UNL A   1      38.210  38.214  39.946  1.00  0.00    -0.744 OA
ENDBRANCH  89  90
ENDBRANCH  57  82
ENDBRANCH  31  32
ENDBRANCH  23  26
ENDBRANCH  21  22
ENDBRANCH  20  21
ENDBRANCH   1  20
TORSDOF 18
ENDMDL
MODEL 2
REMARK VINA RESULT:     -11.2      1.328      2.528
REMARK SMILES CC1(C)CCC(CCCO)(C(=O)NCCCCNC(=O)c2ccc(-c3c4nc(c(-c5c(F)cc(S(=O)(=O)[O-])cc5F)c5ccc([nH]5)c(-c5c(F)cc(S(=O)(=O)[O-])cc5F)c5nc(c(-c6c(F)cc(S(=O)(=O)[O-])cc6F)c6ccc3[nH]6)C=C5)C=C4)cc2)CC1
REMARK SMILES IDX 15 1 14 2 13 3 11 4 12 5 6 7 1 8 2 9 3 10 4 11 88 12 5 13
REMARK SMILES IDX 87 14 7 15 8 16 9 17 10 18 16 20 17 21 18 22 19 23 20 25
REMARK SMILES IDX 21 26 22 27 86 28 23 29 85 30 24 31 25 32 26 33 79 34 27 35
REMARK SMILES IDX 84 36 78 37 80 38 28 39 83 40 77 41 76 42 29 44 63 45 42 46
REMARK SMILES IDX 62 47 43 48 46 49 61 50 81 51 44 52 45 53 60 55 82 56 47 57
REMARK SMILES IDX 30 58 31 59 40 60 32 61 33 62 39 63 41 64 34 65 35 66 36 67
REMARK SMILES IDX 37 68 38 69 64 70 65 71 74 72 66 73 67 74 73 75 75 76 68 77
REMARK SMILES IDX 69 78 70 79 71 80 72 81 48 82 49 83 58 84 50 85 51 86 57 87
REMARK SMILES IDX 59 88 52 89 53 90 54 91 55 92 56 93
REMARK H PARENT 13 6 10 19 18 24 80 43 46 54
REMARK Flexibility Score: inf
ROOT
ATOM      1  C   UNL A   1      36.175  23.896  25.752  1.00  0.00     0.023 C 
ENDROOT
BRANCH   1   2
ATOM      2  C   UNL A   1      35.306  22.706  26.142  1.00  0.00     0.116 C 
BRANCH   2   3
ATOM      3  N   UNL A   1      34.130  23.073  26.907  1.00  0.00    -0.356 N 
ATOM      4  C   UNL A   1      32.916  23.584  26.573  1.00  0.00     0.226 C 
ATOM      5  O   UNL A   1      32.038  23.427  27.431  1.00  0.00    -0.274 OA
ATOM      6  H   UNL A   1      34.232  22.918  27.874  1.00  0.00     0.163 HD
BRANCH   4   7
ATOM      7  C   UNL A   1      32.570  24.252  25.217  1.00  0.00     0.049 C 
ATOM      8  C   UNL A   1      31.375  27.928  24.870  1.00  0.00     0.011 C 
ATOM      9  C   UNL A   1      31.813  27.103  26.097  1.00  0.00    -0.035 C 
ATOM     10  C   UNL A   1      31.732  28.020  27.332  1.00  0.00     0.011 C 
ATOM     11  C   UNL A   1      30.869  25.901  26.306  1.00  0.00     0.007 C 
ATOM     12  C   UNL A   1      33.267  26.611  25.918  1.00  0.00     0.007 C 
ATOM     13  C   UNL A   1      31.083  24.757  25.307  1.00  0.00     0.017 C 
ATOM     14  C   UNL A   1      33.389  25.511  24.857  1.00  0.00     0.017 C 
BRANCH   7  15
ATOM     15  C   UNL A   1      32.574  23.210  24.055  1.00  0.00     0.019 C 
BRANCH  15  16
ATOM     16  C   UNL A   1      33.635  23.300  22.951  1.00  0.00     0.029 C 
BRANCH  16  17
ATOM     17  C   UNL A   1      33.102  23.634  21.556  1.00  0.00     0.156 C 
BRANCH  17  18
ATOM     18  O   UNL A   1      32.260  24.777  21.597  1.00  0.00    -0.396 OA
ATOM     19  H   UNL A   1      32.574  25.432  20.954  1.00  0.00     0.210 HD
ENDBRANCH  17  18
ENDBRANCH  16  17
ENDBRANCH  15  16
ENDBRANCH   7  15
ENDBRANCH   4   7
ENDBRANCH   2   3
ENDBRANCH   1   2
BRANCH   1  20
ATOM     20  C   UNL A   1      37.640  23.570  25.459  1.00  0.00     0.023 C 
BRANCH  20  21
ATOM     21  C   UNL A   1      38.597  23.688  26.641  1.00  0.00     0.116 C 
BRANCH  21  22
ATOM     22  N   UNL A   1      40.000  23.669  26.252  1.00  0.00    -0.352 N 
ATOM     23  C   UNL A   1      41.002  24.569  26.537  1.00  0.00     0.251 C 
ATOM     24  H   UNL A   1      40.273  22.899  25.704  1.00  0.00     0.163 HD
ATOM     25  O   UNL A   1      42.107  24.440  26.024  1.00  0.00    -0.269 OA
BRANCH  23  26
ATOM     26  C   UNL A   1      40.720  25.715  27.428  1.00  0.00     0.039 A 
ATOM     27  C   UNL A   1      39.686  25.604  28.360  1.00  0.00     0.014 A 
ATOM     28  C   UNL A   1      41.508  26.867  27.380  1.00  0.00     0.014 A 
ATOM     29  C   UNL A   1      39.509  26.607  29.313  1.00  0.00     0.010 A 
ATOM     30  C   UNL A   1      41.378  27.830  28.375  1.00  0.00     0.010 A 
ATOM     31  C   UNL A   1      40.389  27.701  29.363  1.00  0.00    -0.014 A 
BRANCH  31  32
ATOM     32  C   UNL A   1      40.325  28.691  30.468  1.00  0.00     0.031 A 
ATOM     33  C   UNL A   1      41.229  28.562  31.661  1.00  0.00     0.074 A 
ATOM     34  C   UNL A   1      39.389  29.661  30.432  1.00  0.00     0.049 A 
ATOM     35  N   UNL A   1      41.272  29.292  32.745  1.00  0.00    -0.248 NA
ATOM     36  C   UNL A   1      42.193  27.452  31.643  1.00  0.00     0.031 C 
ATOM     37  C   UNL A   1      38.415  29.857  29.356  1.00  0.00     0.029 A 
ATOM     38  N   UNL A   1      39.095  30.657  31.328  1.00  0.00    -0.354 N 
ATOM     39  C   UNL A   1      42.252  28.721  33.547  1.00  0.00     0.074 A 
ATOM     40  C   UNL A   1      42.744  27.555  32.844  1.00  0.00     0.031 C 
ATOM     41  C   UNL A   1      37.653  30.924  29.640  1.00  0.00     0.029 A 
ATOM     42  C   UNL A   1      38.054  31.465  30.935  1.00  0.00     0.049 A 
ATOM     43  H   UNL A   1      39.583  30.782  32.175  1.00  0.00     0.167 HD
ATOM     44  C   UNL A   1      42.714  29.141  34.750  1.00  0.00     0.037 A 
ATOM     45  C   UNL A   1      37.484  32.520  31.547  1.00  0.00     0.037 A 
ATOM     46  C   UNL A   1      42.234  30.313  35.435  1.00  0.00     0.049 A 
ATOM     47  C   UNL A   1      38.006  32.965  32.885  1.00  0.00     0.074 A 
ATOM     48  C   UNL A   1      42.692  30.867  36.617  1.00  0.00     0.029 A 
ATOM     49  N   UNL A   1      41.179  31.105  35.005  1.00  0.00    -0.354 N 
ATOM     50  N   UNL A   1      38.988  32.460  33.593  1.00  0.00    -0.248 NA
ATOM     51  C   UNL A   1      37.345  34.120  33.505  1.00  0.00     0.031 C 
ATOM     52  C   UNL A   1      41.886  31.969  36.925  1.00  0.00     0.029 A 
ATOM     53  C   UNL A   1      40.951  32.126  35.914  1.00  0.00     0.049 A 
ATOM     54  H   UNL A   1      40.667  30.962  34.176  1.00  0.00     0.167 HD
ATOM     55  C   UNL A   1      39.073  33.245  34.737  1.00  0.00     0.074 A 
ATOM     56  C   UNL A   1      38.051  34.266  34.619  1.00  0.00     0.031 C 
ATOM     57  C   UNL A   1      39.922  33.129  35.789  1.00  0.00     0.037 A 
BRANCH  44  58
ATOM     58  C   UNL A   1      43.793  28.317  35.397  1.00  0.00     0.058 A 
ATOM     59  C   UNL A   1      43.491  27.295  36.312  1.00  0.00     0.135 A 
ATOM     60  C   UNL A   1      45.146  28.553  35.104  1.00  0.00     0.135 A 
ATOM     61  F   UNL A   1      42.214  27.036  36.638  1.00  0.00    -0.206 F 
ATOM     62  C   UNL A   1      44.492  26.571  36.951  1.00  0.00     0.059 A 
ATOM     63  C   UNL A   1      46.163  27.822  35.711  1.00  0.00     0.059 A 
ATOM     64  F   UNL A   1      45.491  29.516  34.234  1.00  0.00    -0.206 F 
ATOM     65  C   UNL A   1      45.826  26.849  36.651  1.00  0.00     0.060 A 
BRANCH  65  66
ATOM     66  S   UNL A   1      47.116  25.925  37.512  1.00  0.00     0.124 S 
ATOM     67  O   UNL A   1      46.609  24.560  37.414  1.00  0.00    -0.237 OA
ATOM     68  O   UNL A   1      48.301  26.220  36.712  1.00  0.00    -0.237 OA
ATOM     69  O   UNL A   1      47.109  26.503  38.853  1.00  0.00    -0.744 OA
ENDBRANCH  65  66
ENDBRANCH  44  58
BRANCH  45  70
ATOM     70  C   UNL A   1      36.375  33.248  30.876  1.00  0.00     0.058 A 
ATOM     71  C   UNL A   1      35.061  33.144  31.353  1.00  0.00     0.135 A 
ATOM     72  C   UNL A   1      36.612  34.095  29.783  1.00  0.00     0.135 A 
ATOM     73  F   UNL A   1      34.786  32.340  32.391  1.00  0.00    -0.206 F 
ATOM     74  C   UNL A   1      34.019  33.859  30.775  1.00  0.00     0.059 A 
ATOM     75  C   UNL A   1      35.589  34.837  29.200  1.00  0.00     0.059 A 
ATOM     76  F   UNL A   1      37.855  34.239  29.299  1.00  0.00    -0.206 F 
ATOM     77  C   UNL A   1      34.294  34.711  29.702  1.00  0.00     0.060 A 
BRANCH  77  78
ATOM     78  S   UNL A   1      32.947  35.700  29.016  1.00  0.00     0.124 S 
ATOM     79  O   UNL A   1      32.195  36.047  30.215  1.00  0.00    -0.237 OA
ATOM     80  O   UNL A   1      33.669  36.796  28.374  1.00  0.00    -0.237 OA
ATOM     81  O   UNL A   1      32.287  34.775  28.099  1.00  0.00    -0.744 OA
ENDBRANCH  77  78
ENDBRANCH  45  70
BRANCH  57  82
ATOM     82  C   UNL A   1      39.787  34.137  36.896  1.00  0.00     0.058 A 
ATOM     83  C   UNL A   1      40.299  35.438  36.769  1.00  0.00     0.135 A 
ATOM     84  C   UNL A   1      39.096  33.816  38.075  1.00  0.00     0.135 A 
ATOM     85  F   UNL A   1      40.976  35.793  35.665  1.00  0.00    -0.206 F 
ATOM     86  C   UNL A   1      40.146  36.380  37.781  1.00  0.00     0.059 A 
ATOM     87  C   UNL A   1      38.910  34.749  39.089  1.00  0.00     0.059 A 
ATOM     88  F   UNL A   1      38.580  32.587  38.243  1.00  0.00    -0.206 F 
ATOM     89  C   UNL A   1      39.447  36.027  38.937  1.00  0.00     0.060 A 
BRANCH  89  90
ATOM     90  S   UNL A   1      39.222  37.270  40.227  1.00  0.00     0.124 S 
ATOM     91  O   UNL A   1      38.525  38.325  39.499  1.00  0.00    -0.237 OA
ATOM     92  O   UNL A   1      38.428  36.553  41.219  1.00  0.00    -0.237 OA
ATOM     93  O   UNL A   1      40.587  37.586  40.635  1.00  0.00    -0.744 OA
ENDBRANCH  89  90
ENDBRANCH  57  82
ENDBRANCH  31  32
ENDBRANCH  23  26
ENDBRANCH  21  22
ENDBRANCH  20  21
ENDBRANCH   1  20
TORSDOF 18
ENDMDL
MODEL 3
REMARK VINA RESULT:     -11.2      6.933     12.475
REMARK SMILES CC1(C)CCC(CCCO)(C(=O)NCCCCNC(=O)c2ccc(-c3c4nc(c(-c5c(F)cc(S(=O)(=O)[O-])cc5F)c5ccc([nH]5)c(-c5c(F)cc(S(=O)(=O)[O-])cc5F)c5nc(c(-c6c(F)cc(S(=O)(=O)[O-])cc6F)c6ccc3[nH]6)C=C5)C=C4)cc2)CC1
REMARK SMILES IDX 15 1 14 2 13 3 11 4 12 5 6 7 1 8 2 9 3 10 4 11 88 12 5 13
REMARK SMILES IDX 87 14 7 15 8 16 9 17 10 18 16 20 17 21 18 22 19 23 20 25
REMARK SMILES IDX 21 26 22 27 86 28 23 29 85 30 24 31 25 32 26 33 79 34 27 35
REMARK SMILES IDX 84 36 78 37 80 38 28 39 83 40 77 41 76 42 29 44 63 45 42 46
REMARK SMILES IDX 62 47 43 48 46 49 61 50 81 51 44 52 45 53 60 55 82 56 47 57
REMARK SMILES IDX 30 58 31 59 40 60 32 61 33 62 39 63 41 64 34 65 35 66 36 67
REMARK SMILES IDX 37 68 38 69 64 70 65 71 74 72 66 73 67 74 73 75 75 76 68 77
REMARK SMILES IDX 69 78 70 79 71 80 72 81 48 82 49 83 58 84 50 85 51 86 57 87
REMARK SMILES IDX 59 88 52 89 53 90 54 91 55 92 56 93
REMARK H PARENT 13 6 10 19 18 24 80 43 46 54
REMARK Flexibility Score: inf
ROOT
ATOM      1  C   UNL A   1      32.886  30.149  26.405  1.00  0.00     0.023 C 
ENDROOT
BRANCH   1   2
ATOM      2  C   UNL A   1      31.707  29.432  25.759  1.00  0.00     0.116 C 
BRANCH   2   3
ATOM      3  N   UNL A   1      31.337  28.202  26.433  1.00  0.00    -0.356 N 
ATOM      4  C   UNL A   1      31.325  26.895  26.058  1.00  0.00     0.226 C 
ATOM      5  O   UNL A   1      31.301  26.091  26.998  1.00  0.00    -0.274 OA
ATOM      6  H   UNL A   1      31.030  28.342  27.357  1.00  0.00     0.163 HD
BRANCH   4   7
ATOM      7  C   UNL A   1      31.413  26.384  24.596  1.00  0.00     0.049 C 
ATOM      8  C   UNL A   1      34.171  23.970  23.322  1.00  0.00     0.011 C 
ATOM      9  C   UNL A   1      33.879  24.546  24.723  1.00  0.00    -0.035 C 
ATOM     10  C   UNL A   1      34.927  23.972  25.694  1.00  0.00     0.011 C 
ATOM     11  C   UNL A   1      34.000  26.084  24.711  1.00  0.00     0.007 C 
ATOM     12  C   UNL A   1      32.465  24.129  25.187  1.00  0.00     0.007 C 
ATOM     13  C   UNL A   1      32.823  26.799  24.037  1.00  0.00     0.017 C 
ATOM     14  C   UNL A   1      31.356  24.851  24.415  1.00  0.00     0.017 C 
BRANCH   7  15
ATOM     15  C   UNL A   1      30.382  27.112  23.679  1.00  0.00     0.019 C 
BRANCH  15  16
ATOM     16  C   UNL A   1      30.874  28.039  22.561  1.00  0.00     0.029 C 
BRANCH  16  17
ATOM     17  C   UNL A   1      30.187  29.405  22.492  1.00  0.00     0.156 C 
BRANCH  17  18
ATOM     18  O   UNL A   1      30.281  29.953  21.185  1.00  0.00    -0.396 OA
ATOM     19  H   UNL A   1      30.016  30.885  21.206  1.00  0.00     0.210 HD
ENDBRANCH  17  18
ENDBRANCH  16  17
ENDBRANCH  15  16
ENDBRANCH   7  15
ENDBRANCH   4   7
ENDBRANCH   2   3
ENDBRANCH   1   2
BRANCH   1  20
ATOM     20  C   UNL A   1      33.693  29.317  27.402  1.00  0.00     0.023 C 
BRANCH  20  21
ATOM     21  C   UNL A   1      35.118  29.796  27.669  1.00  0.00     0.116 C 
BRANCH  21  22
ATOM     22  N   UNL A   1      35.249  30.558  28.903  1.00  0.00    -0.352 N 
ATOM     23  C   UNL A   1      36.310  30.641  29.774  1.00  0.00     0.251 C 
ATOM     24  H   UNL A   1      34.461  31.095  29.150  1.00  0.00     0.163 HD
ATOM     25  O   UNL A   1      36.193  31.254  30.828  1.00  0.00    -0.269 OA
BRANCH  23  26
ATOM     26  C   UNL A   1      37.575  29.946  29.450  1.00  0.00     0.039 A 
ATOM     27  C   UNL A   1      37.968  29.854  28.113  1.00  0.00     0.014 A 
ATOM     28  C   UNL A   1      38.391  29.439  30.464  1.00  0.00     0.014 A 
ATOM     29  C   UNL A   1      39.229  29.345  27.801  1.00  0.00     0.010 A 
ATOM     30  C   UNL A   1      39.676  29.002  30.158  1.00  0.00     0.010 A 
ATOM     31  C   UNL A   1      40.114  28.968  28.825  1.00  0.00    -0.014 A 
BRANCH  31  32
ATOM     32  C   UNL A   1      41.518  28.585  28.526  1.00  0.00     0.031 A 
ATOM     33  C   UNL A   1      42.609  29.619  28.533  1.00  0.00     0.074 A 
ATOM     34  C   UNL A   1      41.793  27.316  28.165  1.00  0.00     0.049 A 
ATOM     35  N   UNL A   1      43.875  29.482  28.237  1.00  0.00    -0.248 NA
ATOM     36  C   UNL A   1      42.218  30.990  28.895  1.00  0.00     0.031 C 
ATOM     37  C   UNL A   1      40.812  26.233  28.065  1.00  0.00     0.029 A 
ATOM     38  N   UNL A   1      42.977  26.722  27.805  1.00  0.00    -0.354 N 
ATOM     39  C   UNL A   1      44.430  30.749  28.359  1.00  0.00     0.074 A 
ATOM     40  C   UNL A   1      43.352  31.650  28.708  1.00  0.00     0.031 C 
ATOM     41  C   UNL A   1      41.438  25.103  27.700  1.00  0.00     0.029 A 
ATOM     42  C   UNL A   1      42.855  25.387  27.500  1.00  0.00     0.049 A 
ATOM     43  H   UNL A   1      43.834  27.207  27.767  1.00  0.00     0.167 HD
ATOM     44  C   UNL A   1      45.724  31.125  28.212  1.00  0.00     0.037 A 
ATOM     45  C   UNL A   1      43.779  24.492  27.101  1.00  0.00     0.037 A 
ATOM     46  C   UNL A   1      46.796  30.222  27.884  1.00  0.00     0.049 A 
ATOM     47  C   UNL A   1      45.207  24.931  26.937  1.00  0.00     0.074 A 
ATOM     48  C   UNL A   1      48.150  30.489  27.792  1.00  0.00     0.029 A 
ATOM     49  N   UNL A   1      46.633  28.878  27.582  1.00  0.00    -0.354 N 
ATOM     50  N   UNL A   1      45.729  26.118  27.134  1.00  0.00    -0.248 NA
ATOM     51  C   UNL A   1      46.169  23.913  26.499  1.00  0.00     0.031 C 
ATOM     52  C   UNL A   1      48.802  29.317  27.393  1.00  0.00     0.029 A 
ATOM     53  C   UNL A   1      47.858  28.309  27.274  1.00  0.00     0.049 A 
ATOM     54  H   UNL A   1      45.773  28.398  27.585  1.00  0.00     0.167 HD
ATOM     55  C   UNL A   1      47.085  25.987  26.856  1.00  0.00     0.074 A 
ATOM     56  C   UNL A   1      47.304  24.601  26.492  1.00  0.00     0.031 C 
ATOM     57  C   UNL A   1      48.060  26.929  26.901  1.00  0.00     0.037 A 
BRANCH  44  58
ATOM     58  C   UNL A   1      46.042  32.583  28.404  1.00  0.00     0.058 A 
ATOM     59  C   UNL A   1      46.033  33.487  27.330  1.00  0.00     0.135 A 
ATOM     60  C   UNL A   1      46.364  33.083  29.677  1.00  0.00     0.135 A 
ATOM     61  F   UNL A   1      45.744  33.060  26.090  1.00  0.00    -0.206 F 
ATOM     62  C   UNL A   1      46.380  34.823  27.500  1.00  0.00     0.059 A 
ATOM     63  C   UNL A   1      46.688  34.422  29.875  1.00  0.00     0.059 A 
ATOM     64  F   UNL A   1      46.385  32.263  30.740  1.00  0.00    -0.206 F 
ATOM     65  C   UNL A   1      46.716  35.279  28.775  1.00  0.00     0.060 A 
BRANCH  65  66
ATOM     66  S   UNL A   1      47.198  37.007  28.976  1.00  0.00     0.124 S 
ATOM     67  O   UNL A   1      48.598  36.873  29.366  1.00  0.00    -0.237 OA
ATOM     68  O   UNL A   1      46.962  37.557  27.645  1.00  0.00    -0.237 OA
ATOM     69  O   UNL A   1      46.298  37.491  30.019  1.00  0.00    -0.744 OA
ENDBRANCH  65  66
ENDBRANCH  44  58
BRANCH  45  70
ATOM     70  C   UNL A   1      43.379  23.080  26.865  1.00  0.00     0.058 A 
ATOM     71  C   UNL A   1      43.317  22.563  25.564  1.00  0.00     0.135 A 
ATOM     72  C   UNL A   1      43.101  22.210  27.931  1.00  0.00     0.135 A 
ATOM     73  F   UNL A   1      43.567  23.359  24.513  1.00  0.00    -0.206 F 
ATOM     74  C   UNL A   1      43.000  21.231  25.324  1.00  0.00     0.059 A 
ATOM     75  C   UNL A   1      42.800  20.868  27.717  1.00  0.00     0.059 A 
ATOM     76  F   UNL A   1      43.161  22.654  29.196  1.00  0.00    -0.206 F 
ATOM     77  C   UNL A   1      42.750  20.388  26.409  1.00  0.00     0.060 A 
BRANCH  77  78
ATOM     78  S   UNL A   1      42.425  18.640  26.090  1.00  0.00     0.124 S 
ATOM     79  O   UNL A   1      41.010  18.662  25.740  1.00  0.00    -0.237 OA
ATOM     80  O   UNL A   1      43.350  18.351  24.998  1.00  0.00    -0.237 OA
ATOM     81  O   UNL A   1      42.752  18.001  27.361  1.00  0.00    -0.744 OA
ENDBRANCH  77  78
ENDBRANCH  45  70
BRANCH  57  82
ATOM     82  C   UNL A   1      49.455  26.493  26.554  1.00  0.00     0.058 A 
ATOM     83  C   UNL A   1      49.981  26.674  25.265  1.00  0.00     0.135 A 
ATOM     84  C   UNL A   1      50.293  25.934  27.531  1.00  0.00     0.135 A 
ATOM     85  F   UNL A   1      49.217  27.196  24.291  1.00  0.00    -0.206 F 
ATOM     86  C   UNL A   1      51.283  26.299  24.953  1.00  0.00     0.059 A 
ATOM     87  C   UNL A   1      51.607  25.575  27.248  1.00  0.00     0.059 A 
ATOM     88  F   UNL A   1      49.842  25.746  28.782  1.00  0.00    -0.206 F 
ATOM     89  C   UNL A   1      52.090  25.752  25.952  1.00  0.00     0.060 A 
BRANCH  89  90
ATOM     90  S   UNL A   1      53.791  25.305  25.544  1.00  0.00     0.124 S 
ATOM     91  O   UNL A   1      54.263  26.518  24.884  1.00  0.00    -0.237 OA
ATOM     92  O   UNL A   1      54.367  25.032  26.857  1.00  0.00    -0.237 OA
ATOM     93  O   UNL A   1      53.637  24.139  24.680  1.00  0.00    -0.744 OA
ENDBRANCH  89  90
ENDBRANCH  57  82
ENDBRANCH  31  32
ENDBRANCH  23  26
ENDBRANCH  21  22
ENDBRANCH  20  21
ENDBRANCH   1  20
TORSDOF 18
ENDMDL
