MODEL 1
REMARK VINA RESULT:     -12.4      0.000      0.000
REMARK SMILES CS(=O)(=O)c1ccc(/C=C(/C(=O)NCCCCNC(=O)c2ccc(-c3c4nc(c(-c5c(F)cc(S(=O)(=O)[O-])cc5F)c5ccc([nH]5)c(-c5c(F)cc(S(=O)(=O)[O-])cc5F)c5nc(c(-c6c(F)cc(S(=O)(=O)[O-])cc6F)c6ccc3[nH]6)C=C5)C=C4)cc2)c2ccc(F)cc2)cc1
REMARK SMILES IDX 16 1 15 2 14 3 13 4 11 5 12 6 10 8 9 9 8 10 5 11 6 12 95 13
REMARK SMILES IDX 7 14 94 15 2 16 1 17 3 18 4 19 87 20 88 21 93 22 89 23 92 24
REMARK SMILES IDX 90 25 91 26 17 27 18 28 19 29 20 31 21 32 22 33 86 34 23 35
REMARK SMILES IDX 85 36 24 37 25 38 26 39 79 40 27 41 84 42 78 43 80 44 28 45
REMARK SMILES IDX 83 46 77 47 76 48 29 50 63 51 42 52 62 53 43 54 46 55 61 56
REMARK SMILES IDX 81 57 44 58 45 59 60 61 82 62 47 63 30 64 31 65 40 66 32 67
REMARK SMILES IDX 33 68 39 69 41 70 34 71 35 72 36 73 37 74 38 75 64 76 65 77
REMARK SMILES IDX 74 78 66 79 67 80 73 81 75 82 68 83 69 84 70 85 71 86 72 87
REMARK SMILES IDX 48 88 49 89 58 90 50 91 51 92 57 93 59 94 52 95 53 96 54 97
REMARK SMILES IDX 55 98 56 99
REMARK H PARENT 13 7 18 30 80 49 46 60
REMARK Flexibility Score: inf
ROOT
ATOM      1  C   UNL A   1      35.846  22.885  24.772  1.00  0.00     0.023 C 
ENDROOT
BRANCH   1   2
ATOM      2  C   UNL A   1      34.646  23.787  24.461  1.00  0.00     0.023 C 
BRANCH   2   3
ATOM      3  C   UNL A   1      33.310  23.042  24.393  1.00  0.00     0.116 C 
BRANCH   3   4
ATOM      4  N   UNL A   1      32.635  23.116  25.673  1.00  0.00    -0.352 N 
ATOM      5  C   UNL A   1      31.915  24.080  26.306  1.00  0.00     0.251 C 
ATOM      6  O   UNL A   1      31.522  23.800  27.442  1.00  0.00    -0.269 OA
ATOM      7  H   UNL A   1      32.715  22.289  26.199  1.00  0.00     0.163 HD
BRANCH   5   8
ATOM      8  C   UNL A   1      31.513  25.393  25.665  1.00  0.00     0.047 C 
ATOM      9  C   UNL A   1      30.809  25.452  24.511  1.00  0.00     0.022 C 
BRANCH   9  10
ATOM     10  C   UNL A   1      30.191  26.616  23.834  1.00  0.00    -0.025 A 
ATOM     11  C   UNL A   1      28.878  28.869  22.798  1.00  0.00     0.067 A 
ATOM     12  C   UNL A   1      30.260  28.746  22.657  1.00  0.00     0.021 A 
ATOM     13  C   UNL A   1      28.135  27.865  23.417  1.00  0.00     0.021 A 
ATOM     14  C   UNL A   1      30.903  27.602  23.142  1.00  0.00     0.009 A 
ATOM     15  C   UNL A   1      28.794  26.744  23.929  1.00  0.00     0.009 A 
BRANCH  11  16
ATOM     16  S   UNL A   1      28.059  30.335  22.221  1.00  0.00     0.175 S 
ATOM     17  C   UNL A   1      29.246  31.610  22.549  1.00  0.00     0.163 C 
ATOM     18  O   UNL A   1      26.908  30.566  23.069  1.00  0.00    -0.224 OA
ATOM     19  O   UNL A   1      27.911  30.213  20.781  1.00  0.00    -0.224 OA
ENDBRANCH  11  16
ENDBRANCH   9  10
BRANCH   8  20
ATOM     20  C   UNL A   1      32.093  26.624  26.260  1.00  0.00    -0.013 A 
ATOM     21  C   UNL A   1      33.418  26.962  25.920  1.00  0.00     0.012 A 
ATOM     22  C   UNL A   1      31.349  27.510  27.052  1.00  0.00     0.012 A 
ATOM     23  C   UNL A   1      33.973  28.175  26.320  1.00  0.00     0.040 A 
ATOM     24  C   UNL A   1      31.899  28.738  27.433  1.00  0.00     0.040 A 
ATOM     25  C   UNL A   1      33.200  29.061  27.056  1.00  0.00     0.123 A 
ATOM     26  F   UNL A   1      33.710  30.254  27.393  1.00  0.00    -0.207 F 
ENDBRANCH   8  20
ENDBRANCH   5   8
ENDBRANCH   3   4
ENDBRANCH   2   3
ENDBRANCH   1   2
BRANCH   1  27
ATOM     27  C   UNL A   1      37.098  23.623  25.232  1.00  0.00     0.116 C 
BRANCH  27  28
ATOM     28  N   UNL A   1      38.242  22.741  25.422  1.00  0.00    -0.352 N 
ATOM     29  C   UNL A   1      39.418  23.016  26.079  1.00  0.00     0.251 C 
ATOM     30  H   UNL A   1      38.162  21.839  25.035  1.00  0.00     0.163 HD
ATOM     31  O   UNL A   1      40.350  22.221  26.058  1.00  0.00    -0.269 OA
BRANCH  29  32
ATOM     32  C   UNL A   1      39.539  24.311  26.776  1.00  0.00     0.039 A 
ATOM     33  C   UNL A   1      38.982  24.457  28.048  1.00  0.00     0.014 A 
ATOM     34  C   UNL A   1      40.300  25.334  26.206  1.00  0.00     0.014 A 
ATOM     35  C   UNL A   1      39.257  25.609  28.786  1.00  0.00     0.010 A 
ATOM     36  C   UNL A   1      40.634  26.443  26.972  1.00  0.00     0.010 A 
ATOM     37  C   UNL A   1      40.122  26.589  28.271  1.00  0.00    -0.014 A 
BRANCH  37  38
ATOM     38  C   UNL A   1      40.520  27.782  29.061  1.00  0.00     0.031 A 
ATOM     39  C   UNL A   1      41.795  27.750  29.857  1.00  0.00     0.074 A 
ATOM     40  C   UNL A   1      39.690  28.842  29.146  1.00  0.00     0.049 A 
ATOM     41  N   UNL A   1      42.242  28.606  30.736  1.00  0.00    -0.248 NA
ATOM     42  C   UNL A   1      42.664  26.578  29.661  1.00  0.00     0.031 C 
ATOM     43  C   UNL A   1      38.411  28.978  28.447  1.00  0.00     0.029 A 
ATOM     44  N   UNL A   1      39.786  29.998  29.881  1.00  0.00    -0.354 N 
ATOM     45  C   UNL A   1      43.431  28.069  31.214  1.00  0.00     0.074 A 
ATOM     46  C   UNL A   1      43.607  26.787  30.566  1.00  0.00     0.031 C 
ATOM     47  C   UNL A   1      37.849  30.152  28.776  1.00  0.00     0.029 A 
ATOM     48  C   UNL A   1      38.699  30.830  29.751  1.00  0.00     0.049 A 
ATOM     49  H   UNL A   1      40.564  30.213  30.447  1.00  0.00     0.167 HD
ATOM     50  C   UNL A   1      44.305  28.604  32.098  1.00  0.00     0.037 A 
ATOM     51  C   UNL A   1      38.406  31.994  30.366  1.00  0.00     0.037 A 
ATOM     52  C   UNL A   1      44.130  29.890  32.719  1.00  0.00     0.049 A 
ATOM     53  C   UNL A   1      39.381  32.558  31.366  1.00  0.00     0.074 A 
ATOM     54  C   UNL A   1      44.983  30.547  33.586  1.00  0.00     0.029 A 
ATOM     55  N   UNL A   1      43.026  30.713  32.541  1.00  0.00    -0.354 N 
ATOM     56  N   UNL A   1      40.528  32.063  31.767  1.00  0.00    -0.248 NA
ATOM     57  C   UNL A   1      39.026  33.837  31.999  1.00  0.00     0.031 C 
ATOM     58  C   UNL A   1      44.371  31.742  33.977  1.00  0.00     0.029 A 
ATOM     59  C   UNL A   1      43.166  31.861  33.303  1.00  0.00     0.049 A 
ATOM     60  H   UNL A   1      42.257  30.510  31.959  1.00  0.00     0.167 HD
ATOM     61  C   UNL A   1      41.048  32.988  32.667  1.00  0.00     0.074 A 
ATOM     62  C   UNL A   1      40.092  34.070  32.753  1.00  0.00     0.031 C 
ATOM     63  C   UNL A   1      42.214  32.943  33.358  1.00  0.00     0.037 A 
BRANCH  50  64
ATOM     64  C   UNL A   1      45.528  27.801  32.448  1.00  0.00     0.058 A 
ATOM     65  C   UNL A   1      45.530  26.882  33.510  1.00  0.00     0.135 A 
ATOM     66  C   UNL A   1      46.704  27.925  31.690  1.00  0.00     0.135 A 
ATOM     67  F   UNL A   1      44.439  26.734  34.279  1.00  0.00    -0.206 F 
ATOM     68  C   UNL A   1      46.661  26.139  33.827  1.00  0.00     0.059 A 
ATOM     69  C   UNL A   1      47.837  27.168  31.969  1.00  0.00     0.059 A 
ATOM     70  F   UNL A   1      46.759  28.791  30.665  1.00  0.00    -0.206 F 
ATOM     71  C   UNL A   1      47.810  26.288  33.049  1.00  0.00     0.060 A 
BRANCH  71  72
ATOM     72  S   UNL A   1      49.267  25.310  33.472  1.00  0.00     0.124 S 
ATOM     73  O   UNL A   1      48.663  24.163  34.142  1.00  0.00    -0.237 OA
ATOM     74  O   UNL A   1      49.852  25.042  32.162  1.00  0.00    -0.237 OA
ATOM     75  O   UNL A   1      50.038  26.203  34.331  1.00  0.00    -0.744 OA
ENDBRANCH  71  72
ENDBRANCH  50  64
BRANCH  51  76
ATOM     76  C   UNL A   1      37.140  32.709  30.048  1.00  0.00     0.058 A 
ATOM     77  C   UNL A   1      35.957  32.428  30.747  1.00  0.00     0.135 A 
ATOM     78  C   UNL A   1      37.086  33.691  29.045  1.00  0.00     0.135 A 
ATOM     79  F   UNL A   1      35.954  31.493  31.709  1.00  0.00    -0.206 F 
ATOM     80  C   UNL A   1      34.763  33.080  30.456  1.00  0.00     0.059 A 
ATOM     81  C   UNL A   1      35.910  34.377  28.754  1.00  0.00     0.059 A 
ATOM     82  F   UNL A   1      38.192  34.011  28.356  1.00  0.00    -0.206 F 
ATOM     83  C   UNL A   1      34.751  34.056  29.459  1.00  0.00     0.060 A 
BRANCH  83  84
ATOM     84  S   UNL A   1      33.205  34.929  29.121  1.00  0.00     0.124 S 
ATOM     85  O   UNL A   1      33.694  36.225  28.666  1.00  0.00    -0.237 OA
ATOM     86  O   UNL A   1      32.593  34.081  28.103  1.00  0.00    -0.237 OA
ATOM     87  O   UNL A   1      32.530  34.928  30.416  1.00  0.00    -0.744 OA
ENDBRANCH  83  84
ENDBRANCH  51  76
BRANCH  63  88
ATOM     88  C   UNL A   1      42.564  34.119  34.228  1.00  0.00     0.058 A 
ATOM     89  C   UNL A   1      42.230  34.161  35.589  1.00  0.00     0.135 A 
ATOM     90  C   UNL A   1      43.339  35.171  33.709  1.00  0.00     0.135 A 
ATOM     91  F   UNL A   1      41.482  33.187  36.132  1.00  0.00    -0.206 F 
ATOM     92  C   UNL A   1      42.650  35.206  36.407  1.00  0.00     0.059 A 
ATOM     93  C   UNL A   1      43.795  36.209  34.515  1.00  0.00     0.059 A 
ATOM     94  F   UNL A   1      43.694  35.174  32.414  1.00  0.00    -0.206 F 
ATOM     95  C   UNL A   1      43.442  36.219  35.864  1.00  0.00     0.060 A 
BRANCH  95  96
ATOM     96  S   UNL A   1      44.046  37.523  36.954  1.00  0.00     0.124 S 
ATOM     97  O   UNL A   1      44.102  38.665  36.047  1.00  0.00    -0.237 OA
ATOM     98  O   UNL A   1      43.008  37.578  37.978  1.00  0.00    -0.237 OA
ATOM     99  O   UNL A   1      45.340  37.019  37.407  1.00  0.00    -0.744 OA
ENDBRANCH  95  96
ENDBRANCH  63  88
ENDBRANCH  37  38
ENDBRANCH  29  32
ENDBRANCH  27  28
ENDBRANCH   1  27
TORSDOF 17
ENDMDL
MODEL 2
REMARK VINA RESULT:     -11.5      2.771      3.432
REMARK SMILES CS(=O)(=O)c1ccc(/C=C(/C(=O)NCCCCNC(=O)c2ccc(-c3c4nc(c(-c5c(F)cc(S(=O)(=O)[O-])cc5F)c5ccc([nH]5)c(-c5c(F)cc(S(=O)(=O)[O-])cc5F)c5nc(c(-c6c(F)cc(S(=O)(=O)[O-])cc6F)c6ccc3[nH]6)C=C5)C=C4)cc2)c2ccc(F)cc2)cc1
REMARK SMILES IDX 16 1 15 2 14 3 13 4 11 5 12 6 10 8 9 9 8 10 5 11 6 12 95 13
REMARK SMILES IDX 7 14 94 15 2 16 1 17 3 18 4 19 87 20 88 21 93 22 89 23 92 24
REMARK SMILES IDX 90 25 91 26 17 27 18 28 19 29 20 31 21 32 22 33 86 34 23 35
REMARK SMILES IDX 85 36 24 37 25 38 26 39 79 40 27 41 84 42 78 43 80 44 28 45
REMARK SMILES IDX 83 46 77 47 76 48 29 50 63 51 42 52 62 53 43 54 46 55 61 56
REMARK SMILES IDX 81 57 44 58 45 59 60 61 82 62 47 63 30 64 31 65 40 66 32 67
REMARK SMILES IDX 33 68 39 69 41 70 34 71 35 72 36 73 37 74 38 75 64 76 65 77
REMARK SMILES IDX 74 78 66 79 67 80 73 81 75 82 68 83 69 84 70 85 71 86 72 87
REMARK SMILES IDX 48 88 49 89 58 90 50 91 51 92 57 93 59 94 52 95 53 96 54 97
REMARK SMILES IDX 55 98 56 99
REMARK H PARENT 13 7 18 30 80 49 46 60
REMARK Flexibility Score: inf
ROOT
ATOM      1  C   UNL A   1      35.452  22.826  24.621  1.00  0.00     0.023 C 
ENDROOT
BRANCH   1   2
ATOM      2  C   UNL A   1      34.263  22.849  25.588  1.00  0.00     0.023 C 
BRANCH   2   3
ATOM      3  C   UNL A   1      32.906  23.023  24.900  1.00  0.00     0.116 C 
BRANCH   3   4
ATOM      4  N   UNL A   1      31.849  23.061  25.891  1.00  0.00    -0.352 N 
ATOM      5  C   UNL A   1      30.964  24.011  26.291  1.00  0.00     0.251 C 
ATOM      6  O   UNL A   1      30.220  23.696  27.223  1.00  0.00    -0.269 OA
ATOM      7  H   UNL A   1      31.751  22.214  26.381  1.00  0.00     0.163 HD
BRANCH   5   8
ATOM      8  C   UNL A   1      30.797  25.353  25.606  1.00  0.00     0.047 C 
ATOM      9  C   UNL A   1      29.989  25.525  24.534  1.00  0.00     0.022 C 
BRANCH   9  10
ATOM     10  C   UNL A   1      29.575  26.770  23.846  1.00  0.00    -0.025 A 
ATOM     11  C   UNL A   1      28.628  29.186  22.776  1.00  0.00     0.067 A 
ATOM     12  C   UNL A   1      29.996  28.917  22.779  1.00  0.00     0.021 A 
ATOM     13  C   UNL A   1      27.720  28.248  23.268  1.00  0.00     0.021 A 
ATOM     14  C   UNL A   1      30.459  27.695  23.278  1.00  0.00     0.009 A 
ATOM     15  C   UNL A   1      28.197  27.046  23.798  1.00  0.00     0.009 A 
BRANCH  11  16
ATOM     16  S   UNL A   1      28.035  30.749  22.181  1.00  0.00     0.175 S 
ATOM     17  C   UNL A   1      29.429  31.819  22.416  1.00  0.00     0.163 C 
ATOM     18  O   UNL A   1      26.977  31.192  23.066  1.00  0.00    -0.224 OA
ATOM     19  O   UNL A   1      27.804  30.613  20.754  1.00  0.00    -0.224 OA
ENDBRANCH  11  16
ENDBRANCH   9  10
BRANCH   8  20
ATOM     20  C   UNL A   1      31.710  26.439  26.046  1.00  0.00    -0.013 A 
ATOM     21  C   UNL A   1      31.230  27.363  26.995  1.00  0.00     0.012 A 
ATOM     22  C   UNL A   1      33.050  26.516  25.640  1.00  0.00     0.012 A 
ATOM     23  C   UNL A   1      32.077  28.312  27.562  1.00  0.00     0.040 A 
ATOM     24  C   UNL A   1      33.904  27.456  26.227  1.00  0.00     0.040 A 
ATOM     25  C   UNL A   1      33.412  28.336  27.187  1.00  0.00     0.123 A 
ATOM     26  F   UNL A   1      34.242  29.210  27.772  1.00  0.00    -0.207 F 
ENDBRANCH   8  20
ENDBRANCH   5   8
ENDBRANCH   3   4
ENDBRANCH   2   3
ENDBRANCH   1   2
BRANCH   1  27
ATOM     27  C   UNL A   1      36.742  23.413  25.180  1.00  0.00     0.116 C 
BRANCH  27  28
ATOM     28  N   UNL A   1      37.671  22.397  25.657  1.00  0.00    -0.352 N 
ATOM     29  C   UNL A   1      38.863  22.587  26.317  1.00  0.00     0.251 C 
ATOM     30  H   UNL A   1      37.415  21.462  25.486  1.00  0.00     0.163 HD
ATOM     31  O   UNL A   1      39.608  21.643  26.552  1.00  0.00    -0.269 OA
BRANCH  29  32
ATOM     32  C   UNL A   1      39.234  23.963  26.699  1.00  0.00     0.039 A 
ATOM     33  C   UNL A   1      39.040  24.382  28.017  1.00  0.00     0.014 A 
ATOM     34  C   UNL A   1      39.873  24.789  25.772  1.00  0.00     0.014 A 
ATOM     35  C   UNL A   1      39.562  25.609  28.427  1.00  0.00     0.010 A 
ATOM     36  C   UNL A   1      40.458  25.972  26.203  1.00  0.00     0.010 A 
ATOM     37  C   UNL A   1      40.315  26.392  27.535  1.00  0.00    -0.014 A 
BRANCH  37  38
ATOM     38  C   UNL A   1      40.971  27.656  27.957  1.00  0.00     0.031 A 
ATOM     39  C   UNL A   1      42.470  27.761  27.906  1.00  0.00     0.074 A 
ATOM     40  C   UNL A   1      40.234  28.657  28.479  1.00  0.00     0.049 A 
ATOM     41  N   UNL A   1      43.248  28.699  28.377  1.00  0.00    -0.248 NA
ATOM     42  C   UNL A   1      43.188  26.645  27.270  1.00  0.00     0.031 C 
ATOM     43  C   UNL A   1      38.776  28.659  28.611  1.00  0.00     0.029 A 
ATOM     44  N   UNL A   1      40.615  29.859  29.023  1.00  0.00    -0.354 N 
ATOM     45  C   UNL A   1      44.546  28.277  28.115  1.00  0.00     0.074 A 
ATOM     46  C   UNL A   1      44.451  26.975  27.493  1.00  0.00     0.031 C 
ATOM     47  C   UNL A   1      38.386  29.808  29.186  1.00  0.00     0.029 A 
ATOM     48  C   UNL A   1      39.567  30.602  29.514  1.00  0.00     0.049 A 
ATOM     49  H   UNL A   1      41.552  30.162  29.057  1.00  0.00     0.167 HD
ATOM     50  C   UNL A   1      45.710  28.925  28.355  1.00  0.00     0.037 A 
ATOM     51  C   UNL A   1      39.558  31.777  30.175  1.00  0.00     0.037 A 
ATOM     52  C   UNL A   1      45.790  30.231  28.955  1.00  0.00     0.049 A 
ATOM     53  C   UNL A   1      40.867  32.468  30.455  1.00  0.00     0.074 A 
ATOM     54  C   UNL A   1      46.916  30.998  29.192  1.00  0.00     0.029 A 
ATOM     55  N   UNL A   1      44.703  30.961  29.415  1.00  0.00    -0.354 N 
ATOM     56  N   UNL A   1      42.083  32.081  30.153  1.00  0.00    -0.248 NA
ATOM     57  C   UNL A   1      40.806  33.754  31.165  1.00  0.00     0.031 C 
ATOM     58  C   UNL A   1      46.516  32.167  29.846  1.00  0.00     0.029 A 
ATOM     59  C   UNL A   1      45.135  32.159  29.958  1.00  0.00     0.049 A 
ATOM     60  H   UNL A   1      43.764  30.669  29.364  1.00  0.00     0.167 HD
ATOM     61  C   UNL A   1      42.927  33.093  30.600  1.00  0.00     0.074 A 
ATOM     62  C   UNL A   1      42.084  34.108  31.194  1.00  0.00     0.031 C 
ATOM     63  C   UNL A   1      44.279  33.173  30.523  1.00  0.00     0.037 A 
BRANCH  50  64
ATOM     64  C   UNL A   1      46.989  28.234  27.972  1.00  0.00     0.058 A 
ATOM     65  C   UNL A   1      47.575  28.410  26.708  1.00  0.00     0.135 A 
ATOM     66  C   UNL A   1      47.658  27.410  28.893  1.00  0.00     0.135 A 
ATOM     67  F   UNL A   1      46.972  29.173  25.782  1.00  0.00    -0.206 F 
ATOM     68  C   UNL A   1      48.760  27.771  26.360  1.00  0.00     0.059 A 
ATOM     69  C   UNL A   1      48.861  26.787  28.578  1.00  0.00     0.059 A 
ATOM     70  F   UNL A   1      47.141  27.204  30.115  1.00  0.00    -0.206 F 
ATOM     71  C   UNL A   1      49.397  26.963  27.303  1.00  0.00     0.060 A 
BRANCH  71  72
ATOM     72  S   UNL A   1      50.937  26.147  26.836  1.00  0.00     0.124 S 
ATOM     73  O   UNL A   1      50.937  26.333  25.388  1.00  0.00    -0.237 OA
ATOM     74  O   UNL A   1      51.933  26.919  27.573  1.00  0.00    -0.237 OA
ATOM     75  O   UNL A   1      50.748  24.774  27.291  1.00  0.00    -0.744 OA
ENDBRANCH  71  72
ENDBRANCH  50  64
BRANCH  51  76
ATOM     76  C   UNL A   1      38.268  32.380  30.610  1.00  0.00     0.058 A 
ATOM     77  C   UNL A   1      37.760  32.145  31.897  1.00  0.00     0.135 A 
ATOM     78  C   UNL A   1      37.521  33.206  29.756  1.00  0.00     0.135 A 
ATOM     79  F   UNL A   1      38.432  31.356  32.749  1.00  0.00    -0.206 F 
ATOM     80  C   UNL A   1      36.551  32.693  32.316  1.00  0.00     0.059 A 
ATOM     81  C   UNL A   1      36.324  33.789  30.161  1.00  0.00     0.059 A 
ATOM     82  F   UNL A   1      37.969  33.477  28.520  1.00  0.00    -0.206 F 
ATOM     83  C   UNL A   1      35.842  33.517  31.441  1.00  0.00     0.060 A 
BRANCH  83  84
ATOM     84  S   UNL A   1      34.298  34.260  32.013  1.00  0.00     0.124 S 
ATOM     85  O   UNL A   1      33.611  34.516  30.752  1.00  0.00    -0.237 OA
ATOM     86  O   UNL A   1      33.737  33.196  32.841  1.00  0.00    -0.237 OA
ATOM     87  O   UNL A   1      34.744  35.444  32.742  1.00  0.00    -0.744 OA
ENDBRANCH  83  84
ENDBRANCH  51  76
BRANCH  63  88
ATOM     88  C   UNL A   1      44.942  34.421  31.038  1.00  0.00     0.058 A 
ATOM     89  C   UNL A   1      45.426  34.517  32.350  1.00  0.00     0.135 A 
ATOM     90  C   UNL A   1      45.188  35.496  30.166  1.00  0.00     0.135 A 
ATOM     91  F   UNL A   1      45.209  33.522  33.225  1.00  0.00    -0.206 F 
ATOM     92  C   UNL A   1      46.130  35.637  32.782  1.00  0.00     0.059 A 
ATOM     93  C   UNL A   1      45.915  36.612  30.569  1.00  0.00     0.059 A 
ATOM     94  F   UNL A   1      44.753  35.450  28.897  1.00  0.00    -0.206 F 
ATOM     95  C   UNL A   1      46.380  36.673  31.881  1.00  0.00     0.060 A 
BRANCH  95  96
ATOM     96  S   UNL A   1      47.364  38.082  32.434  1.00  0.00     0.124 S 
ATOM     97  O   UNL A   1      48.656  37.455  32.696  1.00  0.00    -0.237 OA
ATOM     98  O   UNL A   1      47.313  38.969  31.277  1.00  0.00    -0.237 OA
ATOM     99  O   UNL A   1      46.647  38.557  33.614  1.00  0.00    -0.744 OA
ENDBRANCH  95  96
ENDBRANCH  63  88
ENDBRANCH  37  38
ENDBRANCH  29  32
ENDBRANCH  27  28
ENDBRANCH   1  27
TORSDOF 17
ENDMDL
MODEL 3
REMARK VINA RESULT:     -11.3      4.869     11.850
REMARK SMILES CS(=O)(=O)c1ccc(/C=C(/C(=O)NCCCCNC(=O)c2ccc(-c3c4nc(c(-c5c(F)cc(S(=O)(=O)[O-])cc5F)c5ccc([nH]5)c(-c5c(F)cc(S(=O)(=O)[O-])cc5F)c5nc(c(-c6c(F)cc(S(=O)(=O)[O-])cc6F)c6ccc3[nH]6)C=C5)C=C4)cc2)c2ccc(F)cc2)cc1
REMARK SMILES IDX 16 1 15 2 14 3 13 4 11 5 12 6 10 8 9 9 8 10 5 11 6 12 95 13
REMARK SMILES IDX 7 14 94 15 2 16 1 17 3 18 4 19 87 20 88 21 93 22 89 23 92 24
REMARK SMILES IDX 90 25 91 26 17 27 18 28 19 29 20 31 21 32 22 33 86 34 23 35
REMARK SMILES IDX 85 36 24 37 25 38 26 39 79 40 27 41 84 42 78 43 80 44 28 45
REMARK SMILES IDX 83 46 77 47 76 48 29 50 63 51 42 52 62 53 43 54 46 55 61 56
REMARK SMILES IDX 81 57 44 58 45 59 60 61 82 62 47 63 30 64 31 65 40 66 32 67
REMARK SMILES IDX 33 68 39 69 41 70 34 71 35 72 36 73 37 74 38 75 64 76 65 77
REMARK SMILES IDX 74 78 66 79 67 80 73 81 75 82 68 83 69 84 70 85 71 86 72 87
REMARK SMILES IDX 48 88 49 89 58 90 50 91 51 92 57 93 59 94 52 95 53 96 54 97
REMARK SMILES IDX 55 98 56 99
REMARK H PARENT 13 7 18 30 80 49 46 60
REMARK Flexibility Score: inf
ROOT
ATOM      1  C   UNL A   1      34.965  32.834  31.049  1.00  0.00     0.023 C 
ENDROOT
BRANCH   1   2
ATOM      2  C   UNL A   1      34.428  34.162  31.594  1.00  0.00     0.023 C 
BRANCH   2   3
ATOM      3  C   UNL A   1      35.426  34.921  32.472  1.00  0.00     0.116 C 
BRANCH   3   4
ATOM      4  N   UNL A   1      36.732  34.932  31.843  1.00  0.00    -0.352 N 
ATOM      5  C   UNL A   1      37.978  34.569  32.248  1.00  0.00     0.251 C 
ATOM      6  O   UNL A   1      38.887  34.770  31.438  1.00  0.00    -0.269 OA
ATOM      7  H   UNL A   1      36.713  35.276  30.922  1.00  0.00     0.163 HD
BRANCH   5   8
ATOM      8  C   UNL A   1      38.270  33.872  33.561  1.00  0.00     0.047 C 
ATOM      9  C   UNL A   1      38.217  34.513  34.752  1.00  0.00     0.022 C 
BRANCH   9  10
ATOM     10  C   UNL A   1      38.305  33.970  36.127  1.00  0.00    -0.025 A 
ATOM     11  C   UNL A   1      38.496  33.217  38.824  1.00  0.00     0.067 A 
ATOM     12  C   UNL A   1      37.470  32.703  38.030  1.00  0.00     0.021 A 
ATOM     13  C   UNL A   1      39.451  34.075  38.281  1.00  0.00     0.021 A 
ATOM     14  C   UNL A   1      37.403  33.052  36.678  1.00  0.00     0.009 A 
ATOM     15  C   UNL A   1      39.352  34.445  36.937  1.00  0.00     0.009 A 
BRANCH  11  16
ATOM     16  S   UNL A   1      38.565  32.810  40.551  1.00  0.00     0.175 S 
ATOM     17  C   UNL A   1      37.128  31.799  40.780  1.00  0.00     0.163 C 
ATOM     18  O   UNL A   1      38.378  34.033  41.305  1.00  0.00    -0.224 OA
ATOM     19  O   UNL A   1      39.740  31.982  40.756  1.00  0.00    -0.224 OA
ENDBRANCH  11  16
ENDBRANCH   9  10
BRANCH   8  20
ATOM     20  C   UNL A   1      38.808  32.490  33.470  1.00  0.00    -0.013 A 
ATOM     21  C   UNL A   1      40.174  32.292  33.757  1.00  0.00     0.012 A 
ATOM     22  C   UNL A   1      37.999  31.373  33.219  1.00  0.00     0.012 A 
ATOM     23  C   UNL A   1      40.710  31.009  33.838  1.00  0.00     0.040 A 
ATOM     24  C   UNL A   1      38.533  30.085  33.322  1.00  0.00     0.040 A 
ATOM     25  C   UNL A   1      39.879  29.916  33.640  1.00  0.00     0.123 A 
ATOM     26  F   UNL A   1      40.377  28.680  33.774  1.00  0.00    -0.207 F 
ENDBRANCH   8  20
ENDBRANCH   5   8
ENDBRANCH   3   4
ENDBRANCH   2   3
ENDBRANCH   1   2
BRANCH   1  27
ATOM     27  C   UNL A   1      35.165  32.797  29.538  1.00  0.00     0.116 C 
BRANCH  27  28
ATOM     28  N   UNL A   1      34.199  31.947  28.855  1.00  0.00    -0.352 N 
ATOM     29  C   UNL A   1      34.416  30.715  28.285  1.00  0.00     0.251 C 
ATOM     30  H   UNL A   1      33.281  32.296  28.796  1.00  0.00     0.163 HD
ATOM     31  O   UNL A   1      33.539  30.162  27.632  1.00  0.00    -0.269 OA
BRANCH  29  32
ATOM     32  C   UNL A   1      35.745  30.096  28.448  1.00  0.00     0.039 A 
ATOM     33  C   UNL A   1      36.642  30.110  27.378  1.00  0.00     0.014 A 
ATOM     34  C   UNL A   1      36.129  29.604  29.698  1.00  0.00     0.014 A 
ATOM     35  C   UNL A   1      37.960  29.700  27.586  1.00  0.00     0.010 A 
ATOM     36  C   UNL A   1      37.458  29.271  29.920  1.00  0.00     0.010 A 
ATOM     37  C   UNL A   1      38.389  29.321  28.869  1.00  0.00    -0.014 A 
BRANCH  37  38
ATOM     38  C   UNL A   1      39.804  28.972  29.155  1.00  0.00     0.031 A 
ATOM     39  C   UNL A   1      40.730  30.028  29.692  1.00  0.00     0.074 A 
ATOM     40  C   UNL A   1      40.275  27.750  28.836  1.00  0.00     0.049 A 
ATOM     41  N   UNL A   1      42.026  29.985  29.853  1.00  0.00    -0.248 NA
ATOM     42  C   UNL A   1      40.119  31.314  30.064  1.00  0.00     0.031 C 
ATOM     43  C   UNL A   1      39.482  26.652  28.279  1.00  0.00     0.029 A 
ATOM     44  N   UNL A   1      41.545  27.233  28.909  1.00  0.00    -0.354 N 
ATOM     45  C   UNL A   1      42.388  31.242  30.323  1.00  0.00     0.074 A 
ATOM     46  C   UNL A   1      41.182  32.040  30.369  1.00  0.00     0.031 C 
ATOM     47  C   UNL A   1      40.279  25.592  28.072  1.00  0.00     0.029 A 
ATOM     48  C   UNL A   1      41.649  25.948  28.429  1.00  0.00     0.049 A 
ATOM     49  H   UNL A   1      42.311  27.736  29.272  1.00  0.00     0.167 HD
ATOM     50  C   UNL A   1      43.611  31.683  30.699  1.00  0.00     0.037 A 
ATOM     51  C   UNL A   1      42.728  25.156  28.271  1.00  0.00     0.037 A 
ATOM     52  C   UNL A   1      44.799  30.872  30.669  1.00  0.00     0.049 A 
ATOM     53  C   UNL A   1      44.084  25.677  28.671  1.00  0.00     0.074 A 
ATOM     54  C   UNL A   1      46.076  31.207  31.080  1.00  0.00     0.029 A 
ATOM     55  N   UNL A   1      44.857  29.567  30.200  1.00  0.00    -0.354 N 
ATOM     56  N   UNL A   1      44.402  26.850  29.164  1.00  0.00    -0.248 NA
ATOM     57  C   UNL A   1      45.228  24.770  28.494  1.00  0.00     0.031 C 
ATOM     58  C   UNL A   1      46.919  30.124  30.807  1.00  0.00     0.029 A 
ATOM     59  C   UNL A   1      46.154  29.092  30.288  1.00  0.00     0.049 A 
ATOM     60  H   UNL A   1      44.089  29.056  29.855  1.00  0.00     0.167 HD
ATOM     61  C   UNL A   1      45.774  26.808  29.393  1.00  0.00     0.074 A 
ATOM     62  C   UNL A   1      46.225  25.496  28.984  1.00  0.00     0.031 C 
ATOM     63  C   UNL A   1      46.584  27.771  29.899  1.00  0.00     0.037 A 
BRANCH  50  64
ATOM     64  C   UNL A   1      43.727  33.106  31.172  1.00  0.00     0.058 A 
ATOM     65  C   UNL A   1      43.848  34.177  30.273  1.00  0.00     0.135 A 
ATOM     66  C   UNL A   1      43.683  33.407  32.544  1.00  0.00     0.135 A 
ATOM     67  F   UNL A   1      43.911  33.948  28.951  1.00  0.00    -0.206 F 
ATOM     68  C   UNL A   1      43.951  35.491  30.715  1.00  0.00     0.059 A 
ATOM     69  C   UNL A   1      43.751  34.717  33.008  1.00  0.00     0.059 A 
ATOM     70  F   UNL A   1      43.572  32.421  33.449  1.00  0.00    -0.206 F 
ATOM     71  C   UNL A   1      43.900  35.751  32.086  1.00  0.00     0.060 A 
BRANCH  71  72
ATOM     72  S   UNL A   1      44.029  37.463  32.641  1.00  0.00     0.124 S 
ATOM     73  O   UNL A   1      43.772  38.192  31.402  1.00  0.00    -0.237 OA
ATOM     74  O   UNL A   1      42.978  37.542  33.650  1.00  0.00    -0.237 OA
ATOM     75  O   UNL A   1      45.394  37.555  33.150  1.00  0.00    -0.744 OA
ENDBRANCH  71  72
ENDBRANCH  50  64
BRANCH  51  76
ATOM     76  C   UNL A   1      42.572  23.783  27.716  1.00  0.00     0.058 A 
ATOM     77  C   UNL A   1      42.519  22.664  28.561  1.00  0.00     0.135 A 
ATOM     78  C   UNL A   1      42.465  23.560  26.334  1.00  0.00     0.135 A 
ATOM     79  F   UNL A   1      42.625  22.823  29.889  1.00  0.00    -0.206 F 
ATOM     80  C   UNL A   1      42.383  21.374  28.058  1.00  0.00     0.059 A 
ATOM     81  C   UNL A   1      42.301  22.282  25.808  1.00  0.00     0.059 A 
ATOM     82  F   UNL A   1      42.494  24.596  25.480  1.00  0.00    -0.206 F 
ATOM     83  C   UNL A   1      42.271  21.194  26.679  1.00  0.00     0.060 A 
BRANCH  83  84
ATOM     84  S   UNL A   1      42.048  19.518  26.041  1.00  0.00     0.124 S 
ATOM     85  O   UNL A   1      42.993  19.499  24.930  1.00  0.00    -0.237 OA
ATOM     86  O   UNL A   1      42.405  18.702  27.198  1.00  0.00    -0.237 OA
ATOM     87  O   UNL A   1      40.637  19.484  25.670  1.00  0.00    -0.744 OA
ENDBRANCH  83  84
ENDBRANCH  51  76
BRANCH  63  88
ATOM     88  C   UNL A   1      48.036  27.436  30.100  1.00  0.00     0.058 A 
ATOM     89  C   UNL A   1      49.015  27.782  29.157  1.00  0.00     0.135 A 
ATOM     90  C   UNL A   1      48.463  26.853  31.305  1.00  0.00     0.135 A 
ATOM     91  F   UNL A   1      48.660  28.333  27.985  1.00  0.00    -0.206 F 
ATOM     92  C   UNL A   1      50.367  27.561  29.401  1.00  0.00     0.059 A 
ATOM     93  C   UNL A   1      49.811  26.650  31.582  1.00  0.00     0.059 A 
ATOM     94  F   UNL A   1      47.567  26.510  32.245  1.00  0.00    -0.206 F 
ATOM     95  C   UNL A   1      50.756  27.006  30.621  1.00  0.00     0.060 A 
BRANCH  95  96
ATOM     96  S   UNL A   1      52.518  26.800  30.956  1.00  0.00     0.124 S 
ATOM     97  O   UNL A   1      52.948  28.183  31.136  1.00  0.00    -0.237 OA
ATOM     98  O   UNL A   1      52.511  25.977  32.161  1.00  0.00    -0.237 OA
ATOM     99  O   UNL A   1      53.019  26.140  29.754  1.00  0.00    -0.744 OA
ENDBRANCH  95  96
ENDBRANCH  63  88
ENDBRANCH  37  38
ENDBRANCH  29  32
ENDBRANCH  27  28
ENDBRANCH   1  27
TORSDOF 17
ENDMDL
