MODEL 1
REMARK VINA RESULT:     -14.3      0.000      0.000
REMARK SMILES O=C(NCCCCNC(=O)c1ccn(-c2cc(-c3ccncc3)nc(-c3ccccc3F)n2)n1)c1ccc(-c2c3nc(c(-c4c(F)cc(S(=O)(=O)[O-])cc4F)c4ccc([nH]4)c(-c4c(F)cc(S(=O)(=O)[O-])cc4F)c4nc(c(-c5c(F)cc(S(=O)(=O)[O-])cc5F)c5ccc2[nH]5)C=C4)C=C3)cc1
REMARK SMILES IDX 5 1 4 2 3 3 1 4 2 5 35 7 36 8 100 9 37 10 99 11 38 12 39 13
REMARK SMILES IDX 40 14 93 15 41 16 98 17 92 18 94 19 42 20 97 21 91 22 90 23
REMARK SMILES IDX 43 25 77 26 56 27 76 28 57 29 60 30 75 31 95 32 58 33 59 34
REMARK SMILES IDX 74 36 96 37 61 38 44 39 45 40 54 41 46 42 47 43 53 44 55 45
REMARK SMILES IDX 48 46 49 47 50 48 51 49 52 50 78 51 79 52 88 53 80 54 81 55
REMARK SMILES IDX 87 56 89 57 82 58 83 59 84 60 85 61 86 62 62 63 63 64 72 65
REMARK SMILES IDX 64 66 65 67 71 68 73 69 66 70 67 71 68 72 69 73 70 74 6 75
REMARK SMILES IDX 7 76 8 77 9 78 10 80 11 81 12 82 34 83 13 84 14 85 15 86
REMARK SMILES IDX 16 87 33 88 17 89 25 90 24 91 18 92 19 93 23 94 20 95 22 96
REMARK SMILES IDX 21 97 26 98 27 99 31 100 28 101 30 102 32 103 29 104
REMARK H PARENT 3 6 94 24 60 35 8 79
REMARK Flexibility Score: inf
ROOT
ATOM      1  C   UNL A   1      37.122  22.016  24.727  1.00  0.00     0.023 C 
ENDROOT
BRANCH   1   2
ATOM      2  C   UNL A   1      38.019  22.389  25.907  1.00  0.00     0.116 C 
BRANCH   2   3
ATOM      3  N   UNL A   1      39.417  22.065  25.717  1.00  0.00    -0.352 N 
ATOM      4  O   UNL A   1      41.592  21.854  25.920  1.00  0.00    -0.269 OA
ATOM      5  C   UNL A   1      40.606  22.551  26.187  1.00  0.00     0.251 C 
ATOM      6  H   UNL A   1      39.544  21.311  25.096  1.00  0.00     0.163 HD
BRANCH   5   7
ATOM      7  C   UNL A   1      40.813  23.831  26.924  1.00  0.00     0.039 A 
ATOM      8  C   UNL A   1      41.841  24.117  27.822  1.00  0.00     0.014 A 
ATOM      9  C   UNL A   1      39.835  24.824  26.700  1.00  0.00     0.014 A 
ATOM     10  C   UNL A   1      41.853  25.333  28.518  1.00  0.00     0.010 A 
ATOM     11  C   UNL A   1      39.842  26.034  27.392  1.00  0.00     0.010 A 
ATOM     12  C   UNL A   1      40.836  26.282  28.329  1.00  0.00    -0.014 A 
BRANCH  12  13
ATOM     13  C   UNL A   1      40.928  27.571  29.023  1.00  0.00     0.031 A 
ATOM     14  C   UNL A   1      42.000  28.482  28.514  1.00  0.00     0.074 A 
ATOM     15  C   UNL A   1      40.054  28.021  29.952  1.00  0.00     0.049 A 
ATOM     16  N   UNL A   1      43.047  28.918  29.138  1.00  0.00    -0.248 NA
ATOM     17  C   UNL A   1      41.944  28.880  27.098  1.00  0.00     0.031 C 
ATOM     18  C   UNL A   1      38.781  27.430  30.373  1.00  0.00     0.029 A 
ATOM     19  N   UNL A   1      40.100  29.178  30.676  1.00  0.00    -0.354 N 
ATOM     20  C   UNL A   1      43.696  29.784  28.258  1.00  0.00     0.074 A 
ATOM     21  C   UNL A   1      43.043  29.628  26.983  1.00  0.00     0.031 C 
ATOM     22  C   UNL A   1      38.089  28.327  31.114  1.00  0.00     0.029 A 
ATOM     23  C   UNL A   1      38.924  29.493  31.351  1.00  0.00     0.049 A 
ATOM     24  H   UNL A   1      40.904  29.746  30.720  1.00  0.00     0.167 HD
ATOM     25  C   UNL A   1      44.626  30.690  28.675  1.00  0.00     0.037 A 
ATOM     26  C   UNL A   1      38.651  30.639  32.031  1.00  0.00     0.037 A 
ATOM     27  C   UNL A   1      45.113  30.381  29.990  1.00  0.00     0.049 A 
ATOM     28  C   UNL A   1      39.955  31.255  32.382  1.00  0.00     0.074 A 
ATOM     29  C   UNL A   1      45.810  29.325  30.541  1.00  0.00     0.029 A 
ATOM     30  N   UNL A   1      44.588  31.074  31.052  1.00  0.00    -0.354 N 
ATOM     31  N   UNL A   1      40.815  30.732  33.212  1.00  0.00    -0.248 NA
ATOM     32  C   UNL A   1      40.487  32.262  31.478  1.00  0.00     0.031 C 
ATOM     33  C   UNL A   1      45.250  29.154  31.840  1.00  0.00     0.029 A 
ATOM     34  C   UNL A   1      44.291  30.152  32.023  1.00  0.00     0.049 A 
ATOM     35  H   UNL A   1      44.449  32.047  31.107  1.00  0.00     0.167 HD
ATOM     36  C   UNL A   1      42.054  31.023  32.663  1.00  0.00     0.074 A 
ATOM     37  C   UNL A   1      41.791  32.034  31.642  1.00  0.00     0.031 C 
ATOM     38  C   UNL A   1      43.142  30.234  32.900  1.00  0.00     0.037 A 
BRANCH  25  39
ATOM     39  C   UNL A   1      44.897  32.015  28.009  1.00  0.00     0.058 A 
ATOM     40  C   UNL A   1      44.103  33.162  28.226  1.00  0.00     0.135 A 
ATOM     41  C   UNL A   1      46.121  32.241  27.344  1.00  0.00     0.135 A 
ATOM     42  F   UNL A   1      42.969  33.111  28.937  1.00  0.00    -0.206 F 
ATOM     43  C   UNL A   1      44.480  34.431  27.806  1.00  0.00     0.059 A 
ATOM     44  C   UNL A   1      46.544  33.514  26.957  1.00  0.00     0.059 A 
ATOM     45  F   UNL A   1      46.968  31.224  27.109  1.00  0.00    -0.206 F 
ATOM     46  C   UNL A   1      45.714  34.605  27.194  1.00  0.00     0.060 A 
BRANCH  46  47
ATOM     47  S   UNL A   1      46.234  36.287  26.806  1.00  0.00     0.124 S 
ATOM     48  O   UNL A   1      44.950  36.980  26.742  1.00  0.00    -0.237 OA
ATOM     49  O   UNL A   1      47.077  36.613  27.950  1.00  0.00    -0.237 OA
ATOM     50  O   UNL A   1      46.933  36.140  25.535  1.00  0.00    -0.744 OA
ENDBRANCH  46  47
ENDBRANCH  25  39
BRANCH  26  51
ATOM     51  C   UNL A   1      37.385  31.430  32.064  1.00  0.00     0.058 A 
ATOM     52  C   UNL A   1      36.891  32.061  30.907  1.00  0.00     0.135 A 
ATOM     53  C   UNL A   1      36.818  31.847  33.285  1.00  0.00     0.135 A 
ATOM     54  F   UNL A   1      37.389  31.768  29.696  1.00  0.00    -0.206 F 
ATOM     55  C   UNL A   1      35.944  33.085  30.959  1.00  0.00     0.059 A 
ATOM     56  C   UNL A   1      35.868  32.875  33.362  1.00  0.00     0.059 A 
ATOM     57  F   UNL A   1      37.239  31.313  34.442  1.00  0.00    -0.206 F 
ATOM     58  C   UNL A   1      35.462  33.511  32.193  1.00  0.00     0.060 A 
BRANCH  58  59
ATOM     59  S   UNL A   1      34.375  34.956  32.228  1.00  0.00     0.124 S 
ATOM     60  O   UNL A   1      33.192  34.424  32.897  1.00  0.00    -0.237 OA
ATOM     61  O   UNL A   1      35.162  35.911  33.004  1.00  0.00    -0.237 OA
ATOM     62  O   UNL A   1      34.202  35.291  30.819  1.00  0.00    -0.744 OA
ENDBRANCH  58  59
ENDBRANCH  26  51
BRANCH  38  63
ATOM     63  C   UNL A   1      43.071  29.201  33.996  1.00  0.00     0.058 A 
ATOM     64  C   UNL A   1      42.518  27.952  33.676  1.00  0.00     0.135 A 
ATOM     65  C   UNL A   1      43.318  29.466  35.356  1.00  0.00     0.135 A 
ATOM     66  F   UNL A   1      42.221  27.655  32.400  1.00  0.00    -0.206 F 
ATOM     67  C   UNL A   1      42.185  27.021  34.653  1.00  0.00     0.059 A 
ATOM     68  C   UNL A   1      43.022  28.531  36.352  1.00  0.00     0.059 A 
ATOM     69  F   UNL A   1      43.772  30.663  35.754  1.00  0.00    -0.206 F 
ATOM     70  C   UNL A   1      42.428  27.322  35.992  1.00  0.00     0.060 A 
BRANCH  70  71
ATOM     71  S   UNL A   1      41.899  26.130  37.239  1.00  0.00     0.124 S 
ATOM     72  O   UNL A   1      42.944  26.270  38.250  1.00  0.00    -0.237 OA
ATOM     73  O   UNL A   1      40.585  26.638  37.619  1.00  0.00    -0.237 OA
ATOM     74  O   UNL A   1      41.892  24.857  36.526  1.00  0.00    -0.744 OA
ENDBRANCH  70  71
ENDBRANCH  38  63
ENDBRANCH  12  13
ENDBRANCH   5   7
ENDBRANCH   2   3
ENDBRANCH   1   2
BRANCH   1  75
ATOM     75  C   UNL A   1      36.192  23.127  24.214  1.00  0.00     0.023 C 
BRANCH  75  76
ATOM     76  C   UNL A   1      34.710  22.981  24.565  1.00  0.00     0.116 C 
BRANCH  76  77
ATOM     77  N   UNL A   1      33.949  22.376  23.490  1.00  0.00    -0.351 N 
ATOM     78  C   UNL A   1      32.615  22.517  23.185  1.00  0.00     0.271 C 
ATOM     79  H   UNL A   1      34.459  21.780  22.895  1.00  0.00     0.163 HD
ATOM     80  O   UNL A   1      32.135  21.809  22.304  1.00  0.00    -0.267 OA
BRANCH  78  81
ATOM     81  C   UNL A   1      31.829  23.556  23.866  1.00  0.00     0.150 A 
ATOM     82  C   UNL A   1      30.973  23.381  24.983  1.00  0.00     0.056 A 
ATOM     83  N   UNL A   1      31.912  24.855  23.523  1.00  0.00    -0.161 NA
ATOM     84  C   UNL A   1      30.660  24.652  25.398  1.00  0.00     0.118 A 
ATOM     85  N   UNL A   1      31.275  25.516  24.522  1.00  0.00    -0.222 N 
BRANCH  85  86
ATOM     86  C   UNL A   1      31.297  26.936  24.623  1.00  0.00     0.158 A 
ATOM     87  C   UNL A   1      30.493  27.670  23.773  1.00  0.00     0.078 A 
ATOM     88  N   UNL A   1      32.097  27.498  25.560  1.00  0.00    -0.209 NA
ATOM     89  C   UNL A   1      30.507  29.036  23.962  1.00  0.00     0.077 A 
ATOM     90  C   UNL A   1      32.107  28.841  25.595  1.00  0.00     0.165 A 
ATOM     91  N   UNL A   1      31.339  29.639  24.835  1.00  0.00    -0.228 NA
BRANCH  89  92
ATOM     92  C   UNL A   1      29.569  29.928  23.274  1.00  0.00     0.003 A 
ATOM     93  C   UNL A   1      29.022  29.577  22.032  1.00  0.00     0.030 A 
ATOM     94  C   UNL A   1      29.161  31.135  23.850  1.00  0.00     0.030 A 
ATOM     95  C   UNL A   1      28.113  30.432  21.432  1.00  0.00     0.111 A 
ATOM     96  C   UNL A   1      28.253  31.928  23.168  1.00  0.00     0.111 A 
ATOM     97  N   UNL A   1      27.717  31.602  21.974  1.00  0.00    -0.265 NA
ENDBRANCH  89  92
BRANCH  90  98
ATOM     98  C   UNL A   1      33.116  29.485  26.425  1.00  0.00     0.055 A 
ATOM     99  C   UNL A   1      34.371  28.883  26.634  1.00  0.00     0.015 A 
ATOM    100  C   UNL A   1      32.883  30.731  27.014  1.00  0.00     0.134 A 
ATOM    101  C   UNL A   1      35.357  29.519  27.395  1.00  0.00     0.001 A 
ATOM    102  C   UNL A   1      33.860  31.368  27.782  1.00  0.00     0.040 A 
ATOM    103  F   UNL A   1      31.697  31.341  26.865  1.00  0.00    -0.206 F 
ATOM    104  C   UNL A   1      35.102  30.763  27.969  1.00  0.00     0.003 A 
ENDBRANCH  90  98
ENDBRANCH  85  86
ENDBRANCH  78  81
ENDBRANCH  76  77
ENDBRANCH  75  76
ENDBRANCH   1  75
TORSDOF 17
ENDMDL
MODEL 2
REMARK VINA RESULT:     -13.9      3.184     10.053
REMARK SMILES O=C(NCCCCNC(=O)c1ccn(-c2cc(-c3ccncc3)nc(-c3ccccc3F)n2)n1)c1ccc(-c2c3nc(c(-c4c(F)cc(S(=O)(=O)[O-])cc4F)c4ccc([nH]4)c(-c4c(F)cc(S(=O)(=O)[O-])cc4F)c4nc(c(-c5c(F)cc(S(=O)(=O)[O-])cc5F)c5ccc2[nH]5)C=C4)C=C3)cc1
REMARK SMILES IDX 5 1 4 2 3 3 1 4 2 5 35 7 36 8 100 9 37 10 99 11 38 12 39 13
REMARK SMILES IDX 40 14 93 15 41 16 98 17 92 18 94 19 42 20 97 21 91 22 90 23
REMARK SMILES IDX 43 25 77 26 56 27 76 28 57 29 60 30 75 31 95 32 58 33 59 34
REMARK SMILES IDX 74 36 96 37 61 38 44 39 45 40 54 41 46 42 47 43 53 44 55 45
REMARK SMILES IDX 48 46 49 47 50 48 51 49 52 50 78 51 79 52 88 53 80 54 81 55
REMARK SMILES IDX 87 56 89 57 82 58 83 59 84 60 85 61 86 62 62 63 63 64 72 65
REMARK SMILES IDX 64 66 65 67 71 68 73 69 66 70 67 71 68 72 69 73 70 74 6 75
REMARK SMILES IDX 7 76 8 77 9 78 10 80 11 81 12 82 34 83 13 84 14 85 15 86
REMARK SMILES IDX 16 87 33 88 17 89 25 90 24 91 18 92 19 93 23 94 20 95 22 96
REMARK SMILES IDX 21 97 26 98 27 99 31 100 28 101 30 102 32 103 29 104
REMARK H PARENT 3 6 94 24 60 35 8 79
REMARK Flexibility Score: inf
ROOT
ATOM      1  C   UNL A   1      32.352  29.559  26.701  1.00  0.00     0.023 C 
ENDROOT
BRANCH   1   2
ATOM      2  C   UNL A   1      33.769  30.069  26.959  1.00  0.00     0.116 C 
BRANCH   2   3
ATOM      3  N   UNL A   1      33.861  31.066  28.006  1.00  0.00    -0.352 N 
ATOM      4  O   UNL A   1      34.548  32.574  29.443  1.00  0.00    -0.269 OA
ATOM      5  C   UNL A   1      34.862  31.575  28.784  1.00  0.00     0.251 C 
ATOM      6  H   UNL A   1      32.988  31.475  28.207  1.00  0.00     0.163 HD
BRANCH   5   7
ATOM      7  C   UNL A   1      36.238  31.019  28.941  1.00  0.00     0.039 A 
ATOM      8  C   UNL A   1      37.410  31.745  29.150  1.00  0.00     0.014 A 
ATOM      9  C   UNL A   1      36.340  29.616  28.823  1.00  0.00     0.014 A 
ATOM     10  C   UNL A   1      38.649  31.092  29.179  1.00  0.00     0.010 A 
ATOM     11  C   UNL A   1      37.571  28.963  28.849  1.00  0.00     0.010 A 
ATOM     12  C   UNL A   1      38.737  29.704  28.996  1.00  0.00    -0.014 A 
BRANCH  12  13
ATOM     13  C   UNL A   1      40.047  29.052  29.107  1.00  0.00     0.031 A 
ATOM     14  C   UNL A   1      40.554  28.900  30.506  1.00  0.00     0.074 A 
ATOM     15  C   UNL A   1      40.723  28.481  28.085  1.00  0.00     0.049 A 
ATOM     16  N   UNL A   1      41.606  29.432  31.041  1.00  0.00    -0.248 NA
ATOM     17  C   UNL A   1      39.730  28.132  31.454  1.00  0.00     0.031 C 
ATOM     18  C   UNL A   1      40.277  28.251  26.709  1.00  0.00     0.029 A 
ATOM     19  N   UNL A   1      41.962  27.905  28.098  1.00  0.00    -0.354 N 
ATOM     20  C   UNL A   1      41.679  28.933  32.342  1.00  0.00     0.074 A 
ATOM     21  C   UNL A   1      40.440  28.238  32.579  1.00  0.00     0.031 C 
ATOM     22  C   UNL A   1      41.140  27.410  26.088  1.00  0.00     0.029 A 
ATOM     23  C   UNL A   1      42.274  27.164  26.962  1.00  0.00     0.049 A 
ATOM     24  H   UNL A   1      42.587  28.009  28.852  1.00  0.00     0.167 HD
ATOM     25  C   UNL A   1      42.822  28.989  33.084  1.00  0.00     0.037 A 
ATOM     26  C   UNL A   1      43.373  26.385  26.769  1.00  0.00     0.037 A 
ATOM     27  C   UNL A   1      43.762  29.928  32.538  1.00  0.00     0.049 A 
ATOM     28  C   UNL A   1      44.412  26.861  27.715  1.00  0.00     0.074 A 
ATOM     29  C   UNL A   1      43.759  31.293  32.333  1.00  0.00     0.029 A 
ATOM     30  N   UNL A   1      44.792  29.440  31.774  1.00  0.00    -0.354 N 
ATOM     31  N   UNL A   1      44.985  28.031  27.652  1.00  0.00    -0.248 NA
ATOM     32  C   UNL A   1      44.515  26.181  28.996  1.00  0.00     0.031 C 
ATOM     33  C   UNL A   1      44.437  31.479  31.095  1.00  0.00     0.029 A 
ATOM     34  C   UNL A   1      44.864  30.225  30.652  1.00  0.00     0.049 A 
ATOM     35  H   UNL A   1      45.369  28.671  31.989  1.00  0.00     0.167 HD
ATOM     36  C   UNL A   1      45.147  28.416  28.973  1.00  0.00     0.074 A 
ATOM     37  C   UNL A   1      44.913  27.204  29.754  1.00  0.00     0.031 C 
ATOM     38  C   UNL A   1      45.196  29.731  29.332  1.00  0.00     0.037 A 
BRANCH  25  39
ATOM     39  C   UNL A   1      43.207  27.994  34.149  1.00  0.00     0.058 A 
ATOM     40  C   UNL A   1      43.702  26.704  33.854  1.00  0.00     0.135 A 
ATOM     41  C   UNL A   1      43.346  28.406  35.492  1.00  0.00     0.135 A 
ATOM     42  F   UNL A   1      43.731  26.229  32.602  1.00  0.00    -0.206 F 
ATOM     43  C   UNL A   1      44.274  25.879  34.814  1.00  0.00     0.059 A 
ATOM     44  C   UNL A   1      43.963  27.613  36.462  1.00  0.00     0.059 A 
ATOM     45  F   UNL A   1      42.935  29.625  35.878  1.00  0.00    -0.206 F 
ATOM     46  C   UNL A   1      44.425  26.349  36.111  1.00  0.00     0.060 A 
BRANCH  46  47
ATOM     47  S   UNL A   1      45.312  25.309  37.287  1.00  0.00     0.124 S 
ATOM     48  O   UNL A   1      44.806  23.984  36.943  1.00  0.00    -0.237 OA
ATOM     49  O   UNL A   1      46.702  25.572  36.931  1.00  0.00    -0.237 OA
ATOM     50  O   UNL A   1      44.889  25.827  38.583  1.00  0.00    -0.744 OA
ENDBRANCH  46  47
ENDBRANCH  25  39
BRANCH  26  51
ATOM     51  C   UNL A   1      43.468  25.044  26.121  1.00  0.00     0.058 A 
ATOM     52  C   UNL A   1      42.846  23.916  26.690  1.00  0.00     0.135 A 
ATOM     53  C   UNL A   1      44.428  24.781  25.124  1.00  0.00     0.135 A 
ATOM     54  F   UNL A   1      41.945  24.049  27.675  1.00  0.00    -0.206 F 
ATOM     55  C   UNL A   1      43.197  22.611  26.341  1.00  0.00     0.059 A 
ATOM     56  C   UNL A   1      44.800  23.480  24.759  1.00  0.00     0.059 A 
ATOM     57  F   UNL A   1      45.085  25.794  24.537  1.00  0.00    -0.206 F 
ATOM     58  C   UNL A   1      44.200  22.400  25.400  1.00  0.00     0.060 A 
BRANCH  58  59
ATOM     59  S   UNL A   1      44.749  20.701  25.109  1.00  0.00     0.124 S 
ATOM     60  O   UNL A   1      46.122  20.743  25.604  1.00  0.00    -0.237 OA
ATOM     61  O   UNL A   1      43.810  19.933  25.920  1.00  0.00    -0.237 OA
ATOM     62  O   UNL A   1      44.607  20.536  23.666  1.00  0.00    -0.744 OA
ENDBRANCH  58  59
ENDBRANCH  26  51
BRANCH  38  63
ATOM     63  C   UNL A   1      45.365  30.776  28.259  1.00  0.00     0.058 A 
ATOM     64  C   UNL A   1      46.635  31.354  28.110  1.00  0.00     0.135 A 
ATOM     65  C   UNL A   1      44.303  31.364  27.546  1.00  0.00     0.135 A 
ATOM     66  F   UNL A   1      47.681  30.864  28.795  1.00  0.00    -0.206 F 
ATOM     67  C   UNL A   1      46.844  32.484  27.327  1.00  0.00     0.059 A 
ATOM     68  C   UNL A   1      44.497  32.481  26.727  1.00  0.00     0.059 A 
ATOM     69  F   UNL A   1      43.046  30.924  27.693  1.00  0.00    -0.206 F 
ATOM     70  C   UNL A   1      45.767  33.050  26.647  1.00  0.00     0.060 A 
BRANCH  70  71
ATOM     71  S   UNL A   1      46.056  34.569  25.715  1.00  0.00     0.124 S 
ATOM     72  O   UNL A   1      47.497  34.510  25.484  1.00  0.00    -0.237 OA
ATOM     73  O   UNL A   1      45.221  34.374  24.534  1.00  0.00    -0.237 OA
ATOM     74  O   UNL A   1      45.615  35.624  26.622  1.00  0.00    -0.744 OA
ENDBRANCH  70  71
ENDBRANCH  38  63
ENDBRANCH  12  13
ENDBRANCH   5   7
ENDBRANCH   2   3
ENDBRANCH   1   2
BRANCH   1  75
ATOM     75  C   UNL A   1      32.024  28.170  27.273  1.00  0.00     0.023 C 
BRANCH  75  76
ATOM     76  C   UNL A   1      31.211  27.242  26.369  1.00  0.00     0.116 C 
BRANCH  76  77
ATOM     77  N   UNL A   1      31.264  27.649  24.979  1.00  0.00    -0.351 N 
ATOM     78  C   UNL A   1      31.503  26.885  23.860  1.00  0.00     0.271 C 
ATOM     79  H   UNL A   1      31.106  28.606  24.812  1.00  0.00     0.163 HD
ATOM     80  O   UNL A   1      31.636  27.451  22.778  1.00  0.00    -0.267 OA
BRANCH  78  81
ATOM     81  C   UNL A   1      31.519  25.421  23.980  1.00  0.00     0.150 A 
ATOM     82  C   UNL A   1      30.578  24.511  23.433  1.00  0.00     0.056 A 
ATOM     83  N   UNL A   1      32.526  24.764  24.588  1.00  0.00    -0.161 NA
ATOM     84  C   UNL A   1      31.140  23.269  23.605  1.00  0.00     0.118 A 
ATOM     85  N   UNL A   1      32.331  23.461  24.266  1.00  0.00    -0.222 N 
BRANCH  85  86
ATOM     86  C   UNL A   1      33.290  22.455  24.573  1.00  0.00     0.158 A 
ATOM     87  C   UNL A   1      32.867  21.143  24.652  1.00  0.00     0.078 A 
ATOM     88  N   UNL A   1      34.577  22.834  24.759  1.00  0.00    -0.209 NA
ATOM     89  C   UNL A   1      33.852  20.206  24.888  1.00  0.00     0.077 A 
ATOM     90  C   UNL A   1      35.438  21.853  25.078  1.00  0.00     0.165 A 
ATOM     91  N   UNL A   1      35.131  20.547  25.147  1.00  0.00    -0.228 NA
BRANCH  89  92
ATOM     92  C   UNL A   1      33.593  18.765  24.807  1.00  0.00     0.003 A 
ATOM     93  C   UNL A   1      34.356  17.945  23.964  1.00  0.00     0.030 A 
ATOM     94  C   UNL A   1      32.609  18.160  25.594  1.00  0.00     0.030 A 
ATOM     95  C   UNL A   1      34.103  16.583  23.944  1.00  0.00     0.111 A 
ATOM     96  C   UNL A   1      32.424  16.791  25.497  1.00  0.00     0.111 A 
ATOM     97  N   UNL A   1      33.152  15.988  24.692  1.00  0.00    -0.265 NA
ENDBRANCH  89  92
BRANCH  90  98
ATOM     98  C   UNL A   1      36.774  22.244  25.507  1.00  0.00     0.055 A 
ATOM     99  C   UNL A   1      37.020  23.532  26.018  1.00  0.00     0.015 A 
ATOM    100  C   UNL A   1      37.844  21.347  25.456  1.00  0.00     0.134 A 
ATOM    101  C   UNL A   1      38.292  23.896  26.471  1.00  0.00     0.001 A 
ATOM    102  C   UNL A   1      39.118  21.706  25.898  1.00  0.00     0.040 A 
ATOM    103  F   UNL A   1      37.671  20.112  24.959  1.00  0.00    -0.206 F 
ATOM    104  C   UNL A   1      39.342  22.982  26.412  1.00  0.00     0.003 A 
ENDBRANCH  90  98
ENDBRANCH  85  86
ENDBRANCH  78  81
ENDBRANCH  76  77
ENDBRANCH  75  76
ENDBRANCH   1  75
TORSDOF 17
ENDMDL
MODEL 3
REMARK VINA RESULT:     -13.9      1.514      3.418
REMARK SMILES O=C(NCCCCNC(=O)c1ccn(-c2cc(-c3ccncc3)nc(-c3ccccc3F)n2)n1)c1ccc(-c2c3nc(c(-c4c(F)cc(S(=O)(=O)[O-])cc4F)c4ccc([nH]4)c(-c4c(F)cc(S(=O)(=O)[O-])cc4F)c4nc(c(-c5c(F)cc(S(=O)(=O)[O-])cc5F)c5ccc2[nH]5)C=C4)C=C3)cc1
REMARK SMILES IDX 5 1 4 2 3 3 1 4 2 5 35 7 36 8 100 9 37 10 99 11 38 12 39 13
REMARK SMILES IDX 40 14 93 15 41 16 98 17 92 18 94 19 42 20 97 21 91 22 90 23
REMARK SMILES IDX 43 25 77 26 56 27 76 28 57 29 60 30 75 31 95 32 58 33 59 34
REMARK SMILES IDX 74 36 96 37 61 38 44 39 45 40 54 41 46 42 47 43 53 44 55 45
REMARK SMILES IDX 48 46 49 47 50 48 51 49 52 50 78 51 79 52 88 53 80 54 81 55
REMARK SMILES IDX 87 56 89 57 82 58 83 59 84 60 85 61 86 62 62 63 63 64 72 65
REMARK SMILES IDX 64 66 65 67 71 68 73 69 66 70 67 71 68 72 69 73 70 74 6 75
REMARK SMILES IDX 7 76 8 77 9 78 10 80 11 81 12 82 34 83 13 84 14 85 15 86
REMARK SMILES IDX 16 87 33 88 17 89 25 90 24 91 18 92 19 93 23 94 20 95 22 96
REMARK SMILES IDX 21 97 26 98 27 99 31 100 28 101 30 102 32 103 29 104
REMARK H PARENT 3 6 94 24 60 35 8 79
REMARK Flexibility Score: inf
ROOT
ATOM      1  C   UNL A   1      35.488  23.576  26.144  1.00  0.00     0.023 C 
ENDROOT
BRANCH   1   2
ATOM      2  C   UNL A   1      36.576  23.825  25.100  1.00  0.00     0.116 C 
BRANCH   2   3
ATOM      3  N   UNL A   1      37.803  23.093  25.333  1.00  0.00    -0.352 N 
ATOM      4  O   UNL A   1      39.645  22.257  26.183  1.00  0.00    -0.269 OA
ATOM      5  C   UNL A   1      38.879  23.227  26.166  1.00  0.00     0.251 C 
ATOM      6  H   UNL A   1      37.883  22.306  24.747  1.00  0.00     0.163 HD
BRANCH   5   7
ATOM      7  C   UNL A   1      39.221  24.423  26.990  1.00  0.00     0.039 A 
ATOM      8  C   UNL A   1      38.819  24.673  28.302  1.00  0.00     0.014 A 
ATOM      9  C   UNL A   1      40.001  25.403  26.339  1.00  0.00     0.014 A 
ATOM     10  C   UNL A   1      39.137  25.890  28.918  1.00  0.00     0.010 A 
ATOM     11  C   UNL A   1      40.317  26.617  26.948  1.00  0.00     0.010 A 
ATOM     12  C   UNL A   1      39.858  26.878  28.233  1.00  0.00    -0.014 A 
BRANCH  12  13
ATOM     13  C   UNL A   1      40.232  28.108  28.941  1.00  0.00     0.031 A 
ATOM     14  C   UNL A   1      41.535  28.706  28.514  1.00  0.00     0.074 A 
ATOM     15  C   UNL A   1      39.442  28.777  29.810  1.00  0.00     0.049 A 
ATOM     16  N   UNL A   1      42.613  28.863  29.213  1.00  0.00    -0.248 NA
ATOM     17  C   UNL A   1      41.683  29.090  27.101  1.00  0.00     0.031 C 
ATOM     18  C   UNL A   1      38.033  28.540  30.136  1.00  0.00     0.029 A 
ATOM     19  N   UNL A   1      39.735  29.892  30.545  1.00  0.00    -0.354 N 
ATOM     20  C   UNL A   1      43.523  29.523  28.387  1.00  0.00     0.074 A 
ATOM     21  C   UNL A   1      42.942  29.527  27.069  1.00  0.00     0.031 C 
ATOM     22  C   UNL A   1      37.546  29.594  30.835  1.00  0.00     0.029 A 
ATOM     23  C   UNL A   1      38.636  30.507  31.138  1.00  0.00     0.049 A 
ATOM     24  H   UNL A   1      40.653  30.233  30.648  1.00  0.00     0.167 HD
ATOM     25  C   UNL A   1      44.625  30.161  28.875  1.00  0.00     0.037 A 
ATOM     26  C   UNL A   1      38.622  31.692  31.806  1.00  0.00     0.037 A 
ATOM     27  C   UNL A   1      44.923  29.751  30.219  1.00  0.00     0.049 A 
ATOM     28  C   UNL A   1      40.013  31.953  32.252  1.00  0.00     0.074 A 
ATOM     29  C   UNL A   1      45.284  28.557  30.809  1.00  0.00     0.029 A 
ATOM     30  N   UNL A   1      44.523  30.568  31.247  1.00  0.00    -0.354 N 
ATOM     31  N   UNL A   1      40.650  31.235  33.136  1.00  0.00    -0.248 NA
ATOM     32  C   UNL A   1      40.848  32.779  31.395  1.00  0.00     0.031 C 
ATOM     33  C   UNL A   1      44.610  28.550  32.064  1.00  0.00     0.029 A 
ATOM     34  C   UNL A   1      43.931  29.764  32.187  1.00  0.00     0.049 A 
ATOM     35  H   UNL A   1      44.637  31.545  31.298  1.00  0.00     0.167 HD
ATOM     36  C   UNL A   1      41.957  31.190  32.677  1.00  0.00     0.074 A 
ATOM     37  C   UNL A   1      42.035  32.224  31.648  1.00  0.00     0.031 C 
ATOM     38  C   UNL A   1      42.785  30.150  32.983  1.00  0.00     0.037 A 
BRANCH  25  39
ATOM     39  C   UNL A   1      45.275  31.365  28.239  1.00  0.00     0.058 A 
ATOM     40  C   UNL A   1      46.420  31.277  27.419  1.00  0.00     0.135 A 
ATOM     41  C   UNL A   1      44.605  32.607  28.217  1.00  0.00     0.135 A 
ATOM     42  F   UNL A   1      47.089  30.127  27.262  1.00  0.00    -0.206 F 
ATOM     43  C   UNL A   1      46.879  32.339  26.649  1.00  0.00     0.059 A 
ATOM     44  C   UNL A   1      45.019  33.671  27.413  1.00  0.00     0.059 A 
ATOM     45  F   UNL A   1      43.487  32.793  28.939  1.00  0.00    -0.206 F 
ATOM     46  C   UNL A   1      46.160  33.525  26.630  1.00  0.00     0.060 A 
BRANCH  46  47
ATOM     47  S   UNL A   1      46.700  34.822  25.500  1.00  0.00     0.124 S 
ATOM     48  O   UNL A   1      48.108  34.483  25.320  1.00  0.00    -0.237 OA
ATOM     49  O   UNL A   1      45.838  34.592  24.345  1.00  0.00    -0.237 OA
ATOM     50  O   UNL A   1      46.437  36.049  26.243  1.00  0.00    -0.744 OA
ENDBRANCH  46  47
ENDBRANCH  25  39
BRANCH  26  51
ATOM     51  C   UNL A   1      37.605  32.783  31.757  1.00  0.00     0.058 A 
ATOM     52  C   UNL A   1      36.835  33.112  32.889  1.00  0.00     0.135 A 
ATOM     53  C   UNL A   1      37.143  33.296  30.528  1.00  0.00     0.135 A 
ATOM     54  F   UNL A   1      37.161  32.643  34.104  1.00  0.00    -0.206 F 
ATOM     55  C   UNL A   1      35.652  33.846  32.804  1.00  0.00     0.059 A 
ATOM     56  C   UNL A   1      35.956  34.033  30.416  1.00  0.00     0.059 A 
ATOM     57  F   UNL A   1      37.803  33.020  29.392  1.00  0.00    -0.206 F 
ATOM     58  C   UNL A   1      35.200  34.274  31.559  1.00  0.00     0.060 A 
BRANCH  58  59
ATOM     59  S   UNL A   1      33.575  35.065  31.470  1.00  0.00     0.124 S 
ATOM     60  O   UNL A   1      32.860  34.401  32.557  1.00  0.00    -0.237 OA
ATOM     61  O   UNL A   1      33.905  36.468  31.698  1.00  0.00    -0.237 OA
ATOM     62  O   UNL A   1      33.110  34.744  30.125  1.00  0.00    -0.744 OA
ENDBRANCH  58  59
ENDBRANCH  26  51
BRANCH  38  63
ATOM     63  C   UNL A   1      42.374  29.182  34.063  1.00  0.00     0.058 A 
ATOM     64  C   UNL A   1      42.995  29.305  35.315  1.00  0.00     0.135 A 
ATOM     65  C   UNL A   1      41.579  28.040  33.848  1.00  0.00     0.135 A 
ATOM     66  F   UNL A   1      43.799  30.351  35.567  1.00  0.00    -0.206 F 
ATOM     67  C   UNL A   1      42.873  28.328  36.297  1.00  0.00     0.059 A 
ATOM     68  C   UNL A   1      41.416  27.062  34.834  1.00  0.00     0.059 A 
ATOM     69  F   UNL A   1      41.015  27.808  32.655  1.00  0.00    -0.206 F 
ATOM     70  C   UNL A   1      42.092  27.203  36.046  1.00  0.00     0.060 A 
BRANCH  70  71
ATOM     71  S   UNL A   1      42.031  25.912  37.307  1.00  0.00     0.124 S 
ATOM     72  O   UNL A   1      42.479  24.741  36.559  1.00  0.00    -0.237 OA
ATOM     73  O   UNL A   1      42.964  26.412  38.311  1.00  0.00    -0.237 OA
ATOM     74  O   UNL A   1      40.630  25.889  37.716  1.00  0.00    -0.744 OA
ENDBRANCH  70  71
ENDBRANCH  38  63
ENDBRANCH  12  13
ENDBRANCH   5   7
ENDBRANCH   2   3
ENDBRANCH   1   2
BRANCH   1  75
ATOM     75  C   UNL A   1      35.041  22.114  26.310  1.00  0.00     0.023 C 
BRANCH  75  76
ATOM     76  C   UNL A   1      33.714  21.736  25.649  1.00  0.00     0.116 C 
BRANCH  76  77
ATOM     77  N   UNL A   1      32.614  21.734  26.592  1.00  0.00    -0.351 N 
ATOM     78  C   UNL A   1      31.638  22.684  26.789  1.00  0.00     0.271 C 
ATOM     79  H   UNL A   1      32.556  20.941  27.173  1.00  0.00     0.163 HD
ATOM     80  O   UNL A   1      30.868  22.549  27.736  1.00  0.00    -0.267 OA
BRANCH  78  81
ATOM     81  C   UNL A   1      31.502  23.783  25.824  1.00  0.00     0.150 A 
ATOM     82  C   UNL A   1      30.852  23.735  24.563  1.00  0.00     0.056 A 
ATOM     83  N   UNL A   1      31.936  25.030  26.093  1.00  0.00    -0.161 NA
ATOM     84  C   UNL A   1      30.778  25.042  24.148  1.00  0.00     0.118 A 
ATOM     85  N   UNL A   1      31.402  25.799  25.112  1.00  0.00    -0.222 N 
BRANCH  85  86
ATOM     86  C   UNL A   1      31.482  27.221  25.139  1.00  0.00     0.158 A 
ATOM     87  C   UNL A   1      32.323  27.817  26.057  1.00  0.00     0.078 A 
ATOM     88  N   UNL A   1      30.736  27.919  24.249  1.00  0.00    -0.209 NA
ATOM     89  C   UNL A   1      32.407  29.192  25.992  1.00  0.00     0.077 A 
ATOM     90  C   UNL A   1      30.821  29.257  24.334  1.00  0.00     0.165 A 
ATOM     91  N   UNL A   1      31.632  29.928  25.169  1.00  0.00    -0.228 NA
BRANCH  89  92
ATOM     92  C   UNL A   1      33.396  29.951  26.764  1.00  0.00     0.003 A 
ATOM     93  C   UNL A   1      34.659  29.411  27.043  1.00  0.00     0.030 A 
ATOM     94  C   UNL A   1      33.125  31.248  27.212  1.00  0.00     0.030 A 
ATOM     95  C   UNL A   1      35.576  30.175  27.745  1.00  0.00     0.111 A 
ATOM     96  C   UNL A   1      34.104  31.929  27.916  1.00  0.00     0.111 A 
ATOM     97  N   UNL A   1      35.325  31.424  28.189  1.00  0.00    -0.265 NA
ENDBRANCH  89  92
BRANCH  90  98
ATOM     98  C   UNL A   1      29.872  30.043  23.558  1.00  0.00     0.055 A 
ATOM     99  C   UNL A   1      29.286  31.205  24.095  1.00  0.00     0.015 A 
ATOM    100  C   UNL A   1      29.536  29.687  22.249  1.00  0.00     0.134 A 
ATOM    101  C   UNL A   1      28.407  31.985  23.336  1.00  0.00     0.001 A 
ATOM    102  C   UNL A   1      28.653  30.456  21.489  1.00  0.00     0.040 A 
ATOM    103  F   UNL A   1      30.048  28.578  21.694  1.00  0.00    -0.206 F 
ATOM    104  C   UNL A   1      28.091  31.610  22.031  1.00  0.00     0.003 A 
ENDBRANCH  90  98
ENDBRANCH  85  86
ENDBRANCH  78  81
ENDBRANCH  76  77
ENDBRANCH  75  76
ENDBRANCH   1  75
TORSDOF 17
ENDMDL
