MODEL 1
REMARK VINA RESULT:     -12.2      0.000      0.000
REMARK SMILES Cc1nc(C(=O)N2C[C@@H]3CC[N@@H+](C)C[C@]3(C(=O)NCCCCNC(=O)c3ccc(-c4c5nc(c(-c6c(F)cc(S(=O)(=O)[O-])cc6F)c6ccc([nH]6)c(-c6c(F)cc(S(=O)(=O)[O-])cc6F)c6nc(c(-c7c(F)cc(S(=O)(=O)[O-])cc7F)c7ccc4[nH]7)C=C6)C=C5)cc3)C2)cs1
REMARK SMILES IDX 21 1 20 2 19 3 18 4 16 5 17 6 15 8 7 9 8 10 92 11 9 12 10 13
REMARK SMILES IDX 14 14 11 15 12 16 13 17 5 19 6 20 4 21 1 22 2 23 3 24 94 25
REMARK SMILES IDX 93 26 22 27 23 28 24 29 25 31 26 32 27 33 91 34 28 35 90 36
REMARK SMILES IDX 29 37 30 38 31 39 84 40 32 41 89 42 83 43 85 44 33 45 88 46
REMARK SMILES IDX 82 47 81 48 34 50 68 51 47 52 67 53 48 54 51 55 66 56 86 57
REMARK SMILES IDX 49 58 50 59 65 61 87 62 52 63 35 64 36 65 45 66 37 67 38 68
REMARK SMILES IDX 44 69 46 70 39 71 40 72 41 73 42 74 43 75 69 76 70 77 79 78
REMARK SMILES IDX 71 79 72 80 78 81 80 82 73 83 74 84 75 85 76 86 77 87 53 88
REMARK SMILES IDX 54 89 63 90 55 91 56 92 62 93 64 94 57 95 58 96 59 97 60 98
REMARK SMILES IDX 61 99
REMARK H PARENT 18 7 12 18 23 30 85 49 51 60
REMARK Flexibility Score: inf
ROOT
ATOM      1  C   UNL A   1      33.717  28.633  27.254  1.00  0.00     0.023 C 
ENDROOT
BRANCH   1   2
ATOM      2  C   UNL A   1      33.532  28.000  25.872  1.00  0.00     0.023 C 
BRANCH   2   3
ATOM      3  C   UNL A   1      33.916  26.522  25.756  1.00  0.00     0.116 C 
BRANCH   3   4
ATOM      4  N   UNL A   1      34.161  25.950  24.424  1.00  0.00    -0.355 N 
ATOM      5  C   UNL A   1      33.383  25.237  23.531  1.00  0.00     0.234 C 
ATOM      6  O   UNL A   1      33.660  25.370  22.334  1.00  0.00    -0.274 OA
ATOM      7  H   UNL A   1      35.076  26.111  24.098  1.00  0.00     0.163 HD
BRANCH   5   8
ATOM      8  C   UNL A   1      32.336  24.209  23.999  1.00  0.00     0.120 C 
ATOM      9  N   UNL A   1      33.084  22.066  24.820  1.00  0.00    -0.336 N 
ATOM     10  C   UNL A   1      32.270  22.558  25.875  1.00  0.00     0.125 C 
ATOM     11  C   UNL A   1      32.888  22.825  23.602  1.00  0.00     0.143 C 
ATOM     12  C   UNL A   1      32.110  24.044  25.552  1.00  0.00     0.037 C 
ATOM     13  C   UNL A   1      30.716  24.450  26.049  1.00  0.00     0.068 C 
ATOM     14  C   UNL A   1      30.996  24.684  23.374  1.00  0.00     0.281 C 
ATOM     15  C   UNL A   1      30.321  25.800  25.501  1.00  0.00     0.262 C 
ATOM     16  N   UNL A   1      30.302  25.816  24.037  1.00  0.00    -0.336 N 
ATOM     17  C   UNL A   1      30.710  27.141  23.564  1.00  0.00     0.332 C 
ATOM     18  H   UNL A   1      29.338  25.652  23.746  1.00  0.00     0.347 HD
BRANCH   9  19
ATOM     19  C   UNL A   1      34.023  21.085  25.070  1.00  0.00     0.273 C 
ATOM     20  O   UNL A   1      33.689  19.946  25.395  1.00  0.00    -0.267 OA
BRANCH  19  21
ATOM     21  C   UNL A   1      35.429  21.515  25.120  1.00  0.00     0.139 A 
ATOM     22  C   UNL A   1      37.824  24.029  26.292  1.00  0.00     0.079 C 
ATOM     23  C   UNL A   1      37.103  22.858  25.718  1.00  0.00     0.090 A 
ATOM     24  N   UNL A   1      35.805  22.807  25.503  1.00  0.00    -0.236 NA
ATOM     25  S   UNL A   1      37.970  21.422  25.343  1.00  0.00    -0.127 S 
ATOM     26  C   UNL A   1      36.493  20.642  24.967  1.00  0.00     0.101 A 
ENDBRANCH  19  21
ENDBRANCH   9  19
ENDBRANCH   5   8
ENDBRANCH   3   4
ENDBRANCH   2   3
ENDBRANCH   1   2
BRANCH   1  27
ATOM     27  C   UNL A   1      35.061  29.320  27.493  1.00  0.00     0.116 C 
BRANCH  27  28
ATOM     28  N   UNL A   1      35.110  30.147  28.694  1.00  0.00    -0.352 N 
ATOM     29  C   UNL A   1      36.180  30.388  29.527  1.00  0.00     0.251 C 
ATOM     30  H   UNL A   1      34.267  30.592  28.942  1.00  0.00     0.163 HD
ATOM     31  O   UNL A   1      36.045  31.070  30.525  1.00  0.00    -0.269 OA
BRANCH  29  32
ATOM     32  C   UNL A   1      37.483  29.753  29.217  1.00  0.00     0.039 A 
ATOM     33  C   UNL A   1      37.942  29.776  27.897  1.00  0.00     0.014 A 
ATOM     34  C   UNL A   1      38.268  29.199  30.230  1.00  0.00     0.014 A 
ATOM     35  C   UNL A   1      39.232  29.326  27.610  1.00  0.00     0.010 A 
ATOM     36  C   UNL A   1      39.574  28.816  29.953  1.00  0.00     0.010 A 
ATOM     37  C   UNL A   1      40.074  28.888  28.643  1.00  0.00    -0.014 A 
BRANCH  37  38
ATOM     38  C   UNL A   1      41.487  28.511  28.391  1.00  0.00     0.031 A 
ATOM     39  C   UNL A   1      42.552  29.571  28.371  1.00  0.00     0.074 A 
ATOM     40  C   UNL A   1      41.793  27.235  28.082  1.00  0.00     0.049 A 
ATOM     41  N   UNL A   1      43.810  29.472  28.033  1.00  0.00    -0.248 NA
ATOM     42  C   UNL A   1      42.134  30.932  28.748  1.00  0.00     0.031 C 
ATOM     43  C   UNL A   1      40.838  26.126  28.018  1.00  0.00     0.029 A 
ATOM     44  N   UNL A   1      42.991  26.659  27.740  1.00  0.00    -0.354 N 
ATOM     45  C   UNL A   1      44.330  30.757  28.129  1.00  0.00     0.074 A 
ATOM     46  C   UNL A   1      43.240  31.626  28.518  1.00  0.00     0.031 C 
ATOM     47  C   UNL A   1      41.489  25.004  27.671  1.00  0.00     0.029 A 
ATOM     48  C   UNL A   1      42.897  25.318  27.452  1.00  0.00     0.049 A 
ATOM     49  H   UNL A   1      43.837  27.160  27.704  1.00  0.00     0.167 HD
ATOM     50  C   UNL A   1      45.603  31.172  27.929  1.00  0.00     0.037 A 
ATOM     51  C   UNL A   1      43.838  24.443  27.046  1.00  0.00     0.037 A 
ATOM     52  C   UNL A   1      46.689  30.296  27.582  1.00  0.00     0.049 A 
ATOM     53  C   UNL A   1      45.252  24.920  26.863  1.00  0.00     0.074 A 
ATOM     54  C   UNL A   1      48.028  30.607  27.417  1.00  0.00     0.029 A 
ATOM     55  N   UNL A   1      46.565  28.933  27.355  1.00  0.00    -0.354 N 
ATOM     56  N   UNL A   1      45.738  26.131  27.007  1.00  0.00    -0.248 NA
ATOM     57  C   UNL A   1      46.251  23.916  26.469  1.00  0.00     0.031 C 
ATOM     58  C   UNL A   1      48.709  29.437  27.065  1.00  0.00     0.029 A 
ATOM     59  C   UNL A   1      47.801  28.390  27.045  1.00  0.00     0.049 A 
ATOM     60  H   UNL A   1      45.723  28.426  27.407  1.00  0.00     0.167 HD
ATOM     61  C   UNL A   1      47.099  26.028  26.748  1.00  0.00     0.074 A 
ATOM     62  C   UNL A   1      47.363  24.636  26.442  1.00  0.00     0.031 C 
ATOM     63  C   UNL A   1      48.045  26.998  26.763  1.00  0.00     0.037 A 
BRANCH  50  64
ATOM     64  C   UNL A   1      45.885  32.638  28.088  1.00  0.00     0.058 A 
ATOM     65  C   UNL A   1      45.731  33.536  27.018  1.00  0.00     0.135 A 
ATOM     66  C   UNL A   1      46.296  33.158  29.326  1.00  0.00     0.135 A 
ATOM     67  F   UNL A   1      45.357  33.089  25.809  1.00  0.00    -0.206 F 
ATOM     68  C   UNL A   1      46.008  34.891  27.161  1.00  0.00     0.059 A 
ATOM     69  C   UNL A   1      46.553  34.514  29.498  1.00  0.00     0.059 A 
ATOM     70  F   UNL A   1      46.459  32.343  30.380  1.00  0.00    -0.206 F 
ATOM     71  C   UNL A   1      46.423  35.370  28.405  1.00  0.00     0.060 A 
BRANCH  71  72
ATOM     72  S   UNL A   1      46.787  37.130  28.575  1.00  0.00     0.124 S 
ATOM     73  O   UNL A   1      48.039  37.239  27.832  1.00  0.00    -0.237 OA
ATOM     74  O   UNL A   1      45.625  37.754  27.951  1.00  0.00    -0.237 OA
ATOM     75  O   UNL A   1      46.894  37.316  30.019  1.00  0.00    -0.744 OA
ENDBRANCH  71  72
ENDBRANCH  50  64
BRANCH  51  76
ATOM     76  C   UNL A   1      43.477  23.021  26.811  1.00  0.00     0.058 A 
ATOM     77  C   UNL A   1      43.449  22.494  25.510  1.00  0.00     0.135 A 
ATOM     78  C   UNL A   1      43.176  22.157  27.874  1.00  0.00     0.135 A 
ATOM     79  F   UNL A   1      43.726  23.284  24.462  1.00  0.00    -0.206 F 
ATOM     80  C   UNL A   1      43.120  21.164  25.270  1.00  0.00     0.059 A 
ATOM     81  C   UNL A   1      42.863  20.818  27.661  1.00  0.00     0.059 A 
ATOM     82  F   UNL A   1      43.208  22.609  29.137  1.00  0.00    -0.206 F 
ATOM     83  C   UNL A   1      42.829  20.333  26.354  1.00  0.00     0.060 A 
BRANCH  83  84
ATOM     84  S   UNL A   1      42.456  18.594  26.036  1.00  0.00     0.124 S 
ATOM     85  O   UNL A   1      41.028  18.651  25.743  1.00  0.00    -0.237 OA
ATOM     86  O   UNL A   1      43.329  18.292  24.906  1.00  0.00    -0.237 OA
ATOM     87  O   UNL A   1      42.819  17.942  27.291  1.00  0.00    -0.744 OA
ENDBRANCH  83  84
ENDBRANCH  51  76
BRANCH  63  88
ATOM     88  C   UNL A   1      49.463  26.589  26.483  1.00  0.00     0.058 A 
ATOM     89  C   UNL A   1      50.259  25.979  27.464  1.00  0.00     0.135 A 
ATOM     90  C   UNL A   1      50.004  26.744  25.197  1.00  0.00     0.135 A 
ATOM     91  F   UNL A   1      49.788  25.815  28.711  1.00  0.00    -0.206 F 
ATOM     92  C   UNL A   1      51.549  25.544  27.181  1.00  0.00     0.059 A 
ATOM     93  C   UNL A   1      51.283  26.298  24.887  1.00  0.00     0.059 A 
ATOM     94  F   UNL A   1      49.277  27.316  24.223  1.00  0.00    -0.206 F 
ATOM     95  C   UNL A   1      52.052  25.704  25.888  1.00  0.00     0.060 A 
BRANCH  95  96
ATOM     96  S   UNL A   1      53.708  25.087  25.516  1.00  0.00     0.124 S 
ATOM     97  O   UNL A   1      54.456  25.534  26.686  1.00  0.00    -0.237 OA
ATOM     98  O   UNL A   1      53.490  23.648  25.413  1.00  0.00    -0.237 OA
ATOM     99  O   UNL A   1      54.044  25.754  24.262  1.00  0.00    -0.744 OA
ENDBRANCH  95  96
ENDBRANCH  63  88
ENDBRANCH  37  38
ENDBRANCH  29  32
ENDBRANCH  27  28
ENDBRANCH   1  27
TORSDOF 16
ENDMDL
MODEL 2
REMARK VINA RESULT:     -12.2      6.633     11.898
REMARK SMILES Cc1nc(C(=O)N2C[C@@H]3CC[N@@H+](C)C[C@]3(C(=O)NCCCCNC(=O)c3ccc(-c4c5nc(c(-c6c(F)cc(S(=O)(=O)[O-])cc6F)c6ccc([nH]6)c(-c6c(F)cc(S(=O)(=O)[O-])cc6F)c6nc(c(-c7c(F)cc(S(=O)(=O)[O-])cc7F)c7ccc4[nH]7)C=C6)C=C5)cc3)C2)cs1
REMARK SMILES IDX 21 1 20 2 19 3 18 4 16 5 17 6 15 8 7 9 8 10 92 11 9 12 10 13
REMARK SMILES IDX 14 14 11 15 12 16 13 17 5 19 6 20 4 21 1 22 2 23 3 24 94 25
REMARK SMILES IDX 93 26 22 27 23 28 24 29 25 31 26 32 27 33 91 34 28 35 90 36
REMARK SMILES IDX 29 37 30 38 31 39 84 40 32 41 89 42 83 43 85 44 33 45 88 46
REMARK SMILES IDX 82 47 81 48 34 50 68 51 47 52 67 53 48 54 51 55 66 56 86 57
REMARK SMILES IDX 49 58 50 59 65 61 87 62 52 63 35 64 36 65 45 66 37 67 38 68
REMARK SMILES IDX 44 69 46 70 39 71 40 72 41 73 42 74 43 75 69 76 70 77 79 78
REMARK SMILES IDX 71 79 72 80 78 81 80 82 73 83 74 84 75 85 76 86 77 87 53 88
REMARK SMILES IDX 54 89 63 90 55 91 56 92 62 93 64 94 57 95 58 96 59 97 60 98
REMARK SMILES IDX 61 99
REMARK H PARENT 18 7 12 18 23 30 85 49 51 60
REMARK Flexibility Score: inf
ROOT
ATOM      1  C   UNL A   1      37.464  23.595  25.359  1.00  0.00     0.023 C 
ENDROOT
BRANCH   1   2
ATOM      2  C   UNL A   1      35.979  23.496  25.722  1.00  0.00     0.023 C 
BRANCH   2   3
ATOM      3  C   UNL A   1      35.101  24.666  25.269  1.00  0.00     0.116 C 
BRANCH   3   4
ATOM      4  N   UNL A   1      34.454  24.604  23.950  1.00  0.00    -0.355 N 
ATOM      5  C   UNL A   1      33.545  25.409  23.291  1.00  0.00     0.234 C 
ATOM      6  O   UNL A   1      33.608  25.413  22.057  1.00  0.00    -0.274 OA
ATOM      7  H   UNL A   1      34.729  23.819  23.423  1.00  0.00     0.163 HD
BRANCH   5   8
ATOM      8  C   UNL A   1      32.410  26.138  24.035  1.00  0.00     0.120 C 
ATOM      9  N   UNL A   1      31.179  24.957  25.742  1.00  0.00    -0.336 N 
ATOM     10  C   UNL A   1      31.628  26.127  26.409  1.00  0.00     0.125 C 
ATOM     11  C   UNL A   1      31.325  25.077  24.306  1.00  0.00     0.143 C 
ATOM     12  C   UNL A   1      32.712  26.684  25.484  1.00  0.00     0.037 C 
ATOM     13  C   UNL A   1      32.661  28.212  25.624  1.00  0.00     0.068 C 
ATOM     14  C   UNL A   1      32.055  27.355  23.136  1.00  0.00     0.281 C 
ATOM     15  C   UNL A   1      33.456  28.878  24.528  1.00  0.00     0.262 C 
ATOM     16  N   UNL A   1      32.960  28.530  23.196  1.00  0.00    -0.336 N 
ATOM     17  C   UNL A   1      34.086  28.478  22.260  1.00  0.00     0.332 C 
ATOM     18  H   UNL A   1      32.330  29.276  22.903  1.00  0.00     0.347 HD
BRANCH   9  19
ATOM     19  C   UNL A   1      30.815  23.843  26.470  1.00  0.00     0.273 C 
ATOM     20  O   UNL A   1      29.787  23.827  27.148  1.00  0.00    -0.267 OA
BRANCH  19  21
ATOM     21  C   UNL A   1      31.801  22.755  26.551  1.00  0.00     0.139 A 
ATOM     22  C   UNL A   1      33.740  20.236  24.727  1.00  0.00     0.079 C 
ATOM     23  C   UNL A   1      33.116  21.163  25.712  1.00  0.00     0.090 A 
ATOM     24  N   UNL A   1      32.021  21.861  25.497  1.00  0.00    -0.236 NA
ATOM     25  S   UNL A   1      33.869  21.424  27.235  1.00  0.00    -0.127 S 
ATOM     26  C   UNL A   1      32.709  22.631  27.589  1.00  0.00     0.101 A 
ENDBRANCH  19  21
ENDBRANCH   9  19
ENDBRANCH   5   8
ENDBRANCH   3   4
ENDBRANCH   2   3
ENDBRANCH   1   2
BRANCH   1  27
ATOM     27  C   UNL A   1      38.373  24.167  26.445  1.00  0.00     0.116 C 
BRANCH  27  28
ATOM     28  N   UNL A   1      39.794  23.900  26.244  1.00  0.00    -0.352 N 
ATOM     29  C   UNL A   1      40.876  24.571  26.768  1.00  0.00     0.251 C 
ATOM     30  H   UNL A   1      40.007  23.140  25.656  1.00  0.00     0.163 HD
ATOM     31  O   UNL A   1      42.009  24.251  26.463  1.00  0.00    -0.269 OA
BRANCH  29  32
ATOM     32  C   UNL A   1      40.633  25.727  27.664  1.00  0.00     0.039 A 
ATOM     33  C   UNL A   1      39.664  25.608  28.664  1.00  0.00     0.014 A 
ATOM     34  C   UNL A   1      41.399  26.890  27.555  1.00  0.00     0.014 A 
ATOM     35  C   UNL A   1      39.529  26.621  29.615  1.00  0.00     0.010 A 
ATOM     36  C   UNL A   1      41.310  27.864  28.541  1.00  0.00     0.010 A 
ATOM     37  C   UNL A   1      40.383  27.734  29.588  1.00  0.00    -0.014 A 
BRANCH  37  38
ATOM     38  C   UNL A   1      40.345  28.773  30.647  1.00  0.00     0.031 A 
ATOM     39  C   UNL A   1      41.233  28.645  31.853  1.00  0.00     0.074 A 
ATOM     40  C   UNL A   1      39.442  29.771  30.571  1.00  0.00     0.049 A 
ATOM     41  N   UNL A   1      41.250  29.362  32.946  1.00  0.00    -0.248 NA
ATOM     42  C   UNL A   1      42.207  27.542  31.840  1.00  0.00     0.031 C 
ATOM     43  C   UNL A   1      38.490  29.972  29.475  1.00  0.00     0.029 A 
ATOM     44  N   UNL A   1      39.161  30.792  31.443  1.00  0.00    -0.354 N 
ATOM     45  C   UNL A   1      42.214  28.782  33.762  1.00  0.00     0.074 A 
ATOM     46  C   UNL A   1      42.731  27.631  33.054  1.00  0.00     0.031 C 
ATOM     47  C   UNL A   1      37.740  31.055  29.736  1.00  0.00     0.029 A 
ATOM     48  C   UNL A   1      38.131  31.604  31.031  1.00  0.00     0.049 A 
ATOM     49  H   UNL A   1      39.652  30.931  32.285  1.00  0.00     0.167 HD
ATOM     50  C   UNL A   1      42.641  29.184  34.983  1.00  0.00     0.037 A 
ATOM     51  C   UNL A   1      37.558  32.664  31.633  1.00  0.00     0.037 A 
ATOM     52  C   UNL A   1      42.151  30.353  35.662  1.00  0.00     0.049 A 
ATOM     53  C   UNL A   1      38.072  33.112  32.974  1.00  0.00     0.074 A 
ATOM     54  C   UNL A   1      42.562  30.880  36.874  1.00  0.00     0.029 A 
ATOM     55  N   UNL A   1      41.146  31.182  35.185  1.00  0.00    -0.354 N 
ATOM     56  N   UNL A   1      39.019  32.582  33.710  1.00  0.00    -0.248 NA
ATOM     57  C   UNL A   1      37.446  34.304  33.565  1.00  0.00     0.031 C 
ATOM     58  C   UNL A   1      41.788  32.015  37.142  1.00  0.00     0.029 A 
ATOM     59  C   UNL A   1      40.919  32.213  36.081  1.00  0.00     0.049 A 
ATOM     60  H   UNL A   1      40.666  31.056  34.335  1.00  0.00     0.167 HD
ATOM     61  C   UNL A   1      39.122  33.390  34.836  1.00  0.00     0.074 A 
ATOM     62  C   UNL A   1      38.143  34.447  34.683  1.00  0.00     0.031 C 
ATOM     63  C   UNL A   1      39.953  33.267  35.900  1.00  0.00     0.037 A 
BRANCH  50  64
ATOM     64  C   UNL A   1      43.696  28.352  35.654  1.00  0.00     0.058 A 
ATOM     65  C   UNL A   1      43.360  27.326  36.552  1.00  0.00     0.135 A 
ATOM     66  C   UNL A   1      45.057  28.569  35.384  1.00  0.00     0.135 A 
ATOM     67  F   UNL A   1      42.075  27.089  36.858  1.00  0.00    -0.206 F 
ATOM     68  C   UNL A   1      44.338  26.566  37.185  1.00  0.00     0.059 A 
ATOM     69  C   UNL A   1      46.050  27.804  35.986  1.00  0.00     0.059 A 
ATOM     70  F   UNL A   1      45.431  29.538  34.533  1.00  0.00    -0.206 F 
ATOM     71  C   UNL A   1      45.682  26.816  36.899  1.00  0.00     0.060 A 
BRANCH  71  72
ATOM     72  S   UNL A   1      46.941  25.829  37.735  1.00  0.00     0.124 S 
ATOM     73  O   UNL A   1      47.741  25.367  36.605  1.00  0.00    -0.237 OA
ATOM     74  O   UNL A   1      47.582  26.807  38.607  1.00  0.00    -0.237 OA
ATOM     75  O   UNL A   1      46.164  24.799  38.418  1.00  0.00    -0.744 OA
ENDBRANCH  71  72
ENDBRANCH  50  64
BRANCH  51  76
ATOM     76  C   UNL A   1      36.449  33.391  30.961  1.00  0.00     0.058 A 
ATOM     77  C   UNL A   1      35.134  33.299  31.445  1.00  0.00     0.135 A 
ATOM     78  C   UNL A   1      36.680  34.203  29.841  1.00  0.00     0.135 A 
ATOM     79  F   UNL A   1      34.866  32.530  32.511  1.00  0.00    -0.206 F 
ATOM     80  C   UNL A   1      34.084  33.976  30.834  1.00  0.00     0.059 A 
ATOM     81  C   UNL A   1      35.649  34.906  29.224  1.00  0.00     0.059 A 
ATOM     82  F   UNL A   1      37.922  34.337  29.352  1.00  0.00    -0.206 F 
ATOM     83  C   UNL A   1      34.353  34.779  29.723  1.00  0.00     0.060 A 
BRANCH  83  84
ATOM     84  S   UNL A   1      32.993  35.697  28.969  1.00  0.00     0.124 S 
ATOM     85  O   UNL A   1      33.707  36.777  28.296  1.00  0.00    -0.237 OA
ATOM     86  O   UNL A   1      32.386  34.694  28.100  1.00  0.00    -0.237 OA
ATOM     87  O   UNL A   1      32.182  36.094  30.117  1.00  0.00    -0.744 OA
ENDBRANCH  83  84
ENDBRANCH  51  76
BRANCH  63  88
ATOM     88  C   UNL A   1      39.875  34.323  36.966  1.00  0.00     0.058 A 
ATOM     89  C   UNL A   1      40.536  35.553  36.831  1.00  0.00     0.135 A 
ATOM     90  C   UNL A   1      39.071  34.127  38.099  1.00  0.00     0.135 A 
ATOM     91  F   UNL A   1      41.323  35.785  35.769  1.00  0.00    -0.206 F 
ATOM     92  C   UNL A   1      40.409  36.551  37.791  1.00  0.00     0.059 A 
ATOM     93  C   UNL A   1      38.913  35.119  39.061  1.00  0.00     0.059 A 
ATOM     94  F   UNL A   1      38.412  32.969  38.268  1.00  0.00    -0.206 F 
ATOM     95  C   UNL A   1      39.592  36.326  38.901  1.00  0.00     0.060 A 
BRANCH  95  96
ATOM     96  S   UNL A   1      39.390  37.649  40.114  1.00  0.00     0.124 S 
ATOM     97  O   UNL A   1      38.253  38.379  39.564  1.00  0.00    -0.237 OA
ATOM     98  O   UNL A   1      39.134  36.909  41.346  1.00  0.00    -0.237 OA
ATOM     99  O   UNL A   1      40.670  38.350  40.067  1.00  0.00    -0.744 OA
ENDBRANCH  95  96
ENDBRANCH  63  88
ENDBRANCH  37  38
ENDBRANCH  29  32
ENDBRANCH  27  28
ENDBRANCH   1  27
TORSDOF 16
ENDMDL
MODEL 3
REMARK VINA RESULT:     -12.0      6.699     12.058
REMARK SMILES Cc1nc(C(=O)N2C[C@@H]3CC[N@@H+](C)C[C@]3(C(=O)NCCCCNC(=O)c3ccc(-c4c5nc(c(-c6c(F)cc(S(=O)(=O)[O-])cc6F)c6ccc([nH]6)c(-c6c(F)cc(S(=O)(=O)[O-])cc6F)c6nc(c(-c7c(F)cc(S(=O)(=O)[O-])cc7F)c7ccc4[nH]7)C=C6)C=C5)cc3)C2)cs1
REMARK SMILES IDX 21 1 20 2 19 3 18 4 16 5 17 6 15 8 7 9 8 10 92 11 9 12 10 13
REMARK SMILES IDX 14 14 11 15 12 16 13 17 5 19 6 20 4 21 1 22 2 23 3 24 94 25
REMARK SMILES IDX 93 26 22 27 23 28 24 29 25 31 26 32 27 33 91 34 28 35 90 36
REMARK SMILES IDX 29 37 30 38 31 39 84 40 32 41 89 42 83 43 85 44 33 45 88 46
REMARK SMILES IDX 82 47 81 48 34 50 68 51 47 52 67 53 48 54 51 55 66 56 86 57
REMARK SMILES IDX 49 58 50 59 65 61 87 62 52 63 35 64 36 65 45 66 37 67 38 68
REMARK SMILES IDX 44 69 46 70 39 71 40 72 41 73 42 74 43 75 69 76 70 77 79 78
REMARK SMILES IDX 71 79 72 80 78 81 80 82 73 83 74 84 75 85 76 86 77 87 53 88
REMARK SMILES IDX 54 89 63 90 55 91 56 92 62 93 64 94 57 95 58 96 59 97 60 98
REMARK SMILES IDX 61 99
REMARK H PARENT 18 7 12 18 23 30 85 49 51 60
REMARK Flexibility Score: inf
ROOT
ATOM      1  C   UNL A   1      37.350  23.159  26.125  1.00  0.00     0.023 C 
ENDROOT
BRANCH   1   2
ATOM      2  C   UNL A   1      37.233  22.530  24.733  1.00  0.00     0.023 C 
BRANCH   2   3
ATOM      3  C   UNL A   1      36.545  23.387  23.667  1.00  0.00     0.116 C 
BRANCH   3   4
ATOM      4  N   UNL A   1      35.210  22.997  23.191  1.00  0.00    -0.355 N 
ATOM      5  C   UNL A   1      33.937  23.495  23.396  1.00  0.00     0.234 C 
ATOM      6  O   UNL A   1      33.125  23.323  22.480  1.00  0.00    -0.274 OA
ATOM      7  H   UNL A   1      35.226  22.211  22.597  1.00  0.00     0.163 HD
BRANCH   5   8
ATOM      8  C   UNL A   1      33.500  24.088  24.749  1.00  0.00     0.120 C 
ATOM      9  N   UNL A   1      33.352  26.485  24.985  1.00  0.00    -0.336 N 
ATOM     10  C   UNL A   1      32.067  26.034  25.388  1.00  0.00     0.125 C 
ATOM     11  C   UNL A   1      34.301  25.393  24.923  1.00  0.00     0.143 C 
ATOM     12  C   UNL A   1      32.011  24.590  24.885  1.00  0.00     0.037 C 
ATOM     13  C   UNL A   1      31.154  23.812  25.893  1.00  0.00     0.068 C 
ATOM     14  C   UNL A   1      33.708  22.942  25.778  1.00  0.00     0.281 C 
ATOM     15  C   UNL A   1      31.293  22.324  25.679  1.00  0.00     0.262 C 
ATOM     16  N   UNL A   1      32.679  21.874  25.820  1.00  0.00    -0.336 N 
ATOM     17  C   UNL A   1      32.921  20.760  24.900  1.00  0.00     0.332 C 
ATOM     18  H   UNL A   1      32.791  21.534  26.776  1.00  0.00     0.347 HD
BRANCH   9  19
ATOM     19  C   UNL A   1      33.529  27.791  24.574  1.00  0.00     0.273 C 
ATOM     20  O   UNL A   1      34.089  28.059  23.512  1.00  0.00    -0.267 OA
BRANCH  19  21
ATOM     21  C   UNL A   1      33.193  28.841  25.549  1.00  0.00     0.139 A 
ATOM     22  C   UNL A   1      34.446  31.236  28.024  1.00  0.00     0.079 C 
ATOM     23  C   UNL A   1      33.663  30.395  27.075  1.00  0.00     0.090 A 
ATOM     24  N   UNL A   1      34.105  29.291  26.510  1.00  0.00    -0.236 NA
ATOM     25  S   UNL A   1      32.085  30.884  26.603  1.00  0.00    -0.127 S 
ATOM     26  C   UNL A   1      32.029  29.587  25.487  1.00  0.00     0.101 A 
ENDBRANCH  19  21
ENDBRANCH   9  19
ENDBRANCH   5   8
ENDBRANCH   3   4
ENDBRANCH   2   3
ENDBRANCH   1   2
BRANCH   1  27
ATOM     27  C   UNL A   1      38.350  24.308  26.250  1.00  0.00     0.116 C 
BRANCH  27  28
ATOM     28  N   UNL A   1      39.749  23.896  26.205  1.00  0.00    -0.352 N 
ATOM     29  C   UNL A   1      40.829  24.452  26.854  1.00  0.00     0.251 C 
ATOM     30  H   UNL A   1      39.948  23.118  25.635  1.00  0.00     0.163 HD
ATOM     31  O   UNL A   1      41.950  24.017  26.673  1.00  0.00    -0.269 OA
BRANCH  29  32
ATOM     32  C   UNL A   1      40.607  25.626  27.731  1.00  0.00     0.039 A 
ATOM     33  C   UNL A   1      39.586  25.568  28.684  1.00  0.00     0.014 A 
ATOM     34  C   UNL A   1      41.439  26.745  27.654  1.00  0.00     0.014 A 
ATOM     35  C   UNL A   1      39.460  26.594  29.622  1.00  0.00     0.010 A 
ATOM     36  C   UNL A   1      41.356  27.730  28.630  1.00  0.00     0.010 A 
ATOM     37  C   UNL A   1      40.374  27.658  29.631  1.00  0.00    -0.014 A 
BRANCH  37  38
ATOM     38  C   UNL A   1      40.342  28.706  30.682  1.00  0.00     0.031 A 
ATOM     39  C   UNL A   1      41.235  28.587  31.884  1.00  0.00     0.074 A 
ATOM     40  C   UNL A   1      39.439  29.705  30.601  1.00  0.00     0.049 A 
ATOM     41  N   UNL A   1      41.258  29.312  32.972  1.00  0.00    -0.248 NA
ATOM     42  C   UNL A   1      42.208  27.482  31.876  1.00  0.00     0.031 C 
ATOM     43  C   UNL A   1      38.483  29.897  29.508  1.00  0.00     0.029 A 
ATOM     44  N   UNL A   1      39.164  30.733  31.467  1.00  0.00    -0.354 N 
ATOM     45  C   UNL A   1      42.224  28.738  33.788  1.00  0.00     0.074 A 
ATOM     46  C   UNL A   1      42.737  27.580  33.087  1.00  0.00     0.031 C 
ATOM     47  C   UNL A   1      37.735  30.983  29.764  1.00  0.00     0.029 A 
ATOM     48  C   UNL A   1      38.132  31.543  31.052  1.00  0.00     0.049 A 
ATOM     49  H   UNL A   1      39.658  30.878  32.305  1.00  0.00     0.167 HD
ATOM     50  C   UNL A   1      42.657  29.150  35.003  1.00  0.00     0.037 A 
ATOM     51  C   UNL A   1      37.563  32.608  31.649  1.00  0.00     0.037 A 
ATOM     52  C   UNL A   1      42.171  30.324  35.675  1.00  0.00     0.049 A 
ATOM     53  C   UNL A   1      38.084  33.066  32.983  1.00  0.00     0.074 A 
ATOM     54  C   UNL A   1      42.588  30.861  36.881  1.00  0.00     0.029 A 
ATOM     55  N   UNL A   1      41.166  31.151  35.196  1.00  0.00    -0.354 N 
ATOM     56  N   UNL A   1      39.034  32.541  33.720  1.00  0.00    -0.248 NA
ATOM     57  C   UNL A   1      37.462  34.264  33.567  1.00  0.00     0.031 C 
ATOM     58  C   UNL A   1      41.817  31.998  37.143  1.00  0.00     0.029 A 
ATOM     59  C   UNL A   1      40.944  32.190  36.084  1.00  0.00     0.049 A 
ATOM     60  H   UNL A   1      40.681  31.019  34.349  1.00  0.00     0.167 HD
ATOM     61  C   UNL A   1      39.143  33.358  34.838  1.00  0.00     0.074 A 
ATOM     62  C   UNL A   1      38.165  34.416  34.681  1.00  0.00     0.031 C 
ATOM     63  C   UNL A   1      39.978  33.243  35.900  1.00  0.00     0.037 A 
BRANCH  50  64
ATOM     64  C   UNL A   1      43.714  28.322  35.677  1.00  0.00     0.058 A 
ATOM     65  C   UNL A   1      43.381  27.298  36.578  1.00  0.00     0.135 A 
ATOM     66  C   UNL A   1      45.075  28.540  35.405  1.00  0.00     0.135 A 
ATOM     67  F   UNL A   1      42.097  27.059  36.886  1.00  0.00    -0.206 F 
ATOM     68  C   UNL A   1      44.361  26.542  37.214  1.00  0.00     0.059 A 
ATOM     69  C   UNL A   1      46.070  27.779  36.009  1.00  0.00     0.059 A 
ATOM     70  F   UNL A   1      45.447  29.507  34.551  1.00  0.00    -0.206 F 
ATOM     71  C   UNL A   1      45.704  26.794  36.926  1.00  0.00     0.060 A 
BRANCH  71  72
ATOM     72  S   UNL A   1      46.965  25.812  37.764  1.00  0.00     0.124 S 
ATOM     73  O   UNL A   1      48.045  26.784  37.901  1.00  0.00    -0.237 OA
ATOM     74  O   UNL A   1      46.296  25.430  39.003  1.00  0.00    -0.237 OA
ATOM     75  O   UNL A   1      47.218  24.719  36.830  1.00  0.00    -0.744 OA
ENDBRANCH  71  72
ENDBRANCH  50  64
BRANCH  51  76
ATOM     76  C   UNL A   1      36.452  33.331  30.975  1.00  0.00     0.058 A 
ATOM     77  C   UNL A   1      36.694  34.119  29.839  1.00  0.00     0.135 A 
ATOM     78  C   UNL A   1      35.131  33.233  31.437  1.00  0.00     0.135 A 
ATOM     79  F   UNL A   1      37.942  34.245  29.365  1.00  0.00    -0.206 F 
ATOM     80  C   UNL A   1      35.667  34.797  29.192  1.00  0.00     0.059 A 
ATOM     81  C   UNL A   1      34.083  33.887  30.794  1.00  0.00     0.059 A 
ATOM     82  F   UNL A   1      34.847  32.477  32.508  1.00  0.00    -0.206 F 
ATOM     83  C   UNL A   1      34.363  34.673  29.677  1.00  0.00     0.060 A 
BRANCH  83  84
ATOM     84  S   UNL A   1      33.028  35.514  28.798  1.00  0.00     0.124 S 
ATOM     85  O   UNL A   1      32.212  36.004  29.904  1.00  0.00    -0.237 OA
ATOM     86  O   UNL A   1      33.749  36.530  28.038  1.00  0.00    -0.237 OA
ATOM     87  O   UNL A   1      32.433  34.447  27.997  1.00  0.00    -0.744 OA
ENDBRANCH  83  84
ENDBRANCH  51  76
BRANCH  63  88
ATOM     88  C   UNL A   1      39.907  34.307  36.957  1.00  0.00     0.058 A 
ATOM     89  C   UNL A   1      40.688  35.471  36.884  1.00  0.00     0.135 A 
ATOM     90  C   UNL A   1      38.992  34.193  38.016  1.00  0.00     0.135 A 
ATOM     91  F   UNL A   1      41.582  35.623  35.894  1.00  0.00    -0.206 F 
ATOM     92  C   UNL A   1      40.571  36.481  37.831  1.00  0.00     0.059 A 
ATOM     93  C   UNL A   1      38.844  35.201  38.962  1.00  0.00     0.059 A 
ATOM     94  F   UNL A   1      38.216  33.102  38.124  1.00  0.00    -0.206 F 
ATOM     95  C   UNL A   1      39.643  36.340  38.865  1.00  0.00     0.060 A 
BRANCH  95  96
ATOM     96  S   UNL A   1      39.460  37.682  40.059  1.00  0.00     0.124 S 
ATOM     97  O   UNL A   1      40.702  38.422  39.861  1.00  0.00    -0.237 OA
ATOM     98  O   UNL A   1      38.245  38.347  39.600  1.00  0.00    -0.237 OA
ATOM     99  O   UNL A   1      39.340  36.985  41.336  1.00  0.00    -0.744 OA
ENDBRANCH  95  96
ENDBRANCH  63  88
ENDBRANCH  37  38
ENDBRANCH  29  32
ENDBRANCH  27  28
ENDBRANCH   1  27
TORSDOF 16
ENDMDL
