MODEL 1
REMARK VINA RESULT:     -11.9      0.000      0.000
REMARK SMILES Cc1ccc([C@H](C)NC(=O)N[C@](C)(C(=O)NCCCCNC(=O)c2ccc(-c3c4nc(c(-c5c(F)cc(S(=O)(=O)[O-])cc5F)c5ccc([nH]5)c(-c5c(F)cc(S(=O)(=O)[O-])cc5F)c5nc(c(-c6c(F)cc(S(=O)(=O)[O-])cc6F)c6ccc3[nH]6)C=C5)C=C4)cc2)C(F)(F)F)s1
REMARK SMILES IDX 18 1 17 2 16 3 14 4 15 5 12 7 13 8 11 9 8 10 9 11 10 13 6 15
REMARK SMILES IDX 7 16 5 17 1 18 2 19 3 20 94 21 4 22 90 23 91 24 92 25 93 26
REMARK SMILES IDX 19 27 20 28 21 29 22 30 23 32 24 33 25 34 89 35 26 36 88 37
REMARK SMILES IDX 27 38 28 39 29 40 82 41 30 42 87 43 81 44 83 45 31 46 86 47
REMARK SMILES IDX 80 48 79 49 32 51 66 52 45 53 65 54 46 55 49 56 64 57 84 58
REMARK SMILES IDX 47 59 48 60 63 62 85 63 50 64 33 65 34 66 43 67 35 68 36 69
REMARK SMILES IDX 42 70 44 71 37 72 38 73 39 74 40 75 41 76 67 77 68 78 77 79
REMARK SMILES IDX 69 80 70 81 76 82 78 83 71 84 72 85 73 86 74 87 75 88 51 89
REMARK SMILES IDX 52 90 61 91 53 92 54 93 60 94 62 95 55 96 56 97 57 98 58 99
REMARK SMILES IDX 59 100
REMARK H PARENT 16 6 8 12 11 14 21 31 83 50 49 61
REMARK Flexibility Score: inf
ROOT
ATOM      1  C   UNL A   1      37.248  21.869  25.455  1.00  0.00     0.023 C 
ENDROOT
BRANCH   1   2
ATOM      2  C   UNL A   1      36.070  21.210  24.732  1.00  0.00     0.116 C 
BRANCH   2   3
ATOM      3  N   UNL A   1      35.044  20.781  25.666  1.00  0.00    -0.354 N 
ATOM      4  C   UNL A   1      33.970  21.436  26.191  1.00  0.00     0.255 C 
ATOM      5  O   UNL A   1      33.651  21.070  27.326  1.00  0.00    -0.272 OA
ATOM      6  H   UNL A   1      35.141  19.852  25.976  1.00  0.00     0.163 HD
BRANCH   4   7
ATOM      7  C   UNL A   1      33.338  22.674  25.513  1.00  0.00     0.213 C 
ATOM      8  C   UNL A   1      33.726  23.877  26.395  1.00  0.00     0.056 C 
BRANCH   7   9
ATOM      9  N   UNL A   1      33.886  22.835  24.127  1.00  0.00    -0.316 N 
ATOM     10  N   UNL A   1      33.280  24.965  23.237  1.00  0.00    -0.331 N 
ATOM     11  C   UNL A   1      33.818  23.748  23.155  1.00  0.00     0.316 C 
ATOM     12  H   UNL A   1      33.291  25.419  22.363  1.00  0.00     0.166 HD
ATOM     13  O   UNL A   1      34.314  23.433  22.069  1.00  0.00    -0.249 OA
ATOM     14  H   UNL A   1      34.443  22.067  23.864  1.00  0.00     0.166 HD
BRANCH  10  15
ATOM     15  C   UNL A   1      32.683  25.807  24.265  1.00  0.00     0.121 C 
ATOM     16  C   UNL A   1      33.613  26.963  24.617  1.00  0.00     0.037 C 
BRANCH  15  17
ATOM     17  C   UNL A   1      31.303  26.272  23.861  1.00  0.00     0.027 A 
ATOM     18  C   UNL A   1      28.799  28.989  22.534  1.00  0.00     0.056 C 
ATOM     19  C   UNL A   1      29.514  27.799  23.074  1.00  0.00     0.002 A 
ATOM     20  C   UNL A   1      29.020  26.762  23.838  1.00  0.00     0.015 A 
ATOM     21  S   UNL A   1      31.188  27.625  22.794  1.00  0.00    -0.144 S 
ATOM     22  C   UNL A   1      30.048  25.873  24.280  1.00  0.00     0.018 A 
ENDBRANCH  15  17
ENDBRANCH  10  15
ENDBRANCH   7   9
BRANCH   7  23
ATOM     23  C   UNL A   1      31.825  22.325  25.505  1.00  0.00     0.420 C 
ATOM     24  F   UNL A   1      31.188  22.761  26.614  1.00  0.00    -0.168 F 
ATOM     25  F   UNL A   1      31.192  22.885  24.454  1.00  0.00    -0.168 F 
ATOM     26  F   UNL A   1      31.589  20.998  25.368  1.00  0.00    -0.168 F 
ENDBRANCH   7  23
ENDBRANCH   4   7
ENDBRANCH   2   3
ENDBRANCH   1   2
BRANCH   1  27
ATOM     27  C   UNL A   1      37.377  23.386  25.269  1.00  0.00     0.023 C 
BRANCH  27  28
ATOM     28  C   UNL A   1      38.232  24.108  26.304  1.00  0.00     0.116 C 
BRANCH  28  29
ATOM     29  N   UNL A   1      39.645  23.789  26.190  1.00  0.00    -0.352 N 
ATOM     30  C   UNL A   1      40.732  24.462  26.691  1.00  0.00     0.251 C 
ATOM     31  H   UNL A   1      39.853  22.974  25.678  1.00  0.00     0.163 HD
ATOM     32  O   UNL A   1      41.866  24.116  26.368  1.00  0.00    -0.269 OA
BRANCH  30  33
ATOM     33  C   UNL A   1      40.536  25.623  27.588  1.00  0.00     0.039 A 
ATOM     34  C   UNL A   1      39.563  25.542  28.586  1.00  0.00     0.014 A 
ATOM     35  C   UNL A   1      41.320  26.773  27.462  1.00  0.00     0.014 A 
ATOM     36  C   UNL A   1      39.432  26.579  29.511  1.00  0.00     0.010 A 
ATOM     37  C   UNL A   1      41.236  27.775  28.425  1.00  0.00     0.010 A 
ATOM     38  C   UNL A   1      40.301  27.683  29.468  1.00  0.00    -0.014 A 
BRANCH  38  39
ATOM     39  C   UNL A   1      40.284  28.717  30.534  1.00  0.00     0.031 A 
ATOM     40  C   UNL A   1      41.170  28.589  31.741  1.00  0.00     0.074 A 
ATOM     41  C   UNL A   1      39.400  29.733  30.451  1.00  0.00     0.049 A 
ATOM     42  N   UNL A   1      41.233  29.351  32.803  1.00  0.00    -0.248 NA
ATOM     43  C   UNL A   1      42.088  27.440  31.770  1.00  0.00     0.031 C 
ATOM     44  C   UNL A   1      38.449  29.934  29.356  1.00  0.00     0.029 A 
ATOM     45  N   UNL A   1      39.142  30.772  31.309  1.00  0.00    -0.354 N 
ATOM     46  C   UNL A   1      42.183  28.768  33.633  1.00  0.00     0.074 A 
ATOM     47  C   UNL A   1      42.637  27.563  32.970  1.00  0.00     0.031 C 
ATOM     48  C   UNL A   1      37.721  31.034  29.601  1.00  0.00     0.029 A 
ATOM     49  C   UNL A   1      38.120  31.591  30.890  1.00  0.00     0.049 A 
ATOM     50  H   UNL A   1      39.641  30.919  32.144  1.00  0.00     0.167 HD
ATOM     51  C   UNL A   1      42.644  29.206  34.830  1.00  0.00     0.037 A 
ATOM     52  C   UNL A   1      37.549  32.658  31.483  1.00  0.00     0.037 A 
ATOM     53  C   UNL A   1      42.192  30.412  35.475  1.00  0.00     0.049 A 
ATOM     54  C   UNL A   1      38.067  33.120  32.817  1.00  0.00     0.074 A 
ATOM     55  C   UNL A   1      42.654  30.985  36.647  1.00  0.00     0.029 A 
ATOM     56  N   UNL A   1      41.162  31.222  35.016  1.00  0.00    -0.354 N 
ATOM     57  N   UNL A   1      39.031  32.609  33.546  1.00  0.00    -0.248 NA
ATOM     58  C   UNL A   1      37.425  34.301  33.408  1.00  0.00     0.031 C 
ATOM     59  C   UNL A   1      41.863  32.104  36.929  1.00  0.00     0.029 A 
ATOM     60  C   UNL A   1      40.946  32.265  35.903  1.00  0.00     0.049 A 
ATOM     61  H   UNL A   1      40.659  31.076  34.182  1.00  0.00     0.167 HD
ATOM     62  C   UNL A   1      39.117  33.411  34.679  1.00  0.00     0.074 A 
ATOM     63  C   UNL A   1      38.124  34.455  34.525  1.00  0.00     0.031 C 
ATOM     64  C   UNL A   1      39.941  33.290  35.749  1.00  0.00     0.037 A 
BRANCH  51  65
ATOM     65  C   UNL A   1      43.681  28.366  35.528  1.00  0.00     0.058 A 
ATOM     66  C   UNL A   1      43.330  27.373  36.458  1.00  0.00     0.135 A 
ATOM     67  C   UNL A   1      45.046  28.539  35.244  1.00  0.00     0.135 A 
ATOM     68  F   UNL A   1      42.042  27.169  36.777  1.00  0.00    -0.206 F 
ATOM     69  C   UNL A   1      44.295  26.612  37.110  1.00  0.00     0.059 A 
ATOM     70  C   UNL A   1      46.026  27.768  35.862  1.00  0.00     0.059 A 
ATOM     71  F   UNL A   1      45.440  29.470  34.361  1.00  0.00    -0.206 F 
ATOM     72  C   UNL A   1      45.642  26.820  36.808  1.00  0.00     0.060 A 
BRANCH  72  73
ATOM     73  S   UNL A   1      46.881  25.835  37.676  1.00  0.00     0.124 S 
ATOM     74  O   UNL A   1      47.711  26.875  38.275  1.00  0.00    -0.237 OA
ATOM     75  O   UNL A   1      46.067  25.059  38.607  1.00  0.00    -0.237 OA
ATOM     76  O   UNL A   1      47.512  25.065  36.609  1.00  0.00    -0.744 OA
ENDBRANCH  72  73
ENDBRANCH  51  65
BRANCH  52  77
ATOM     77  C   UNL A   1      36.422  33.357  30.809  1.00  0.00     0.058 A 
ATOM     78  C   UNL A   1      35.111  33.254  31.294  1.00  0.00     0.135 A 
ATOM     79  C   UNL A   1      36.644  34.183  29.695  1.00  0.00     0.135 A 
ATOM     80  F   UNL A   1      34.848  32.468  32.350  1.00  0.00    -0.206 F 
ATOM     81  C   UNL A   1      34.058  33.944  30.702  1.00  0.00     0.059 A 
ATOM     82  C   UNL A   1      35.612  34.906  29.102  1.00  0.00     0.059 A 
ATOM     83  F   UNL A   1      37.883  34.328  29.201  1.00  0.00    -0.206 F 
ATOM     84  C   UNL A   1      34.321  34.778  29.613  1.00  0.00     0.060 A 
BRANCH  84  85
ATOM     85  S   UNL A   1      32.962  35.736  28.909  1.00  0.00     0.124 S 
ATOM     86  O   UNL A   1      32.196  36.079  30.100  1.00  0.00    -0.237 OA
ATOM     87  O   UNL A   1      33.669  36.839  28.264  1.00  0.00    -0.237 OA
ATOM     88  O   UNL A   1      32.325  34.792  27.995  1.00  0.00    -0.744 OA
ENDBRANCH  84  85
ENDBRANCH  52  77
BRANCH  64  89
ATOM     89  C   UNL A   1      39.806  34.312  36.845  1.00  0.00     0.058 A 
ATOM     90  C   UNL A   1      38.989  34.086  37.964  1.00  0.00     0.135 A 
ATOM     91  C   UNL A   1      40.541  35.509  36.803  1.00  0.00     0.135 A 
ATOM     92  F   UNL A   1      38.257  32.965  38.051  1.00  0.00    -0.206 F 
ATOM     93  C   UNL A   1      38.889  35.019  38.993  1.00  0.00     0.059 A 
ATOM     94  C   UNL A   1      40.481  36.440  37.834  1.00  0.00     0.059 A 
ATOM     95  F   UNL A   1      41.344  35.772  35.760  1.00  0.00    -0.206 F 
ATOM     96  C   UNL A   1      39.644  36.191  38.921  1.00  0.00     0.060 A 
BRANCH  96  97
ATOM     97  S   UNL A   1      39.534  37.373  40.281  1.00  0.00     0.124 S 
ATOM     98  O   UNL A   1      38.731  36.633  41.249  1.00  0.00    -0.237 OA
ATOM     99  O   UNL A   1      40.936  37.569  40.638  1.00  0.00    -0.237 OA
ATOM    100  O   UNL A   1      38.879  38.529  39.677  1.00  0.00    -0.744 OA
ENDBRANCH  96  97
ENDBRANCH  64  89
ENDBRANCH  38  39
ENDBRANCH  30  33
ENDBRANCH  28  29
ENDBRANCH  27  28
ENDBRANCH   1  27
TORSDOF 18
ENDMDL
MODEL 2
REMARK VINA RESULT:     -11.7      6.591     12.017
REMARK SMILES Cc1ccc([C@H](C)NC(=O)N[C@](C)(C(=O)NCCCCNC(=O)c2ccc(-c3c4nc(c(-c5c(F)cc(S(=O)(=O)[O-])cc5F)c5ccc([nH]5)c(-c5c(F)cc(S(=O)(=O)[O-])cc5F)c5nc(c(-c6c(F)cc(S(=O)(=O)[O-])cc6F)c6ccc3[nH]6)C=C5)C=C4)cc2)C(F)(F)F)s1
REMARK SMILES IDX 18 1 17 2 16 3 14 4 15 5 12 7 13 8 11 9 8 10 9 11 10 13 6 15
REMARK SMILES IDX 7 16 5 17 1 18 2 19 3 20 94 21 4 22 90 23 91 24 92 25 93 26
REMARK SMILES IDX 19 27 20 28 21 29 22 30 23 32 24 33 25 34 89 35 26 36 88 37
REMARK SMILES IDX 27 38 28 39 29 40 82 41 30 42 87 43 81 44 83 45 31 46 86 47
REMARK SMILES IDX 80 48 79 49 32 51 66 52 45 53 65 54 46 55 49 56 64 57 84 58
REMARK SMILES IDX 47 59 48 60 63 62 85 63 50 64 33 65 34 66 43 67 35 68 36 69
REMARK SMILES IDX 42 70 44 71 37 72 38 73 39 74 40 75 41 76 67 77 68 78 77 79
REMARK SMILES IDX 69 80 70 81 76 82 78 83 71 84 72 85 73 86 74 87 75 88 51 89
REMARK SMILES IDX 52 90 61 91 53 92 54 93 60 94 62 95 55 96 56 97 57 98 58 99
REMARK SMILES IDX 59 100
REMARK H PARENT 16 6 8 12 11 14 21 31 83 50 49 61
REMARK Flexibility Score: inf
ROOT
ATOM      1  C   UNL A   1      32.596  28.494  27.375  1.00  0.00     0.023 C 
ENDROOT
BRANCH   1   2
ATOM      2  C   UNL A   1      32.078  27.525  26.307  1.00  0.00     0.116 C 
BRANCH   2   3
ATOM      3  N   UNL A   1      31.829  26.206  26.861  1.00  0.00    -0.354 N 
ATOM      4  C   UNL A   1      31.401  25.050  26.280  1.00  0.00     0.255 C 
ATOM      5  O   UNL A   1      30.745  24.315  27.023  1.00  0.00    -0.272 OA
ATOM      6  H   UNL A   1      31.998  26.134  27.827  1.00  0.00     0.163 HD
BRANCH   4   7
ATOM      7  C   UNL A   1      31.545  24.778  24.764  1.00  0.00     0.213 C 
ATOM      8  C   UNL A   1      32.941  25.307  24.376  1.00  0.00     0.056 C 
BRANCH   7   9
ATOM      9  N   UNL A   1      31.443  23.307  24.494  1.00  0.00    -0.316 N 
ATOM     10  N   UNL A   1      33.260  22.146  25.517  1.00  0.00    -0.331 N 
ATOM     11  C   UNL A   1      32.176  22.220  24.745  1.00  0.00     0.316 C 
ATOM     12  H   UNL A   1      33.661  21.248  25.484  1.00  0.00     0.166 HD
ATOM     13  O   UNL A   1      31.802  21.170  24.213  1.00  0.00    -0.249 OA
ATOM     14  H   UNL A   1      30.620  23.084  24.002  1.00  0.00     0.166 HD
BRANCH  10  15
ATOM     15  C   UNL A   1      34.013  23.032  26.397  1.00  0.00     0.121 C 
ATOM     16  C   UNL A   1      33.818  22.630  27.854  1.00  0.00     0.037 C 
BRANCH  15  17
ATOM     17  C   UNL A   1      35.470  23.091  25.999  1.00  0.00     0.027 A 
ATOM     18  C   UNL A   1      39.082  21.567  25.785  1.00  0.00     0.056 C 
ATOM     19  C   UNL A   1      37.834  22.380  25.759  1.00  0.00     0.002 A 
ATOM     20  C   UNL A   1      37.692  23.752  25.720  1.00  0.00     0.015 A 
ATOM     21  S   UNL A   1      36.319  21.599  25.819  1.00  0.00    -0.144 S 
ATOM     22  C   UNL A   1      36.329  24.163  25.844  1.00  0.00     0.018 A 
ENDBRANCH  15  17
ENDBRANCH  10  15
ENDBRANCH   7   9
BRANCH   7  23
ATOM     23  C   UNL A   1      30.353  25.566  24.159  1.00  0.00     0.420 C 
ATOM     24  F   UNL A   1      30.750  26.657  23.469  1.00  0.00    -0.168 F 
ATOM     25  F   UNL A   1      29.639  24.808  23.301  1.00  0.00    -0.168 F 
ATOM     26  F   UNL A   1      29.448  25.955  25.091  1.00  0.00    -0.168 F 
ENDBRANCH   7  23
ENDBRANCH   4   7
ENDBRANCH   2   3
ENDBRANCH   1   2
BRANCH   1  27
ATOM     27  C   UNL A   1      33.718  29.438  26.927  1.00  0.00     0.023 C 
BRANCH  27  28
ATOM     28  C   UNL A   1      35.030  29.316  27.694  1.00  0.00     0.116 C 
BRANCH  28  29
ATOM     29  N   UNL A   1      35.141  30.278  28.777  1.00  0.00    -0.352 N 
ATOM     30  C   UNL A   1      36.217  30.558  29.584  1.00  0.00     0.251 C 
ATOM     31  H   UNL A   1      34.329  30.803  28.959  1.00  0.00     0.163 HD
ATOM     32  O   UNL A   1      36.077  31.309  30.546  1.00  0.00    -0.269 OA
BRANCH  30  33
ATOM     33  C   UNL A   1      37.528  29.929  29.315  1.00  0.00     0.039 A 
ATOM     34  C   UNL A   1      38.003  29.903  28.002  1.00  0.00     0.014 A 
ATOM     35  C   UNL A   1      38.296  29.389  30.352  1.00  0.00     0.014 A 
ATOM     36  C   UNL A   1      39.284  29.412  27.739  1.00  0.00     0.010 A 
ATOM     37  C   UNL A   1      39.598  28.965  30.098  1.00  0.00     0.010 A 
ATOM     38  C   UNL A   1      40.111  28.984  28.792  1.00  0.00    -0.014 A 
BRANCH  38  39
ATOM     39  C   UNL A   1      41.528  28.609  28.552  1.00  0.00     0.031 A 
ATOM     40  C   UNL A   1      42.608  29.654  28.557  1.00  0.00     0.074 A 
ATOM     41  C   UNL A   1      41.827  27.331  28.244  1.00  0.00     0.049 A 
ATOM     42  N   UNL A   1      43.883  29.524  28.293  1.00  0.00    -0.248 NA
ATOM     43  C   UNL A   1      42.198  31.030  28.877  1.00  0.00     0.031 C 
ATOM     44  C   UNL A   1      40.858  26.237  28.154  1.00  0.00     0.029 A 
ATOM     45  N   UNL A   1      43.024  26.738  27.930  1.00  0.00    -0.354 N 
ATOM     46  C   UNL A   1      44.426  30.799  28.397  1.00  0.00     0.074 A 
ATOM     47  C   UNL A   1      43.332  31.696  28.705  1.00  0.00     0.031 C 
ATOM     48  C   UNL A   1      41.498  25.106  27.821  1.00  0.00     0.029 A 
ATOM     49  C   UNL A   1      42.915  25.401  27.629  1.00  0.00     0.049 A 
ATOM     50  H   UNL A   1      43.880  27.224  27.923  1.00  0.00     0.167 HD
ATOM     51  C   UNL A   1      45.719  31.182  28.263  1.00  0.00     0.037 A 
ATOM     52  C   UNL A   1      43.843  24.513  27.221  1.00  0.00     0.037 A 
ATOM     53  C   UNL A   1      46.801  30.279  27.967  1.00  0.00     0.049 A 
ATOM     54  C   UNL A   1      45.269  24.963  27.067  1.00  0.00     0.074 A 
ATOM     55  C   UNL A   1      48.154  30.553  27.892  1.00  0.00     0.029 A 
ATOM     56  N   UNL A   1      46.653  28.929  27.677  1.00  0.00    -0.354 N 
ATOM     57  N   UNL A   1      45.782  26.155  27.260  1.00  0.00    -0.248 NA
ATOM     58  C   UNL A   1      46.244  23.949  26.643  1.00  0.00     0.031 C 
ATOM     59  C   UNL A   1      48.817  29.387  27.496  1.00  0.00     0.029 A 
ATOM     60  C   UNL A   1      47.886  28.368  27.381  1.00  0.00     0.049 A 
ATOM     61  H   UNL A   1      45.797  28.441  27.682  1.00  0.00     0.167 HD
ATOM     62  C   UNL A   1      47.140  26.034  26.988  1.00  0.00     0.074 A 
ATOM     63  C   UNL A   1      47.373  24.647  26.642  1.00  0.00     0.031 C 
ATOM     64  C   UNL A   1      48.104  26.988  27.021  1.00  0.00     0.037 A 
BRANCH  51  65
ATOM     65  C   UNL A   1      46.032  32.647  28.421  1.00  0.00     0.058 A 
ATOM     66  C   UNL A   1      46.028  33.529  27.328  1.00  0.00     0.135 A 
ATOM     67  C   UNL A   1      46.316  33.181  29.689  1.00  0.00     0.135 A 
ATOM     68  F   UNL A   1      45.774  33.074  26.091  1.00  0.00    -0.206 F 
ATOM     69  C   UNL A   1      46.335  34.878  27.480  1.00  0.00     0.059 A 
ATOM     70  C   UNL A   1      46.595  34.533  29.868  1.00  0.00     0.059 A 
ATOM     71  F   UNL A   1      46.330  32.386  30.770  1.00  0.00    -0.206 F 
ATOM     72  C   UNL A   1      46.620  35.371  28.754  1.00  0.00     0.060 A 
BRANCH  72  73
ATOM     73  S   UNL A   1      47.031  37.120  28.930  1.00  0.00     0.124 S 
ATOM     74  O   UNL A   1      48.454  37.053  29.247  1.00  0.00    -0.237 OA
ATOM     75  O   UNL A   1      46.700  37.651  27.612  1.00  0.00    -0.237 OA
ATOM     76  O   UNL A   1      46.166  37.565  30.018  1.00  0.00    -0.744 OA
ENDBRANCH  72  73
ENDBRANCH  51  65
BRANCH  52  77
ATOM     77  C   UNL A   1      43.440  23.111  26.934  1.00  0.00     0.058 A 
ATOM     78  C   UNL A   1      43.396  22.624  25.621  1.00  0.00     0.135 A 
ATOM     79  C   UNL A   1      43.140  22.215  27.974  1.00  0.00     0.135 A 
ATOM     80  F   UNL A   1      43.663  23.444  24.593  1.00  0.00    -0.206 F 
ATOM     81  C   UNL A   1      43.070  21.299  25.345  1.00  0.00     0.059 A 
ATOM     82  C   UNL A   1      42.839  20.879  27.725  1.00  0.00     0.059 A 
ATOM     83  F   UNL A   1      43.183  22.627  29.250  1.00  0.00    -0.206 F 
ATOM     84  C   UNL A   1      42.805  20.431  26.406  1.00  0.00     0.060 A 
BRANCH  84  85
ATOM     85  S   UNL A   1      42.470  18.694  26.040  1.00  0.00     0.124 S 
ATOM     86  O   UNL A   1      41.055  18.733  25.696  1.00  0.00    -0.237 OA
ATOM     87  O   UNL A   1      43.390  18.434  24.936  1.00  0.00    -0.237 OA
ATOM     88  O   UNL A   1      42.800  18.019  27.292  1.00  0.00    -0.744 OA
ENDBRANCH  84  85
ENDBRANCH  52  77
BRANCH  64  89
ATOM     89  C   UNL A   1      49.505  26.566  26.670  1.00  0.00     0.058 A 
ATOM     90  C   UNL A   1      50.379  26.041  27.635  1.00  0.00     0.135 A 
ATOM     91  C   UNL A   1      49.964  26.638  25.343  1.00  0.00     0.135 A 
ATOM     92  F   UNL A   1      49.996  25.958  28.919  1.00  0.00    -0.206 F 
ATOM     93  C   UNL A   1      51.663  25.621  27.303  1.00  0.00     0.059 A 
ATOM     94  C   UNL A   1      51.233  26.196  24.983  1.00  0.00     0.059 A 
ATOM     95  F   UNL A   1      49.167  27.125  24.379  1.00  0.00    -0.206 F 
ATOM     96  C   UNL A   1      52.080  25.699  25.973  1.00  0.00     0.060 A 
BRANCH  96  97
ATOM     97  S   UNL A   1      53.735  25.114  25.551  1.00  0.00     0.124 S 
ATOM     98  O   UNL A   1      54.253  26.236  24.774  1.00  0.00    -0.237 OA
ATOM     99  O   UNL A   1      54.341  24.919  26.864  1.00  0.00    -0.237 OA
ATOM    100  O   UNL A   1      53.482  23.891  24.794  1.00  0.00    -0.744 OA
ENDBRANCH  96  97
ENDBRANCH  64  89
ENDBRANCH  38  39
ENDBRANCH  30  33
ENDBRANCH  28  29
ENDBRANCH  27  28
ENDBRANCH   1  27
TORSDOF 18
ENDMDL
MODEL 3
REMARK VINA RESULT:     -11.7      5.600     12.266
REMARK SMILES Cc1ccc([C@H](C)NC(=O)N[C@](C)(C(=O)NCCCCNC(=O)c2ccc(-c3c4nc(c(-c5c(F)cc(S(=O)(=O)[O-])cc5F)c5ccc([nH]5)c(-c5c(F)cc(S(=O)(=O)[O-])cc5F)c5nc(c(-c6c(F)cc(S(=O)(=O)[O-])cc6F)c6ccc3[nH]6)C=C5)C=C4)cc2)C(F)(F)F)s1
REMARK SMILES IDX 18 1 17 2 16 3 14 4 15 5 12 7 13 8 11 9 8 10 9 11 10 13 6 15
REMARK SMILES IDX 7 16 5 17 1 18 2 19 3 20 94 21 4 22 90 23 91 24 92 25 93 26
REMARK SMILES IDX 19 27 20 28 21 29 22 30 23 32 24 33 25 34 89 35 26 36 88 37
REMARK SMILES IDX 27 38 28 39 29 40 82 41 30 42 87 43 81 44 83 45 31 46 86 47
REMARK SMILES IDX 80 48 79 49 32 51 66 52 45 53 65 54 46 55 49 56 64 57 84 58
REMARK SMILES IDX 47 59 48 60 63 62 85 63 50 64 33 65 34 66 43 67 35 68 36 69
REMARK SMILES IDX 42 70 44 71 37 72 38 73 39 74 40 75 41 76 67 77 68 78 77 79
REMARK SMILES IDX 69 80 70 81 76 82 78 83 71 84 72 85 73 86 74 87 75 88 51 89
REMARK SMILES IDX 52 90 61 91 53 92 54 93 60 94 62 95 55 96 56 97 57 98 58 99
REMARK SMILES IDX 59 100
REMARK H PARENT 16 6 8 12 11 14 21 31 83 50 49 61
REMARK Flexibility Score: inf
ROOT
ATOM      1  C   UNL A   1      35.854  33.623  29.363  1.00  0.00     0.023 C 
ENDROOT
BRANCH   1   2
ATOM      2  C   UNL A   1      36.995  32.912  30.096  1.00  0.00     0.116 C 
BRANCH   2   3
ATOM      3  N   UNL A   1      37.524  33.726  31.175  1.00  0.00    -0.354 N 
ATOM      4  C   UNL A   1      37.117  33.889  32.466  1.00  0.00     0.255 C 
ATOM      5  O   UNL A   1      37.352  35.004  32.940  1.00  0.00    -0.272 OA
ATOM      6  H   UNL A   1      38.318  34.255  30.933  1.00  0.00     0.163 HD
BRANCH   4   7
ATOM      7  C   UNL A   1      36.249  32.842  33.203  1.00  0.00     0.213 C 
ATOM      8  C   UNL A   1      36.593  31.485  32.556  1.00  0.00     0.056 C 
BRANCH   7   9
ATOM      9  N   UNL A   1      36.585  32.832  34.663  1.00  0.00    -0.316 N 
ATOM     10  N   UNL A   1      38.805  32.025  35.000  1.00  0.00    -0.331 N 
ATOM     11  C   UNL A   1      37.611  32.440  35.422  1.00  0.00     0.316 C 
ATOM     12  H   UNL A   1      39.364  31.724  35.752  1.00  0.00     0.166 HD
ATOM     13  O   UNL A   1      37.436  32.476  36.644  1.00  0.00    -0.249 OA
ATOM     14  H   UNL A   1      35.858  33.216  35.206  1.00  0.00     0.166 HD
BRANCH  10  15
ATOM     15  C   UNL A   1      39.509  31.897  33.730  1.00  0.00     0.121 C 
ATOM     16  C   UNL A   1      40.594  32.961  33.610  1.00  0.00     0.037 C 
BRANCH  15  17
ATOM     17  C   UNL A   1      40.043  30.496  33.538  1.00  0.00     0.027 A 
ATOM     18  C   UNL A   1      42.922  27.953  32.726  1.00  0.00     0.056 C 
ATOM     19  C   UNL A   1      41.663  28.686  33.035  1.00  0.00     0.002 A 
ATOM     20  C   UNL A   1      40.357  28.295  32.825  1.00  0.00     0.015 A 
ATOM     21  S   UNL A   1      41.744  30.250  33.711  1.00  0.00    -0.144 S 
ATOM     22  C   UNL A   1      39.421  29.332  33.129  1.00  0.00     0.018 A 
ENDBRANCH  15  17
ENDBRANCH  10  15
ENDBRANCH   7   9
BRANCH   7  23
ATOM     23  C   UNL A   1      34.805  33.348  32.939  1.00  0.00     0.420 C 
ATOM     24  F   UNL A   1      34.118  33.573  34.081  1.00  0.00    -0.168 F 
ATOM     25  F   UNL A   1      34.802  34.511  32.256  1.00  0.00    -0.168 F 
ATOM     26  F   UNL A   1      34.082  32.504  32.163  1.00  0.00    -0.168 F 
ENDBRANCH   7  23
ENDBRANCH   4   7
ENDBRANCH   2   3
ENDBRANCH   1   2
BRANCH   1  27
ATOM     27  C   UNL A   1      34.573  32.802  29.173  1.00  0.00     0.023 C 
BRANCH  27  28
ATOM     28  C   UNL A   1      34.331  32.270  27.765  1.00  0.00     0.116 C 
BRANCH  28  29
ATOM     29  N   UNL A   1      33.791  30.922  27.756  1.00  0.00    -0.352 N 
ATOM     30  C   UNL A   1      34.444  29.723  27.911  1.00  0.00     0.251 C 
ATOM     31  H   UNL A   1      32.819  30.858  27.618  1.00  0.00     0.163 HD
ATOM     32  O   UNL A   1      33.836  28.670  27.730  1.00  0.00    -0.269 OA
BRANCH  30  33
ATOM     33  C   UNL A   1      35.882  29.701  28.258  1.00  0.00     0.039 A 
ATOM     34  C   UNL A   1      36.254  29.329  29.551  1.00  0.00     0.014 A 
ATOM     35  C   UNL A   1      36.858  30.023  27.311  1.00  0.00     0.014 A 
ATOM     36  C   UNL A   1      37.606  29.197  29.872  1.00  0.00     0.010 A 
ATOM     37  C   UNL A   1      38.203  29.825  27.610  1.00  0.00     0.010 A 
ATOM     38  C   UNL A   1      38.592  29.396  28.889  1.00  0.00    -0.014 A 
BRANCH  38  39
ATOM     39  C   UNL A   1      40.023  29.107  29.165  1.00  0.00     0.031 A 
ATOM     40  C   UNL A   1      40.937  30.185  29.676  1.00  0.00     0.074 A 
ATOM     41  C   UNL A   1      40.516  27.887  28.871  1.00  0.00     0.049 A 
ATOM     42  N   UNL A   1      42.225  30.136  29.899  1.00  0.00    -0.248 NA
ATOM     43  C   UNL A   1      40.329  31.497  29.948  1.00  0.00     0.031 C 
ATOM     44  C   UNL A   1      39.739  26.775  28.319  1.00  0.00     0.029 A 
ATOM     45  N   UNL A   1      41.787  27.382  28.975  1.00  0.00    -0.354 N 
ATOM     46  C   UNL A   1      42.587  31.409  30.321  1.00  0.00     0.074 A 
ATOM     47  C   UNL A   1      41.388  32.221  30.280  1.00  0.00     0.031 C 
ATOM     48  C   UNL A   1      40.546  25.717  28.144  1.00  0.00     0.029 A 
ATOM     49  C   UNL A   1      41.905  26.087  28.528  1.00  0.00     0.049 A 
ATOM     50  H   UNL A   1      42.544  27.898  29.337  1.00  0.00     0.167 HD
ATOM     51  C   UNL A   1      43.803  31.856  30.721  1.00  0.00     0.037 A 
ATOM     52  C   UNL A   1      42.986  25.290  28.417  1.00  0.00     0.037 A 
ATOM     53  C   UNL A   1      44.987  31.036  30.768  1.00  0.00     0.049 A 
ATOM     54  C   UNL A   1      44.327  25.809  28.854  1.00  0.00     0.074 A 
ATOM     55  C   UNL A   1      46.246  31.369  31.234  1.00  0.00     0.029 A 
ATOM     56  N   UNL A   1      45.065  29.725  30.317  1.00  0.00    -0.354 N 
ATOM     57  N   UNL A   1      44.635  26.989  29.338  1.00  0.00    -0.248 NA
ATOM     58  C   UNL A   1      45.467  24.891  28.733  1.00  0.00     0.031 C 
ATOM     59  C   UNL A   1      47.099  30.285  31.008  1.00  0.00     0.029 A 
ATOM     60  C   UNL A   1      46.360  29.251  30.454  1.00  0.00     0.049 A 
ATOM     61  H   UNL A   1      44.310  29.208  29.952  1.00  0.00     0.167 HD
ATOM     62  C   UNL A   1      46.002  26.954  29.588  1.00  0.00     0.074 A 
ATOM     63  C   UNL A   1      46.457  25.627  29.224  1.00  0.00     0.031 C 
ATOM     64  C   UNL A   1      46.806  27.933  30.071  1.00  0.00     0.037 A 
BRANCH  51  65
ATOM     65  C   UNL A   1      43.917  33.302  31.124  1.00  0.00     0.058 A 
ATOM     66  C   UNL A   1      43.944  34.338  30.176  1.00  0.00     0.135 A 
ATOM     67  C   UNL A   1      43.976  33.660  32.481  1.00  0.00     0.135 A 
ATOM     68  F   UNL A   1      43.902  34.056  28.863  1.00  0.00    -0.206 F 
ATOM     69  C   UNL A   1      44.066  35.671  30.556  1.00  0.00     0.059 A 
ATOM     70  C   UNL A   1      44.067  34.989  32.885  1.00  0.00     0.059 A 
ATOM     71  F   UNL A   1      43.950  32.713  33.432  1.00  0.00    -0.206 F 
ATOM     72  C   UNL A   1      44.131  35.986  31.914  1.00  0.00     0.060 A 
BRANCH  72  73
ATOM     73  S   UNL A   1      44.305  37.720  32.388  1.00  0.00     0.124 S 
ATOM     74  O   UNL A   1      44.412  38.368  31.086  1.00  0.00    -0.237 OA
ATOM     75  O   UNL A   1      43.067  37.968  33.120  1.00  0.00    -0.237 OA
ATOM     76  O   UNL A   1      45.521  37.730  33.197  1.00  0.00    -0.744 OA
ENDBRANCH  72  73
ENDBRANCH  51  65
BRANCH  52  77
ATOM     77  C   UNL A   1      42.831  23.917  27.867  1.00  0.00     0.058 A 
ATOM     78  C   UNL A   1      42.674  22.811  28.713  1.00  0.00     0.135 A 
ATOM     79  C   UNL A   1      42.784  23.692  26.481  1.00  0.00     0.135 A 
ATOM     80  F   UNL A   1      42.722  22.974  30.044  1.00  0.00    -0.206 F 
ATOM     81  C   UNL A   1      42.476  21.529  28.209  1.00  0.00     0.059 A 
ATOM     82  C   UNL A   1      42.560  22.424  25.953  1.00  0.00     0.059 A 
ATOM     83  F   UNL A   1      42.913  24.719  25.628  1.00  0.00    -0.206 F 
ATOM     84  C   UNL A   1      42.409  21.348  26.825  1.00  0.00     0.060 A 
BRANCH  84  85
ATOM     85  S   UNL A   1      42.064  19.695  26.186  1.00  0.00     0.124 S 
ATOM     86  O   UNL A   1      42.397  18.859  27.332  1.00  0.00    -0.237 OA
ATOM     87  O   UNL A   1      40.645  19.787  25.853  1.00  0.00    -0.237 OA
ATOM     88  O   UNL A   1      42.962  19.585  25.039  1.00  0.00    -0.744 OA
ENDBRANCH  84  85
ENDBRANCH  52  77
BRANCH  64  89
ATOM     89  C   UNL A   1      48.267  27.610  30.234  1.00  0.00     0.058 A 
ATOM     90  C   UNL A   1      48.763  27.022  31.409  1.00  0.00     0.135 A 
ATOM     91  C   UNL A   1      49.173  27.842  29.186  1.00  0.00     0.135 A 
ATOM     92  F   UNL A   1      47.944  26.788  32.446  1.00  0.00    -0.206 F 
ATOM     93  C   UNL A   1      50.109  26.695  31.547  1.00  0.00     0.059 A 
ATOM     94  C   UNL A   1      50.516  27.494  29.290  1.00  0.00     0.059 A 
ATOM     95  F   UNL A   1      48.751  28.394  28.038  1.00  0.00    -0.206 F 
ATOM     96  C   UNL A   1      50.977  26.931  30.479  1.00  0.00     0.060 A 
BRANCH  96  97
ATOM     97  S   UNL A   1      52.712  26.464  30.658  1.00  0.00     0.124 S 
ATOM     98  O   UNL A   1      53.099  26.233  29.270  1.00  0.00    -0.237 OA
ATOM     99  O   UNL A   1      53.289  27.647  31.289  1.00  0.00    -0.237 OA
ATOM    100  O   UNL A   1      52.659  25.273  31.500  1.00  0.00    -0.744 OA
ENDBRANCH  96  97
ENDBRANCH  64  89
ENDBRANCH  38  39
ENDBRANCH  30  33
ENDBRANCH  28  29
ENDBRANCH  27  28
ENDBRANCH   1  27
TORSDOF 18
ENDMDL
