MODEL 1
REMARK VINA RESULT:     -12.1      0.000      0.000
REMARK SMILES O=C(NCCCCNC(=O)c1cccc(S(=O)(=O)Cc2cccc(O)c2)c1)c1ccc(-c2c3nc(c(-c4c(F)cc(S(=O)(=O)[O-])cc4F)c4ccc([nH]4)c(-c4c(F)cc(S(=O)(=O)[O-])cc4F)c4nc(c(-c5c(F)cc(S(=O)(=O)[O-])cc5F)c5ccc2[nH]5)C=C4)C=C3)cc1
REMARK SMILES IDX 6 1 5 2 4 3 3 4 1 5 2 6 28 8 29 9 93 10 30 11 92 12 31 13
REMARK SMILES IDX 32 14 33 15 86 16 34 17 91 18 85 19 87 20 35 21 90 22 84 23
REMARK SMILES IDX 83 24 36 26 70 27 49 28 69 29 50 30 53 31 68 32 88 33 51 34
REMARK SMILES IDX 52 35 67 37 89 38 54 39 37 40 38 41 47 42 39 43 40 44 46 45
REMARK SMILES IDX 48 46 41 47 42 48 43 49 44 50 45 51 71 52 72 53 81 54 73 55
REMARK SMILES IDX 74 56 80 57 82 58 75 59 76 60 77 61 78 62 79 63 55 64 56 65
REMARK SMILES IDX 65 66 57 67 58 68 64 69 66 70 59 71 60 72 61 73 62 74 63 75
REMARK SMILES IDX 7 76 8 77 9 78 10 80 11 81 12 82 27 83 13 84 15 85 14 86
REMARK SMILES IDX 16 87 17 88 18 89 19 90 20 91 21 92 26 93 22 94 24 95 23 96
REMARK SMILES IDX 25 97
REMARK H PARENT 3 7 87 25 53 36 8 79 25 98
REMARK Flexibility Score: inf
ROOT
ATOM      1  C   UNL A   1      33.859  27.805  23.966  1.00  0.00     0.023 C 
ENDROOT
BRANCH   1   2
ATOM      2  C   UNL A   1      33.678  27.101  25.305  1.00  0.00     0.023 C 
BRANCH   2   3
ATOM      3  C   UNL A   1      34.376  27.756  26.489  1.00  0.00     0.116 C 
BRANCH   3   4
ATOM      4  N   UNL A   1      33.759  29.003  26.924  1.00  0.00    -0.352 N 
ATOM      5  O   UNL A   1      33.622  30.989  27.999  1.00  0.00    -0.269 OA
ATOM      6  C   UNL A   1      34.308  30.028  27.665  1.00  0.00     0.251 C 
ATOM      7  H   UNL A   1      32.822  29.131  26.652  1.00  0.00     0.163 HD
BRANCH   6   8
ATOM      8  C   UNL A   1      35.725  29.934  28.084  1.00  0.00     0.039 A 
ATOM      9  C   UNL A   1      36.740  30.165  27.157  1.00  0.00     0.014 A 
ATOM     10  C   UNL A   1      36.039  29.539  29.388  1.00  0.00     0.014 A 
ATOM     11  C   UNL A   1      38.042  29.804  27.470  1.00  0.00     0.010 A 
ATOM     12  C   UNL A   1      37.372  29.281  29.733  1.00  0.00     0.010 A 
ATOM     13  C   UNL A   1      38.380  29.363  28.762  1.00  0.00    -0.014 A 
BRANCH  13  14
ATOM     14  C   UNL A   1      39.804  29.039  29.044  1.00  0.00     0.031 A 
ATOM     15  C   UNL A   1      40.409  27.715  28.653  1.00  0.00     0.074 A 
ATOM     16  C   UNL A   1      40.581  30.009  29.566  1.00  0.00     0.049 A 
ATOM     17  N   UNL A   1      41.659  27.332  28.727  1.00  0.00    -0.248 NA
ATOM     18  C   UNL A   1      39.502  26.687  28.119  1.00  0.00     0.031 C 
ATOM     19  C   UNL A   1      40.099  31.321  30.009  1.00  0.00     0.029 A 
ATOM     20  N   UNL A   1      41.936  30.072  29.766  1.00  0.00    -0.354 N 
ATOM     21  C   UNL A   1      41.690  26.020  28.268  1.00  0.00     0.074 A 
ATOM     22  C   UNL A   1      40.326  25.662  27.937  1.00  0.00     0.031 C 
ATOM     23  C   UNL A   1      41.146  32.085  30.348  1.00  0.00     0.029 A 
ATOM     24  C   UNL A   1      42.367  31.299  30.210  1.00  0.00     0.049 A 
ATOM     25  H   UNL A   1      42.541  29.311  29.608  1.00  0.00     0.167 HD
ATOM     26  C   UNL A   1      42.757  25.195  28.130  1.00  0.00     0.037 A 
ATOM     27  C   UNL A   1      43.605  31.749  30.480  1.00  0.00     0.037 A 
ATOM     28  C   UNL A   1      44.115  25.566  28.445  1.00  0.00     0.049 A 
ATOM     29  C   UNL A   1      44.771  30.828  30.279  1.00  0.00     0.074 A 
ATOM     30  C   UNL A   1      45.264  24.800  28.342  1.00  0.00     0.029 A 
ATOM     31  N   UNL A   1      44.508  26.812  28.912  1.00  0.00    -0.354 N 
ATOM     32  N   UNL A   1      44.773  29.589  29.848  1.00  0.00    -0.248 NA
ATOM     33  C   UNL A   1      46.100  31.361  30.603  1.00  0.00     0.031 C 
ATOM     34  C   UNL A   1      46.349  25.576  28.771  1.00  0.00     0.029 A 
ATOM     35  C   UNL A   1      45.880  26.835  29.107  1.00  0.00     0.049 A 
ATOM     36  H   UNL A   1      43.902  27.569  29.080  1.00  0.00     0.167 HD
ATOM     37  C   UNL A   1      46.101  29.188  29.866  1.00  0.00     0.074 A 
ATOM     38  C   UNL A   1      46.878  30.329  30.305  1.00  0.00     0.031 C 
ATOM     39  C   UNL A   1      46.630  27.977  29.563  1.00  0.00     0.037 A 
BRANCH  26  40
ATOM     40  C   UNL A   1      42.508  23.801  27.620  1.00  0.00     0.058 A 
ATOM     41  C   UNL A   1      42.482  23.515  26.245  1.00  0.00     0.135 A 
ATOM     42  C   UNL A   1      42.358  22.728  28.513  1.00  0.00     0.135 A 
ATOM     43  F   UNL A   1      42.605  24.505  25.347  1.00  0.00    -0.206 F 
ATOM     44  C   UNL A   1      42.304  22.216  25.775  1.00  0.00     0.059 A 
ATOM     45  C   UNL A   1      42.199  21.419  28.066  1.00  0.00     0.059 A 
ATOM     46  F   UNL A   1      42.375  22.945  29.838  1.00  0.00    -0.206 F 
ATOM     47  C   UNL A   1      42.164  21.174  26.694  1.00  0.00     0.060 A 
BRANCH  47  48
ATOM     48  S   UNL A   1      41.955  19.493  26.069  1.00  0.00     0.124 S 
ATOM     49  O   UNL A   1      42.810  19.514  24.885  1.00  0.00    -0.237 OA
ATOM     50  O   UNL A   1      42.437  18.681  27.181  1.00  0.00    -0.237 OA
ATOM     51  O   UNL A   1      40.523  19.403  25.805  1.00  0.00    -0.744 OA
ENDBRANCH  47  48
ENDBRANCH  26  40
BRANCH  27  52
ATOM     52  C   UNL A   1      43.791  33.134  30.985  1.00  0.00     0.058 A 
ATOM     53  C   UNL A   1      43.898  34.222  30.108  1.00  0.00     0.135 A 
ATOM     54  C   UNL A   1      43.825  33.396  32.363  1.00  0.00     0.135 A 
ATOM     55  F   UNL A   1      43.870  34.020  28.781  1.00  0.00    -0.206 F 
ATOM     56  C   UNL A   1      44.044  35.523  30.579  1.00  0.00     0.059 A 
ATOM     57  C   UNL A   1      43.943  34.690  32.858  1.00  0.00     0.059 A 
ATOM     58  F   UNL A   1      43.705  32.390  33.243  1.00  0.00    -0.206 F 
ATOM     59  C   UNL A   1      44.063  35.746  31.957  1.00  0.00     0.060 A 
BRANCH  59  60
ATOM     60  S   UNL A   1      44.188  37.440  32.570  1.00  0.00     0.124 S 
ATOM     61  O   UNL A   1      43.931  38.208  31.357  1.00  0.00    -0.237 OA
ATOM     62  O   UNL A   1      43.142  37.483  33.586  1.00  0.00    -0.237 OA
ATOM     63  O   UNL A   1      45.552  37.506  33.086  1.00  0.00    -0.744 OA
ENDBRANCH  59  60
ENDBRANCH  27  52
BRANCH  39  64
ATOM     64  C   UNL A   1      48.118  27.838  29.713  1.00  0.00     0.058 A 
ATOM     65  C   UNL A   1      48.691  27.432  30.928  1.00  0.00     0.135 A 
ATOM     66  C   UNL A   1      48.976  28.119  28.639  1.00  0.00     0.135 A 
ATOM     67  F   UNL A   1      47.911  27.159  31.985  1.00  0.00    -0.206 F 
ATOM     68  C   UNL A   1      50.069  27.346  31.086  1.00  0.00     0.059 A 
ATOM     69  C   UNL A   1      50.357  28.019  28.769  1.00  0.00     0.059 A 
ATOM     70  F   UNL A   1      48.475  28.504  27.455  1.00  0.00    -0.206 F 
ATOM     71  C   UNL A   1      50.895  27.651  30.002  1.00  0.00     0.060 A 
BRANCH  71  72
ATOM     72  S   UNL A   1      52.684  27.548  30.217  1.00  0.00     0.124 S 
ATOM     73  O   UNL A   1      53.162  28.011  28.918  1.00  0.00    -0.237 OA
ATOM     74  O   UNL A   1      52.922  28.452  31.339  1.00  0.00    -0.237 OA
ATOM     75  O   UNL A   1      52.908  26.134  30.503  1.00  0.00    -0.744 OA
ENDBRANCH  71  72
ENDBRANCH  39  64
ENDBRANCH  13  14
ENDBRANCH   6   8
ENDBRANCH   3   4
ENDBRANCH   2   3
ENDBRANCH   1   2
BRANCH   1  76
ATOM     76  C   UNL A   1      32.624  27.832  23.073  1.00  0.00     0.116 C 
BRANCH  76  77
ATOM     77  N   UNL A   1      32.835  27.182  21.790  1.00  0.00    -0.352 N 
ATOM     78  C   UNL A   1      32.829  25.839  21.502  1.00  0.00     0.251 C 
ATOM     79  H   UNL A   1      33.003  27.782  21.028  1.00  0.00     0.163 HD
ATOM     80  O   UNL A   1      33.137  25.422  20.392  1.00  0.00    -0.269 OA
BRANCH  78  81
ATOM     81  C   UNL A   1      32.465  24.882  22.564  1.00  0.00     0.041 A 
ATOM     82  C   UNL A   1      31.110  24.686  22.845  1.00  0.00     0.014 A 
ATOM     83  C   UNL A   1      33.458  24.171  23.250  1.00  0.00     0.034 A 
ATOM     84  C   UNL A   1      30.733  23.733  23.790  1.00  0.00     0.002 A 
ATOM     85  C   UNL A   1      33.069  23.201  24.172  1.00  0.00     0.068 A 
ATOM     86  C   UNL A   1      31.711  22.980  24.442  1.00  0.00     0.020 A 
BRANCH  85  87
ATOM     87  S   UNL A   1      34.254  22.163  24.999  1.00  0.00     0.182 S 
ATOM     88  O   UNL A   1      35.209  21.787  23.972  1.00  0.00    -0.223 OA
ATOM     89  O   UNL A   1      34.702  22.899  26.169  1.00  0.00    -0.223 OA
BRANCH  87  90
ATOM     90  C   UNL A   1      33.454  20.677  25.546  1.00  0.00     0.177 C 
BRANCH  90  91
ATOM     91  C   UNL A   1      33.460  19.477  24.623  1.00  0.00    -0.029 A 
ATOM     92  C   UNL A   1      34.529  18.570  24.796  1.00  0.00     0.005 A 
ATOM     93  C   UNL A   1      32.508  19.178  23.638  1.00  0.00     0.051 A 
ATOM     94  C   UNL A   1      34.648  17.420  24.010  1.00  0.00     0.004 A 
ATOM     95  C   UNL A   1      32.651  18.037  22.843  1.00  0.00     0.115 A 
ATOM     96  C   UNL A   1      33.706  17.154  23.026  1.00  0.00     0.046 A 
BRANCH  95  97
ATOM     97  O   UNL A   1      31.773  17.764  21.835  1.00  0.00    -0.508 OA
ATOM     98  H   UNL A   1      32.031  17.208  21.126  1.00  0.00     0.293 HD
ENDBRANCH  95  97
ENDBRANCH  90  91
ENDBRANCH  87  90
ENDBRANCH  85  87
ENDBRANCH  78  81
ENDBRANCH  76  77
ENDBRANCH   1  76
TORSDOF 18
ENDMDL
MODEL 2
REMARK VINA RESULT:     -12.1      1.618      2.291
REMARK SMILES O=C(NCCCCNC(=O)c1cccc(S(=O)(=O)Cc2cccc(O)c2)c1)c1ccc(-c2c3nc(c(-c4c(F)cc(S(=O)(=O)[O-])cc4F)c4ccc([nH]4)c(-c4c(F)cc(S(=O)(=O)[O-])cc4F)c4nc(c(-c5c(F)cc(S(=O)(=O)[O-])cc5F)c5ccc2[nH]5)C=C4)C=C3)cc1
REMARK SMILES IDX 6 1 5 2 4 3 3 4 1 5 2 6 28 8 29 9 93 10 30 11 92 12 31 13
REMARK SMILES IDX 32 14 33 15 86 16 34 17 91 18 85 19 87 20 35 21 90 22 84 23
REMARK SMILES IDX 83 24 36 26 70 27 49 28 69 29 50 30 53 31 68 32 88 33 51 34
REMARK SMILES IDX 52 35 67 37 89 38 54 39 37 40 38 41 47 42 39 43 40 44 46 45
REMARK SMILES IDX 48 46 41 47 42 48 43 49 44 50 45 51 71 52 72 53 81 54 73 55
REMARK SMILES IDX 74 56 80 57 82 58 75 59 76 60 77 61 78 62 79 63 55 64 56 65
REMARK SMILES IDX 65 66 57 67 58 68 64 69 66 70 59 71 60 72 61 73 62 74 63 75
REMARK SMILES IDX 7 76 8 77 9 78 10 80 11 81 12 82 27 83 13 84 15 85 14 86
REMARK SMILES IDX 16 87 17 88 18 89 19 90 20 91 21 92 26 93 22 94 24 95 23 96
REMARK SMILES IDX 25 97
REMARK H PARENT 3 7 87 25 53 36 8 79 25 98
REMARK Flexibility Score: inf
ROOT
ATOM      1  C   UNL A   1      32.879  29.604  24.956  1.00  0.00     0.023 C 
ENDROOT
BRANCH   1   2
ATOM      2  C   UNL A   1      33.515  28.403  25.645  1.00  0.00     0.023 C 
BRANCH   2   3
ATOM      3  C   UNL A   1      33.607  28.491  27.162  1.00  0.00     0.116 C 
BRANCH   3   4
ATOM      4  N   UNL A   1      33.523  29.849  27.683  1.00  0.00    -0.352 N 
ATOM      5  O   UNL A   1      34.247  31.725  28.720  1.00  0.00    -0.269 OA
ATOM      6  C   UNL A   1      34.507  30.610  28.279  1.00  0.00     0.251 C 
ATOM      7  H   UNL A   1      32.645  30.284  27.598  1.00  0.00     0.163 HD
BRANCH   6   8
ATOM      8  C   UNL A   1      35.870  30.047  28.412  1.00  0.00     0.039 A 
ATOM      9  C   UNL A   1      36.307  29.571  29.648  1.00  0.00     0.014 A 
ATOM     10  C   UNL A   1      36.739  30.066  27.317  1.00  0.00     0.014 A 
ATOM     11  C   UNL A   1      37.656  29.312  29.839  1.00  0.00     0.010 A 
ATOM     12  C   UNL A   1      38.080  29.696  27.489  1.00  0.00     0.010 A 
ATOM     13  C   UNL A   1      38.562  29.364  28.763  1.00  0.00    -0.014 A 
BRANCH  13  14
ATOM     14  C   UNL A   1      39.986  29.026  29.028  1.00  0.00     0.031 A 
ATOM     15  C   UNL A   1      40.572  27.695  28.636  1.00  0.00     0.074 A 
ATOM     16  C   UNL A   1      40.780  29.991  29.536  1.00  0.00     0.049 A 
ATOM     17  N   UNL A   1      41.819  27.299  28.696  1.00  0.00    -0.248 NA
ATOM     18  C   UNL A   1      39.648  26.673  28.118  1.00  0.00     0.031 C 
ATOM     19  C   UNL A   1      40.317  31.310  29.978  1.00  0.00     0.029 A 
ATOM     20  N   UNL A   1      42.138  30.040  29.718  1.00  0.00    -0.354 N 
ATOM     21  C   UNL A   1      41.829  25.984  28.242  1.00  0.00     0.074 A 
ATOM     22  C   UNL A   1      40.458  25.639  27.931  1.00  0.00     0.031 C 
ATOM     23  C   UNL A   1      41.376  32.064  30.300  1.00  0.00     0.029 A 
ATOM     24  C   UNL A   1      42.587  31.265  30.151  1.00  0.00     0.049 A 
ATOM     25  H   UNL A   1      42.732  29.272  29.556  1.00  0.00     0.167 HD
ATOM     26  C   UNL A   1      42.886  25.147  28.095  1.00  0.00     0.037 A 
ATOM     27  C   UNL A   1      43.834  31.703  30.403  1.00  0.00     0.037 A 
ATOM     28  C   UNL A   1      44.251  25.505  28.391  1.00  0.00     0.049 A 
ATOM     29  C   UNL A   1      44.987  30.768  30.191  1.00  0.00     0.074 A 
ATOM     30  C   UNL A   1      45.392  24.727  28.277  1.00  0.00     0.029 A 
ATOM     31  N   UNL A   1      44.664  26.749  28.847  1.00  0.00    -0.354 N 
ATOM     32  N   UNL A   1      44.970  29.528  29.767  1.00  0.00    -0.248 NA
ATOM     33  C   UNL A   1      46.326  31.288  30.496  1.00  0.00     0.031 C 
ATOM     34  C   UNL A   1      46.490  25.493  28.689  1.00  0.00     0.029 A 
ATOM     35  C   UNL A   1      46.039  26.758  29.024  1.00  0.00     0.049 A 
ATOM     36  H   UNL A   1      44.068  27.513  29.019  1.00  0.00     0.167 HD
ATOM     37  C   UNL A   1      46.294  29.112  29.769  1.00  0.00     0.074 A 
ATOM     38  C   UNL A   1      47.089  30.247  30.193  1.00  0.00     0.031 C 
ATOM     39  C   UNL A   1      46.807  27.894  29.465  1.00  0.00     0.037 A 
BRANCH  26  40
ATOM     40  C   UNL A   1      42.615  23.754  27.594  1.00  0.00     0.058 A 
ATOM     41  C   UNL A   1      42.521  23.470  26.222  1.00  0.00     0.135 A 
ATOM     42  C   UNL A   1      42.514  22.678  28.491  1.00  0.00     0.135 A 
ATOM     43  F   UNL A   1      42.596  24.463  25.321  1.00  0.00    -0.206 F 
ATOM     44  C   UNL A   1      42.324  22.172  25.759  1.00  0.00     0.059 A 
ATOM     45  C   UNL A   1      42.337  21.369  28.050  1.00  0.00     0.059 A 
ATOM     46  F   UNL A   1      42.597  22.892  29.814  1.00  0.00    -0.206 F 
ATOM     47  C   UNL A   1      42.233  21.127  26.680  1.00  0.00     0.060 A 
BRANCH  47  48
ATOM     48  S   UNL A   1      41.998  19.447  26.063  1.00  0.00     0.124 S 
ATOM     49  O   UNL A   1      42.833  19.458  24.864  1.00  0.00    -0.237 OA
ATOM     50  O   UNL A   1      42.491  18.633  27.169  1.00  0.00    -0.237 OA
ATOM     51  O   UNL A   1      40.560  19.371  25.824  1.00  0.00    -0.744 OA
ENDBRANCH  47  48
ENDBRANCH  26  40
BRANCH  27  52
ATOM     52  C   UNL A   1      44.040  33.088  30.899  1.00  0.00     0.058 A 
ATOM     53  C   UNL A   1      44.291  34.148  30.017  1.00  0.00     0.135 A 
ATOM     54  C   UNL A   1      43.952  33.380  32.269  1.00  0.00     0.135 A 
ATOM     55  F   UNL A   1      44.384  33.918  28.699  1.00  0.00    -0.206 F 
ATOM     56  C   UNL A   1      44.457  35.451  30.477  1.00  0.00     0.059 A 
ATOM     57  C   UNL A   1      44.087  34.677  32.749  1.00  0.00     0.059 A 
ATOM     58  F   UNL A   1      43.692  32.401  33.150  1.00  0.00    -0.206 F 
ATOM     59  C   UNL A   1      44.351  35.705  31.846  1.00  0.00     0.060 A 
BRANCH  59  60
ATOM     60  S   UNL A   1      44.502  37.404  32.437  1.00  0.00     0.124 S 
ATOM     61  O   UNL A   1      43.779  37.337  33.701  1.00  0.00    -0.237 OA
ATOM     62  O   UNL A   1      45.948  37.573  32.537  1.00  0.00    -0.237 OA
ATOM     63  O   UNL A   1      43.862  38.181  31.380  1.00  0.00    -0.744 OA
ENDBRANCH  59  60
ENDBRANCH  27  52
BRANCH  39  64
ATOM     64  C   UNL A   1      48.295  27.740  29.597  1.00  0.00     0.058 A 
ATOM     65  C   UNL A   1      48.875  27.288  30.792  1.00  0.00     0.135 A 
ATOM     66  C   UNL A   1      49.145  28.052  28.525  1.00  0.00     0.135 A 
ATOM     67  F   UNL A   1      48.103  26.985  31.847  1.00  0.00    -0.206 F 
ATOM     68  C   UNL A   1      50.254  27.188  30.935  1.00  0.00     0.059 A 
ATOM     69  C   UNL A   1      50.526  27.938  28.639  1.00  0.00     0.059 A 
ATOM     70  F   UNL A   1      48.636  28.480  27.360  1.00  0.00    -0.206 F 
ATOM     71  C   UNL A   1      51.073  27.525  29.854  1.00  0.00     0.060 A 
BRANCH  71  72
ATOM     72  S   UNL A   1      52.862  27.402  30.050  1.00  0.00     0.124 S 
ATOM     73  O   UNL A   1      52.984  27.175  31.486  1.00  0.00    -0.237 OA
ATOM     74  O   UNL A   1      53.198  26.265  29.197  1.00  0.00    -0.237 OA
ATOM     75  O   UNL A   1      53.343  28.696  29.575  1.00  0.00    -0.744 OA
ENDBRANCH  71  72
ENDBRANCH  39  64
ENDBRANCH  13  14
ENDBRANCH   6   8
ENDBRANCH   3   4
ENDBRANCH   2   3
ENDBRANCH   1   2
BRANCH   1  76
ATOM     76  C   UNL A   1      31.360  29.678  25.047  1.00  0.00     0.116 C 
BRANCH  76  77
ATOM     77  N   UNL A   1      30.724  29.921  23.762  1.00  0.00    -0.352 N 
ATOM     78  C   UNL A   1      30.351  29.007  22.808  1.00  0.00     0.251 C 
ATOM     79  H   UNL A   1      30.536  30.863  23.550  1.00  0.00     0.163 HD
ATOM     80  O   UNL A   1      29.927  29.361  21.714  1.00  0.00    -0.269 OA
BRANCH  78  81
ATOM     81  C   UNL A   1      30.488  27.568  23.103  1.00  0.00     0.041 A 
ATOM     82  C   UNL A   1      29.423  26.914  23.730  1.00  0.00     0.014 A 
ATOM     83  C   UNL A   1      31.650  26.876  22.738  1.00  0.00     0.034 A 
ATOM     84  C   UNL A   1      29.493  25.541  23.953  1.00  0.00     0.002 A 
ATOM     85  C   UNL A   1      31.698  25.498  22.940  1.00  0.00     0.068 A 
ATOM     86  C   UNL A   1      30.623  24.829  23.545  1.00  0.00     0.020 A 
BRANCH  85  87
ATOM     87  S   UNL A   1      33.078  24.516  22.395  1.00  0.00     0.182 S 
ATOM     88  O   UNL A   1      32.660  23.139  22.585  1.00  0.00    -0.223 OA
ATOM     89  O   UNL A   1      33.422  24.991  21.065  1.00  0.00    -0.223 OA
BRANCH  87  90
ATOM     90  C   UNL A   1      34.462  24.801  23.466  1.00  0.00     0.177 C 
BRANCH  90  91
ATOM     91  C   UNL A   1      35.078  23.615  24.176  1.00  0.00    -0.029 A 
ATOM     92  C   UNL A   1      36.168  22.999  23.522  1.00  0.00     0.005 A 
ATOM     93  C   UNL A   1      34.681  23.086  25.414  1.00  0.00     0.051 A 
ATOM     94  C   UNL A   1      36.826  21.897  24.074  1.00  0.00     0.004 A 
ATOM     95  C   UNL A   1      35.332  21.969  25.944  1.00  0.00     0.115 A 
ATOM     96  C   UNL A   1      36.404  21.377  25.290  1.00  0.00     0.046 A 
BRANCH  95  97
ATOM     97  O   UNL A   1      34.919  21.399  27.113  1.00  0.00    -0.508 OA
ATOM     98  H   UNL A   1      35.368  20.650  27.454  1.00  0.00     0.293 HD
ENDBRANCH  95  97
ENDBRANCH  90  91
ENDBRANCH  87  90
ENDBRANCH  85  87
ENDBRANCH  78  81
ENDBRANCH  76  77
ENDBRANCH   1  76
TORSDOF 18
ENDMDL
MODEL 3
REMARK VINA RESULT:     -11.7      3.627      9.501
REMARK SMILES O=C(NCCCCNC(=O)c1cccc(S(=O)(=O)Cc2cccc(O)c2)c1)c1ccc(-c2c3nc(c(-c4c(F)cc(S(=O)(=O)[O-])cc4F)c4ccc([nH]4)c(-c4c(F)cc(S(=O)(=O)[O-])cc4F)c4nc(c(-c5c(F)cc(S(=O)(=O)[O-])cc5F)c5ccc2[nH]5)C=C4)C=C3)cc1
REMARK SMILES IDX 6 1 5 2 4 3 3 4 1 5 2 6 28 8 29 9 93 10 30 11 92 12 31 13
REMARK SMILES IDX 32 14 33 15 86 16 34 17 91 18 85 19 87 20 35 21 90 22 84 23
REMARK SMILES IDX 83 24 36 26 70 27 49 28 69 29 50 30 53 31 68 32 88 33 51 34
REMARK SMILES IDX 52 35 67 37 89 38 54 39 37 40 38 41 47 42 39 43 40 44 46 45
REMARK SMILES IDX 48 46 41 47 42 48 43 49 44 50 45 51 71 52 72 53 81 54 73 55
REMARK SMILES IDX 74 56 80 57 82 58 75 59 76 60 77 61 78 62 79 63 55 64 56 65
REMARK SMILES IDX 65 66 57 67 58 68 64 69 66 70 59 71 60 72 61 73 62 74 63 75
REMARK SMILES IDX 7 76 8 77 9 78 10 80 11 81 12 82 27 83 13 84 15 85 14 86
REMARK SMILES IDX 16 87 17 88 18 89 19 90 20 91 21 92 26 93 22 94 24 95 23 96
REMARK SMILES IDX 25 97
REMARK H PARENT 3 7 87 25 53 36 8 79 25 98
REMARK Flexibility Score: inf
ROOT
ATOM      1  C   UNL A   1      34.980  22.962  26.878  1.00  0.00     0.023 C 
ENDROOT
BRANCH   1   2
ATOM      2  C   UNL A   1      35.687  22.870  25.532  1.00  0.00     0.023 C 
BRANCH   2   3
ATOM      3  C   UNL A   1      36.988  23.653  25.420  1.00  0.00     0.116 C 
BRANCH   3   4
ATOM      4  N   UNL A   1      38.185  22.826  25.502  1.00  0.00    -0.352 N 
ATOM      5  O   UNL A   1      40.320  22.308  26.045  1.00  0.00    -0.269 OA
ATOM      6  C   UNL A   1      39.385  23.098  26.127  1.00  0.00     0.251 C 
ATOM      7  H   UNL A   1      38.131  21.953  25.050  1.00  0.00     0.163 HD
BRANCH   6   8
ATOM      8  C   UNL A   1      39.539  24.373  26.863  1.00  0.00     0.039 A 
ATOM      9  C   UNL A   1      40.288  25.409  26.308  1.00  0.00     0.014 A 
ATOM     10  C   UNL A   1      38.996  24.504  28.145  1.00  0.00     0.014 A 
ATOM     11  C   UNL A   1      40.665  26.479  27.106  1.00  0.00     0.010 A 
ATOM     12  C   UNL A   1      39.289  25.641  28.910  1.00  0.00     0.010 A 
ATOM     13  C   UNL A   1      40.168  26.616  28.416  1.00  0.00    -0.014 A 
BRANCH  13  14
ATOM     14  C   UNL A   1      40.574  27.813  29.200  1.00  0.00     0.031 A 
ATOM     15  C   UNL A   1      39.649  28.986  29.392  1.00  0.00     0.074 A 
ATOM     16  C   UNL A   1      41.764  27.779  29.833  1.00  0.00     0.049 A 
ATOM     17  N   UNL A   1      39.817  30.047  30.142  1.00  0.00    -0.248 NA
ATOM     18  C   UNL A   1      38.380  28.978  28.648  1.00  0.00     0.031 C 
ATOM     19  C   UNL A   1      42.755  26.707  29.698  1.00  0.00     0.029 A 
ATOM     20  N   UNL A   1      42.323  28.630  30.750  1.00  0.00    -0.354 N 
ATOM     21  C   UNL A   1      38.689  30.838  29.950  1.00  0.00     0.074 A 
ATOM     22  C   UNL A   1      37.851  30.146  28.993  1.00  0.00     0.031 C 
ATOM     23  C   UNL A   1      43.757  26.921  30.561  1.00  0.00     0.029 A 
ATOM     24  C   UNL A   1      43.515  28.176  31.263  1.00  0.00     0.049 A 
ATOM     25  H   UNL A   1      41.912  29.485  31.015  1.00  0.00     0.167 HD
ATOM     26  C   UNL A   1      38.380  32.027  30.524  1.00  0.00     0.037 A 
ATOM     27  C   UNL A   1      44.329  28.706  32.194  1.00  0.00     0.037 A 
ATOM     28  C   UNL A   1      39.213  32.702  31.490  1.00  0.00     0.049 A 
ATOM     29  C   UNL A   1      43.942  30.001  32.842  1.00  0.00     0.074 A 
ATOM     30  C   UNL A   1      38.990  33.911  32.126  1.00  0.00     0.029 A 
ATOM     31  N   UNL A   1      40.423  32.218  31.968  1.00  0.00    -0.354 N 
ATOM     32  N   UNL A   1      42.873  30.732  32.639  1.00  0.00    -0.248 NA
ATOM     33  C   UNL A   1      44.871  30.546  33.840  1.00  0.00     0.031 C 
ATOM     34  C   UNL A   1      40.077  34.171  32.971  1.00  0.00     0.029 A 
ATOM     35  C   UNL A   1      40.959  33.107  32.887  1.00  0.00     0.049 A 
ATOM     36  H   UNL A   1      40.839  31.369  31.696  1.00  0.00     0.167 HD
ATOM     37  C   UNL A   1      43.008  31.835  33.472  1.00  0.00     0.074 A 
ATOM     38  C   UNL A   1      44.239  31.650  34.214  1.00  0.00     0.031 C 
ATOM     39  C   UNL A   1      42.195  32.912  33.600  1.00  0.00     0.037 A 
BRANCH  26  40
ATOM     40  C   UNL A   1      37.089  32.688  30.123  1.00  0.00     0.058 A 
ATOM     41  C   UNL A   1      35.892  32.444  30.816  1.00  0.00     0.135 A 
ATOM     42  C   UNL A   1      37.059  33.625  29.078  1.00  0.00     0.135 A 
ATOM     43  F   UNL A   1      35.861  31.546  31.814  1.00  0.00    -0.206 F 
ATOM     44  C   UNL A   1      34.710  33.096  30.478  1.00  0.00     0.059 A 
ATOM     45  C   UNL A   1      35.892  34.304  28.736  1.00  0.00     0.059 A 
ATOM     46  F   UNL A   1      38.174  33.897  28.382  1.00  0.00    -0.206 F 
ATOM     47  C   UNL A   1      34.719  34.026  29.437  1.00  0.00     0.060 A 
BRANCH  47  48
ATOM     48  S   UNL A   1      33.182  34.878  29.024  1.00  0.00     0.124 S 
ATOM     49  O   UNL A   1      32.598  33.967  28.043  1.00  0.00    -0.237 OA
ATOM     50  O   UNL A   1      32.501  34.940  30.313  1.00  0.00    -0.237 OA
ATOM     51  O   UNL A   1      33.636  36.161  28.496  1.00  0.00    -0.744 OA
ENDBRANCH  47  48
ENDBRANCH  26  40
BRANCH  27  52
ATOM     52  C   UNL A   1      45.593  28.010  32.547  1.00  0.00     0.058 A 
ATOM     53  C   UNL A   1      46.807  28.344  31.930  1.00  0.00     0.135 A 
ATOM     54  C   UNL A   1      45.613  27.021  33.543  1.00  0.00     0.135 A 
ATOM     55  F   UNL A   1      46.837  29.284  30.973  1.00  0.00    -0.206 F 
ATOM     56  C   UNL A   1      47.996  27.713  32.280  1.00  0.00     0.059 A 
ATOM     57  C   UNL A   1      46.794  26.396  33.928  1.00  0.00     0.059 A 
ATOM     58  F   UNL A   1      44.480  26.682  34.177  1.00  0.00    -0.206 F 
ATOM     59  C   UNL A   1      47.979  26.741  33.282  1.00  0.00     0.060 A 
BRANCH  59  60
ATOM     60  S   UNL A   1      49.532  25.968  33.782  1.00  0.00     0.124 S 
ATOM     61  O   UNL A   1      49.816  26.666  35.029  1.00  0.00    -0.237 OA
ATOM     62  O   UNL A   1      49.157  24.564  33.906  1.00  0.00    -0.237 OA
ATOM     63  O   UNL A   1      50.426  26.271  32.668  1.00  0.00    -0.744 OA
ENDBRANCH  59  60
ENDBRANCH  27  52
BRANCH  39  64
ATOM     64  C   UNL A   1      42.632  33.971  34.572  1.00  0.00     0.058 A 
ATOM     65  C   UNL A   1      42.250  33.920  35.921  1.00  0.00     0.135 A 
ATOM     66  C   UNL A   1      43.432  35.043  34.151  1.00  0.00     0.135 A 
ATOM     67  F   UNL A   1      41.479  32.916  36.368  1.00  0.00    -0.206 F 
ATOM     68  C   UNL A   1      42.613  34.920  36.815  1.00  0.00     0.059 A 
ATOM     69  C   UNL A   1      43.825  36.044  35.034  1.00  0.00     0.059 A 
ATOM     70  F   UNL A   1      43.829  35.132  32.873  1.00  0.00    -0.206 F 
ATOM     71  C   UNL A   1      43.394  35.985  36.359  1.00  0.00     0.060 A 
BRANCH  71  72
ATOM     72  S   UNL A   1      43.853  37.285  37.522  1.00  0.00     0.124 S 
ATOM     73  O   UNL A   1      42.628  37.423  38.304  1.00  0.00    -0.237 OA
ATOM     74  O   UNL A   1      44.991  36.697  38.224  1.00  0.00    -0.237 OA
ATOM     75  O   UNL A   1      44.176  38.415  36.656  1.00  0.00    -0.744 OA
ENDBRANCH  71  72
ENDBRANCH  39  64
ENDBRANCH  13  14
ENDBRANCH   6   8
ENDBRANCH   3   4
ENDBRANCH   2   3
ENDBRANCH   1   2
BRANCH   1  76
ATOM     76  C   UNL A   1      34.049  21.800  27.205  1.00  0.00     0.116 C 
BRANCH  76  77
ATOM     77  N   UNL A   1      32.715  22.229  27.590  1.00  0.00    -0.352 N 
ATOM     78  C   UNL A   1      31.783  22.900  26.837  1.00  0.00     0.251 C 
ATOM     79  H   UNL A   1      32.444  22.011  28.511  1.00  0.00     0.163 HD
ATOM     80  O   UNL A   1      30.736  23.304  27.327  1.00  0.00    -0.269 OA
BRANCH  78  81
ATOM     81  C   UNL A   1      32.066  23.156  25.412  1.00  0.00     0.041 A 
ATOM     82  C   UNL A   1      31.967  22.091  24.513  1.00  0.00     0.014 A 
ATOM     83  C   UNL A   1      32.400  24.445  24.975  1.00  0.00     0.034 A 
ATOM     84  C   UNL A   1      32.154  22.319  23.151  1.00  0.00     0.002 A 
ATOM     85  C   UNL A   1      32.557  24.667  23.609  1.00  0.00     0.068 A 
ATOM     86  C   UNL A   1      32.434  23.608  22.697  1.00  0.00     0.020 A 
BRANCH  85  87
ATOM     87  S   UNL A   1      32.857  26.293  22.950  1.00  0.00     0.182 S 
ATOM     88  O   UNL A   1      33.687  26.077  21.778  1.00  0.00    -0.223 OA
ATOM     89  O   UNL A   1      31.558  26.927  22.809  1.00  0.00    -0.223 OA
BRANCH  87  90
ATOM     90  C   UNL A   1      33.815  27.231  24.111  1.00  0.00     0.177 C 
BRANCH  90  91
ATOM     91  C   UNL A   1      33.081  28.032  25.166  1.00  0.00    -0.029 A 
ATOM     92  C   UNL A   1      32.970  29.418  24.923  1.00  0.00     0.005 A 
ATOM     93  C   UNL A   1      32.497  27.529  26.338  1.00  0.00     0.051 A 
ATOM     94  C   UNL A   1      32.314  30.269  25.817  1.00  0.00     0.004 A 
ATOM     95  C   UNL A   1      31.864  28.393  27.236  1.00  0.00     0.115 A 
ATOM     96  C   UNL A   1      31.761  29.753  26.982  1.00  0.00     0.046 A 
BRANCH  95  97
ATOM     97  O   UNL A   1      31.349  27.935  28.413  1.00  0.00    -0.508 OA
ATOM     98  H   UNL A   1      31.287  27.014  28.572  1.00  0.00     0.293 HD
ENDBRANCH  95  97
ENDBRANCH  90  91
ENDBRANCH  87  90
ENDBRANCH  85  87
ENDBRANCH  78  81
ENDBRANCH  76  77
ENDBRANCH   1  76
TORSDOF 18
ENDMDL
