MODEL 1
REMARK VINA RESULT:     -12.7      0.000      0.000
REMARK SMILES CCn1nc(C)c(NS(=O)(=O)c2cc(C(=O)NCCCCNC(=O)c3ccc(-c4c5nc(c(-c6c(F)cc(S(=O)(=O)[O-])cc6F)c6ccc([nH]6)c(-c6c(F)cc(S(=O)(=O)[O-])cc6F)c6nc(c(-c7c(F)cc(S(=O)(=O)[O-])cc7F)c7ccc4[nH]7)C=C6)C=C5)cc3)cc(F)c2C)c1C
REMARK SMILES IDX 19 1 18 2 17 3 15 4 16 5 14 7 12 8 13 9 94 10 92 11 95 12
REMARK SMILES IDX 91 13 93 14 9 15 10 16 11 17 8 18 7 20 3 21 4 22 96 23 5 24
REMARK SMILES IDX 97 25 6 26 2 27 1 28 20 29 21 30 22 31 23 32 24 34 25 35
REMARK SMILES IDX 26 36 90 37 27 38 89 39 28 40 29 41 30 42 83 43 31 44 88 45
REMARK SMILES IDX 82 46 84 47 32 48 87 49 81 50 80 51 33 53 67 54 46 55 66 56
REMARK SMILES IDX 47 57 50 58 65 59 85 60 48 61 49 62 64 64 86 65 51 66 34 67
REMARK SMILES IDX 35 68 44 69 36 70 37 71 43 72 45 73 38 74 39 75 40 76 41 77
REMARK SMILES IDX 42 78 68 79 69 80 78 81 70 82 71 83 77 84 79 85 72 86 73 87
REMARK SMILES IDX 74 88 75 89 76 90 52 91 53 92 62 93 54 94 55 95 61 96 63 97
REMARK SMILES IDX 56 98 57 99 58 100 59 101 60 102
REMARK H PARENT 17 6 8 19 22 33 84 52 50 63
REMARK Flexibility Score: inf
ROOT
ATOM      1  C   UNL A   1      35.316  22.783  26.678  1.00  0.00     0.023 C 
ENDROOT
BRANCH   1   2
ATOM      2  C   UNL A   1      33.853  22.762  27.154  1.00  0.00     0.116 C 
BRANCH   2   3
ATOM      3  N   UNL A   1      33.108  21.660  26.541  1.00  0.00    -0.352 N 
ATOM      4  C   UNL A   1      32.279  21.576  25.450  1.00  0.00     0.251 C 
ATOM      5  O   UNL A   1      31.775  20.488  25.170  1.00  0.00    -0.269 OA
ATOM      6  H   UNL A   1      33.226  20.801  27.009  1.00  0.00     0.163 HD
BRANCH   4   7
ATOM      7  C   UNL A   1      32.012  22.731  24.555  1.00  0.00     0.044 A 
ATOM      8  C   UNL A   1      31.087  24.956  24.140  1.00  0.00     0.094 A 
ATOM      9  C   UNL A   1      31.194  23.791  24.916  1.00  0.00     0.036 A 
ATOM     10  C   UNL A   1      31.752  25.038  22.913  1.00  0.00     0.005 A 
ATOM     11  C   UNL A   1      32.455  23.895  22.492  1.00  0.00     0.128 A 
ATOM     12  C   UNL A   1      31.723  26.216  21.991  1.00  0.00     0.049 C 
ATOM     13  C   UNL A   1      32.602  22.763  23.295  1.00  0.00     0.053 A 
ATOM     14  F   UNL A   1      33.024  23.885  21.276  1.00  0.00    -0.207 F 
BRANCH   8  15
ATOM     15  S   UNL A   1      30.163  26.257  24.923  1.00  0.00     0.262 S 
ATOM     16  O   UNL A   1      30.236  25.983  26.352  1.00  0.00    -0.201 OA
ATOM     17  O   UNL A   1      28.897  26.374  24.252  1.00  0.00    -0.201 OA
BRANCH  15  18
ATOM     18  N   UNL A   1      30.916  27.723  24.730  1.00  0.00    -0.276 N 
ATOM     19  H   UNL A   1      30.506  28.299  24.045  1.00  0.00     0.180 HD
BRANCH  18  20
ATOM     20  C   UNL A   1      32.019  28.289  25.358  1.00  0.00     0.093 A 
ATOM     21  N   UNL A   1      33.104  29.773  26.545  1.00  0.00    -0.268 N 
ATOM     22  N   UNL A   1      33.912  28.700  26.544  1.00  0.00    -0.176 NA
ATOM     23  C   UNL A   1      32.030  29.627  25.710  1.00  0.00     0.060 A 
ATOM     24  C   UNL A   1      33.297  27.812  25.750  1.00  0.00     0.084 A 
ATOM     25  C   UNL A   1      31.090  30.708  25.313  1.00  0.00     0.069 C 
ATOM     26  C   UNL A   1      34.017  26.554  25.440  1.00  0.00     0.071 C 
BRANCH  21  27
ATOM     27  C   UNL A   1      33.359  30.851  27.481  1.00  0.00     0.141 C 
ATOM     28  C   UNL A   1      34.830  31.094  27.773  1.00  0.00     0.029 C 
ENDBRANCH  21  27
ENDBRANCH  18  20
ENDBRANCH  15  18
ENDBRANCH   8  15
ENDBRANCH   4   7
ENDBRANCH   2   3
ENDBRANCH   1   2
BRANCH   1  29
ATOM     29  C   UNL A   1      35.561  23.647  25.449  1.00  0.00     0.023 C 
BRANCH  29  30
ATOM     30  C   UNL A   1      36.964  23.534  24.907  1.00  0.00     0.116 C 
BRANCH  30  31
ATOM     31  N   UNL A   1      37.869  22.752  25.722  1.00  0.00    -0.352 N 
ATOM     32  C   UNL A   1      39.110  23.142  26.190  1.00  0.00     0.251 C 
ATOM     33  H   UNL A   1      37.568  21.847  25.970  1.00  0.00     0.163 HD
ATOM     34  O   UNL A   1      40.024  22.344  26.367  1.00  0.00    -0.269 OA
BRANCH  32  35
ATOM     35  C   UNL A   1      39.251  24.530  26.698  1.00  0.00     0.039 A 
ATOM     36  C   UNL A   1      40.071  25.396  25.960  1.00  0.00     0.014 A 
ATOM     37  C   UNL A   1      38.926  24.827  28.014  1.00  0.00     0.014 A 
ATOM     38  C   UNL A   1      40.735  26.411  26.625  1.00  0.00     0.010 A 
ATOM     39  C   UNL A   1      39.766  25.620  28.721  1.00  0.00     0.010 A 
ATOM     40  C   UNL A   1      40.650  26.419  28.013  1.00  0.00    -0.014 A 
BRANCH  40  41
ATOM     41  C   UNL A   1      41.214  27.432  28.861  1.00  0.00     0.031 A 
ATOM     42  C   UNL A   1      40.319  28.588  29.012  1.00  0.00     0.074 A 
ATOM     43  C   UNL A   1      42.338  27.082  29.514  1.00  0.00     0.049 A 
ATOM     44  N   UNL A   1      40.665  29.821  29.018  1.00  0.00    -0.248 NA
ATOM     45  C   UNL A   1      38.852  28.427  28.985  1.00  0.00     0.031 C 
ATOM     46  C   UNL A   1      43.073  27.748  30.572  1.00  0.00     0.029 A 
ATOM     47  N   UNL A   1      43.188  26.041  29.117  1.00  0.00    -0.354 N 
ATOM     48  C   UNL A   1      39.561  30.498  29.506  1.00  0.00     0.074 A 
ATOM     49  C   UNL A   1      38.438  29.678  29.165  1.00  0.00     0.031 C 
ATOM     50  C   UNL A   1      44.365  27.370  30.485  1.00  0.00     0.029 A 
ATOM     51  C   UNL A   1      44.497  26.494  29.323  1.00  0.00     0.049 A 
ATOM     52  H   UNL A   1      42.918  25.163  28.764  1.00  0.00     0.167 HD
ATOM     53  C   UNL A   1      39.762  31.465  30.447  1.00  0.00     0.037 A 
ATOM     54  C   UNL A   1      45.226  26.781  28.202  1.00  0.00     0.037 A 
ATOM     55  C   UNL A   1      41.211  31.589  30.675  1.00  0.00     0.049 A 
ATOM     56  C   UNL A   1      45.338  28.282  28.016  1.00  0.00     0.074 A 
ATOM     57  C   UNL A   1      42.039  31.091  31.671  1.00  0.00     0.029 A 
ATOM     58  N   UNL A   1      42.043  31.881  29.595  1.00  0.00    -0.354 N 
ATOM     59  N   UNL A   1      44.447  29.154  28.426  1.00  0.00    -0.248 NA
ATOM     60  C   UNL A   1      46.557  28.917  27.527  1.00  0.00     0.031 C 
ATOM     61  C   UNL A   1      43.355  30.991  31.135  1.00  0.00     0.029 A 
ATOM     62  C   UNL A   1      43.325  31.401  29.811  1.00  0.00     0.049 A 
ATOM     63  H   UNL A   1      41.759  32.364  28.785  1.00  0.00     0.167 HD
ATOM     64  C   UNL A   1      44.972  30.421  28.337  1.00  0.00     0.074 A 
ATOM     65  C   UNL A   1      46.292  30.213  27.761  1.00  0.00     0.031 C 
ATOM     66  C   UNL A   1      44.350  31.558  28.786  1.00  0.00     0.037 A 
BRANCH  53  67
ATOM     67  C   UNL A   1      38.698  32.008  31.393  1.00  0.00     0.058 A 
ATOM     68  C   UNL A   1      38.123  33.276  31.151  1.00  0.00     0.135 A 
ATOM     69  C   UNL A   1      38.190  31.361  32.543  1.00  0.00     0.135 A 
ATOM     70  F   UNL A   1      38.451  33.998  30.072  1.00  0.00    -0.206 F 
ATOM     71  C   UNL A   1      37.170  33.861  31.991  1.00  0.00     0.059 A 
ATOM     72  C   UNL A   1      37.266  31.941  33.419  1.00  0.00     0.059 A 
ATOM     73  F   UNL A   1      38.509  30.103  32.857  1.00  0.00    -0.206 F 
ATOM     74  C   UNL A   1      36.749  33.189  33.129  1.00  0.00     0.060 A 
BRANCH  74  75
ATOM     75  S   UNL A   1      35.475  33.929  34.165  1.00  0.00     0.124 S 
ATOM     76  O   UNL A   1      35.579  35.342  33.817  1.00  0.00    -0.237 OA
ATOM     77  O   UNL A   1      34.273  33.245  33.700  1.00  0.00    -0.237 OA
ATOM     78  O   UNL A   1      35.897  33.589  35.522  1.00  0.00    -0.744 OA
ENDBRANCH  74  75
ENDBRANCH  53  67
BRANCH  54  79
ATOM     79  C   UNL A   1      45.131  25.673  27.185  1.00  0.00     0.058 A 
ATOM     80  C   UNL A   1      45.735  24.451  27.561  1.00  0.00     0.135 A 
ATOM     81  C   UNL A   1      44.110  25.586  26.222  1.00  0.00     0.135 A 
ATOM     82  F   UNL A   1      46.745  24.456  28.446  1.00  0.00    -0.206 F 
ATOM     83  C   UNL A   1      45.230  23.213  27.168  1.00  0.00     0.059 A 
ATOM     84  C   UNL A   1      43.577  24.345  25.818  1.00  0.00     0.059 A 
ATOM     85  F   UNL A   1      43.541  26.704  25.751  1.00  0.00    -0.206 F 
ATOM     86  C   UNL A   1      44.101  23.169  26.357  1.00  0.00     0.060 A 
BRANCH  86  87
ATOM     87  S   UNL A   1      43.285  21.562  26.153  1.00  0.00     0.124 S 
ATOM     88  O   UNL A   1      42.310  21.842  25.104  1.00  0.00    -0.237 OA
ATOM     89  O   UNL A   1      44.403  20.702  25.767  1.00  0.00    -0.237 OA
ATOM     90  O   UNL A   1      42.728  21.276  27.467  1.00  0.00    -0.744 OA
ENDBRANCH  86  87
ENDBRANCH  54  79
BRANCH  66  91
ATOM     91  C   UNL A   1      44.701  32.971  28.352  1.00  0.00     0.058 A 
ATOM     92  C   UNL A   1      44.344  33.519  27.109  1.00  0.00     0.135 A 
ATOM     93  C   UNL A   1      45.264  33.893  29.275  1.00  0.00     0.135 A 
ATOM     94  F   UNL A   1      43.691  32.804  26.183  1.00  0.00    -0.206 F 
ATOM     95  C   UNL A   1      44.598  34.846  26.775  1.00  0.00     0.059 A 
ATOM     96  C   UNL A   1      45.437  35.243  28.996  1.00  0.00     0.059 A 
ATOM     97  F   UNL A   1      45.652  33.524  30.504  1.00  0.00    -0.206 F 
ATOM     98  C   UNL A   1      45.136  35.705  27.727  1.00  0.00     0.060 A 
BRANCH  98  99
ATOM     99  S   UNL A   1      45.406  37.430  27.305  1.00  0.00     0.124 S 
ATOM    100  O   UNL A   1      44.067  37.835  26.892  1.00  0.00    -0.237 OA
ATOM    101  O   UNL A   1      45.877  37.994  28.566  1.00  0.00    -0.237 OA
ATOM    102  O   UNL A   1      46.404  37.366  26.242  1.00  0.00    -0.744 OA
ENDBRANCH  98  99
ENDBRANCH  66  91
ENDBRANCH  40  41
ENDBRANCH  32  35
ENDBRANCH  30  31
ENDBRANCH  29  30
ENDBRANCH   1  29
TORSDOF 18
ENDMDL
MODEL 2
REMARK VINA RESULT:     -12.6      1.606      2.149
REMARK SMILES CCn1nc(C)c(NS(=O)(=O)c2cc(C(=O)NCCCCNC(=O)c3ccc(-c4c5nc(c(-c6c(F)cc(S(=O)(=O)[O-])cc6F)c6ccc([nH]6)c(-c6c(F)cc(S(=O)(=O)[O-])cc6F)c6nc(c(-c7c(F)cc(S(=O)(=O)[O-])cc7F)c7ccc4[nH]7)C=C6)C=C5)cc3)cc(F)c2C)c1C
REMARK SMILES IDX 19 1 18 2 17 3 15 4 16 5 14 7 12 8 13 9 94 10 92 11 95 12
REMARK SMILES IDX 91 13 93 14 9 15 10 16 11 17 8 18 7 20 3 21 4 22 96 23 5 24
REMARK SMILES IDX 97 25 6 26 2 27 1 28 20 29 21 30 22 31 23 32 24 34 25 35
REMARK SMILES IDX 26 36 90 37 27 38 89 39 28 40 29 41 30 42 83 43 31 44 88 45
REMARK SMILES IDX 82 46 84 47 32 48 87 49 81 50 80 51 33 53 67 54 46 55 66 56
REMARK SMILES IDX 47 57 50 58 65 59 85 60 48 61 49 62 64 64 86 65 51 66 34 67
REMARK SMILES IDX 35 68 44 69 36 70 37 71 43 72 45 73 38 74 39 75 40 76 41 77
REMARK SMILES IDX 42 78 68 79 69 80 78 81 70 82 71 83 77 84 79 85 72 86 73 87
REMARK SMILES IDX 74 88 75 89 76 90 52 91 53 92 62 93 54 94 55 95 61 96 63 97
REMARK SMILES IDX 56 98 57 99 58 100 59 101 60 102
REMARK H PARENT 17 6 8 19 22 33 84 52 50 63
REMARK Flexibility Score: inf
ROOT
ATOM      1  C   UNL A   1      35.528  22.327  26.468  1.00  0.00     0.023 C 
ENDROOT
BRANCH   1   2
ATOM      2  C   UNL A   1      34.093  22.420  27.015  1.00  0.00     0.116 C 
BRANCH   2   3
ATOM      3  N   UNL A   1      33.242  21.361  26.466  1.00  0.00    -0.352 N 
ATOM      4  C   UNL A   1      32.340  21.320  25.431  1.00  0.00     0.251 C 
ATOM      5  O   UNL A   1      31.752  20.264  25.198  1.00  0.00    -0.269 OA
ATOM      6  H   UNL A   1      33.338  20.501  26.935  1.00  0.00     0.163 HD
BRANCH   4   7
ATOM      7  C   UNL A   1      32.088  22.482  24.541  1.00  0.00     0.044 A 
ATOM      8  C   UNL A   1      31.139  24.697  24.119  1.00  0.00     0.094 A 
ATOM      9  C   UNL A   1      31.236  23.522  24.883  1.00  0.00     0.036 A 
ATOM     10  C   UNL A   1      31.850  24.806  22.920  1.00  0.00     0.005 A 
ATOM     11  C   UNL A   1      32.590  23.682  22.513  1.00  0.00     0.128 A 
ATOM     12  C   UNL A   1      31.836  25.996  22.013  1.00  0.00     0.049 C 
ATOM     13  C   UNL A   1      32.727  22.543  23.306  1.00  0.00     0.053 A 
ATOM     14  F   UNL A   1      33.208  23.699  21.321  1.00  0.00    -0.207 F 
BRANCH   8  15
ATOM     15  S   UNL A   1      30.160  25.970  24.881  1.00  0.00     0.262 S 
ATOM     16  O   UNL A   1      30.223  25.706  26.312  1.00  0.00    -0.201 OA
ATOM     17  O   UNL A   1      28.900  26.039  24.192  1.00  0.00    -0.201 OA
BRANCH  15  18
ATOM     18  N   UNL A   1      30.865  27.460  24.688  1.00  0.00    -0.276 N 
ATOM     19  H   UNL A   1      30.462  28.006  23.976  1.00  0.00     0.180 HD
BRANCH  18  20
ATOM     20  C   UNL A   1      31.921  28.078  25.347  1.00  0.00     0.093 A 
ATOM     21  N   UNL A   1      32.923  29.661  26.477  1.00  0.00    -0.268 N 
ATOM     22  N   UNL A   1      33.720  28.591  26.635  1.00  0.00    -0.176 NA
ATOM     23  C   UNL A   1      31.916  29.441  25.577  1.00  0.00     0.060 A 
ATOM     24  C   UNL A   1      33.161  27.636  25.879  1.00  0.00     0.084 A 
ATOM     25  C   UNL A   1      31.020  30.484  25.013  1.00  0.00     0.069 C 
ATOM     26  C   UNL A   1      33.892  26.354  25.740  1.00  0.00     0.071 C 
BRANCH  21  27
ATOM     27  C   UNL A   1      33.114  30.819  27.330  1.00  0.00     0.141 C 
ATOM     28  C   UNL A   1      34.567  31.132  27.647  1.00  0.00     0.029 C 
ENDBRANCH  21  27
ENDBRANCH  18  20
ENDBRANCH  15  18
ENDBRANCH   8  15
ENDBRANCH   4   7
ENDBRANCH   2   3
ENDBRANCH   1   2
BRANCH   1  29
ATOM     29  C   UNL A   1      36.007  23.582  25.752  1.00  0.00     0.023 C 
BRANCH  29  30
ATOM     30  C   UNL A   1      37.473  23.550  25.402  1.00  0.00     0.116 C 
BRANCH  30  31
ATOM     31  N   UNL A   1      38.326  22.960  26.412  1.00  0.00    -0.352 N 
ATOM     32  C   UNL A   1      39.426  23.544  27.014  1.00  0.00     0.251 C 
ATOM     33  H   UNL A   1      38.099  22.046  26.702  1.00  0.00     0.163 HD
ATOM     34  O   UNL A   1      40.388  22.889  27.397  1.00  0.00    -0.269 OA
BRANCH  32  35
ATOM     35  C   UNL A   1      39.322  24.974  27.399  1.00  0.00     0.039 A 
ATOM     36  C   UNL A   1      40.124  25.882  26.691  1.00  0.00     0.014 A 
ATOM     37  C   UNL A   1      38.783  25.328  28.627  1.00  0.00     0.014 A 
ATOM     38  C   UNL A   1      40.558  27.027  27.333  1.00  0.00     0.010 A 
ATOM     39  C   UNL A   1      39.412  26.282  29.355  1.00  0.00     0.010 A 
ATOM     40  C   UNL A   1      40.281  27.133  28.692  1.00  0.00    -0.014 A 
BRANCH  40  41
ATOM     41  C   UNL A   1      40.592  28.277  29.503  1.00  0.00     0.031 A 
ATOM     42  C   UNL A   1      39.636  29.375  29.300  1.00  0.00     0.074 A 
ATOM     43  C   UNL A   1      41.553  28.089  30.427  1.00  0.00     0.049 A 
ATOM     44  N   UNL A   1      39.916  30.622  29.220  1.00  0.00    -0.248 NA
ATOM     45  C   UNL A   1      38.222  29.107  28.973  1.00  0.00     0.031 C 
ATOM     46  C   UNL A   1      41.997  28.927  31.524  1.00  0.00     0.029 A 
ATOM     47  N   UNL A   1      42.516  27.074  30.367  1.00  0.00    -0.354 N 
ATOM     48  C   UNL A   1      38.702  31.271  29.360  1.00  0.00     0.074 A 
ATOM     49  C   UNL A   1      37.723  30.337  28.892  1.00  0.00     0.031 C 
ATOM     50  C   UNL A   1      43.291  28.637  31.773  1.00  0.00     0.029 A 
ATOM     51  C   UNL A   1      43.723  27.642  30.794  1.00  0.00     0.049 A 
ATOM     52  H   UNL A   1      42.372  26.143  30.081  1.00  0.00     0.167 HD
ATOM     53  C   UNL A   1      38.641  32.354  30.188  1.00  0.00     0.037 A 
ATOM     54  C   UNL A   1      44.673  27.847  29.833  1.00  0.00     0.037 A 
ATOM     55  C   UNL A   1      39.993  32.608  30.711  1.00  0.00     0.049 A 
ATOM     56  C   UNL A   1      44.758  29.319  29.480  1.00  0.00     0.074 A 
ATOM     57  C   UNL A   1      40.594  32.293  31.921  1.00  0.00     0.029 A 
ATOM     58  N   UNL A   1      41.035  32.830  29.811  1.00  0.00    -0.354 N 
ATOM     59  N   UNL A   1      43.760  30.167  29.567  1.00  0.00    -0.248 NA
ATOM     60  C   UNL A   1      46.027  29.979  29.193  1.00  0.00     0.031 C 
ATOM     61  C   UNL A   1      42.001  32.226  31.705  1.00  0.00     0.029 A 
ATOM     62  C   UNL A   1      42.254  32.474  30.365  1.00  0.00     0.049 A 
ATOM     63  H   UNL A   1      40.921  33.193  28.903  1.00  0.00     0.167 HD
ATOM     64  C   UNL A   1      44.235  31.449  29.430  1.00  0.00     0.074 A 
ATOM     65  C   UNL A   1      45.659  31.271  29.191  1.00  0.00     0.031 C 
ATOM     66  C   UNL A   1      43.477  32.583  29.578  1.00  0.00     0.037 A 
BRANCH  53  67
ATOM     67  C   UNL A   1      37.366  32.926  30.797  1.00  0.00     0.058 A 
ATOM     68  C   UNL A   1      36.485  33.687  29.998  1.00  0.00     0.135 A 
ATOM     69  C   UNL A   1      36.938  32.778  32.136  1.00  0.00     0.135 A 
ATOM     70  F   UNL A   1      36.713  33.877  28.691  1.00  0.00    -0.206 F 
ATOM     71  C   UNL A   1      35.317  34.279  30.489  1.00  0.00     0.059 A 
ATOM     72  C   UNL A   1      35.795  33.390  32.661  1.00  0.00     0.059 A 
ATOM     73  F   UNL A   1      37.565  31.981  33.005  1.00  0.00    -0.206 F 
ATOM     74  C   UNL A   1      34.980  34.130  31.827  1.00  0.00     0.060 A 
BRANCH  74  75
ATOM     75  S   UNL A   1      33.440  34.844  32.428  1.00  0.00     0.124 S 
ATOM     76  O   UNL A   1      32.862  33.737  33.183  1.00  0.00    -0.237 OA
ATOM     77  O   UNL A   1      33.919  35.973  33.218  1.00  0.00    -0.237 OA
ATOM     78  O   UNL A   1      32.726  35.201  31.204  1.00  0.00    -0.744 OA
ENDBRANCH  74  75
ENDBRANCH  53  67
BRANCH  54  79
ATOM     79  C   UNL A   1      44.861  26.622  28.974  1.00  0.00     0.058 A 
ATOM     80  C   UNL A   1      44.439  26.753  27.631  1.00  0.00     0.135 A 
ATOM     81  C   UNL A   1      45.836  25.640  29.222  1.00  0.00     0.135 A 
ATOM     82  F   UNL A   1      43.481  27.643  27.321  1.00  0.00    -0.206 F 
ATOM     83  C   UNL A   1      45.079  26.103  26.577  1.00  0.00     0.059 A 
ATOM     84  C   UNL A   1      46.503  24.978  28.172  1.00  0.00     0.059 A 
ATOM     85  F   UNL A   1      46.231  25.396  30.479  1.00  0.00    -0.206 F 
ATOM     86  C   UNL A   1      46.163  25.276  26.851  1.00  0.00     0.060 A 
BRANCH  86  87
ATOM     87  S   UNL A   1      47.169  24.729  25.444  1.00  0.00     0.124 S 
ATOM     88  O   UNL A   1      47.015  23.279  25.501  1.00  0.00    -0.237 OA
ATOM     89  O   UNL A   1      46.508  25.395  24.323  1.00  0.00    -0.237 OA
ATOM     90  O   UNL A   1      48.502  25.230  25.744  1.00  0.00    -0.744 OA
ENDBRANCH  86  87
ENDBRANCH  54  79
BRANCH  66  91
ATOM     91  C   UNL A   1      43.855  33.956  29.051  1.00  0.00     0.058 A 
ATOM     92  C   UNL A   1      43.927  34.277  27.685  1.00  0.00     0.135 A 
ATOM     93  C   UNL A   1      43.981  35.062  29.934  1.00  0.00     0.135 A 
ATOM     94  F   UNL A   1      43.702  33.363  26.732  1.00  0.00    -0.206 F 
ATOM     95  C   UNL A   1      44.184  35.568  27.232  1.00  0.00     0.059 A 
ATOM     96  C   UNL A   1      44.142  36.372  29.500  1.00  0.00     0.059 A 
ATOM     97  F   UNL A   1      43.930  34.919  31.267  1.00  0.00    -0.206 F 
ATOM     98  C   UNL A   1      44.282  36.612  28.145  1.00  0.00     0.060 A 
BRANCH  98  99
ATOM     99  S   UNL A   1      44.556  38.283  27.546  1.00  0.00     0.124 S 
ATOM    100  O   UNL A   1      44.548  39.038  28.794  1.00  0.00    -0.237 OA
ATOM    101  O   UNL A   1      45.851  38.173  26.882  1.00  0.00    -0.237 OA
ATOM    102  O   UNL A   1      43.421  38.516  26.658  1.00  0.00    -0.744 OA
ENDBRANCH  98  99
ENDBRANCH  66  91
ENDBRANCH  40  41
ENDBRANCH  32  35
ENDBRANCH  30  31
ENDBRANCH  29  30
ENDBRANCH   1  29
TORSDOF 18
ENDMDL
MODEL 3
REMARK VINA RESULT:     -12.1      2.941      4.046
REMARK SMILES CCn1nc(C)c(NS(=O)(=O)c2cc(C(=O)NCCCCNC(=O)c3ccc(-c4c5nc(c(-c6c(F)cc(S(=O)(=O)[O-])cc6F)c6ccc([nH]6)c(-c6c(F)cc(S(=O)(=O)[O-])cc6F)c6nc(c(-c7c(F)cc(S(=O)(=O)[O-])cc7F)c7ccc4[nH]7)C=C6)C=C5)cc3)cc(F)c2C)c1C
REMARK SMILES IDX 19 1 18 2 17 3 15 4 16 5 14 7 12 8 13 9 94 10 92 11 95 12
REMARK SMILES IDX 91 13 93 14 9 15 10 16 11 17 8 18 7 20 3 21 4 22 96 23 5 24
REMARK SMILES IDX 97 25 6 26 2 27 1 28 20 29 21 30 22 31 23 32 24 34 25 35
REMARK SMILES IDX 26 36 90 37 27 38 89 39 28 40 29 41 30 42 83 43 31 44 88 45
REMARK SMILES IDX 82 46 84 47 32 48 87 49 81 50 80 51 33 53 67 54 46 55 66 56
REMARK SMILES IDX 47 57 50 58 65 59 85 60 48 61 49 62 64 64 86 65 51 66 34 67
REMARK SMILES IDX 35 68 44 69 36 70 37 71 43 72 45 73 38 74 39 75 40 76 41 77
REMARK SMILES IDX 42 78 68 79 69 80 78 81 70 82 71 83 77 84 79 85 72 86 73 87
REMARK SMILES IDX 74 88 75 89 76 90 52 91 53 92 62 93 54 94 55 95 61 96 63 97
REMARK SMILES IDX 56 98 57 99 58 100 59 101 60 102
REMARK H PARENT 17 6 8 19 22 33 84 52 50 63
REMARK Flexibility Score: inf
ROOT
ATOM      1  C   UNL A   1      36.813  22.366  25.544  1.00  0.00     0.023 C 
ENDROOT
BRANCH   1   2
ATOM      2  C   UNL A   1      35.465  21.768  25.107  1.00  0.00     0.116 C 
BRANCH   2   3
ATOM      3  N   UNL A   1      35.064  22.263  23.787  1.00  0.00    -0.352 N 
ATOM      4  C   UNL A   1      34.275  23.308  23.375  1.00  0.00     0.251 C 
ATOM      5  O   UNL A   1      34.106  23.484  22.169  1.00  0.00    -0.269 OA
ATOM      6  H   UNL A   1      35.438  21.739  23.043  1.00  0.00     0.163 HD
BRANCH   4   7
ATOM      7  C   UNL A   1      33.663  24.274  24.324  1.00  0.00     0.044 A 
ATOM      8  C   UNL A   1      33.233  26.560  25.080  1.00  0.00     0.094 A 
ATOM      9  C   UNL A   1      33.944  25.633  24.301  1.00  0.00     0.036 A 
ATOM     10  C   UNL A   1      32.265  26.112  25.983  1.00  0.00     0.005 A 
ATOM     11  C   UNL A   1      32.100  24.720  26.102  1.00  0.00     0.128 A 
ATOM     12  C   UNL A   1      31.439  26.988  26.870  1.00  0.00     0.049 C 
ATOM     13  C   UNL A   1      32.769  23.810  25.284  1.00  0.00     0.053 A 
ATOM     14  F   UNL A   1      31.257  24.235  27.028  1.00  0.00    -0.207 F 
BRANCH   8  15
ATOM     15  S   UNL A   1      33.617  28.255  24.706  1.00  0.00     0.262 S 
ATOM     16  O   UNL A   1      34.077  28.255  23.324  1.00  0.00    -0.201 OA
ATOM     17  O   UNL A   1      34.441  28.772  25.765  1.00  0.00    -0.201 OA
BRANCH  15  18
ATOM     18  N   UNL A   1      32.246  29.190  24.701  1.00  0.00    -0.276 N 
ATOM     19  H   UNL A   1      32.192  29.828  25.448  1.00  0.00     0.180 HD
BRANCH  18  20
ATOM     20  C   UNL A   1      31.160  29.237  23.835  1.00  0.00     0.093 A 
ATOM     21  N   UNL A   1      29.524  30.177  22.726  1.00  0.00    -0.268 N 
ATOM     22  N   UNL A   1      29.699  28.994  22.112  1.00  0.00    -0.176 NA
ATOM     23  C   UNL A   1      30.270  30.296  23.866  1.00  0.00     0.060 A 
ATOM     24  C   UNL A   1      30.643  28.373  22.835  1.00  0.00     0.084 A 
ATOM     25  C   UNL A   1      30.128  31.371  24.883  1.00  0.00     0.069 C 
ATOM     26  C   UNL A   1      30.966  26.971  22.480  1.00  0.00     0.071 C 
BRANCH  21  27
ATOM     27  C   UNL A   1      28.723  31.198  22.079  1.00  0.00     0.141 C 
ATOM     28  C   UNL A   1      27.980  30.724  20.842  1.00  0.00     0.029 C 
ENDBRANCH  21  27
ENDBRANCH  18  20
ENDBRANCH  15  18
ENDBRANCH   8  15
ENDBRANCH   4   7
ENDBRANCH   2   3
ENDBRANCH   1   2
BRANCH   1  29
ATOM     29  C   UNL A   1      36.703  23.719  26.233  1.00  0.00     0.023 C 
BRANCH  29  30
ATOM     30  C   UNL A   1      38.003  24.481  26.270  1.00  0.00     0.116 C 
BRANCH  30  31
ATOM     31  N   UNL A   1      38.904  24.093  27.335  1.00  0.00    -0.352 N 
ATOM     32  C   UNL A   1      39.877  24.879  27.925  1.00  0.00     0.251 C 
ATOM     33  H   UNL A   1      38.814  23.173  27.675  1.00  0.00     0.163 HD
ATOM     34  O   UNL A   1      40.918  24.409  28.371  1.00  0.00    -0.269 OA
BRANCH  32  35
ATOM     35  C   UNL A   1      39.537  26.294  28.218  1.00  0.00     0.039 A 
ATOM     36  C   UNL A   1      40.009  27.260  27.316  1.00  0.00     0.014 A 
ATOM     37  C   UNL A   1      39.135  26.665  29.492  1.00  0.00     0.014 A 
ATOM     38  C   UNL A   1      40.288  28.530  27.788  1.00  0.00     0.010 A 
ATOM     39  C   UNL A   1      39.656  27.796  30.028  1.00  0.00     0.010 A 
ATOM     40  C   UNL A   1      40.211  28.724  29.162  1.00  0.00    -0.014 A 
BRANCH  40  41
ATOM     41  C   UNL A   1      40.398  29.987  29.822  1.00  0.00     0.031 A 
ATOM     42  C   UNL A   1      39.294  30.919  29.554  1.00  0.00     0.074 A 
ATOM     43  C   UNL A   1      41.414  30.037  30.703  1.00  0.00     0.049 A 
ATOM     44  N   UNL A   1      39.397  32.174  29.319  1.00  0.00    -0.248 NA
ATOM     45  C   UNL A   1      37.917  30.431  29.342  1.00  0.00     0.031 C 
ATOM     46  C   UNL A   1      41.787  31.049  31.672  1.00  0.00     0.029 A 
ATOM     47  N   UNL A   1      42.503  29.155  30.700  1.00  0.00    -0.354 N 
ATOM     48  C   UNL A   1      38.113  32.670  29.458  1.00  0.00     0.074 A 
ATOM     49  C   UNL A   1      37.252  31.568  29.154  1.00  0.00     0.031 C 
ATOM     50  C   UNL A   1      43.118  30.961  31.876  1.00  0.00     0.029 A 
ATOM     51  C   UNL A   1      43.639  29.922  30.990  1.00  0.00     0.049 A 
ATOM     52  H   UNL A   1      42.476  28.186  30.528  1.00  0.00     0.167 HD
ATOM     53  C   UNL A   1      37.940  33.826  30.161  1.00  0.00     0.037 A 
ATOM     54  C   UNL A   1      44.510  30.135  29.958  1.00  0.00     0.037 A 
ATOM     55  C   UNL A   1      39.267  34.315  30.573  1.00  0.00     0.049 A 
ATOM     56  C   UNL A   1      44.378  31.553  29.439  1.00  0.00     0.074 A 
ATOM     57  C   UNL A   1      39.957  34.226  31.773  1.00  0.00     0.029 A 
ATOM     58  N   UNL A   1      40.229  34.563  29.594  1.00  0.00    -0.354 N 
ATOM     59  N   UNL A   1      43.279  32.268  29.490  1.00  0.00    -0.248 NA
ATOM     60  C   UNL A   1      45.532  32.334  29.007  1.00  0.00     0.031 C 
ATOM     61  C   UNL A   1      41.349  34.318  31.484  1.00  0.00     0.029 A 
ATOM     62  C   UNL A   1      41.508  34.437  30.112  1.00  0.00     0.049 A 
ATOM     63  H   UNL A   1      40.027  34.798  28.659  1.00  0.00     0.167 HD
ATOM     64  C   UNL A   1      43.568  33.576  29.183  1.00  0.00     0.074 A 
ATOM     65  C   UNL A   1      44.991  33.558  28.882  1.00  0.00     0.031 C 
ATOM     66  C   UNL A   1      42.670  34.610  29.248  1.00  0.00     0.037 A 
BRANCH  53  67
ATOM     67  C   UNL A   1      36.627  34.295  30.776  1.00  0.00     0.058 A 
ATOM     68  C   UNL A   1      35.507  34.531  29.949  1.00  0.00     0.135 A 
ATOM     69  C   UNL A   1      36.383  34.535  32.149  1.00  0.00     0.135 A 
ATOM     70  F   UNL A   1      35.552  34.299  28.630  1.00  0.00    -0.206 F 
ATOM     71  C   UNL A   1      34.280  34.999  30.429  1.00  0.00     0.059 A 
ATOM     72  C   UNL A   1      35.178  35.038  32.649  1.00  0.00     0.059 A 
ATOM     73  F   UNL A   1      37.275  34.238  33.098  1.00  0.00    -0.206 F 
ATOM     74  C   UNL A   1      34.124  35.256  31.783  1.00  0.00     0.060 A 
BRANCH  74  75
ATOM     75  S   UNL A   1      32.518  35.797  32.394  1.00  0.00     0.124 S 
ATOM     76  O   UNL A   1      31.937  36.428  31.213  1.00  0.00    -0.237 OA
ATOM     77  O   UNL A   1      31.912  34.535  32.806  1.00  0.00    -0.237 OA
ATOM     78  O   UNL A   1      32.856  36.709  33.484  1.00  0.00    -0.744 OA
ENDBRANCH  74  75
ENDBRANCH  53  67
BRANCH  54  79
ATOM     79  C   UNL A   1      44.826  28.852  29.231  1.00  0.00     0.058 A 
ATOM     80  C   UNL A   1      44.344  28.772  27.905  1.00  0.00     0.135 A 
ATOM     81  C   UNL A   1      45.928  28.035  29.538  1.00  0.00     0.135 A 
ATOM     82  F   UNL A   1      43.269  29.493  27.545  1.00  0.00    -0.206 F 
ATOM     83  C   UNL A   1      45.027  28.091  26.898  1.00  0.00     0.059 A 
ATOM     84  C   UNL A   1      46.639  27.345  28.536  1.00  0.00     0.059 A 
ATOM     85  F   UNL A   1      46.395  27.990  30.793  1.00  0.00    -0.206 F 
ATOM     86  C   UNL A   1      46.218  27.443  27.209  1.00  0.00     0.060 A 
BRANCH  86  87
ATOM     87  S   UNL A   1      47.237  26.867  25.823  1.00  0.00     0.124 S 
ATOM     88  O   UNL A   1      46.354  25.908  25.168  1.00  0.00    -0.237 OA
ATOM     89  O   UNL A   1      47.481  28.109  25.091  1.00  0.00    -0.237 OA
ATOM     90  O   UNL A   1      48.417  26.300  26.461  1.00  0.00    -0.744 OA
ENDBRANCH  86  87
ENDBRANCH  54  79
BRANCH  66  91
ATOM     91  C   UNL A   1      42.834  35.950  28.550  1.00  0.00     0.058 A 
ATOM     92  C   UNL A   1      42.477  36.182  27.211  1.00  0.00     0.135 A 
ATOM     93  C   UNL A   1      43.195  37.111  29.285  1.00  0.00     0.135 A 
ATOM     94  F   UNL A   1      41.996  35.207  26.428  1.00  0.00    -0.206 F 
ATOM     95  C   UNL A   1      42.551  37.443  26.625  1.00  0.00     0.059 A 
ATOM     96  C   UNL A   1      43.182  38.391  28.745  1.00  0.00     0.059 A 
ATOM     97  F   UNL A   1      43.556  37.053  30.575  1.00  0.00    -0.206 F 
ATOM     98  C   UNL A   1      42.896  38.544  27.401  1.00  0.00     0.060 A 
BRANCH  98  99
ATOM     99  S   UNL A   1      42.932  40.174  26.649  1.00  0.00     0.124 S 
ATOM    100  O   UNL A   1      41.629  40.216  25.994  1.00  0.00    -0.237 OA
ATOM    101  O   UNL A   1      43.088  41.053  27.804  1.00  0.00    -0.237 OA
ATOM    102  O   UNL A   1      44.086  40.111  25.757  1.00  0.00    -0.744 OA
ENDBRANCH  98  99
ENDBRANCH  66  91
ENDBRANCH  40  41
ENDBRANCH  32  35
ENDBRANCH  30  31
ENDBRANCH  29  30
ENDBRANCH   1  29
TORSDOF 18
ENDMDL
