MODEL 1
REMARK VINA RESULT:     -14.1      0.000      0.000
REMARK SMILES Cc1c(CC(=O)NCCCCNC(=O)c2ccc(-c3c4nc(c(-c5c(F)cc(S(=O)(=O)[O-])cc5F)c5ccc([nH]5)c(-c5c(F)cc(S(=O)(=O)[O-])cc5F)c5nc(c(-c6c(F)cc(S(=O)(=O)[O-])cc6F)c6ccc3[nH]6)C=C5)C=C4)cc2)cc(-c2ccccc2)cc1-c1ccccc1
REMARK SMILES IDX 10 1 9 2 8 3 7 4 5 5 6 6 4 8 3 9 1 10 2 11 90 12 81 13 89 14
REMARK SMILES IDX 82 15 91 16 92 17 96 18 93 19 95 20 94 21 83 22 84 23 88 24
REMARK SMILES IDX 85 25 87 26 86 27 11 28 12 29 13 30 14 32 15 33 16 34 80 35
REMARK SMILES IDX 17 36 79 37 18 38 19 39 20 40 73 41 21 42 78 43 72 44 74 45
REMARK SMILES IDX 22 46 77 47 71 48 70 49 23 51 57 52 36 53 56 54 37 55 40 56
REMARK SMILES IDX 55 57 75 58 38 59 39 60 54 62 76 63 41 64 24 65 25 66 34 67
REMARK SMILES IDX 26 68 27 69 33 70 35 71 28 72 29 73 30 74 31 75 32 76 58 77
REMARK SMILES IDX 59 78 68 79 60 80 61 81 67 82 69 83 62 84 63 85 64 86 65 87
REMARK SMILES IDX 66 88 42 89 43 90 52 91 44 92 45 93 51 94 53 95 46 96 47 97
REMARK SMILES IDX 48 98 49 99 50 100
REMARK H PARENT 7 7 12 31 74 50 40 61
REMARK Flexibility Score: inf
ROOT
ATOM      1  C   UNL A   1      33.019  28.483  25.872  1.00  0.00     0.023 C 
ENDROOT
BRANCH   1   2
ATOM      2  C   UNL A   1      33.757  27.161  26.100  1.00  0.00     0.023 C 
BRANCH   2   3
ATOM      3  C   UNL A   1      33.172  25.942  25.369  1.00  0.00     0.116 C 
BRANCH   3   4
ATOM      4  N   UNL A   1      33.622  25.818  23.989  1.00  0.00    -0.356 N 
ATOM      5  C   UNL A   1      33.458  24.786  23.110  1.00  0.00     0.224 C 
ATOM      6  O   UNL A   1      33.910  24.910  21.968  1.00  0.00    -0.275 OA
ATOM      7  H   UNL A   1      34.117  26.593  23.639  1.00  0.00     0.163 HD
BRANCH   5   8
ATOM      8  C   UNL A   1      32.723  23.515  23.525  1.00  0.00     0.135 C 
BRANCH   8   9
ATOM      9  C   UNL A   1      33.658  22.395  23.940  1.00  0.00    -0.035 A 
ATOM     10  C   UNL A   1      32.016  20.566  23.256  1.00  0.00     0.045 C 
ATOM     11  C   UNL A   1      33.305  21.024  23.907  1.00  0.00    -0.040 A 
ATOM     12  C   UNL A   1      34.197  20.072  24.468  1.00  0.00    -0.015 A 
ATOM     13  C   UNL A   1      34.920  22.777  24.447  1.00  0.00     0.013 A 
ATOM     14  C   UNL A   1      35.431  20.506  24.998  1.00  0.00     0.017 A 
ATOM     15  C   UNL A   1      35.816  21.851  24.986  1.00  0.00    -0.017 A 
BRANCH  12  16
ATOM     16  C   UNL A   1      33.855  18.644  24.595  1.00  0.00    -0.018 A 
ATOM     17  C   UNL A   1      32.902  18.230  25.543  1.00  0.00     0.009 A 
ATOM     18  C   UNL A   1      34.436  17.672  23.767  1.00  0.00     0.009 A 
ATOM     19  C   UNL A   1      32.531  16.890  25.650  1.00  0.00     0.001 A 
ATOM     20  C   UNL A   1      34.058  16.331  23.868  1.00  0.00     0.001 A 
ATOM     21  C   UNL A   1      33.107  15.941  24.810  1.00  0.00     0.000 A 
ENDBRANCH  12  16
BRANCH  15  22
ATOM     22  C   UNL A   1      37.102  22.289  25.552  1.00  0.00    -0.018 A 
ATOM     23  C   UNL A   1      38.199  21.413  25.620  1.00  0.00     0.009 A 
ATOM     24  C   UNL A   1      37.265  23.590  26.053  1.00  0.00     0.009 A 
ATOM     25  C   UNL A   1      39.415  21.822  26.177  1.00  0.00     0.001 A 
ATOM     26  C   UNL A   1      38.479  24.001  26.611  1.00  0.00     0.001 A 
ATOM     27  C   UNL A   1      39.553  23.116  26.674  1.00  0.00     0.000 A 
ENDBRANCH  15  22
ENDBRANCH   8   9
ENDBRANCH   5   8
ENDBRANCH   3   4
ENDBRANCH   2   3
ENDBRANCH   1   2
BRANCH   1  28
ATOM     28  C   UNL A   1      32.841  29.304  27.140  1.00  0.00     0.116 C 
BRANCH  28  29
ATOM     29  N   UNL A   1      33.336  30.665  27.078  1.00  0.00    -0.352 N 
ATOM     30  C   UNL A   1      34.321  31.196  27.901  1.00  0.00     0.251 C 
ATOM     31  H   UNL A   1      32.941  31.260  26.400  1.00  0.00     0.163 HD
ATOM     32  O   UNL A   1      34.315  32.356  28.277  1.00  0.00    -0.269 OA
BRANCH  30  33
ATOM     33  C   UNL A   1      35.493  30.323  28.160  1.00  0.00     0.039 A 
ATOM     34  C   UNL A   1      35.667  29.827  29.459  1.00  0.00     0.014 A 
ATOM     35  C   UNL A   1      36.510  30.212  27.218  1.00  0.00     0.014 A 
ATOM     36  C   UNL A   1      36.921  29.358  29.857  1.00  0.00     0.010 A 
ATOM     37  C   UNL A   1      37.775  29.850  27.644  1.00  0.00     0.010 A 
ATOM     38  C   UNL A   1      37.996  29.448  28.969  1.00  0.00    -0.014 A 
BRANCH  38  39
ATOM     39  C   UNL A   1      39.396  29.248  29.342  1.00  0.00     0.031 A 
ATOM     40  C   UNL A   1      40.131  28.020  28.937  1.00  0.00     0.074 A 
ATOM     41  C   UNL A   1      40.087  30.227  29.973  1.00  0.00     0.049 A 
ATOM     42  N   UNL A   1      41.148  27.542  29.580  1.00  0.00    -0.248 NA
ATOM     43  C   UNL A   1      39.759  27.216  27.776  1.00  0.00     0.031 C 
ATOM     44  C   UNL A   1      41.539  30.321  30.092  1.00  0.00     0.029 A 
ATOM     45  N   UNL A   1      39.617  31.244  30.807  1.00  0.00    -0.354 N 
ATOM     46  C   UNL A   1      41.722  26.573  28.788  1.00  0.00     0.074 A 
ATOM     47  C   UNL A   1      40.787  26.363  27.706  1.00  0.00     0.031 C 
ATOM     48  C   UNL A   1      41.837  31.095  31.144  1.00  0.00     0.029 A 
ATOM     49  C   UNL A   1      40.586  31.419  31.809  1.00  0.00     0.049 A 
ATOM     50  H   UNL A   1      38.773  31.742  30.712  1.00  0.00     0.167 HD
ATOM     51  C   UNL A   1      42.992  26.140  29.030  1.00  0.00     0.037 A 
ATOM     52  C   UNL A   1      40.365  31.334  33.152  1.00  0.00     0.037 A 
ATOM     53  C   UNL A   1      43.602  26.837  30.153  1.00  0.00     0.049 A 
ATOM     54  C   UNL A   1      41.274  30.346  33.849  1.00  0.00     0.074 A 
ATOM     55  C   UNL A   1      44.441  27.938  30.209  1.00  0.00     0.029 A 
ATOM     56  N   UNL A   1      43.161  26.610  31.450  1.00  0.00    -0.354 N 
ATOM     57  N   UNL A   1      41.973  29.446  33.219  1.00  0.00    -0.248 NA
ATOM     58  C   UNL A   1      41.424  30.251  35.298  1.00  0.00     0.031 C 
ATOM     59  C   UNL A   1      44.491  28.390  31.545  1.00  0.00     0.029 A 
ATOM     60  C   UNL A   1      43.678  27.567  32.303  1.00  0.00     0.049 A 
ATOM     61  H   UNL A   1      42.567  25.874  31.722  1.00  0.00     0.167 HD
ATOM     62  C   UNL A   1      42.611  28.639  34.126  1.00  0.00     0.074 A 
ATOM     63  C   UNL A   1      42.257  29.201  35.415  1.00  0.00     0.031 C 
ATOM     64  C   UNL A   1      43.360  27.570  33.722  1.00  0.00     0.037 A 
BRANCH  51  65
ATOM     65  C   UNL A   1      43.774  25.310  28.035  1.00  0.00     0.058 A 
ATOM     66  C   UNL A   1      44.366  25.896  26.894  1.00  0.00     0.135 A 
ATOM     67  C   UNL A   1      43.940  23.915  28.140  1.00  0.00     0.135 A 
ATOM     68  F   UNL A   1      44.365  27.221  26.702  1.00  0.00    -0.206 F 
ATOM     69  C   UNL A   1      44.963  25.149  25.881  1.00  0.00     0.059 A 
ATOM     70  C   UNL A   1      44.494  23.138  27.114  1.00  0.00     0.059 A 
ATOM     71  F   UNL A   1      43.573  23.261  29.253  1.00  0.00    -0.206 F 
ATOM     72  C   UNL A   1      44.990  23.765  25.979  1.00  0.00     0.060 A 
BRANCH  72  73
ATOM     73  S   UNL A   1      45.644  22.818  24.592  1.00  0.00     0.124 S 
ATOM     74  O   UNL A   1      44.428  22.427  23.882  1.00  0.00    -0.237 OA
ATOM     75  O   UNL A   1      46.481  23.804  23.919  1.00  0.00    -0.237 OA
ATOM     76  O   UNL A   1      46.358  21.721  25.239  1.00  0.00    -0.744 OA
ENDBRANCH  72  73
ENDBRANCH  51  65
BRANCH  52  77
ATOM     77  C   UNL A   1      38.974  31.637  33.567  1.00  0.00     0.058 A 
ATOM     78  C   UNL A   1      38.648  32.977  33.840  1.00  0.00     0.135 A 
ATOM     79  C   UNL A   1      37.930  30.758  33.244  1.00  0.00     0.135 A 
ATOM     80  F   UNL A   1      39.613  33.845  34.188  1.00  0.00    -0.206 F 
ATOM     81  C   UNL A   1      37.370  33.472  33.611  1.00  0.00     0.059 A 
ATOM     82  C   UNL A   1      36.640  31.233  33.013  1.00  0.00     0.059 A 
ATOM     83  F   UNL A   1      38.190  29.473  32.966  1.00  0.00    -0.206 F 
ATOM     84  C   UNL A   1      36.396  32.603  33.121  1.00  0.00     0.060 A 
BRANCH  84  85
ATOM     85  S   UNL A   1      34.884  33.325  32.438  1.00  0.00     0.124 S 
ATOM     86  O   UNL A   1      34.481  32.324  31.458  1.00  0.00    -0.237 OA
ATOM     87  O   UNL A   1      34.044  33.420  33.631  1.00  0.00    -0.237 OA
ATOM     88  O   UNL A   1      35.345  34.596  31.894  1.00  0.00    -0.744 OA
ENDBRANCH  84  85
ENDBRANCH  52  77
BRANCH  64  89
ATOM     89  C   UNL A   1      43.952  26.500  34.609  1.00  0.00     0.058 A 
ATOM     90  C   UNL A   1      43.214  25.445  35.169  1.00  0.00     0.135 A 
ATOM     91  C   UNL A   1      45.354  26.439  34.814  1.00  0.00     0.135 A 
ATOM     92  F   UNL A   1      41.896  25.327  34.955  1.00  0.00    -0.206 F 
ATOM     93  C   UNL A   1      43.808  24.438  35.934  1.00  0.00     0.059 A 
ATOM     94  C   UNL A   1      45.972  25.416  35.529  1.00  0.00     0.059 A 
ATOM     95  F   UNL A   1      46.176  27.372  34.310  1.00  0.00    -0.206 F 
ATOM     96  C   UNL A   1      45.188  24.432  36.111  1.00  0.00     0.060 A 
BRANCH  96  97
ATOM     97  S   UNL A   1      45.977  23.108  37.046  1.00  0.00     0.124 S 
ATOM     98  O   UNL A   1      45.417  21.925  36.403  1.00  0.00    -0.237 OA
ATOM     99  O   UNL A   1      47.398  23.340  36.807  1.00  0.00    -0.237 OA
ATOM    100  O   UNL A   1      45.531  23.359  38.413  1.00  0.00    -0.744 OA
ENDBRANCH  96  97
ENDBRANCH  64  89
ENDBRANCH  38  39
ENDBRANCH  30  33
ENDBRANCH  28  29
ENDBRANCH   1  28
TORSDOF 17
ENDMDL
MODEL 2
REMARK VINA RESULT:     -13.6      4.086     10.784
REMARK SMILES Cc1c(CC(=O)NCCCCNC(=O)c2ccc(-c3c4nc(c(-c5c(F)cc(S(=O)(=O)[O-])cc5F)c5ccc([nH]5)c(-c5c(F)cc(S(=O)(=O)[O-])cc5F)c5nc(c(-c6c(F)cc(S(=O)(=O)[O-])cc6F)c6ccc3[nH]6)C=C5)C=C4)cc2)cc(-c2ccccc2)cc1-c1ccccc1
REMARK SMILES IDX 10 1 9 2 8 3 7 4 5 5 6 6 4 8 3 9 1 10 2 11 90 12 81 13 89 14
REMARK SMILES IDX 82 15 91 16 92 17 96 18 93 19 95 20 94 21 83 22 84 23 88 24
REMARK SMILES IDX 85 25 87 26 86 27 11 28 12 29 13 30 14 32 15 33 16 34 80 35
REMARK SMILES IDX 17 36 79 37 18 38 19 39 20 40 73 41 21 42 78 43 72 44 74 45
REMARK SMILES IDX 22 46 77 47 71 48 70 49 23 51 57 52 36 53 56 54 37 55 40 56
REMARK SMILES IDX 55 57 75 58 38 59 39 60 54 62 76 63 41 64 24 65 25 66 34 67
REMARK SMILES IDX 26 68 27 69 33 70 35 71 28 72 29 73 30 74 31 75 32 76 58 77
REMARK SMILES IDX 59 78 68 79 60 80 61 81 67 82 69 83 62 84 63 85 64 86 65 87
REMARK SMILES IDX 66 88 42 89 43 90 52 91 44 92 45 93 51 94 53 95 46 96 47 97
REMARK SMILES IDX 48 98 49 99 50 100
REMARK H PARENT 7 7 12 31 74 50 40 61
REMARK Flexibility Score: inf
ROOT
ATOM      1  C   UNL A   1      36.004  22.849  25.894  1.00  0.00     0.023 C 
ENDROOT
BRANCH   1   2
ATOM      2  C   UNL A   1      35.154  24.117  25.768  1.00  0.00     0.023 C 
BRANCH   2   3
ATOM      3  C   UNL A   1      33.748  23.915  25.179  1.00  0.00     0.116 C 
BRANCH   3   4
ATOM      4  N   UNL A   1      32.676  24.134  26.141  1.00  0.00    -0.356 N 
ATOM      5  C   UNL A   1      31.502  24.816  25.996  1.00  0.00     0.224 C 
ATOM      6  O   UNL A   1      30.722  24.853  26.952  1.00  0.00    -0.275 OA
ATOM      7  H   UNL A   1      32.819  23.730  27.027  1.00  0.00     0.163 HD
BRANCH   5   8
ATOM      8  C   UNL A   1      31.158  25.506  24.679  1.00  0.00     0.135 C 
BRANCH   8   9
ATOM      9  C   UNL A   1      31.115  27.018  24.792  1.00  0.00    -0.035 A 
ATOM     10  C   UNL A   1      29.061  27.224  23.293  1.00  0.00     0.045 C 
ATOM     11  C   UNL A   1      30.203  27.834  24.079  1.00  0.00    -0.040 A 
ATOM     12  C   UNL A   1      30.354  29.245  24.137  1.00  0.00    -0.015 A 
ATOM     13  C   UNL A   1      32.095  27.621  25.611  1.00  0.00     0.013 A 
ATOM     14  C   UNL A   1      31.374  29.800  24.938  1.00  0.00     0.017 A 
ATOM     15  C   UNL A   1      32.246  29.008  25.692  1.00  0.00    -0.017 A 
BRANCH  12  16
ATOM     16  C   UNL A   1      29.537  30.164  23.325  1.00  0.00    -0.018 A 
ATOM     17  C   UNL A   1      29.489  30.015  21.927  1.00  0.00     0.009 A 
ATOM     18  C   UNL A   1      28.768  31.179  23.914  1.00  0.00     0.009 A 
ATOM     19  C   UNL A   1      28.686  30.845  21.144  1.00  0.00     0.001 A 
ATOM     20  C   UNL A   1      27.958  32.005  23.130  1.00  0.00     0.001 A 
ATOM     21  C   UNL A   1      27.919  31.838  21.747  1.00  0.00     0.000 A 
ENDBRANCH  12  16
BRANCH  15  22
ATOM     22  C   UNL A   1      33.311  29.603  26.516  1.00  0.00    -0.018 A 
ATOM     23  C   UNL A   1      34.503  28.905  26.773  1.00  0.00     0.009 A 
ATOM     24  C   UNL A   1      33.159  30.880  27.078  1.00  0.00     0.009 A 
ATOM     25  C   UNL A   1      35.506  29.462  27.572  1.00  0.00     0.001 A 
ATOM     26  C   UNL A   1      34.160  31.438  27.879  1.00  0.00     0.001 A 
ATOM     27  C   UNL A   1      35.332  30.728  28.127  1.00  0.00     0.000 A 
ENDBRANCH  15  22
ENDBRANCH   8   9
ENDBRANCH   5   8
ENDBRANCH   3   4
ENDBRANCH   2   3
ENDBRANCH   1   2
BRANCH   1  28
ATOM     28  C   UNL A   1      37.409  23.003  25.332  1.00  0.00     0.116 C 
BRANCH  28  29
ATOM     29  N   UNL A   1      38.456  22.328  26.074  1.00  0.00    -0.352 N 
ATOM     30  C   UNL A   1      39.690  22.878  26.396  1.00  0.00     0.251 C 
ATOM     31  H   UNL A   1      38.277  21.407  26.372  1.00  0.00     0.163 HD
ATOM     32  O   UNL A   1      40.716  22.220  26.442  1.00  0.00    -0.269 OA
BRANCH  30  33
ATOM     33  C   UNL A   1      39.673  24.288  26.860  1.00  0.00     0.039 A 
ATOM     34  C   UNL A   1      40.395  25.231  26.117  1.00  0.00     0.014 A 
ATOM     35  C   UNL A   1      39.174  24.609  28.118  1.00  0.00     0.014 A 
ATOM     36  C   UNL A   1      40.749  26.449  26.705  1.00  0.00     0.010 A 
ATOM     37  C   UNL A   1      39.617  25.765  28.734  1.00  0.00     0.010 A 
ATOM     38  C   UNL A   1      40.428  26.677  28.045  1.00  0.00    -0.014 A 
BRANCH  38  39
ATOM     39  C   UNL A   1      40.965  27.776  28.848  1.00  0.00     0.031 A 
ATOM     40  C   UNL A   1      40.110  28.925  29.247  1.00  0.00     0.074 A 
ATOM     41  C   UNL A   1      42.226  27.718  29.336  1.00  0.00     0.049 A 
ATOM     42  N   UNL A   1      40.566  30.106  29.518  1.00  0.00    -0.248 NA
ATOM     43  C   UNL A   1      38.656  28.836  29.355  1.00  0.00     0.031 C 
ATOM     44  C   UNL A   1      42.774  28.537  30.414  1.00  0.00     0.029 A 
ATOM     45  N   UNL A   1      43.340  27.041  28.834  1.00  0.00    -0.354 N 
ATOM     46  C   UNL A   1      39.543  30.826  30.092  1.00  0.00     0.074 A 
ATOM     47  C   UNL A   1      38.359  30.015  29.912  1.00  0.00     0.031 C 
ATOM     48  C   UNL A   1      44.109  28.562  30.302  1.00  0.00     0.029 A 
ATOM     49  C   UNL A   1      44.452  27.864  29.075  1.00  0.00     0.049 A 
ATOM     50  H   UNL A   1      43.345  26.158  28.397  1.00  0.00     0.167 HD
ATOM     51  C   UNL A   1      39.803  31.965  30.796  1.00  0.00     0.037 A 
ATOM     52  C   UNL A   1      45.324  28.319  28.129  1.00  0.00     0.037 A 
ATOM     53  C   UNL A   1      41.229  32.253  30.859  1.00  0.00     0.049 A 
ATOM     54  C   UNL A   1      45.474  29.824  28.125  1.00  0.00     0.074 A 
ATOM     55  C   UNL A   1      42.185  31.970  31.820  1.00  0.00     0.029 A 
ATOM     56  N   UNL A   1      41.918  32.665  29.726  1.00  0.00    -0.354 N 
ATOM     57  N   UNL A   1      44.647  30.630  28.728  1.00  0.00    -0.248 NA
ATOM     58  C   UNL A   1      46.520  30.542  27.403  1.00  0.00     0.031 C 
ATOM     59  C   UNL A   1      43.459  32.194  31.258  1.00  0.00     0.029 A 
ATOM     60  C   UNL A   1      43.281  32.609  29.950  1.00  0.00     0.049 A 
ATOM     61  H   UNL A   1      41.497  32.954  28.884  1.00  0.00     0.167 HD
ATOM     62  C   UNL A   1      44.988  31.929  28.456  1.00  0.00     0.074 A 
ATOM     63  C   UNL A   1      46.185  31.822  27.644  1.00  0.00     0.031 C 
ATOM     64  C   UNL A   1      44.237  32.973  28.916  1.00  0.00     0.037 A 
BRANCH  51  65
ATOM     65  C   UNL A   1      38.775  32.627  31.687  1.00  0.00     0.058 A 
ATOM     66  C   UNL A   1      38.399  32.056  32.923  1.00  0.00     0.135 A 
ATOM     67  C   UNL A   1      38.095  33.814  31.349  1.00  0.00     0.135 A 
ATOM     68  F   UNL A   1      39.016  30.976  33.417  1.00  0.00    -0.206 F 
ATOM     69  C   UNL A   1      37.352  32.551  33.700  1.00  0.00     0.059 A 
ATOM     70  C   UNL A   1      37.011  34.303  32.088  1.00  0.00     0.059 A 
ATOM     71  F   UNL A   1      38.472  34.543  30.288  1.00  0.00    -0.206 F 
ATOM     72  C   UNL A   1      36.637  33.653  33.257  1.00  0.00     0.060 A 
BRANCH  72  73
ATOM     73  S   UNL A   1      35.204  34.186  34.212  1.00  0.00     0.124 S 
ATOM     74  O   UNL A   1      35.601  33.855  35.578  1.00  0.00    -0.237 OA
ATOM     75  O   UNL A   1      35.141  35.609  33.897  1.00  0.00    -0.237 OA
ATOM     76  O   UNL A   1      34.117  33.372  33.674  1.00  0.00    -0.744 OA
ENDBRANCH  72  73
ENDBRANCH  51  65
BRANCH  52  77
ATOM     77  C   UNL A   1      45.431  27.458  26.927  1.00  0.00     0.058 A 
ATOM     78  C   UNL A   1      46.379  26.420  26.947  1.00  0.00     0.135 A 
ATOM     79  C   UNL A   1      44.357  27.352  26.032  1.00  0.00     0.135 A 
ATOM     80  F   UNL A   1      47.443  26.497  27.763  1.00  0.00    -0.206 F 
ATOM     81  C   UNL A   1      46.169  25.235  26.251  1.00  0.00     0.059 A 
ATOM     82  C   UNL A   1      44.129  26.174  25.323  1.00  0.00     0.059 A 
ATOM     83  F   UNL A   1      43.421  28.311  25.982  1.00  0.00    -0.206 F 
ATOM     84  C   UNL A   1      44.998  25.097  25.506  1.00  0.00     0.060 A 
BRANCH  84  85
ATOM     85  S   UNL A   1      44.534  23.437  24.959  1.00  0.00     0.124 S 
ATOM     86  O   UNL A   1      45.420  23.229  23.820  1.00  0.00    -0.237 OA
ATOM     87  O   UNL A   1      44.834  22.644  26.150  1.00  0.00    -0.237 OA
ATOM     88  O   UNL A   1      43.118  23.580  24.643  1.00  0.00    -0.744 OA
ENDBRANCH  84  85
ENDBRANCH  52  77
BRANCH  64  89
ATOM     89  C   UNL A   1      44.387  34.427  28.538  1.00  0.00     0.058 A 
ATOM     90  C   UNL A   1      45.001  35.393  29.353  1.00  0.00     0.135 A 
ATOM     91  C   UNL A   1      44.020  34.869  27.242  1.00  0.00     0.135 A 
ATOM     92  F   UNL A   1      45.493  35.076  30.559  1.00  0.00    -0.206 F 
ATOM     93  C   UNL A   1      45.178  36.717  28.942  1.00  0.00     0.059 A 
ATOM     94  C   UNL A   1      44.234  36.170  26.793  1.00  0.00     0.059 A 
ATOM     95  F   UNL A   1      43.449  34.039  26.355  1.00  0.00    -0.206 F 
ATOM     96  C   UNL A   1      44.790  37.098  27.661  1.00  0.00     0.060 A 
BRANCH  96  97
ATOM     97  S   UNL A   1      45.065  38.787  27.095  1.00  0.00     0.124 S 
ATOM     98  O   UNL A   1      46.145  38.599  26.133  1.00  0.00    -0.237 OA
ATOM     99  O   UNL A   1      43.772  39.155  26.525  1.00  0.00    -0.237 OA
ATOM    100  O   UNL A   1      45.422  39.491  28.322  1.00  0.00    -0.744 OA
ENDBRANCH  96  97
ENDBRANCH  64  89
ENDBRANCH  38  39
ENDBRANCH  30  33
ENDBRANCH  28  29
ENDBRANCH   1  28
TORSDOF 17
ENDMDL
MODEL 3
REMARK VINA RESULT:     -13.5      4.010     10.487
REMARK SMILES Cc1c(CC(=O)NCCCCNC(=O)c2ccc(-c3c4nc(c(-c5c(F)cc(S(=O)(=O)[O-])cc5F)c5ccc([nH]5)c(-c5c(F)cc(S(=O)(=O)[O-])cc5F)c5nc(c(-c6c(F)cc(S(=O)(=O)[O-])cc6F)c6ccc3[nH]6)C=C5)C=C4)cc2)cc(-c2ccccc2)cc1-c1ccccc1
REMARK SMILES IDX 10 1 9 2 8 3 7 4 5 5 6 6 4 8 3 9 1 10 2 11 90 12 81 13 89 14
REMARK SMILES IDX 82 15 91 16 92 17 96 18 93 19 95 20 94 21 83 22 84 23 88 24
REMARK SMILES IDX 85 25 87 26 86 27 11 28 12 29 13 30 14 32 15 33 16 34 80 35
REMARK SMILES IDX 17 36 79 37 18 38 19 39 20 40 73 41 21 42 78 43 72 44 74 45
REMARK SMILES IDX 22 46 77 47 71 48 70 49 23 51 57 52 36 53 56 54 37 55 40 56
REMARK SMILES IDX 55 57 75 58 38 59 39 60 54 62 76 63 41 64 24 65 25 66 34 67
REMARK SMILES IDX 26 68 27 69 33 70 35 71 28 72 29 73 30 74 31 75 32 76 58 77
REMARK SMILES IDX 59 78 68 79 60 80 61 81 67 82 69 83 62 84 63 85 64 86 65 87
REMARK SMILES IDX 66 88 42 89 43 90 52 91 44 92 45 93 51 94 53 95 46 96 47 97
REMARK SMILES IDX 48 98 49 99 50 100
REMARK H PARENT 7 7 12 31 74 50 40 61
REMARK Flexibility Score: inf
ROOT
ATOM      1  C   UNL A   1      34.992  24.215  25.681  1.00  0.00     0.023 C 
ENDROOT
BRANCH   1   2
ATOM      2  C   UNL A   1      34.134  23.375  26.631  1.00  0.00     0.023 C 
BRANCH   2   3
ATOM      3  C   UNL A   1      32.788  22.899  26.061  1.00  0.00     0.116 C 
BRANCH   3   4
ATOM      4  N   UNL A   1      31.642  23.627  26.587  1.00  0.00    -0.356 N 
ATOM      5  C   UNL A   1      31.046  24.765  26.124  1.00  0.00     0.224 C 
ATOM      6  O   UNL A   1      30.058  25.197  26.724  1.00  0.00    -0.275 OA
ATOM      7  H   UNL A   1      31.235  23.241  27.396  1.00  0.00     0.163 HD
BRANCH   5   8
ATOM      8  C   UNL A   1      31.583  25.478  24.886  1.00  0.00     0.135 C 
BRANCH   8   9
ATOM      9  C   UNL A   1      31.485  26.988  24.980  1.00  0.00    -0.035 A 
ATOM     10  C   UNL A   1      29.444  27.103  23.453  1.00  0.00     0.045 C 
ATOM     11  C   UNL A   1      30.553  27.763  24.245  1.00  0.00    -0.040 A 
ATOM     12  C   UNL A   1      30.654  29.179  24.287  1.00  0.00    -0.015 A 
ATOM     13  C   UNL A   1      32.432  27.636  25.803  1.00  0.00     0.013 A 
ATOM     14  C   UNL A   1      31.644  29.780  25.094  1.00  0.00     0.017 A 
ATOM     15  C   UNL A   1      32.534  29.028  25.869  1.00  0.00    -0.017 A 
BRANCH  12  16
ATOM     16  C   UNL A   1      29.815  30.059  23.454  1.00  0.00    -0.018 A 
ATOM     17  C   UNL A   1      29.117  31.128  24.042  1.00  0.00     0.009 A 
ATOM     18  C   UNL A   1      29.714  29.880  22.066  1.00  0.00     0.009 A 
ATOM     19  C   UNL A   1      28.353  32.000  23.265  1.00  0.00     0.001 A 
ATOM     20  C   UNL A   1      28.956  30.757  21.287  1.00  0.00     0.001 A 
ATOM     21  C   UNL A   1      28.276  31.815  21.888  1.00  0.00     0.000 A 
ENDBRANCH  12  16
BRANCH  15  22
ATOM     22  C   UNL A   1      33.567  29.670  26.698  1.00  0.00    -0.018 A 
ATOM     23  C   UNL A   1      34.790  29.030  26.956  1.00  0.00     0.009 A 
ATOM     24  C   UNL A   1      33.352  30.936  27.264  1.00  0.00     0.009 A 
ATOM     25  C   UNL A   1      35.763  29.630  27.760  1.00  0.00     0.001 A 
ATOM     26  C   UNL A   1      34.322  31.538  28.070  1.00  0.00     0.001 A 
ATOM     27  C   UNL A   1      35.527  30.885  28.319  1.00  0.00     0.000 A 
ENDBRANCH  15  22
ENDBRANCH   8   9
ENDBRANCH   5   8
ENDBRANCH   3   4
ENDBRANCH   2   3
ENDBRANCH   1   2
BRANCH   1  28
ATOM     28  C   UNL A   1      36.488  24.048  25.907  1.00  0.00     0.116 C 
BRANCH  28  29
ATOM     29  N   UNL A   1      36.934  22.692  26.153  1.00  0.00    -0.352 N 
ATOM     30  C   UNL A   1      38.226  22.225  25.943  1.00  0.00     0.251 C 
ATOM     31  H   UNL A   1      36.270  22.052  26.496  1.00  0.00     0.163 HD
ATOM     32  O   UNL A   1      38.465  21.091  25.564  1.00  0.00    -0.269 OA
BRANCH  30  33
ATOM     33  C   UNL A   1      39.322  23.126  26.377  1.00  0.00     0.039 A 
ATOM     34  C   UNL A   1      40.125  22.712  27.448  1.00  0.00     0.014 A 
ATOM     35  C   UNL A   1      39.386  24.434  25.909  1.00  0.00     0.014 A 
ATOM     36  C   UNL A   1      40.881  23.655  28.149  1.00  0.00     0.010 A 
ATOM     37  C   UNL A   1      40.048  25.382  26.669  1.00  0.00     0.010 A 
ATOM     38  C   UNL A   1      40.774  25.004  27.807  1.00  0.00    -0.014 A 
BRANCH  38  39
ATOM     39  C   UNL A   1      41.292  26.107  28.619  1.00  0.00     0.031 A 
ATOM     40  C   UNL A   1      40.422  27.250  29.005  1.00  0.00     0.074 A 
ATOM     41  C   UNL A   1      42.545  26.057  29.127  1.00  0.00     0.049 A 
ATOM     42  N   UNL A   1      40.867  28.434  29.283  1.00  0.00    -0.248 NA
ATOM     43  C   UNL A   1      38.968  27.151  29.090  1.00  0.00     0.031 C 
ATOM     44  C   UNL A   1      43.070  26.880  30.213  1.00  0.00     0.029 A 
ATOM     45  N   UNL A   1      43.671  25.387  28.642  1.00  0.00    -0.354 N 
ATOM     46  C   UNL A   1      39.830  29.147  29.841  1.00  0.00     0.074 A 
ATOM     47  C   UNL A   1      38.655  28.329  29.641  1.00  0.00     0.031 C 
ATOM     48  C   UNL A   1      44.407  26.913  30.122  1.00  0.00     0.029 A 
ATOM     49  C   UNL A   1      44.774  26.218  28.900  1.00  0.00     0.049 A 
ATOM     50  H   UNL A   1      43.689  24.505  28.206  1.00  0.00     0.167 HD
ATOM     51  C   UNL A   1      40.071  30.288  30.548  1.00  0.00     0.037 A 
ATOM     52  C   UNL A   1      45.658  26.679  27.969  1.00  0.00     0.037 A 
ATOM     53  C   UNL A   1      41.494  30.585  30.633  1.00  0.00     0.049 A 
ATOM     54  C   UNL A   1      45.797  28.184  27.967  1.00  0.00     0.074 A 
ATOM     55  C   UNL A   1      42.437  30.309  31.610  1.00  0.00     0.029 A 
ATOM     56  N   UNL A   1      42.198  31.002  29.511  1.00  0.00    -0.354 N 
ATOM     57  N   UNL A   1      44.956  28.985  28.556  1.00  0.00    -0.248 NA
ATOM     58  C   UNL A   1      46.850  28.909  27.261  1.00  0.00     0.031 C 
ATOM     59  C   UNL A   1      43.718  30.541  31.067  1.00  0.00     0.029 A 
ATOM     60  C   UNL A   1      43.558  30.955  29.757  1.00  0.00     0.049 A 
ATOM     61  H   UNL A   1      41.789  31.288  28.663  1.00  0.00     0.167 HD
ATOM     62  C   UNL A   1      45.293  30.287  28.290  1.00  0.00     0.074 A 
ATOM     63  C   UNL A   1      46.503  30.187  27.497  1.00  0.00     0.031 C 
ATOM     64  C   UNL A   1      44.527  31.325  28.738  1.00  0.00     0.037 A 
BRANCH  51  65
ATOM     65  C   UNL A   1      39.025  30.943  31.423  1.00  0.00     0.058 A 
ATOM     66  C   UNL A   1      38.310  32.079  30.986  1.00  0.00     0.135 A 
ATOM     67  C   UNL A   1      38.714  30.510  32.727  1.00  0.00     0.135 A 
ATOM     68  F   UNL A   1      38.435  32.555  29.741  1.00  0.00    -0.206 F 
ATOM     69  C   UNL A   1      37.450  32.799  31.814  1.00  0.00     0.059 A 
ATOM     70  C   UNL A   1      37.891  31.242  33.592  1.00  0.00     0.059 A 
ATOM     71  F   UNL A   1      39.197  29.351  33.199  1.00  0.00    -0.206 F 
ATOM     72  C   UNL A   1      37.275  32.397  33.130  1.00  0.00     0.060 A 
BRANCH  72  73
ATOM     73  S   UNL A   1      36.266  33.424  34.215  1.00  0.00     0.124 S 
ATOM     74  O   UNL A   1      34.910  33.011  33.860  1.00  0.00    -0.237 OA
ATOM     75  O   UNL A   1      36.729  33.015  35.535  1.00  0.00    -0.237 OA
ATOM     76  O   UNL A   1      36.618  34.784  33.816  1.00  0.00    -0.744 OA
ENDBRANCH  72  73
ENDBRANCH  51  65
BRANCH  52  77
ATOM     77  C   UNL A   1      45.789  25.818  26.768  1.00  0.00     0.058 A 
ATOM     78  C   UNL A   1      46.521  24.625  26.894  1.00  0.00     0.135 A 
ATOM     79  C   UNL A   1      44.861  25.914  25.721  1.00  0.00     0.135 A 
ATOM     80  F   UNL A   1      47.446  24.503  27.861  1.00  0.00    -0.206 F 
ATOM     81  C   UNL A   1      46.210  23.502  26.138  1.00  0.00     0.059 A 
ATOM     82  C   UNL A   1      44.535  24.800  24.949  1.00  0.00     0.059 A 
ATOM     83  F   UNL A   1      44.131  27.027  25.565  1.00  0.00    -0.206 F 
ATOM     84  C   UNL A   1      45.160  23.583  25.224  1.00  0.00     0.060 A 
BRANCH  84  85
ATOM     85  S   UNL A   1      44.494  22.037  24.561  1.00  0.00     0.124 S 
ATOM     86  O   UNL A   1      45.430  21.049  25.084  1.00  0.00    -0.237 OA
ATOM     87  O   UNL A   1      43.157  22.021  25.151  1.00  0.00    -0.237 OA
ATOM     88  O   UNL A   1      44.539  22.252  23.120  1.00  0.00    -0.744 OA
ENDBRANCH  84  85
ENDBRANCH  52  77
BRANCH  64  89
ATOM     89  C   UNL A   1      44.674  32.781  28.362  1.00  0.00     0.058 A 
ATOM     90  C   UNL A   1      44.207  33.332  27.158  1.00  0.00     0.135 A 
ATOM     91  C   UNL A   1      45.193  33.711  29.297  1.00  0.00     0.135 A 
ATOM     92  F   UNL A   1      43.595  32.576  26.236  1.00  0.00    -0.206 F 
ATOM     93  C   UNL A   1      44.306  34.696  26.871  1.00  0.00     0.059 A 
ATOM     94  C   UNL A   1      45.253  35.081  29.053  1.00  0.00     0.059 A 
ATOM     95  F   UNL A   1      45.649  33.317  30.496  1.00  0.00    -0.206 F 
ATOM     96  C   UNL A   1      44.832  35.564  27.823  1.00  0.00     0.060 A 
BRANCH  96  97
ATOM     97  S   UNL A   1      44.913  37.334  27.492  1.00  0.00     0.124 S 
ATOM     98  O   UNL A   1      44.891  37.884  28.843  1.00  0.00    -0.237 OA
ATOM     99  O   UNL A   1      46.177  37.476  26.776  1.00  0.00    -0.237 OA
ATOM    100  O   UNL A   1      43.718  37.574  26.690  1.00  0.00    -0.744 OA
ENDBRANCH  96  97
ENDBRANCH  64  89
ENDBRANCH  38  39
ENDBRANCH  30  33
ENDBRANCH  28  29
ENDBRANCH   1  28
TORSDOF 17
ENDMDL
