MODEL 1
REMARK VINA RESULT:     -11.1      0.000      0.000
REMARK SMILES C=CCOc1ccc(C(=O)N2CCC[C@H]2C(=O)NCCCCNC(=O)c2ccc(-c3c4nc(c(-c5c(F)cc(S(=O)(=O)[O-])cc5F)c5ccc([nH]5)c(-c5c(F)cc(S(=O)(=O)[O-])cc5F)c5nc(c(-c6c(F)cc(S(=O)(=O)[O-])cc6F)c6ccc3[nH]6)C=C5)C=C4)cc2)cc1
REMARK SMILES IDX 19 1 18 2 16 3 17 4 15 6 11 7 12 8 13 9 14 10 9 11 10 12
REMARK SMILES IDX 8 13 5 14 6 15 93 16 7 17 92 18 4 19 3 20 2 21 1 22 20 23
REMARK SMILES IDX 21 24 22 25 23 26 24 27 25 29 26 30 27 31 91 32 28 33 90 34
REMARK SMILES IDX 29 35 30 36 31 37 84 38 32 39 89 40 83 41 85 42 33 43 88 44
REMARK SMILES IDX 82 45 81 46 34 48 68 49 47 50 67 51 48 52 51 53 66 54 86 55
REMARK SMILES IDX 49 56 50 57 65 59 87 60 52 61 35 62 36 63 45 64 37 65 38 66
REMARK SMILES IDX 44 67 46 68 39 69 40 70 41 71 42 72 43 73 69 74 70 75 79 76
REMARK SMILES IDX 71 77 72 78 78 79 80 80 73 81 74 82 75 83 76 84 77 85 53 86
REMARK SMILES IDX 54 87 63 88 55 89 56 90 62 91 64 92 57 93 58 94 59 95 60 96
REMARK SMILES IDX 61 97
REMARK H PARENT 18 5 23 28 85 47 51 58
REMARK Flexibility Score: inf
ROOT
ATOM      1  C   UNL A   1      33.779  27.108  23.689  1.00  0.00     0.116 C 
ENDROOT
BRANCH   1   2
ATOM      2  N   UNL A   1      32.830  27.093  22.596  1.00  0.00    -0.354 N 
ATOM      3  C   UNL A   1      31.937  26.157  22.176  1.00  0.00     0.242 C 
ATOM      4  O   UNL A   1      31.347  26.403  21.115  1.00  0.00    -0.273 OA
ATOM      5  H   UNL A   1      32.830  27.915  22.054  1.00  0.00     0.163 HD
BRANCH   3   6
ATOM      6  C   UNL A   1      31.519  24.910  22.993  1.00  0.00     0.174 C 
ATOM      7  N   UNL A   1      32.486  24.194  23.820  1.00  0.00    -0.327 N 
ATOM      8  C   UNL A   1      32.311  24.578  25.213  1.00  0.00     0.121 C 
ATOM      9  C   UNL A   1      30.805  24.677  25.324  1.00  0.00     0.024 C 
ATOM     10  C   UNL A   1      30.409  25.313  23.990  1.00  0.00     0.037 C 
BRANCH   7  11
ATOM     11  C   UNL A   1      33.259  23.209  23.230  1.00  0.00     0.254 C 
ATOM     12  O   UNL A   1      33.827  23.397  22.154  1.00  0.00    -0.269 OA
BRANCH  11  13
ATOM     13  C   UNL A   1      33.362  21.851  23.821  1.00  0.00     0.040 A 
ATOM     14  C   UNL A   1      33.846  19.198  24.530  1.00  0.00     0.119 A 
ATOM     15  C   UNL A   1      34.768  20.176  24.889  1.00  0.00     0.047 A 
ATOM     16  C   UNL A   1      32.644  19.546  23.921  1.00  0.00     0.047 A 
ATOM     17  C   UNL A   1      34.522  21.509  24.537  1.00  0.00     0.017 A 
ATOM     18  C   UNL A   1      32.438  20.853  23.504  1.00  0.00     0.017 A 
BRANCH  14  19
ATOM     19  O   UNL A   1      34.143  17.874  24.720  1.00  0.00    -0.490 OA
BRANCH  19  20
ATOM     20  C   UNL A   1      33.019  17.051  24.343  1.00  0.00     0.257 C 
BRANCH  20  21
ATOM     21  C   UNL A   1      32.573  16.176  25.486  1.00  0.00     0.006 C 
ATOM     22  C   UNL A   1      32.712  14.842  25.518  1.00  0.00     0.007 C 
ENDBRANCH  20  21
ENDBRANCH  19  20
ENDBRANCH  14  19
ENDBRANCH  11  13
ENDBRANCH   7  11
ENDBRANCH   3   6
ENDBRANCH   1   2
BRANCH   1  23
ATOM     23  C   UNL A   1      33.600  28.333  24.582  1.00  0.00     0.023 C 
BRANCH  23  24
ATOM     24  C   UNL A   1      32.889  28.049  25.905  1.00  0.00     0.023 C 
BRANCH  24  25
ATOM     25  C   UNL A   1      33.690  28.379  27.160  1.00  0.00     0.116 C 
BRANCH  25  26
ATOM     26  N   UNL A   1      33.572  29.766  27.584  1.00  0.00    -0.352 N 
ATOM     27  C   UNL A   1      34.526  30.572  28.162  1.00  0.00     0.251 C 
ATOM     28  H   UNL A   1      32.692  30.183  27.439  1.00  0.00     0.163 HD
ATOM     29  O   UNL A   1      34.235  31.695  28.542  1.00  0.00    -0.269 OA
BRANCH  27  30
ATOM     30  C   UNL A   1      35.894  30.042  28.358  1.00  0.00     0.039 A 
ATOM     31  C   UNL A   1      36.785  30.083  27.285  1.00  0.00     0.014 A 
ATOM     32  C   UNL A   1      36.304  29.547  29.599  1.00  0.00     0.014 A 
ATOM     33  C   UNL A   1      38.110  29.690  27.477  1.00  0.00     0.010 A 
ATOM     34  C   UNL A   1      37.642  29.231  29.808  1.00  0.00     0.010 A 
ATOM     35  C   UNL A   1      38.558  29.296  28.750  1.00  0.00    -0.014 A 
BRANCH  35  36
ATOM     36  C   UNL A   1      39.988  28.966  28.981  1.00  0.00     0.031 A 
ATOM     37  C   UNL A   1      40.918  29.984  29.581  1.00  0.00     0.074 A 
ATOM     38  C   UNL A   1      40.453  27.756  28.610  1.00  0.00     0.049 A 
ATOM     39  N   UNL A   1      42.189  29.870  29.871  1.00  0.00    -0.248 NA
ATOM     40  C   UNL A   1      40.357  31.314  29.867  1.00  0.00     0.031 C 
ATOM     41  C   UNL A   1      39.666  26.713  27.948  1.00  0.00     0.029 A 
ATOM     42  N   UNL A   1      41.699  27.197  28.739  1.00  0.00    -0.354 N 
ATOM     43  C   UNL A   1      42.578  31.109  30.367  1.00  0.00     0.074 A 
ATOM     44  C   UNL A   1      41.426  31.980  30.278  1.00  0.00     0.031 C 
ATOM     45  C   UNL A   1      40.436  25.629  27.765  1.00  0.00     0.029 A 
ATOM     46  C   UNL A   1      41.777  25.907  28.272  1.00  0.00     0.049 A 
ATOM     47  H   UNL A   1      42.467  27.676  29.129  1.00  0.00     0.167 HD
ATOM     48  C   UNL A   1      43.777  31.479  30.876  1.00  0.00     0.037 A 
ATOM     49  C   UNL A   1      42.808  25.040  28.263  1.00  0.00     0.037 A 
ATOM     50  C   UNL A   1      44.912  30.600  30.982  1.00  0.00     0.049 A 
ATOM     51  C   UNL A   1      44.119  25.464  28.867  1.00  0.00     0.074 A 
ATOM     52  C   UNL A   1      46.155  30.859  31.536  1.00  0.00     0.029 A 
ATOM     53  N   UNL A   1      44.945  29.291  30.523  1.00  0.00    -0.354 N 
ATOM     54  N   UNL A   1      44.447  26.615  29.402  1.00  0.00    -0.248 NA
ATOM     55  C   UNL A   1      45.194  24.463  28.880  1.00  0.00     0.031 C 
ATOM     56  C   UNL A   1      46.949  29.716  31.379  1.00  0.00     0.029 A 
ATOM     57  C   UNL A   1      46.188  28.733  30.769  1.00  0.00     0.049 A 
ATOM     58  H   UNL A   1      44.194  28.827  30.087  1.00  0.00     0.167 HD
ATOM     59  C   UNL A   1      45.760  26.472  29.835  1.00  0.00     0.074 A 
ATOM     60  C   UNL A   1      46.157  25.115  29.519  1.00  0.00     0.031 C 
ATOM     61  C   UNL A   1      46.567  27.381  30.441  1.00  0.00     0.037 A 
BRANCH  48  62
ATOM     62  C   UNL A   1      43.914  32.894  31.372  1.00  0.00     0.058 A 
ATOM     63  C   UNL A   1      44.410  33.917  30.548  1.00  0.00     0.135 A 
ATOM     64  C   UNL A   1      43.524  33.237  32.676  1.00  0.00     0.135 A 
ATOM     65  F   UNL A   1      44.813  33.643  29.297  1.00  0.00    -0.206 F 
ATOM     66  C   UNL A   1      44.544  35.224  31.008  1.00  0.00     0.059 A 
ATOM     67  C   UNL A   1      43.623  34.544  33.149  1.00  0.00     0.059 A 
ATOM     68  F   UNL A   1      43.044  32.300  33.508  1.00  0.00    -0.206 F 
ATOM     69  C   UNL A   1      44.150  35.526  32.312  1.00  0.00     0.060 A 
BRANCH  69  70
ATOM     70  S   UNL A   1      44.328  37.226  32.892  1.00  0.00     0.124 S 
ATOM     71  O   UNL A   1      43.910  37.980  31.715  1.00  0.00    -0.237 OA
ATOM     72  O   UNL A   1      43.414  37.267  34.029  1.00  0.00    -0.237 OA
ATOM     73  O   UNL A   1      45.746  37.323  33.229  1.00  0.00    -0.744 OA
ENDBRANCH  69  70
ENDBRANCH  48  62
BRANCH  49  74
ATOM     74  C   UNL A   1      42.627  23.673  27.708  1.00  0.00     0.058 A 
ATOM     75  C   UNL A   1      42.709  23.437  26.328  1.00  0.00     0.135 A 
ATOM     76  C   UNL A   1      42.383  22.573  28.545  1.00  0.00     0.135 A 
ATOM     77  F   UNL A   1      42.937  24.457  25.486  1.00  0.00    -0.206 F 
ATOM     78  C   UNL A   1      42.536  22.165  25.794  1.00  0.00     0.059 A 
ATOM     79  C   UNL A   1      42.232  21.286  28.037  1.00  0.00     0.059 A 
ATOM     80  F   UNL A   1      42.314  22.743  29.876  1.00  0.00    -0.206 F 
ATOM     81  C   UNL A   1      42.300  21.095  26.657  1.00  0.00     0.060 A 
BRANCH  81  82
ATOM     82  S   UNL A   1      42.124  19.439  25.958  1.00  0.00     0.124 S 
ATOM     83  O   UNL A   1      40.687  19.369  25.725  1.00  0.00    -0.237 OA
ATOM     84  O   UNL A   1      42.963  19.519  24.766  1.00  0.00    -0.237 OA
ATOM     85  O   UNL A   1      42.636  18.573  27.016  1.00  0.00    -0.744 OA
ENDBRANCH  81  82
ENDBRANCH  49  74
BRANCH  61  86
ATOM     86  C   UNL A   1      47.948  26.921  30.818  1.00  0.00     0.058 A 
ATOM     87  C   UNL A   1      48.215  26.333  32.065  1.00  0.00     0.135 A 
ATOM     88  C   UNL A   1      49.014  27.060  29.916  1.00  0.00     0.135 A 
ATOM     89  F   UNL A   1      47.230  26.180  32.964  1.00  0.00    -0.206 F 
ATOM     90  C   UNL A   1      49.501  25.940  32.421  1.00  0.00     0.059 A 
ATOM     91  C   UNL A   1      50.304  26.648  30.240  1.00  0.00     0.059 A 
ATOM     92  F   UNL A   1      48.811  27.602  28.705  1.00  0.00    -0.206 F 
ATOM     93  C   UNL A   1      50.540  26.108  31.504  1.00  0.00     0.060 A 
BRANCH  93  94
ATOM     94  S   UNL A   1      52.206  25.601  31.979  1.00  0.00     0.124 S 
ATOM     95  O   UNL A   1      52.973  25.975  30.795  1.00  0.00    -0.237 OA
ATOM     96  O   UNL A   1      52.452  26.405  33.172  1.00  0.00    -0.237 OA
ATOM     97  O   UNL A   1      52.070  24.167  32.214  1.00  0.00    -0.744 OA
ENDBRANCH  93  94
ENDBRANCH  61  86
ENDBRANCH  35  36
ENDBRANCH  27  30
ENDBRANCH  25  26
ENDBRANCH  24  25
ENDBRANCH  23  24
ENDBRANCH   1  23
TORSDOF 19
ENDMDL
MODEL 2
REMARK VINA RESULT:     -11.0      3.053      4.051
REMARK SMILES C=CCOc1ccc(C(=O)N2CCC[C@H]2C(=O)NCCCCNC(=O)c2ccc(-c3c4nc(c(-c5c(F)cc(S(=O)(=O)[O-])cc5F)c5ccc([nH]5)c(-c5c(F)cc(S(=O)(=O)[O-])cc5F)c5nc(c(-c6c(F)cc(S(=O)(=O)[O-])cc6F)c6ccc3[nH]6)C=C5)C=C4)cc2)cc1
REMARK SMILES IDX 19 1 18 2 16 3 17 4 15 6 11 7 12 8 13 9 14 10 9 11 10 12
REMARK SMILES IDX 8 13 5 14 6 15 93 16 7 17 92 18 4 19 3 20 2 21 1 22 20 23
REMARK SMILES IDX 21 24 22 25 23 26 24 27 25 29 26 30 27 31 91 32 28 33 90 34
REMARK SMILES IDX 29 35 30 36 31 37 84 38 32 39 89 40 83 41 85 42 33 43 88 44
REMARK SMILES IDX 82 45 81 46 34 48 68 49 47 50 67 51 48 52 51 53 66 54 86 55
REMARK SMILES IDX 49 56 50 57 65 59 87 60 52 61 35 62 36 63 45 64 37 65 38 66
REMARK SMILES IDX 44 67 46 68 39 69 40 70 41 71 42 72 43 73 69 74 70 75 79 76
REMARK SMILES IDX 71 77 72 78 78 79 80 80 73 81 74 82 75 83 76 84 77 85 53 86
REMARK SMILES IDX 54 87 63 88 55 89 56 90 62 91 64 92 57 93 58 94 59 95 60 96
REMARK SMILES IDX 61 97
REMARK H PARENT 18 5 23 28 85 47 51 58
REMARK Flexibility Score: inf
ROOT
ATOM      1  C   UNL A   1      34.049  28.568  26.447  1.00  0.00     0.116 C 
ENDROOT
BRANCH   1   2
ATOM      2  N   UNL A   1      32.846  28.270  27.195  1.00  0.00    -0.354 N 
ATOM      3  C   UNL A   1      31.767  27.491  26.916  1.00  0.00     0.242 C 
ATOM      4  O   UNL A   1      30.830  27.544  27.725  1.00  0.00    -0.273 OA
ATOM      5  H   UNL A   1      32.800  28.716  28.073  1.00  0.00     0.163 HD
BRANCH   3   6
ATOM      6  C   UNL A   1      31.700  26.462  25.761  1.00  0.00     0.174 C 
ATOM      7  N   UNL A   1      30.574  25.541  25.639  1.00  0.00    -0.327 N 
ATOM      8  C   UNL A   1      29.654  26.031  24.623  1.00  0.00     0.121 C 
ATOM      9  C   UNL A   1      30.602  26.567  23.574  1.00  0.00     0.024 C 
ATOM     10  C   UNL A   1      31.702  27.221  24.414  1.00  0.00     0.037 C 
BRANCH   7  11
ATOM     11  C   UNL A   1      30.620  24.345  26.334  1.00  0.00     0.254 C 
ATOM     12  O   UNL A   1      29.789  24.075  27.201  1.00  0.00    -0.269 OA
BRANCH  11  13
ATOM     13  C   UNL A   1      31.727  23.377  26.133  1.00  0.00     0.040 A 
ATOM     14  C   UNL A   1      34.106  21.956  25.821  1.00  0.00     0.119 A 
ATOM     15  C   UNL A   1      33.612  22.181  27.102  1.00  0.00     0.047 A 
ATOM     16  C   UNL A   1      33.372  22.337  24.702  1.00  0.00     0.047 A 
ATOM     17  C   UNL A   1      32.415  22.890  27.258  1.00  0.00     0.017 A 
ATOM     18  C   UNL A   1      32.229  23.106  24.859  1.00  0.00     0.017 A 
BRANCH  14  19
ATOM     19  O   UNL A   1      35.352  21.410  25.653  1.00  0.00    -0.490 OA
BRANCH  19  20
ATOM     20  C   UNL A   1      36.352  22.450  25.625  1.00  0.00     0.257 C 
BRANCH  20  21
ATOM     21  C   UNL A   1      37.117  22.439  24.326  1.00  0.00     0.006 C 
ATOM     22  C   UNL A   1      36.634  22.894  23.159  1.00  0.00     0.007 C 
ENDBRANCH  20  21
ENDBRANCH  19  20
ENDBRANCH  14  19
ENDBRANCH  11  13
ENDBRANCH   7  11
ENDBRANCH   3   6
ENDBRANCH   1   2
BRANCH   1  23
ATOM     23  C   UNL A   1      35.123  29.206  27.325  1.00  0.00     0.023 C 
BRANCH  23  24
ATOM     24  C   UNL A   1      34.844  30.660  27.704  1.00  0.00     0.023 C 
BRANCH  24  25
ATOM     25  C   UNL A   1      35.878  31.305  28.621  1.00  0.00     0.116 C 
BRANCH  25  26
ATOM     26  N   UNL A   1      35.696  30.984  30.028  1.00  0.00    -0.352 N 
ATOM     27  C   UNL A   1      36.508  30.236  30.851  1.00  0.00     0.251 C 
ATOM     28  H   UNL A   1      34.883  31.349  30.448  1.00  0.00     0.163 HD
ATOM     29  O   UNL A   1      36.162  29.986  31.995  1.00  0.00    -0.269 OA
BRANCH  27  30
ATOM     30  C   UNL A   1      37.781  29.705  30.315  1.00  0.00     0.039 A 
ATOM     31  C   UNL A   1      38.099  29.954  28.980  1.00  0.00     0.014 A 
ATOM     32  C   UNL A   1      38.669  29.002  31.135  1.00  0.00     0.014 A 
ATOM     33  C   UNL A   1      39.342  29.558  28.485  1.00  0.00     0.010 A 
ATOM     34  C   UNL A   1      39.936  28.678  30.661  1.00  0.00     0.010 A 
ATOM     35  C   UNL A   1      40.285  28.950  29.331  1.00  0.00    -0.014 A 
BRANCH  35  36
ATOM     36  C   UNL A   1      41.642  28.609  28.832  1.00  0.00     0.031 A 
ATOM     37  C   UNL A   1      42.717  29.659  28.774  1.00  0.00     0.074 A 
ATOM     38  C   UNL A   1      41.889  27.358  28.395  1.00  0.00     0.049 A 
ATOM     39  N   UNL A   1      43.962  29.543  28.387  1.00  0.00    -0.248 NA
ATOM     40  C   UNL A   1      42.342  31.023  29.177  1.00  0.00     0.031 C 
ATOM     41  C   UNL A   1      40.905  26.275  28.330  1.00  0.00     0.029 A 
ATOM     42  N   UNL A   1      43.043  26.785  27.925  1.00  0.00    -0.354 N 
ATOM     43  C   UNL A   1      44.513  30.815  28.493  1.00  0.00     0.074 A 
ATOM     44  C   UNL A   1      43.451  31.700  28.920  1.00  0.00     0.031 C 
ATOM     45  C   UNL A   1      41.507  25.160  27.885  1.00  0.00     0.029 A 
ATOM     46  C   UNL A   1      42.910  25.453  27.610  1.00  0.00     0.049 A 
ATOM     47  H   UNL A   1      43.888  27.281  27.822  1.00  0.00     0.167 HD
ATOM     48  C   UNL A   1      45.793  31.204  28.283  1.00  0.00     0.037 A 
ATOM     49  C   UNL A   1      43.818  24.566  27.161  1.00  0.00     0.037 A 
ATOM     50  C   UNL A   1      46.849  30.313  27.880  1.00  0.00     0.049 A 
ATOM     51  C   UNL A   1      45.241  25.015  26.970  1.00  0.00     0.074 A 
ATOM     52  C   UNL A   1      48.192  30.594  27.697  1.00  0.00     0.029 A 
ATOM     53  N   UNL A   1      46.683  28.965  27.597  1.00  0.00    -0.354 N 
ATOM     54  N   UNL A   1      45.762  26.205  27.149  1.00  0.00    -0.248 NA
ATOM     55  C   UNL A   1      46.202  23.995  26.529  1.00  0.00     0.031 C 
ATOM     56  C   UNL A   1      48.829  29.424  27.268  1.00  0.00     0.029 A 
ATOM     57  C   UNL A   1      47.893  28.403  27.228  1.00  0.00     0.049 A 
ATOM     58  H   UNL A   1      45.828  28.479  27.651  1.00  0.00     0.167 HD
ATOM     59  C   UNL A   1      47.116  26.073  26.865  1.00  0.00     0.074 A 
ATOM     60  C   UNL A   1      47.336  24.683  26.523  1.00  0.00     0.031 C 
ATOM     61  C   UNL A   1      48.092  27.017  26.885  1.00  0.00     0.037 A 
BRANCH  48  62
ATOM     62  C   UNL A   1      46.121  32.657  28.501  1.00  0.00     0.058 A 
ATOM     63  C   UNL A   1      46.532  33.138  29.755  1.00  0.00     0.135 A 
ATOM     64  C   UNL A   1      46.048  33.575  27.441  1.00  0.00     0.135 A 
ATOM     65  F   UNL A   1      46.604  32.307  30.807  1.00  0.00    -0.206 F 
ATOM     66  C   UNL A   1      46.828  34.482  29.959  1.00  0.00     0.059 A 
ATOM     67  C   UNL A   1      46.367  34.920  27.615  1.00  0.00     0.059 A 
ATOM     68  F   UNL A   1      45.660  33.172  26.221  1.00  0.00    -0.206 F 
ATOM     69  C   UNL A   1      46.740  35.366  28.883  1.00  0.00     0.060 A 
BRANCH  69  70
ATOM     70  S   UNL A   1      47.129  37.106  29.164  1.00  0.00     0.124 S 
ATOM     71  O   UNL A   1      46.563  37.727  27.972  1.00  0.00    -0.237 OA
ATOM     72  O   UNL A   1      46.432  37.385  30.416  1.00  0.00    -0.237 OA
ATOM     73  O   UNL A   1      48.587  37.119  29.247  1.00  0.00    -0.744 OA
ENDBRANCH  69  70
ENDBRANCH  48  62
BRANCH  49  74
ATOM     74  C   UNL A   1      43.420  23.155  26.910  1.00  0.00     0.058 A 
ATOM     75  C   UNL A   1      43.350  22.646  25.605  1.00  0.00     0.135 A 
ATOM     76  C   UNL A   1      43.115  22.285  27.968  1.00  0.00     0.135 A 
ATOM     77  F   UNL A   1      43.628  23.441  24.560  1.00  0.00    -0.206 F 
ATOM     78  C   UNL A   1      42.974  21.331  25.355  1.00  0.00     0.059 A 
ATOM     79  C   UNL A   1      42.761  20.957  27.745  1.00  0.00     0.059 A 
ATOM     80  F   UNL A   1      43.186  22.718  29.237  1.00  0.00    -0.206 F 
ATOM     81  C   UNL A   1      42.683  20.493  26.432  1.00  0.00     0.060 A 
BRANCH  81  82
ATOM     82  S   UNL A   1      42.242  18.774  26.099  1.00  0.00     0.124 S 
ATOM     83  O   UNL A   1      43.110  18.461  24.972  1.00  0.00    -0.237 OA
ATOM     84  O   UNL A   1      42.574  18.122  27.363  1.00  0.00    -0.237 OA
ATOM     85  O   UNL A   1      40.815  18.847  25.798  1.00  0.00    -0.744 OA
ENDBRANCH  81  82
ENDBRANCH  49  74
BRANCH  61  86
ATOM     86  C   UNL A   1      49.485  26.564  26.548  1.00  0.00     0.058 A 
ATOM     87  C   UNL A   1      49.997  26.657  25.244  1.00  0.00     0.135 A 
ATOM     88  C   UNL A   1      50.322  26.040  27.545  1.00  0.00     0.135 A 
ATOM     89  F   UNL A   1      49.235  27.148  24.253  1.00  0.00    -0.206 F 
ATOM     90  C   UNL A   1      51.275  26.205  24.931  1.00  0.00     0.059 A 
ATOM     91  C   UNL A   1      51.615  25.607  27.261  1.00  0.00     0.059 A 
ATOM     92  F   UNL A   1      49.888  25.942  28.812  1.00  0.00    -0.206 F 
ATOM     93  C   UNL A   1      52.073  25.676  25.946  1.00  0.00     0.060 A 
BRANCH  93  94
ATOM     94  S   UNL A   1      53.728  25.085  25.529  1.00  0.00     0.124 S 
ATOM     95  O   UNL A   1      54.052  25.916  24.374  1.00  0.00    -0.237 OA
ATOM     96  O   UNL A   1      54.480  25.370  26.747  1.00  0.00    -0.237 OA
ATOM     97  O   UNL A   1      53.520  23.668  25.246  1.00  0.00    -0.744 OA
ENDBRANCH  93  94
ENDBRANCH  61  86
ENDBRANCH  35  36
ENDBRANCH  27  30
ENDBRANCH  25  26
ENDBRANCH  24  25
ENDBRANCH  23  24
ENDBRANCH   1  23
TORSDOF 19
ENDMDL
MODEL 3
REMARK VINA RESULT:     -10.8      4.716     10.787
REMARK SMILES C=CCOc1ccc(C(=O)N2CCC[C@H]2C(=O)NCCCCNC(=O)c2ccc(-c3c4nc(c(-c5c(F)cc(S(=O)(=O)[O-])cc5F)c5ccc([nH]5)c(-c5c(F)cc(S(=O)(=O)[O-])cc5F)c5nc(c(-c6c(F)cc(S(=O)(=O)[O-])cc6F)c6ccc3[nH]6)C=C5)C=C4)cc2)cc1
REMARK SMILES IDX 19 1 18 2 16 3 17 4 15 6 11 7 12 8 13 9 14 10 9 11 10 12
REMARK SMILES IDX 8 13 5 14 6 15 93 16 7 17 92 18 4 19 3 20 2 21 1 22 20 23
REMARK SMILES IDX 21 24 22 25 23 26 24 27 25 29 26 30 27 31 91 32 28 33 90 34
REMARK SMILES IDX 29 35 30 36 31 37 84 38 32 39 89 40 83 41 85 42 33 43 88 44
REMARK SMILES IDX 82 45 81 46 34 48 68 49 47 50 67 51 48 52 51 53 66 54 86 55
REMARK SMILES IDX 49 56 50 57 65 59 87 60 52 61 35 62 36 63 45 64 37 65 38 66
REMARK SMILES IDX 44 67 46 68 39 69 40 70 41 71 42 72 43 73 69 74 70 75 79 76
REMARK SMILES IDX 71 77 72 78 78 79 80 80 73 81 74 82 75 83 76 84 77 85 53 86
REMARK SMILES IDX 54 87 63 88 55 89 56 90 62 91 64 92 57 93 58 94 59 95 60 96
REMARK SMILES IDX 61 97
REMARK H PARENT 18 5 23 28 85 47 51 58
REMARK Flexibility Score: inf
ROOT
ATOM      1  C   UNL A   1      42.852  23.656  28.252  1.00  0.00     0.116 C 
ENDROOT
BRANCH   1   2
ATOM      2  N   UNL A   1      44.266  23.857  28.492  1.00  0.00    -0.354 N 
ATOM      3  C   UNL A   1      45.316  24.053  27.651  1.00  0.00     0.242 C 
ATOM      4  O   UNL A   1      46.439  24.068  28.174  1.00  0.00    -0.273 OA
ATOM      5  H   UNL A   1      44.514  23.851  29.445  1.00  0.00     0.163 HD
BRANCH   3   6
ATOM      6  C   UNL A   1      45.186  24.394  26.146  1.00  0.00     0.174 C 
ATOM      7  N   UNL A   1      45.416  25.750  25.660  1.00  0.00    -0.327 N 
ATOM      8  C   UNL A   1      46.748  25.839  25.079  1.00  0.00     0.121 C 
ATOM      9  C   UNL A   1      46.870  24.508  24.371  1.00  0.00     0.024 C 
ATOM     10  C   UNL A   1      46.201  23.541  25.351  1.00  0.00     0.037 C 
BRANCH   7  11
ATOM     11  C   UNL A   1      44.359  26.644  25.671  1.00  0.00     0.254 C 
ATOM     12  O   UNL A   1      43.359  26.465  24.975  1.00  0.00    -0.269 OA
BRANCH  11  13
ATOM     13  C   UNL A   1      44.424  27.907  26.448  1.00  0.00     0.040 A 
ATOM     14  C   UNL A   1      44.361  30.003  28.287  1.00  0.00     0.119 A 
ATOM     15  C   UNL A   1      45.462  29.152  28.263  1.00  0.00     0.047 A 
ATOM     16  C   UNL A   1      43.351  29.881  27.338  1.00  0.00     0.047 A 
ATOM     17  C   UNL A   1      45.495  28.104  27.336  1.00  0.00     0.017 A 
ATOM     18  C   UNL A   1      43.348  28.797  26.473  1.00  0.00     0.017 A 
BRANCH  14  19
ATOM     19  O   UNL A   1      44.233  30.930  29.288  1.00  0.00    -0.490 OA
BRANCH  19  20
ATOM     20  C   UNL A   1      43.015  31.684  29.117  1.00  0.00     0.257 C 
BRANCH  20  21
ATOM     21  C   UNL A   1      43.075  32.996  29.857  1.00  0.00     0.006 C 
ATOM     22  C   UNL A   1      44.202  33.547  30.333  1.00  0.00     0.007 C 
ENDBRANCH  20  21
ENDBRANCH  19  20
ENDBRANCH  14  19
ENDBRANCH  11  13
ENDBRANCH   7  11
ENDBRANCH   3   6
ENDBRANCH   1   2
BRANCH   1  23
ATOM     23  C   UNL A   1      42.551  22.238  27.775  1.00  0.00     0.023 C 
BRANCH  23  24
ATOM     24  C   UNL A   1      41.591  22.163  26.588  1.00  0.00     0.023 C 
BRANCH  24  25
ATOM     25  C   UNL A   1      40.150  21.806  26.935  1.00  0.00     0.116 C 
BRANCH  25  26
ATOM     26  N   UNL A   1      39.167  22.390  26.035  1.00  0.00    -0.352 N 
ATOM     27  C   UNL A   1      38.702  23.685  25.995  1.00  0.00     0.251 C 
ATOM     28  H   UNL A   1      38.783  21.778  25.367  1.00  0.00     0.163 HD
ATOM     29  O   UNL A   1      37.803  23.993  25.228  1.00  0.00    -0.269 OA
BRANCH  27  30
ATOM     30  C   UNL A   1      39.274  24.685  26.925  1.00  0.00     0.039 A 
ATOM     31  C   UNL A   1      40.162  25.635  26.419  1.00  0.00     0.014 A 
ATOM     32  C   UNL A   1      38.905  24.708  28.273  1.00  0.00     0.014 A 
ATOM     33  C   UNL A   1      40.628  26.652  27.254  1.00  0.00     0.010 A 
ATOM     34  C   UNL A   1      39.308  25.766  29.080  1.00  0.00     0.010 A 
ATOM     35  C   UNL A   1      40.176  26.747  28.581  1.00  0.00    -0.014 A 
BRANCH  35  36
ATOM     36  C   UNL A   1      40.596  27.880  29.445  1.00  0.00     0.031 A 
ATOM     37  C   UNL A   1      39.707  29.081  29.612  1.00  0.00     0.074 A 
ATOM     38  C   UNL A   1      41.801  27.838  30.047  1.00  0.00     0.049 A 
ATOM     39  N   UNL A   1      39.898  30.154  30.337  1.00  0.00    -0.248 NA
ATOM     40  C   UNL A   1      38.451  29.095  28.845  1.00  0.00     0.031 C 
ATOM     41  C   UNL A   1      42.784  26.761  29.899  1.00  0.00     0.029 A 
ATOM     42  N   UNL A   1      42.405  28.720  30.906  1.00  0.00    -0.354 N 
ATOM     43  C   UNL A   1      38.796  30.968  30.109  1.00  0.00     0.074 A 
ATOM     44  C   UNL A   1      37.970  30.296  29.130  1.00  0.00     0.031 C 
ATOM     45  C   UNL A   1      43.850  27.028  30.671  1.00  0.00     0.029 A 
ATOM     46  C   UNL A   1      43.638  28.303  31.349  1.00  0.00     0.049 A 
ATOM     47  H   UNL A   1      41.995  29.572  31.180  1.00  0.00     0.167 HD
ATOM     48  C   UNL A   1      38.484  32.154  30.685  1.00  0.00     0.037 A 
ATOM     49  C   UNL A   1      44.497  28.878  32.213  1.00  0.00     0.037 A 
ATOM     50  C   UNL A   1      39.300  32.806  31.676  1.00  0.00     0.049 A 
ATOM     51  C   UNL A   1      44.112  30.177  32.865  1.00  0.00     0.074 A 
ATOM     52  C   UNL A   1      39.047  33.980  32.365  1.00  0.00     0.029 A 
ATOM     53  N   UNL A   1      40.529  32.341  32.120  1.00  0.00    -0.354 N 
ATOM     54  N   UNL A   1      43.029  30.896  32.696  1.00  0.00    -0.248 NA
ATOM     55  C   UNL A   1      45.061  30.735  33.839  1.00  0.00     0.031 C 
ATOM     56  C   UNL A   1      40.140  34.242  33.199  1.00  0.00     0.029 A 
ATOM     57  C   UNL A   1      41.053  33.208  33.063  1.00  0.00     0.049 A 
ATOM     58  H   UNL A   1      40.964  31.514  31.810  1.00  0.00     0.167 HD
ATOM     59  C   UNL A   1      43.154  31.981  33.557  1.00  0.00     0.074 A 
ATOM     60  C   UNL A   1      44.408  31.810  34.261  1.00  0.00     0.031 C 
ATOM     61  C   UNL A   1      42.308  33.025  33.749  1.00  0.00     0.037 A 
BRANCH  48  62
ATOM     62  C   UNL A   1      37.198  32.813  30.265  1.00  0.00     0.058 A 
ATOM     63  C   UNL A   1      37.147  33.703  29.180  1.00  0.00     0.135 A 
ATOM     64  C   UNL A   1      35.997  32.535  30.938  1.00  0.00     0.135 A 
ATOM     65  F   UNL A   1      38.268  34.019  28.511  1.00  0.00    -0.206 F 
ATOM     66  C   UNL A   1      35.960  34.320  28.797  1.00  0.00     0.059 A 
ATOM     67  C   UNL A   1      34.791  33.117  30.554  1.00  0.00     0.059 A 
ATOM     68  F   UNL A   1      35.986  31.693  31.983  1.00  0.00    -0.206 F 
ATOM     69  C   UNL A   1      34.787  34.021  29.492  1.00  0.00     0.060 A 
BRANCH  69  70
ATOM     70  S   UNL A   1      33.255  34.827  28.980  1.00  0.00     0.124 S 
ATOM     71  O   UNL A   1      32.723  33.860  28.026  1.00  0.00    -0.237 OA
ATOM     72  O   UNL A   1      32.525  34.942  30.239  1.00  0.00    -0.237 OA
ATOM     73  O   UNL A   1      33.710  36.090  28.407  1.00  0.00    -0.744 OA
ENDBRANCH  69  70
ENDBRANCH  48  62
BRANCH  49  74
ATOM     74  C   UNL A   1      45.780  28.204  32.546  1.00  0.00     0.058 A 
ATOM     75  C   UNL A   1      45.832  27.184  33.507  1.00  0.00     0.135 A 
ATOM     76  C   UNL A   1      46.976  28.556  31.902  1.00  0.00     0.135 A 
ATOM     77  F   UNL A   1      44.715  26.815  34.153  1.00  0.00    -0.206 F 
ATOM     78  C   UNL A   1      47.025  26.549  33.833  1.00  0.00     0.059 A 
ATOM     79  C   UNL A   1      48.179  27.918  32.192  1.00  0.00     0.059 A 
ATOM     80  F   UNL A   1      46.977  29.513  30.960  1.00  0.00    -0.206 F 
ATOM     81  C   UNL A   1      48.194  26.922  33.169  1.00  0.00     0.060 A 
BRANCH  81  82
ATOM     82  S   UNL A   1      49.730  26.058  33.565  1.00  0.00     0.124 S 
ATOM     83  O   UNL A   1      50.728  27.064  33.226  1.00  0.00    -0.237 OA
ATOM     84  O   UNL A   1      49.564  25.776  34.988  1.00  0.00    -0.237 OA
ATOM     85  O   UNL A   1      49.690  24.887  32.695  1.00  0.00    -0.744 OA
ENDBRANCH  81  82
ENDBRANCH  49  74
BRANCH  61  86
ATOM     86  C   UNL A   1      42.708  34.045  34.779  1.00  0.00     0.058 A 
ATOM     87  C   UNL A   1      42.388  33.887  36.137  1.00  0.00     0.135 A 
ATOM     88  C   UNL A   1      43.430  35.188  34.404  1.00  0.00     0.135 A 
ATOM     89  F   UNL A   1      41.695  32.813  36.548  1.00  0.00    -0.206 F 
ATOM     90  C   UNL A   1      42.731  34.850  37.080  1.00  0.00     0.059 A 
ATOM     91  C   UNL A   1      43.809  36.151  35.334  1.00  0.00     0.059 A 
ATOM     92  F   UNL A   1      43.775  35.381  33.121  1.00  0.00    -0.206 F 
ATOM     93  C   UNL A   1      43.436  35.982  36.668  1.00  0.00     0.060 A 
BRANCH  93  94
ATOM     94  S   UNL A   1      43.871  37.230  37.898  1.00  0.00     0.124 S 
ATOM     95  O   UNL A   1      42.564  37.556  38.458  1.00  0.00    -0.237 OA
ATOM     96  O   UNL A   1      44.774  36.499  38.781  1.00  0.00    -0.237 OA
ATOM     97  O   UNL A   1      44.497  38.284  37.105  1.00  0.00    -0.744 OA
ENDBRANCH  93  94
ENDBRANCH  61  86
ENDBRANCH  35  36
ENDBRANCH  27  30
ENDBRANCH  25  26
ENDBRANCH  24  25
ENDBRANCH  23  24
ENDBRANCH   1  23
TORSDOF 19
ENDMDL
