MODEL 1
REMARK VINA RESULT:     -11.1      0.000      0.000
REMARK SMILES O=C(NCCCCNC(=O)c1cnc(-c2ccccc2Cl)nc1)c1ccc(-c2c3nc(c(-c4c(F)cc(S(=O)(=O)[O-])cc4F)c4ccc([nH]4)c(-c4c(F)cc(S(=O)(=O)[O-])cc4F)c4nc(c(-c5c(F)cc(S(=O)(=O)[O-])cc5F)c5ccc2[nH]5)C=C4)C=C3)cc1
REMARK SMILES IDX 4 1 3 2 1 3 2 4 24 6 25 7 89 8 26 9 88 10 27 11 28 12 29 13
REMARK SMILES IDX 82 14 30 15 87 16 81 17 83 18 31 19 86 20 80 21 79 22 32 24
REMARK SMILES IDX 66 25 45 26 65 27 46 28 49 29 64 30 84 31 47 32 48 33 63 35
REMARK SMILES IDX 85 36 50 37 33 38 34 39 43 40 35 41 36 42 42 43 44 44 37 45
REMARK SMILES IDX 38 46 39 47 40 48 41 49 67 50 68 51 77 52 69 53 70 54 76 55
REMARK SMILES IDX 78 56 71 57 72 58 73 59 74 60 75 61 51 62 52 63 61 64 53 65
REMARK SMILES IDX 54 66 60 67 62 68 55 69 56 70 57 71 58 72 59 73 5 74 6 75
REMARK SMILES IDX 7 76 8 77 9 78 10 80 11 81 12 82 23 83 13 84 22 85 14 86
REMARK SMILES IDX 15 87 16 88 20 89 17 90 19 91 21 92 18 93
REMARK H PARENT 3 5 83 23 49 34 8 79
REMARK Flexibility Score: inf
ROOT
ATOM      1  C   UNL A   1      33.692  28.028  26.735  1.00  0.00     0.116 C 
ENDROOT
BRANCH   1   2
ATOM      2  N   UNL A   1      33.435  29.401  27.142  1.00  0.00    -0.352 N 
ATOM      3  O   UNL A   1      33.838  31.365  28.174  1.00  0.00    -0.269 OA
ATOM      4  C   UNL A   1      34.268  30.280  27.796  1.00  0.00     0.251 C 
ATOM      5  H   UNL A   1      32.542  29.748  26.920  1.00  0.00     0.163 HD
BRANCH   4   6
ATOM      6  C   UNL A   1      35.672  29.897  28.065  1.00  0.00     0.039 A 
ATOM      7  C   UNL A   1      36.054  29.437  29.326  1.00  0.00     0.014 A 
ATOM      8  C   UNL A   1      36.619  30.016  27.043  1.00  0.00     0.014 A 
ATOM      9  C   UNL A   1      37.401  29.237  29.607  1.00  0.00     0.010 A 
ATOM     10  C   UNL A   1      37.962  29.733  27.305  1.00  0.00     0.010 A 
ATOM     11  C   UNL A   1      38.369  29.372  28.598  1.00  0.00    -0.014 A 
BRANCH  11  12
ATOM     12  C   UNL A   1      39.790  29.071  28.910  1.00  0.00     0.031 A 
ATOM     13  C   UNL A   1      40.673  30.082  29.588  1.00  0.00     0.074 A 
ATOM     14  C   UNL A   1      40.270  27.851  28.599  1.00  0.00     0.049 A 
ATOM     15  N   UNL A   1      41.927  29.967  29.947  1.00  0.00    -0.248 NA
ATOM     16  C   UNL A   1      40.081  31.391  29.897  1.00  0.00     0.031 C 
ATOM     17  C   UNL A   1      39.508  26.795  27.926  1.00  0.00     0.029 A 
ATOM     18  N   UNL A   1      41.499  27.284  28.818  1.00  0.00    -0.354 N 
ATOM     19  C   UNL A   1      42.280  31.189  30.507  1.00  0.00     0.074 A 
ATOM     20  C   UNL A   1      41.113  32.041  30.420  1.00  0.00     0.031 C 
ATOM     21  C   UNL A   1      40.271  25.696  27.828  1.00  0.00     0.029 A 
ATOM     22  C   UNL A   1      41.591  25.986  28.374  1.00  0.00     0.049 A 
ATOM     23  H   UNL A   1      42.244  27.760  29.251  1.00  0.00     0.167 HD
ATOM     24  C   UNL A   1      43.466  31.561  31.048  1.00  0.00     0.037 A 
ATOM     25  C   UNL A   1      42.627  25.127  28.388  1.00  0.00     0.037 A 
ATOM     26  C   UNL A   1      44.618  30.698  31.145  1.00  0.00     0.049 A 
ATOM     27  C   UNL A   1      43.931  25.569  28.982  1.00  0.00     0.074 A 
ATOM     28  C   UNL A   1      45.852  30.971  31.710  1.00  0.00     0.029 A 
ATOM     29  N   UNL A   1      44.680  29.400  30.660  1.00  0.00    -0.354 N 
ATOM     30  N   UNL A   1      44.236  26.720  29.534  1.00  0.00    -0.248 NA
ATOM     31  C   UNL A   1      45.035  24.601  28.953  1.00  0.00     0.031 C 
ATOM     32  C   UNL A   1      46.673  29.851  31.532  1.00  0.00     0.029 A 
ATOM     33  C   UNL A   1      45.937  28.865  30.894  1.00  0.00     0.049 A 
ATOM     34  H   UNL A   1      43.940  28.927  30.216  1.00  0.00     0.167 HD
ATOM     35  C   UNL A   1      45.565  26.611  29.925  1.00  0.00     0.074 A 
ATOM     36  C   UNL A   1      45.998  25.275  29.566  1.00  0.00     0.031 C 
ATOM     37  C   UNL A   1      46.355  27.536  30.524  1.00  0.00     0.037 A 
BRANCH  24  38
ATOM     38  C   UNL A   1      43.588  32.967  31.568  1.00  0.00     0.058 A 
ATOM     39  C   UNL A   1      43.389  33.275  32.923  1.00  0.00     0.135 A 
ATOM     40  C   UNL A   1      43.954  34.016  30.707  1.00  0.00     0.135 A 
ATOM     41  F   UNL A   1      43.025  32.316  33.788  1.00  0.00    -0.206 F 
ATOM     42  C   UNL A   1      43.522  34.576  33.402  1.00  0.00     0.059 A 
ATOM     43  C   UNL A   1      44.115  35.319  31.168  1.00  0.00     0.059 A 
ATOM     44  F   UNL A   1      44.159  33.777  29.403  1.00  0.00    -0.206 F 
ATOM     45  C   UNL A   1      43.883  35.593  32.515  1.00  0.00     0.060 A 
BRANCH  45  46
ATOM     46  S   UNL A   1      44.050  37.275  33.149  1.00  0.00     0.124 S 
ATOM     47  O   UNL A   1      45.293  37.176  33.907  1.00  0.00    -0.237 OA
ATOM     48  O   UNL A   1      44.117  38.067  31.925  1.00  0.00    -0.237 OA
ATOM     49  O   UNL A   1      42.841  37.460  33.947  1.00  0.00    -0.744 OA
ENDBRANCH  45  46
ENDBRANCH  24  38
BRANCH  25  50
ATOM     50  C   UNL A   1      42.458  23.768  27.812  1.00  0.00     0.058 A 
ATOM     51  C   UNL A   1      42.456  23.566  26.426  1.00  0.00     0.135 A 
ATOM     52  C   UNL A   1      42.342  22.641  28.641  1.00  0.00     0.135 A 
ATOM     53  F   UNL A   1      42.561  24.614  25.594  1.00  0.00    -0.206 F 
ATOM     54  C   UNL A   1      42.339  22.293  25.877  1.00  0.00     0.059 A 
ATOM     55  C   UNL A   1      42.250  21.357  28.117  1.00  0.00     0.059 A 
ATOM     56  F   UNL A   1      42.358  22.783  29.976  1.00  0.00    -0.206 F 
ATOM     57  C   UNL A   1      42.241  21.194  26.733  1.00  0.00     0.060 A 
BRANCH  57  58
ATOM     58  S   UNL A   1      42.158  19.539  26.015  1.00  0.00     0.124 S 
ATOM     59  O   UNL A   1      42.669  18.720  27.108  1.00  0.00    -0.237 OA
ATOM     60  O   UNL A   1      40.734  19.400  25.724  1.00  0.00    -0.237 OA
ATOM     61  O   UNL A   1      43.021  19.641  24.842  1.00  0.00    -0.744 OA
ENDBRANCH  57  58
ENDBRANCH  25  50
BRANCH  37  62
ATOM     62  C   UNL A   1      47.765  27.125  30.840  1.00  0.00     0.058 A 
ATOM     63  C   UNL A   1      48.093  26.504  32.054  1.00  0.00     0.135 A 
ATOM     64  C   UNL A   1      48.792  27.326  29.904  1.00  0.00     0.135 A 
ATOM     65  F   UNL A   1      47.147  26.298  32.986  1.00  0.00    -0.206 F 
ATOM     66  C   UNL A   1      49.398  26.117  32.342  1.00  0.00     0.059 A 
ATOM     67  C   UNL A   1      50.099  26.927  30.162  1.00  0.00     0.059 A 
ATOM     68  F   UNL A   1      48.528  27.910  28.725  1.00  0.00    -0.206 F 
ATOM     69  C   UNL A   1      50.394  26.334  31.388  1.00  0.00     0.060 A 
BRANCH  69  70
ATOM     70  S   UNL A   1      52.080  25.806  31.762  1.00  0.00     0.124 S 
ATOM     71  O   UNL A   1      52.768  26.113  30.512  1.00  0.00    -0.237 OA
ATOM     72  O   UNL A   1      52.428  26.648  32.901  1.00  0.00    -0.237 OA
ATOM     73  O   UNL A   1      51.930  24.385  32.064  1.00  0.00    -0.744 OA
ENDBRANCH  69  70
ENDBRANCH  37  62
ENDBRANCH  11  12
ENDBRANCH   4   6
ENDBRANCH   1   2
BRANCH   1  74
ATOM     74  C   UNL A   1      32.604  27.457  25.835  1.00  0.00     0.023 C 
BRANCH  74  75
ATOM     75  C   UNL A   1      31.457  26.755  26.561  1.00  0.00     0.023 C 
BRANCH  75  76
ATOM     76  C   UNL A   1      30.584  25.862  25.684  1.00  0.00     0.116 C 
BRANCH  76  77
ATOM     77  N   UNL A   1      29.863  24.856  26.454  1.00  0.00    -0.352 N 
ATOM     78  C   UNL A   1      30.266  23.599  26.829  1.00  0.00     0.254 C 
ATOM     79  H   UNL A   1      28.959  25.115  26.746  1.00  0.00     0.163 HD
ATOM     80  O   UNL A   1      29.485  22.808  27.345  1.00  0.00    -0.269 OA
BRANCH  78  81
ATOM     81  C   UNL A   1      31.644  23.186  26.590  1.00  0.00     0.076 A 
ATOM     82  C   UNL A   1      32.530  22.930  27.610  1.00  0.00     0.129 A 
ATOM     83  C   UNL A   1      32.130  23.040  25.314  1.00  0.00     0.129 A 
ATOM     84  N   UNL A   1      33.835  22.652  27.403  1.00  0.00    -0.236 NA
ATOM     85  N   UNL A   1      33.424  22.758  25.049  1.00  0.00    -0.236 NA
ATOM     86  C   UNL A   1      34.240  22.622  26.114  1.00  0.00     0.160 A 
BRANCH  86  87
ATOM     87  C   UNL A   1      35.671  22.424  25.876  1.00  0.00     0.038 A 
ATOM     88  C   UNL A   1      36.567  23.479  26.149  1.00  0.00     0.013 A 
ATOM     89  C   UNL A   1      36.209  21.235  25.350  1.00  0.00     0.052 A 
ATOM     90  C   UNL A   1      37.939  23.351  25.929  1.00  0.00     0.001 A 
ATOM     91  C   UNL A   1      37.588  21.106  25.132  1.00  0.00     0.021 A 
ATOM     92  Cl  UNL A   1      35.225  19.892  24.868  1.00  0.00    -0.084 Cl
ATOM     93  C   UNL A   1      38.451  22.160  25.424  1.00  0.00     0.002 A 
ENDBRANCH  86  87
ENDBRANCH  78  81
ENDBRANCH  76  77
ENDBRANCH  75  76
ENDBRANCH  74  75
ENDBRANCH   1  74
TORSDOF 15
ENDMDL
MODEL 2
REMARK VINA RESULT:     -11.1      2.264      4.140
REMARK SMILES O=C(NCCCCNC(=O)c1cnc(-c2ccccc2Cl)nc1)c1ccc(-c2c3nc(c(-c4c(F)cc(S(=O)(=O)[O-])cc4F)c4ccc([nH]4)c(-c4c(F)cc(S(=O)(=O)[O-])cc4F)c4nc(c(-c5c(F)cc(S(=O)(=O)[O-])cc5F)c5ccc2[nH]5)C=C4)C=C3)cc1
REMARK SMILES IDX 4 1 3 2 1 3 2 4 24 6 25 7 89 8 26 9 88 10 27 11 28 12 29 13
REMARK SMILES IDX 82 14 30 15 87 16 81 17 83 18 31 19 86 20 80 21 79 22 32 24
REMARK SMILES IDX 66 25 45 26 65 27 46 28 49 29 64 30 84 31 47 32 48 33 63 35
REMARK SMILES IDX 85 36 50 37 33 38 34 39 43 40 35 41 36 42 42 43 44 44 37 45
REMARK SMILES IDX 38 46 39 47 40 48 41 49 67 50 68 51 77 52 69 53 70 54 76 55
REMARK SMILES IDX 78 56 71 57 72 58 73 59 74 60 75 61 51 62 52 63 61 64 53 65
REMARK SMILES IDX 54 66 60 67 62 68 55 69 56 70 57 71 58 72 59 73 5 74 6 75
REMARK SMILES IDX 7 76 8 77 9 78 10 80 11 81 12 82 23 83 13 84 22 85 14 86
REMARK SMILES IDX 15 87 16 88 20 89 17 90 19 91 21 92 18 93
REMARK H PARENT 3 5 83 23 49 34 8 79
REMARK Flexibility Score: inf
ROOT
ATOM      1  C   UNL A   1      33.574  27.892  27.134  1.00  0.00     0.116 C 
ENDROOT
BRANCH   1   2
ATOM      2  N   UNL A   1      33.373  29.317  27.353  1.00  0.00    -0.352 N 
ATOM      3  O   UNL A   1      33.878  31.392  28.076  1.00  0.00    -0.269 OA
ATOM      4  C   UNL A   1      34.260  30.251  27.837  1.00  0.00     0.251 C 
ATOM      5  H   UNL A   1      32.479  29.658  27.125  1.00  0.00     0.163 HD
BRANCH   4   6
ATOM      6  C   UNL A   1      35.665  29.864  28.094  1.00  0.00     0.039 A 
ATOM      7  C   UNL A   1      36.062  29.425  29.359  1.00  0.00     0.014 A 
ATOM      8  C   UNL A   1      36.598  29.956  27.057  1.00  0.00     0.014 A 
ATOM      9  C   UNL A   1      37.411  29.222  29.625  1.00  0.00     0.010 A 
ATOM     10  C   UNL A   1      37.943  29.669  27.307  1.00  0.00     0.010 A 
ATOM     11  C   UNL A   1      38.366  29.331  28.600  1.00  0.00    -0.014 A 
BRANCH  11  12
ATOM     12  C   UNL A   1      39.789  29.026  28.899  1.00  0.00     0.031 A 
ATOM     13  C   UNL A   1      40.681  30.034  29.569  1.00  0.00     0.074 A 
ATOM     14  C   UNL A   1      40.263  27.805  28.582  1.00  0.00     0.049 A 
ATOM     15  N   UNL A   1      41.938  29.916  29.916  1.00  0.00    -0.248 NA
ATOM     16  C   UNL A   1      40.095  31.345  29.884  1.00  0.00     0.031 C 
ATOM     17  C   UNL A   1      39.492  26.751  27.916  1.00  0.00     0.029 A 
ATOM     18  N   UNL A   1      41.493  27.235  28.789  1.00  0.00    -0.354 N 
ATOM     19  C   UNL A   1      42.299  31.137  30.473  1.00  0.00     0.074 A 
ATOM     20  C   UNL A   1      41.134  31.992  30.397  1.00  0.00     0.031 C 
ATOM     21  C   UNL A   1      40.252  25.650  27.810  1.00  0.00     0.029 A 
ATOM     22  C   UNL A   1      41.577  25.937  28.344  1.00  0.00     0.049 A 
ATOM     23  H   UNL A   1      42.243  27.709  29.215  1.00  0.00     0.167 HD
ATOM     24  C   UNL A   1      43.491  31.506  31.003  1.00  0.00     0.037 A 
ATOM     25  C   UNL A   1      42.611  25.075  28.347  1.00  0.00     0.037 A 
ATOM     26  C   UNL A   1      44.642  30.640  31.088  1.00  0.00     0.049 A 
ATOM     27  C   UNL A   1      43.923  25.514  28.929  1.00  0.00     0.074 A 
ATOM     28  C   UNL A   1      45.882  30.909  31.641  1.00  0.00     0.029 A 
ATOM     29  N   UNL A   1      44.697  29.342  30.602  1.00  0.00    -0.354 N 
ATOM     30  N   UNL A   1      44.235  26.663  29.478  1.00  0.00    -0.248 NA
ATOM     31  C   UNL A   1      45.023  24.543  28.889  1.00  0.00     0.031 C 
ATOM     32  C   UNL A   1      46.699  29.788  31.455  1.00  0.00     0.029 A 
ATOM     33  C   UNL A   1      45.954  28.804  30.823  1.00  0.00     0.049 A 
ATOM     34  H   UNL A   1      43.951  28.871  30.165  1.00  0.00     0.167 HD
ATOM     35  C   UNL A   1      45.568  26.552  29.857  1.00  0.00     0.074 A 
ATOM     36  C   UNL A   1      45.994  25.214  29.493  1.00  0.00     0.031 C 
ATOM     37  C   UNL A   1      46.365  27.474  30.449  1.00  0.00     0.037 A 
BRANCH  24  38
ATOM     38  C   UNL A   1      43.622  32.911  31.522  1.00  0.00     0.058 A 
ATOM     39  C   UNL A   1      44.000  33.976  30.688  1.00  0.00     0.135 A 
ATOM     40  C   UNL A   1      43.322  33.207  32.862  1.00  0.00     0.135 A 
ATOM     41  F   UNL A   1      44.310  33.750  29.402  1.00  0.00    -0.206 F 
ATOM     42  C   UNL A   1      44.100  35.278  31.170  1.00  0.00     0.059 A 
ATOM     43  C   UNL A   1      43.394  34.505  33.360  1.00  0.00     0.059 A 
ATOM     44  F   UNL A   1      42.954  32.228  33.703  1.00  0.00    -0.206 F 
ATOM     45  C   UNL A   1      43.799  35.533  32.510  1.00  0.00     0.060 A 
BRANCH  45  46
ATOM     46  S   UNL A   1      43.935  37.226  33.121  1.00  0.00     0.124 S 
ATOM     47  O   UNL A   1      45.228  37.185  33.799  1.00  0.00    -0.237 OA
ATOM     48  O   UNL A   1      43.891  38.009  31.890  1.00  0.00    -0.237 OA
ATOM     49  O   UNL A   1      42.774  37.368  33.994  1.00  0.00    -0.744 OA
ENDBRANCH  45  46
ENDBRANCH  24  38
BRANCH  25  50
ATOM     50  C   UNL A   1      42.434  23.717  27.773  1.00  0.00     0.058 A 
ATOM     51  C   UNL A   1      42.512  23.502  26.390  1.00  0.00     0.135 A 
ATOM     52  C   UNL A   1      42.229  22.603  28.601  1.00  0.00     0.135 A 
ATOM     53  F   UNL A   1      42.704  24.537  25.559  1.00  0.00    -0.206 F 
ATOM     54  C   UNL A   1      42.387  22.228  25.845  1.00  0.00     0.059 A 
ATOM     55  C   UNL A   1      42.127  21.317  28.082  1.00  0.00     0.059 A 
ATOM     56  F   UNL A   1      42.166  22.757  29.933  1.00  0.00    -0.206 F 
ATOM     57  C   UNL A   1      42.200  21.141  26.702  1.00  0.00     0.060 A 
BRANCH  57  58
ATOM     58  S   UNL A   1      42.106  19.483  25.992  1.00  0.00     0.124 S 
ATOM     59  O   UNL A   1      40.672  19.339  25.772  1.00  0.00    -0.237 OA
ATOM     60  O   UNL A   1      42.927  19.613  24.792  1.00  0.00    -0.237 OA
ATOM     61  O   UNL A   1      42.673  18.639  27.041  1.00  0.00    -0.744 OA
ENDBRANCH  57  58
ENDBRANCH  25  50
BRANCH  37  62
ATOM     62  C   UNL A   1      47.777  27.060  30.752  1.00  0.00     0.058 A 
ATOM     63  C   UNL A   1      48.820  27.293  29.844  1.00  0.00     0.135 A 
ATOM     64  C   UNL A   1      48.094  26.453  31.977  1.00  0.00     0.135 A 
ATOM     65  F   UNL A   1      48.567  27.863  28.654  1.00  0.00    -0.206 F 
ATOM     66  C   UNL A   1      50.129  26.916  30.129  1.00  0.00     0.059 A 
ATOM     67  C   UNL A   1      49.399  26.088  32.293  1.00  0.00     0.059 A 
ATOM     68  F   UNL A   1      47.133  26.214  32.883  1.00  0.00    -0.206 F 
ATOM     69  C   UNL A   1      50.407  26.313  31.357  1.00  0.00     0.060 A 
BRANCH  69  70
ATOM     70  S   UNL A   1      52.113  25.850  31.728  1.00  0.00     0.124 S 
ATOM     71  O   UNL A   1      52.777  26.138  30.461  1.00  0.00    -0.237 OA
ATOM     72  O   UNL A   1      52.446  26.740  32.835  1.00  0.00    -0.237 OA
ATOM     73  O   UNL A   1      52.011  24.437  32.078  1.00  0.00    -0.744 OA
ENDBRANCH  69  70
ENDBRANCH  37  62
ENDBRANCH  11  12
ENDBRANCH   4   6
ENDBRANCH   1   2
BRANCH   1  74
ATOM     74  C   UNL A   1      33.753  27.532  25.665  1.00  0.00     0.023 C 
BRANCH  74  75
ATOM     75  C   UNL A   1      33.943  26.044  25.374  1.00  0.00     0.023 C 
BRANCH  75  76
ATOM     76  C   UNL A   1      34.110  25.687  23.900  1.00  0.00     0.116 C 
BRANCH  76  77
ATOM     77  N   UNL A   1      33.323  24.523  23.514  1.00  0.00    -0.352 N 
ATOM     78  C   UNL A   1      31.987  24.443  23.212  1.00  0.00     0.254 C 
ATOM     79  H   UNL A   1      33.820  23.674  23.462  1.00  0.00     0.163 HD
ATOM     80  O   UNL A   1      31.434  23.361  23.055  1.00  0.00    -0.269 OA
BRANCH  78  81
ATOM     81  C   UNL A   1      31.202  25.667  23.098  1.00  0.00     0.076 A 
ATOM     82  C   UNL A   1      31.356  26.554  22.059  1.00  0.00     0.129 A 
ATOM     83  C   UNL A   1      30.262  25.998  24.043  1.00  0.00     0.129 A 
ATOM     84  N   UNL A   1      30.714  27.739  21.997  1.00  0.00    -0.236 NA
ATOM     85  N   UNL A   1      29.587  27.167  24.029  1.00  0.00    -0.236 NA
ATOM     86  C   UNL A   1      29.879  28.018  23.023  1.00  0.00     0.160 A 
BRANCH  86  87
ATOM     87  C   UNL A   1      29.254  29.342  23.025  1.00  0.00     0.038 A 
ATOM     88  C   UNL A   1      28.207  29.610  22.117  1.00  0.00     0.013 A 
ATOM     89  C   UNL A   1      29.666  30.389  23.869  1.00  0.00     0.052 A 
ATOM     90  C   UNL A   1      27.584  30.858  22.066  1.00  0.00     0.001 A 
ATOM     91  C   UNL A   1      29.037  31.641  23.819  1.00  0.00     0.021 A 
ATOM     92  Cl  UNL A   1      31.004  30.244  24.961  1.00  0.00    -0.084 Cl
ATOM     93  C   UNL A   1      27.996  31.874  22.922  1.00  0.00     0.002 A 
ENDBRANCH  86  87
ENDBRANCH  78  81
ENDBRANCH  76  77
ENDBRANCH  75  76
ENDBRANCH  74  75
ENDBRANCH   1  74
TORSDOF 15
ENDMDL
MODEL 3
REMARK VINA RESULT:     -11.1      3.004      3.883
REMARK SMILES O=C(NCCCCNC(=O)c1cnc(-c2ccccc2Cl)nc1)c1ccc(-c2c3nc(c(-c4c(F)cc(S(=O)(=O)[O-])cc4F)c4ccc([nH]4)c(-c4c(F)cc(S(=O)(=O)[O-])cc4F)c4nc(c(-c5c(F)cc(S(=O)(=O)[O-])cc5F)c5ccc2[nH]5)C=C4)C=C3)cc1
REMARK SMILES IDX 4 1 3 2 1 3 2 4 24 6 25 7 89 8 26 9 88 10 27 11 28 12 29 13
REMARK SMILES IDX 82 14 30 15 87 16 81 17 83 18 31 19 86 20 80 21 79 22 32 24
REMARK SMILES IDX 66 25 45 26 65 27 46 28 49 29 64 30 84 31 47 32 48 33 63 35
REMARK SMILES IDX 85 36 50 37 33 38 34 39 43 40 35 41 36 42 42 43 44 44 37 45
REMARK SMILES IDX 38 46 39 47 40 48 41 49 67 50 68 51 77 52 69 53 70 54 76 55
REMARK SMILES IDX 78 56 71 57 72 58 73 59 74 60 75 61 51 62 52 63 61 64 53 65
REMARK SMILES IDX 54 66 60 67 62 68 55 69 56 70 57 71 58 72 59 73 5 74 6 75
REMARK SMILES IDX 7 76 8 77 9 78 10 80 11 81 12 82 23 83 13 84 22 85 14 86
REMARK SMILES IDX 15 87 16 88 20 89 17 90 19 91 21 92 18 93
REMARK H PARENT 3 5 83 23 49 34 8 79
REMARK Flexibility Score: inf
ROOT
ATOM      1  C   UNL A   1      35.154  29.331  27.629  1.00  0.00     0.116 C 
ENDROOT
BRANCH   1   2
ATOM      2  N   UNL A   1      35.175  30.032  28.904  1.00  0.00    -0.352 N 
ATOM      3  O   UNL A   1      36.033  30.731  30.868  1.00  0.00    -0.269 OA
ATOM      4  C   UNL A   1      36.228  30.220  29.770  1.00  0.00     0.251 C 
ATOM      5  H   UNL A   1      34.318  30.424  29.186  1.00  0.00     0.163 HD
BRANCH   4   6
ATOM      6  C   UNL A   1      37.584  29.776  29.382  1.00  0.00     0.039 A 
ATOM      7  C   UNL A   1      38.494  29.337  30.347  1.00  0.00     0.014 A 
ATOM      8  C   UNL A   1      37.954  29.813  28.034  1.00  0.00     0.014 A 
ATOM      9  C   UNL A   1      39.811  29.080  29.986  1.00  0.00     0.010 A 
ATOM     10  C   UNL A   1      39.258  29.470  27.663  1.00  0.00     0.010 A 
ATOM     11  C   UNL A   1      40.206  29.133  28.639  1.00  0.00    -0.014 A 
BRANCH  11  12
ATOM     12  C   UNL A   1      41.600  28.770  28.277  1.00  0.00     0.031 A 
ATOM     13  C   UNL A   1      42.705  29.790  28.301  1.00  0.00     0.074 A 
ATOM     14  C   UNL A   1      41.866  27.489  27.952  1.00  0.00     0.049 A 
ATOM     15  N   UNL A   1      43.976  29.630  28.032  1.00  0.00    -0.248 NA
ATOM     16  C   UNL A   1      42.340  31.167  28.664  1.00  0.00     0.031 C 
ATOM     17  C   UNL A   1      40.870  26.416  27.881  1.00  0.00     0.029 A 
ATOM     18  N   UNL A   1      43.047  26.867  27.638  1.00  0.00    -0.354 N 
ATOM     19  C   UNL A   1      44.560  30.883  28.176  1.00  0.00     0.074 A 
ATOM     20  C   UNL A   1      43.499  31.800  28.534  1.00  0.00     0.031 C 
ATOM     21  C   UNL A   1      41.487  25.261  27.589  1.00  0.00     0.029 A 
ATOM     22  C   UNL A   1      42.908  25.521  27.394  1.00  0.00     0.049 A 
ATOM     23  H   UNL A   1      43.909  27.337  27.591  1.00  0.00     0.167 HD
ATOM     24  C   UNL A   1      45.862  31.232  28.028  1.00  0.00     0.037 A 
ATOM     25  C   UNL A   1      43.819  24.598  27.035  1.00  0.00     0.037 A 
ATOM     26  C   UNL A   1      46.914  30.307  27.687  1.00  0.00     0.049 A 
ATOM     27  C   UNL A   1      45.251  25.014  26.867  1.00  0.00     0.074 A 
ATOM     28  C   UNL A   1      48.269  30.557  27.551  1.00  0.00     0.029 A 
ATOM     29  N   UNL A   1      46.730  28.958  27.422  1.00  0.00    -0.354 N 
ATOM     30  N   UNL A   1      45.788  26.199  27.037  1.00  0.00    -0.248 NA
ATOM     31  C   UNL A   1      46.200  23.972  26.454  1.00  0.00     0.031 C 
ATOM     32  C   UNL A   1      48.899  29.368  27.165  1.00  0.00     0.029 A 
ATOM     33  C   UNL A   1      47.942  28.367  27.102  1.00  0.00     0.049 A 
ATOM     34  H   UNL A   1      45.865  28.489  27.456  1.00  0.00     0.167 HD
ATOM     35  C   UNL A   1      47.140  26.044  26.759  1.00  0.00     0.074 A 
ATOM     36  C   UNL A   1      47.342  24.645  26.432  1.00  0.00     0.031 C 
ATOM     37  C   UNL A   1      48.125  26.976  26.772  1.00  0.00     0.037 A 
BRANCH  24  38
ATOM     38  C   UNL A   1      46.225  32.679  28.221  1.00  0.00     0.058 A 
ATOM     39  C   UNL A   1      46.160  33.605  27.167  1.00  0.00     0.135 A 
ATOM     40  C   UNL A   1      46.601  33.157  29.487  1.00  0.00     0.135 A 
ATOM     41  F   UNL A   1      45.819  33.202  25.933  1.00  0.00    -0.206 F 
ATOM     42  C   UNL A   1      46.478  34.947  27.356  1.00  0.00     0.059 A 
ATOM     43  C   UNL A   1      46.902  34.499  29.704  1.00  0.00     0.059 A 
ATOM     44  F   UNL A   1      46.678  32.316  30.530  1.00  0.00    -0.206 F 
ATOM     45  C   UNL A   1      46.852  35.384  28.628  1.00  0.00     0.060 A 
BRANCH  45  46
ATOM     46  S   UNL A   1      47.265  37.127  28.858  1.00  0.00     0.124 S 
ATOM     47  O   UNL A   1      46.719  37.381  30.187  1.00  0.00    -0.237 OA
ATOM     48  O   UNL A   1      48.722  37.120  28.763  1.00  0.00    -0.237 OA
ATOM     49  O   UNL A   1      46.572  37.789  27.757  1.00  0.00    -0.744 OA
ENDBRANCH  45  46
ENDBRANCH  24  38
BRANCH  25  50
ATOM     50  C   UNL A   1      43.389  23.194  26.809  1.00  0.00     0.058 A 
ATOM     51  C   UNL A   1      43.349  22.649  25.519  1.00  0.00     0.135 A 
ATOM     52  C   UNL A   1      43.053  22.358  27.886  1.00  0.00     0.135 A 
ATOM     53  F   UNL A   1      43.659  23.411  24.459  1.00  0.00    -0.206 F 
ATOM     54  C   UNL A   1      42.986  21.325  25.300  1.00  0.00     0.059 A 
ATOM     55  C   UNL A   1      42.712  21.024  27.696  1.00  0.00     0.059 A 
ATOM     56  F   UNL A   1      43.094  22.830  29.142  1.00  0.00    -0.206 F 
ATOM     57  C   UNL A   1      42.674  20.518  26.398  1.00  0.00     0.060 A 
BRANCH  57  58
ATOM     58  S   UNL A   1      42.269  18.782  26.112  1.00  0.00     0.124 S 
ATOM     59  O   UNL A   1      42.549  18.198  27.419  1.00  0.00    -0.237 OA
ATOM     60  O   UNL A   1      40.861  18.851  25.731  1.00  0.00    -0.237 OA
ATOM     61  O   UNL A   1      43.182  18.399  25.039  1.00  0.00    -0.744 OA
ENDBRANCH  57  58
ENDBRANCH  25  50
BRANCH  37  62
ATOM     62  C   UNL A   1      49.511  26.506  26.434  1.00  0.00     0.058 A 
ATOM     63  C   UNL A   1      50.032  26.630  25.138  1.00  0.00     0.135 A 
ATOM     64  C   UNL A   1      50.339  25.957  27.426  1.00  0.00     0.135 A 
ATOM     65  F   UNL A   1      49.276  27.141  24.151  1.00  0.00    -0.206 F 
ATOM     66  C   UNL A   1      51.319  26.202  24.828  1.00  0.00     0.059 A 
ATOM     67  C   UNL A   1      51.637  25.543  27.144  1.00  0.00     0.059 A 
ATOM     68  F   UNL A   1      49.890  25.824  28.684  1.00  0.00    -0.206 F 
ATOM     69  C   UNL A   1      52.114  25.659  25.840  1.00  0.00     0.060 A 
BRANCH  69  70
ATOM     70  S   UNL A   1      53.791  25.130  25.433  1.00  0.00     0.124 S 
ATOM     71  O   UNL A   1      53.660  23.677  25.478  1.00  0.00    -0.237 OA
ATOM     72  O   UNL A   1      53.991  25.708  24.108  1.00  0.00    -0.237 OA
ATOM     73  O   UNL A   1      54.599  25.721  26.496  1.00  0.00    -0.744 OA
ENDBRANCH  69  70
ENDBRANCH  37  62
ENDBRANCH  11  12
ENDBRANCH   4   6
ENDBRANCH   1   2
BRANCH   1  74
ATOM     74  C   UNL A   1      33.757  28.884  27.215  1.00  0.00     0.023 C 
BRANCH  74  75
ATOM     75  C   UNL A   1      33.033  29.815  26.243  1.00  0.00     0.023 C 
BRANCH  75  76
ATOM     76  C   UNL A   1      32.918  29.298  24.812  1.00  0.00     0.116 C 
BRANCH  76  77
ATOM     77  N   UNL A   1      31.583  28.801  24.504  1.00  0.00    -0.352 N 
ATOM     78  C   UNL A   1      31.178  27.517  24.239  1.00  0.00     0.254 C 
ATOM     79  H   UNL A   1      30.872  29.482  24.482  1.00  0.00     0.163 HD
ATOM     80  O   UNL A   1      30.043  27.278  23.843  1.00  0.00    -0.269 OA
BRANCH  78  81
ATOM     81  C   UNL A   1      32.119  26.417  24.411  1.00  0.00     0.076 A 
ATOM     82  C   UNL A   1      32.292  25.767  25.610  1.00  0.00     0.129 A 
ATOM     83  C   UNL A   1      32.894  25.977  23.366  1.00  0.00     0.129 A 
ATOM     84  N   UNL A   1      33.234  24.821  25.810  1.00  0.00    -0.236 NA
ATOM     85  N   UNL A   1      33.848  25.031  23.507  1.00  0.00    -0.236 NA
ATOM     86  C   UNL A   1      34.012  24.523  24.746  1.00  0.00     0.160 A 
BRANCH  86  87
ATOM     87  C   UNL A   1      35.105  23.574  24.972  1.00  0.00     0.038 A 
ATOM     88  C   UNL A   1      36.365  24.061  25.379  1.00  0.00     0.013 A 
ATOM     89  C   UNL A   1      34.978  22.188  24.769  1.00  0.00     0.052 A 
ATOM     90  C   UNL A   1      37.445  23.204  25.596  1.00  0.00     0.001 A 
ATOM     91  C   UNL A   1      36.062  21.328  24.991  1.00  0.00     0.021 A 
ATOM     92  Cl  UNL A   1      33.525  21.455  24.170  1.00  0.00    -0.084 Cl
ATOM     93  C   UNL A   1      37.292  21.834  25.406  1.00  0.00     0.002 A 
ENDBRANCH  86  87
ENDBRANCH  78  81
ENDBRANCH  76  77
ENDBRANCH  75  76
ENDBRANCH  74  75
ENDBRANCH   1  74
TORSDOF 15
ENDMDL
