MODEL 1
REMARK VINA RESULT:     -12.3      0.000      0.000
REMARK SMILES COc1ccc2c(c1)[C@@](NC=O)(C(=O)NCCCCNC(=O)c1ccc(-c3c4nc(c(-c5c(F)cc(S(=O)(=O)[O-])cc5F)c5ccc([nH]5)c(-c5c(F)cc(S(=O)(=O)[O-])cc5F)c5nc(c(-c6c(F)cc(S(=O)(=O)[O-])cc6F)c6ccc3[nH]6)C=C5)C=C4)cc1)CCC2
REMARK SMILES IDX 18 1 17 2 16 3 15 4 13 5 14 6 9 8 3 9 4 10 8 11 5 12 7 13
REMARK SMILES IDX 6 14 91 15 89 16 90 17 2 18 1 19 10 20 11 21 12 23 19 24
REMARK SMILES IDX 20 25 21 26 22 28 23 29 24 30 88 31 25 32 87 33 26 34 27 35
REMARK SMILES IDX 28 36 81 37 29 38 86 39 80 40 82 41 30 42 85 43 79 44 78 45
REMARK SMILES IDX 31 47 65 48 44 49 64 50 45 51 48 52 63 53 83 54 46 55 47 56
REMARK SMILES IDX 62 58 84 59 49 60 32 61 33 62 42 63 34 64 35 65 41 66 43 67
REMARK SMILES IDX 36 68 37 69 38 70 39 71 40 72 66 73 67 74 76 75 68 76 69 77
REMARK SMILES IDX 75 78 77 79 70 80 71 81 72 82 73 83 74 84 50 85 51 86 60 87
REMARK SMILES IDX 52 88 53 89 59 90 61 91 54 92 55 93 56 94 57 95 58 96
REMARK H PARENT 15 7 10 22 20 27 82 46 48 57
REMARK Flexibility Score: inf
ROOT
ATOM      1  C   UNL A   1      32.055  31.741  26.903  1.00  0.00     0.023 C 
ENDROOT
BRANCH   1   2
ATOM      2  C   UNL A   1      32.343  30.242  26.870  1.00  0.00     0.023 C 
BRANCH   2   3
ATOM      3  C   UNL A   1      31.706  29.481  25.696  1.00  0.00     0.116 C 
BRANCH   3   4
ATOM      4  N   UNL A   1      32.559  29.586  24.525  1.00  0.00    -0.354 N 
ATOM      5  C   UNL A   1      32.802  28.697  23.510  1.00  0.00     0.250 C 
ATOM      6  O   UNL A   1      33.964  28.705  23.084  1.00  0.00    -0.272 OA
ATOM      7  H   UNL A   1      33.045  30.439  24.448  1.00  0.00     0.163 HD
BRANCH   5   8
ATOM      8  C   UNL A   1      31.704  27.710  22.924  1.00  0.00     0.144 C 
ATOM      9  C   UNL A   1      28.910  30.146  21.823  1.00  0.00     0.119 A 
ATOM     10  C   UNL A   1      27.780  29.573  22.378  1.00  0.00     0.047 A 
ATOM     11  C   UNL A   1      30.152  29.546  22.031  1.00  0.00     0.053 A 
ATOM     12  C   UNL A   1      27.895  28.386  23.099  1.00  0.00     0.008 A 
ATOM     13  C   UNL A   1      30.315  28.364  22.775  1.00  0.00    -0.006 A 
ATOM     14  C   UNL A   1      29.146  27.768  23.294  1.00  0.00    -0.042 A 
ATOM     15  C   UNL A   1      29.182  26.507  24.117  1.00  0.00     0.036 C 
ATOM     16  C   UNL A   1      31.671  26.533  23.952  1.00  0.00     0.044 C 
ATOM     17  C   UNL A   1      30.424  25.666  23.872  1.00  0.00     0.008 C 
BRANCH   9  18
ATOM     18  O   UNL A   1      28.749  31.340  21.176  1.00  0.00    -0.497 OA
ATOM     19  C   UNL A   1      28.415  32.436  22.026  1.00  0.00     0.278 C 
ENDBRANCH   9  18
BRANCH   8  20
ATOM     20  N   UNL A   1      32.183  27.191  21.630  1.00  0.00    -0.341 N 
ATOM     21  C   UNL A   1      32.557  25.916  21.345  1.00  0.00     0.338 C 
ATOM     22  H   UNL A   1      32.239  27.839  20.892  1.00  0.00     0.164 HD
ATOM     23  O   UNL A   1      33.085  25.608  20.285  1.00  0.00    -0.279 OA
ENDBRANCH   8  20
ENDBRANCH   5   8
ENDBRANCH   3   4
ENDBRANCH   2   3
ENDBRANCH   1   2
BRANCH   1  24
ATOM     24  C   UNL A   1      33.212  32.594  27.396  1.00  0.00     0.116 C 
BRANCH  24  25
ATOM     25  N   UNL A   1      32.821  33.948  27.758  1.00  0.00    -0.352 N 
ATOM     26  C   UNL A   1      33.344  34.751  28.742  1.00  0.00     0.251 C 
ATOM     27  H   UNL A   1      32.088  34.338  27.230  1.00  0.00     0.163 HD
ATOM     28  O   UNL A   1      32.825  35.837  28.988  1.00  0.00    -0.269 OA
BRANCH  26  29
ATOM     29  C   UNL A   1      34.501  34.272  29.525  1.00  0.00     0.039 A 
ATOM     30  C   UNL A   1      34.270  33.512  30.671  1.00  0.00     0.014 A 
ATOM     31  C   UNL A   1      35.806  34.533  29.098  1.00  0.00     0.014 A 
ATOM     32  C   UNL A   1      35.351  32.959  31.357  1.00  0.00     0.010 A 
ATOM     33  C   UNL A   1      36.874  33.909  29.729  1.00  0.00     0.010 A 
ATOM     34  C   UNL A   1      36.659  33.126  30.871  1.00  0.00    -0.014 A 
BRANCH  34  35
ATOM     35  C   UNL A   1      37.816  32.505  31.561  1.00  0.00     0.031 A 
ATOM     36  C   UNL A   1      38.262  33.030  32.897  1.00  0.00     0.074 A 
ATOM     37  C   UNL A   1      38.489  31.504  30.962  1.00  0.00     0.049 A 
ATOM     38  N   UNL A   1      39.256  32.635  33.650  1.00  0.00    -0.248 NA
ATOM     39  C   UNL A   1      37.513  34.172  33.447  1.00  0.00     0.031 C 
ATOM     40  C   UNL A   1      38.187  30.952  29.638  1.00  0.00     0.029 A 
ATOM     41  N   UNL A   1      39.563  30.767  31.390  1.00  0.00    -0.354 N 
ATOM     42  C   UNL A   1      39.256  33.481  34.753  1.00  0.00     0.074 A 
ATOM     43  C   UNL A   1      38.209  34.455  34.537  1.00  0.00     0.031 C 
ATOM     44  C   UNL A   1      39.026  29.936  29.383  1.00  0.00     0.029 A 
ATOM     45  C   UNL A   1      39.943  29.783  30.508  1.00  0.00     0.049 A 
ATOM     46  H   UNL A   1      40.019  30.929  32.247  1.00  0.00     0.167 HD
ATOM     47  C   UNL A   1      40.032  33.430  35.862  1.00  0.00     0.037 A 
ATOM     48  C   UNL A   1      40.910  28.853  30.608  1.00  0.00     0.037 A 
ATOM     49  C   UNL A   1      41.055  32.443  36.080  1.00  0.00     0.049 A 
ATOM     50  C   UNL A   1      41.747  28.802  31.857  1.00  0.00     0.074 A 
ATOM     51  C   UNL A   1      41.874  32.277  37.183  1.00  0.00     0.029 A 
ATOM     52  N   UNL A   1      41.396  31.448  35.175  1.00  0.00    -0.354 N 
ATOM     53  N   UNL A   1      41.698  29.576  32.915  1.00  0.00    -0.248 NA
ATOM     54  C   UNL A   1      42.762  27.743  31.930  1.00  0.00     0.031 C 
ATOM     55  C   UNL A   1      42.730  31.197  36.932  1.00  0.00     0.029 A 
ATOM     56  C   UNL A   1      42.417  30.666  35.689  1.00  0.00     0.049 A 
ATOM     57  H   UNL A   1      40.974  31.317  34.295  1.00  0.00     0.167 HD
ATOM     58  C   UNL A   1      42.654  29.078  33.794  1.00  0.00     0.074 A 
ATOM     59  C   UNL A   1      43.256  27.931  33.145  1.00  0.00     0.031 C 
ATOM     60  C   UNL A   1      43.000  29.526  35.027  1.00  0.00     0.037 A 
BRANCH  47  61
ATOM     61  C   UNL A   1      39.784  34.471  36.919  1.00  0.00     0.058 A 
ATOM     62  C   UNL A   1      40.370  35.747  36.846  1.00  0.00     0.135 A 
ATOM     63  C   UNL A   1      38.967  34.191  38.026  1.00  0.00     0.135 A 
ATOM     64  F   UNL A   1      41.175  36.062  35.819  1.00  0.00    -0.206 F 
ATOM     65  C   UNL A   1      40.192  36.690  37.852  1.00  0.00     0.059 A 
ATOM     66  C   UNL A   1      38.751  35.130  39.031  1.00  0.00     0.059 A 
ATOM     67  F   UNL A   1      38.382  32.989  38.149  1.00  0.00    -0.206 F 
ATOM     68  C   UNL A   1      39.387  36.369  38.945  1.00  0.00     0.060 A 
BRANCH  68  69
ATOM     69  S   UNL A   1      39.187  37.592  40.258  1.00  0.00     0.124 S 
ATOM     70  O   UNL A   1      38.690  36.762  41.352  1.00  0.00    -0.237 OA
ATOM     71  O   UNL A   1      40.543  38.106  40.419  1.00  0.00    -0.237 OA
ATOM     72  O   UNL A   1      38.224  38.536  39.699  1.00  0.00    -0.744 OA
ENDBRANCH  68  69
ENDBRANCH  47  61
BRANCH  48  73
ATOM     73  C   UNL A   1      41.094  27.852  29.524  1.00  0.00     0.058 A 
ATOM     74  C   UNL A   1      42.188  27.936  28.650  1.00  0.00     0.135 A 
ATOM     75  C   UNL A   1      40.197  26.786  29.350  1.00  0.00     0.135 A 
ATOM     76  F   UNL A   1      43.070  28.939  28.776  1.00  0.00    -0.206 F 
ATOM     77  C   UNL A   1      42.379  27.011  27.630  1.00  0.00     0.059 A 
ATOM     78  C   UNL A   1      40.380  25.836  28.351  1.00  0.00     0.059 A 
ATOM     79  F   UNL A   1      39.146  26.651  30.172  1.00  0.00    -0.206 F 
ATOM     80  C   UNL A   1      41.470  25.962  27.489  1.00  0.00     0.060 A 
BRANCH  80  81
ATOM     81  S   UNL A   1      41.756  24.738  26.192  1.00  0.00     0.124 S 
ATOM     82  O   UNL A   1      40.647  23.816  26.410  1.00  0.00    -0.237 OA
ATOM     83  O   UNL A   1      41.684  25.549  24.981  1.00  0.00    -0.237 OA
ATOM     84  O   UNL A   1      43.083  24.218  26.511  1.00  0.00    -0.744 OA
ENDBRANCH  80  81
ENDBRANCH  48  73
BRANCH  60  85
ATOM     85  C   UNL A   1      44.051  28.747  35.765  1.00  0.00     0.058 A 
ATOM     86  C   UNL A   1      43.720  27.677  36.612  1.00  0.00     0.135 A 
ATOM     87  C   UNL A   1      45.409  29.068  35.612  1.00  0.00     0.135 A 
ATOM     88  F   UNL A   1      42.435  27.334  36.795  1.00  0.00    -0.206 F 
ATOM     89  C   UNL A   1      44.697  26.979  37.314  1.00  0.00     0.059 A 
ATOM     90  C   UNL A   1      46.405  28.365  36.283  1.00  0.00     0.059 A 
ATOM     91  F   UNL A   1      45.780  30.073  34.802  1.00  0.00    -0.206 F 
ATOM     92  C   UNL A   1      46.037  27.336  37.147  1.00  0.00     0.060 A 
BRANCH  92  93
ATOM     93  S   UNL A   1      47.298  26.426  38.064  1.00  0.00     0.124 S 
ATOM     94  O   UNL A   1      48.011  25.749  36.987  1.00  0.00    -0.237 OA
ATOM     95  O   UNL A   1      48.030  27.495  38.736  1.00  0.00    -0.237 OA
ATOM     96  O   UNL A   1      46.518  25.561  38.944  1.00  0.00    -0.744 OA
ENDBRANCH  92  93
ENDBRANCH  60  85
ENDBRANCH  34  35
ENDBRANCH  26  29
ENDBRANCH  24  25
ENDBRANCH   1  24
TORSDOF 16
ENDMDL
MODEL 2
REMARK VINA RESULT:     -12.3      7.032     12.463
REMARK SMILES COc1ccc2c(c1)[C@@](NC=O)(C(=O)NCCCCNC(=O)c1ccc(-c3c4nc(c(-c5c(F)cc(S(=O)(=O)[O-])cc5F)c5ccc([nH]5)c(-c5c(F)cc(S(=O)(=O)[O-])cc5F)c5nc(c(-c6c(F)cc(S(=O)(=O)[O-])cc6F)c6ccc3[nH]6)C=C5)C=C4)cc1)CCC2
REMARK SMILES IDX 18 1 17 2 16 3 15 4 13 5 14 6 9 8 3 9 4 10 8 11 5 12 7 13
REMARK SMILES IDX 6 14 91 15 89 16 90 17 2 18 1 19 10 20 11 21 12 23 19 24
REMARK SMILES IDX 20 25 21 26 22 28 23 29 24 30 88 31 25 32 87 33 26 34 27 35
REMARK SMILES IDX 28 36 81 37 29 38 86 39 80 40 82 41 30 42 85 43 79 44 78 45
REMARK SMILES IDX 31 47 65 48 44 49 64 50 45 51 48 52 63 53 83 54 46 55 47 56
REMARK SMILES IDX 62 58 84 59 49 60 32 61 33 62 42 63 34 64 35 65 41 66 43 67
REMARK SMILES IDX 36 68 37 69 38 70 39 71 40 72 66 73 67 74 76 75 68 76 69 77
REMARK SMILES IDX 75 78 77 79 70 80 71 81 72 82 73 83 74 84 50 85 51 86 60 87
REMARK SMILES IDX 52 88 53 89 59 90 61 91 54 92 55 93 56 94 57 95 58 96
REMARK H PARENT 15 7 10 22 20 27 82 46 48 57
REMARK Flexibility Score: inf
ROOT
ATOM      1  C   UNL A   1      38.164  20.404  25.161  1.00  0.00     0.023 C 
ENDROOT
BRANCH   1   2
ATOM      2  C   UNL A   1      37.434  21.694  24.796  1.00  0.00     0.023 C 
BRANCH   2   3
ATOM      3  C   UNL A   1      35.905  21.573  24.701  1.00  0.00     0.116 C 
BRANCH   3   4
ATOM      4  N   UNL A   1      35.326  21.629  26.032  1.00  0.00    -0.354 N 
ATOM      5  C   UNL A   1      34.089  22.039  26.455  1.00  0.00     0.250 C 
ATOM      6  O   UNL A   1      34.083  22.619  27.549  1.00  0.00    -0.272 OA
ATOM      7  H   UNL A   1      35.924  21.320  26.751  1.00  0.00     0.163 HD
BRANCH   5   8
ATOM      8  C   UNL A   1      32.755  21.819  25.620  1.00  0.00     0.144 C 
ATOM      9  C   UNL A   1      32.738  17.989  25.090  1.00  0.00     0.119 A 
ATOM     10  C   UNL A   1      32.496  17.878  23.732  1.00  0.00     0.047 A 
ATOM     11  C   UNL A   1      32.840  19.257  25.663  1.00  0.00     0.053 A 
ATOM     12  C   UNL A   1      32.318  19.030  22.969  1.00  0.00     0.008 A 
ATOM     13  C   UNL A   1      32.693  20.444  24.924  1.00  0.00    -0.006 A 
ATOM     14  C   UNL A   1      32.400  20.311  23.550  1.00  0.00    -0.042 A 
ATOM     15  C   UNL A   1      32.231  21.502  22.644  1.00  0.00     0.036 C 
ATOM     16  C   UNL A   1      32.772  22.983  24.577  1.00  0.00     0.044 C 
ATOM     17  C   UNL A   1      31.848  22.772  23.387  1.00  0.00     0.008 C 
BRANCH   9  18
ATOM     18  O   UNL A   1      32.964  16.829  25.779  1.00  0.00    -0.497 OA
ATOM     19  C   UNL A   1      33.978  15.996  25.223  1.00  0.00     0.278 C 
ENDBRANCH   9  18
BRANCH   8  20
ATOM     20  N   UNL A   1      31.602  22.008  26.518  1.00  0.00    -0.341 N 
ATOM     21  C   UNL A   1      30.815  23.111  26.622  1.00  0.00     0.338 C 
ATOM     22  H   UNL A   1      31.379  21.253  27.108  1.00  0.00     0.164 HD
ATOM     23  O   UNL A   1      29.974  23.236  27.502  1.00  0.00    -0.279 OA
ENDBRANCH   8  20
ENDBRANCH   5   8
ENDBRANCH   3   4
ENDBRANCH   2   3
ENDBRANCH   1   2
BRANCH   1  24
ATOM     24  C   UNL A   1      39.362  20.595  26.078  1.00  0.00     0.116 C 
BRANCH  24  25
ATOM     25  N   UNL A   1      40.320  19.501  26.015  1.00  0.00    -0.352 N 
ATOM     26  C   UNL A   1      41.689  19.562  26.116  1.00  0.00     0.251 C 
ATOM     27  H   UNL A   1      39.938  18.604  25.883  1.00  0.00     0.163 HD
ATOM     28  O   UNL A   1      42.363  18.551  25.935  1.00  0.00    -0.269 OA
BRANCH  26  29
ATOM     29  C   UNL A   1      42.334  20.860  26.398  1.00  0.00     0.039 A 
ATOM     30  C   UNL A   1      42.675  21.688  25.328  1.00  0.00     0.014 A 
ATOM     31  C   UNL A   1      42.555  21.275  27.714  1.00  0.00     0.014 A 
ATOM     32  C   UNL A   1      43.183  22.962  25.582  1.00  0.00     0.010 A 
ATOM     33  C   UNL A   1      42.975  22.574  27.965  1.00  0.00     0.010 A 
ATOM     34  C   UNL A   1      43.304  23.427  26.902  1.00  0.00    -0.014 A 
BRANCH  34  35
ATOM     35  C   UNL A   1      43.796  24.796  27.189  1.00  0.00     0.031 A 
ATOM     36  C   UNL A   1      45.248  25.130  26.983  1.00  0.00     0.074 A 
ATOM     37  C   UNL A   1      42.946  25.721  27.676  1.00  0.00     0.049 A 
ATOM     38  N   UNL A   1      45.873  26.260  27.190  1.00  0.00    -0.248 NA
ATOM     39  C   UNL A   1      46.120  24.041  26.513  1.00  0.00     0.031 C 
ATOM     40  C   UNL A   1      41.529  25.495  27.975  1.00  0.00     0.029 A 
ATOM     41  N   UNL A   1      43.148  27.036  28.002  1.00  0.00    -0.354 N 
ATOM     42  C   UNL A   1      47.207  26.016  26.885  1.00  0.00     0.074 A 
ATOM     43  C   UNL A   1      47.313  24.613  26.548  1.00  0.00     0.031 C 
ATOM     44  C   UNL A   1      40.980  26.646  28.397  1.00  0.00     0.029 A 
ATOM     45  C   UNL A   1      42.009  27.680  28.426  1.00  0.00     0.049 A 
ATOM     46  H   UNL A   1      44.025  27.479  27.938  1.00  0.00     0.167 HD
ATOM     47  C   UNL A   1      48.244  26.887  26.853  1.00  0.00     0.037 A 
ATOM     48  C   UNL A   1      41.817  28.964  28.782  1.00  0.00     0.037 A 
ATOM     49  C   UNL A   1      48.125  28.286  27.167  1.00  0.00     0.049 A 
ATOM     50  C   UNL A   1      42.979  29.919  28.720  1.00  0.00     0.074 A 
ATOM     51  C   UNL A   1      49.102  29.266  27.130  1.00  0.00     0.029 A 
ATOM     52  N   UNL A   1      46.952  28.906  27.571  1.00  0.00    -0.354 N 
ATOM     53  N   UNL A   1      44.222  29.684  28.377  1.00  0.00    -0.248 NA
ATOM     54  C   UNL A   1      42.705  31.316  29.081  1.00  0.00     0.031 C 
ATOM     55  C   UNL A   1      48.523  30.474  27.539  1.00  0.00     0.029 A 
ATOM     56  C   UNL A   1      47.178  30.255  27.793  1.00  0.00     0.049 A 
ATOM     57  H   UNL A   1      46.084  28.454  27.684  1.00  0.00     0.167 HD
ATOM     58  C   UNL A   1      44.874  30.910  28.450  1.00  0.00     0.074 A 
ATOM     59  C   UNL A   1      43.881  31.884  28.860  1.00  0.00     0.031 C 
ATOM     60  C   UNL A   1      46.174  31.206  28.198  1.00  0.00     0.037 A 
BRANCH  47  61
ATOM     61  C   UNL A   1      49.587  26.340  26.453  1.00  0.00     0.058 A 
ATOM     62  C   UNL A   1      50.421  25.691  27.379  1.00  0.00     0.135 A 
ATOM     63  C   UNL A   1      50.055  26.477  25.136  1.00  0.00     0.135 A 
ATOM     64  F   UNL A   1      50.031  25.549  28.656  1.00  0.00    -0.206 F 
ATOM     65  C   UNL A   1      51.688  25.238  27.027  1.00  0.00     0.059 A 
ATOM     66  C   UNL A   1      51.308  26.005  24.754  1.00  0.00     0.059 A 
ATOM     67  F   UNL A   1      49.301  27.088  24.210  1.00  0.00    -0.206 F 
ATOM     68  C   UNL A   1      52.126  25.407  25.714  1.00  0.00     0.060 A 
BRANCH  68  69
ATOM     69  S   UNL A   1      53.783  24.840  25.276  1.00  0.00     0.124 S 
ATOM     70  O   UNL A   1      53.552  23.415  25.057  1.00  0.00    -0.237 OA
ATOM     71  O   UNL A   1      54.078  25.624  24.081  1.00  0.00    -0.237 OA
ATOM     72  O   UNL A   1      54.578  25.174  26.453  1.00  0.00    -0.744 OA
ENDBRANCH  68  69
ENDBRANCH  47  61
BRANCH  48  73
ATOM     73  C   UNL A   1      40.460  29.435  29.162  1.00  0.00     0.058 A 
ATOM     74  C   UNL A   1      39.479  29.657  28.183  1.00  0.00     0.135 A 
ATOM     75  C   UNL A   1      40.108  29.656  30.503  1.00  0.00     0.135 A 
ATOM     76  F   UNL A   1      39.770  29.462  26.889  1.00  0.00    -0.206 F 
ATOM     77  C   UNL A   1      38.204  30.098  28.516  1.00  0.00     0.059 A 
ATOM     78  C   UNL A   1      38.831  30.075  30.862  1.00  0.00     0.059 A 
ATOM     79  F   UNL A   1      41.005  29.440  31.477  1.00  0.00    -0.206 F 
ATOM     80  C   UNL A   1      37.888  30.303  29.860  1.00  0.00     0.060 A 
BRANCH  80  81
ATOM     81  S   UNL A   1      36.212  30.827  30.285  1.00  0.00     0.124 S 
ATOM     82  O   UNL A   1      35.944  30.020  31.470  1.00  0.00    -0.237 OA
ATOM     83  O   UNL A   1      36.385  32.258  30.512  1.00  0.00    -0.237 OA
ATOM     84  O   UNL A   1      35.441  30.478  29.094  1.00  0.00    -0.744 OA
ENDBRANCH  80  81
ENDBRANCH  48  73
BRANCH  60  85
ATOM     85  C   UNL A   1      46.581  32.647  28.322  1.00  0.00     0.058 A 
ATOM     86  C   UNL A   1      47.120  33.163  29.511  1.00  0.00     0.135 A 
ATOM     87  C   UNL A   1      46.440  33.520  27.232  1.00  0.00     0.135 A 
ATOM     88  F   UNL A   1      47.270  32.370  30.584  1.00  0.00    -0.206 F 
ATOM     89  C   UNL A   1      47.466  34.505  29.629  1.00  0.00     0.059 A 
ATOM     90  C   UNL A   1      46.806  34.860  27.318  1.00  0.00     0.059 A 
ATOM     91  F   UNL A   1      45.942  33.073  26.067  1.00  0.00    -0.206 F 
ATOM     92  C   UNL A   1      47.300  35.347  28.527  1.00  0.00     0.060 A 
BRANCH  92  93
ATOM     93  S   UNL A   1      47.750  37.087  28.687  1.00  0.00     0.124 S 
ATOM     94  O   UNL A   1      49.132  36.991  29.146  1.00  0.00    -0.237 OA
ATOM     95  O   UNL A   1      47.566  37.587  27.328  1.00  0.00    -0.237 OA
ATOM     96  O   UNL A   1      46.796  37.594  29.669  1.00  0.00    -0.744 OA
ENDBRANCH  92  93
ENDBRANCH  60  85
ENDBRANCH  34  35
ENDBRANCH  26  29
ENDBRANCH  24  25
ENDBRANCH   1  24
TORSDOF 16
ENDMDL
MODEL 3
REMARK VINA RESULT:     -12.3      3.797      9.497
REMARK SMILES COc1ccc2c(c1)[C@@](NC=O)(C(=O)NCCCCNC(=O)c1ccc(-c3c4nc(c(-c5c(F)cc(S(=O)(=O)[O-])cc5F)c5ccc([nH]5)c(-c5c(F)cc(S(=O)(=O)[O-])cc5F)c5nc(c(-c6c(F)cc(S(=O)(=O)[O-])cc6F)c6ccc3[nH]6)C=C5)C=C4)cc1)CCC2
REMARK SMILES IDX 18 1 17 2 16 3 15 4 13 5 14 6 9 8 3 9 4 10 8 11 5 12 7 13
REMARK SMILES IDX 6 14 91 15 89 16 90 17 2 18 1 19 10 20 11 21 12 23 19 24
REMARK SMILES IDX 20 25 21 26 22 28 23 29 24 30 88 31 25 32 87 33 26 34 27 35
REMARK SMILES IDX 28 36 81 37 29 38 86 39 80 40 82 41 30 42 85 43 79 44 78 45
REMARK SMILES IDX 31 47 65 48 44 49 64 50 45 51 48 52 63 53 83 54 46 55 47 56
REMARK SMILES IDX 62 58 84 59 49 60 32 61 33 62 42 63 34 64 35 65 41 66 43 67
REMARK SMILES IDX 36 68 37 69 38 70 39 71 40 72 66 73 67 74 76 75 68 76 69 77
REMARK SMILES IDX 75 78 77 79 70 80 71 81 72 82 73 83 74 84 50 85 51 86 60 87
REMARK SMILES IDX 52 88 53 89 59 90 61 91 54 92 55 93 56 94 57 95 58 96
REMARK H PARENT 15 7 10 22 20 27 82 46 48 57
REMARK Flexibility Score: inf
ROOT
ATOM      1  C   UNL A   1      37.529  23.714  26.161  1.00  0.00     0.023 C 
ENDROOT
BRANCH   1   2
ATOM      2  C   UNL A   1      37.452  22.466  25.285  1.00  0.00     0.023 C 
BRANCH   2   3
ATOM      3  C   UNL A   1      36.038  21.898  25.083  1.00  0.00     0.116 C 
BRANCH   3   4
ATOM      4  N   UNL A   1      35.384  21.745  26.371  1.00  0.00    -0.354 N 
ATOM      5  C   UNL A   1      34.108  22.045  26.769  1.00  0.00     0.250 C 
ATOM      6  O   UNL A   1      34.014  22.464  27.930  1.00  0.00    -0.272 OA
ATOM      7  H   UNL A   1      35.953  21.360  27.076  1.00  0.00     0.163 HD
BRANCH   5   8
ATOM      8  C   UNL A   1      32.834  21.896  25.830  1.00  0.00     0.144 C 
ATOM      9  C   UNL A   1      32.730  18.085  25.182  1.00  0.00     0.119 A 
ATOM     10  C   UNL A   1      32.588  18.022  23.807  1.00  0.00     0.047 A 
ATOM     11  C   UNL A   1      32.830  19.332  25.801  1.00  0.00     0.053 A 
ATOM     12  C   UNL A   1      32.506  19.201  23.069  1.00  0.00     0.008 A 
ATOM     13  C   UNL A   1      32.780  20.545  25.090  1.00  0.00    -0.006 A 
ATOM     14  C   UNL A   1      32.587  20.461  23.695  1.00  0.00    -0.042 A 
ATOM     15  C   UNL A   1      32.525  21.683  22.816  1.00  0.00     0.036 C 
ATOM     16  C   UNL A   1      32.967  23.088  24.828  1.00  0.00     0.044 C 
ATOM     17  C   UNL A   1      32.129  22.943  23.567  1.00  0.00     0.008 C 
BRANCH   9  18
ATOM     18  O   UNL A   1      32.865  16.900  25.850  1.00  0.00    -0.497 OA
ATOM     19  C   UNL A   1      33.492  15.863  25.098  1.00  0.00     0.278 C 
ENDBRANCH   9  18
BRANCH   8  20
ATOM     20  N   UNL A   1      31.624  22.100  26.646  1.00  0.00    -0.341 N 
ATOM     21  C   UNL A   1      30.867  23.227  26.725  1.00  0.00     0.338 C 
ATOM     22  H   UNL A   1      31.332  21.337  27.195  1.00  0.00     0.164 HD
ATOM     23  O   UNL A   1      29.967  23.356  27.543  1.00  0.00    -0.279 OA
ENDBRANCH   8  20
ENDBRANCH   5   8
ENDBRANCH   3   4
ENDBRANCH   2   3
ENDBRANCH   1   2
BRANCH   1  24
ATOM     24  C   UNL A   1      38.849  23.888  26.895  1.00  0.00     0.116 C 
BRANCH  24  25
ATOM     25  N   UNL A   1      39.954  24.253  26.021  1.00  0.00    -0.352 N 
ATOM     26  C   UNL A   1      40.857  25.277  26.174  1.00  0.00     0.251 C 
ATOM     27  H   UNL A   1      40.068  23.695  25.219  1.00  0.00     0.163 HD
ATOM     28  O   UNL A   1      41.671  25.515  25.285  1.00  0.00    -0.269 OA
BRANCH  26  29
ATOM     29  C   UNL A   1      40.805  26.109  27.393  1.00  0.00     0.039 A 
ATOM     30  C   UNL A   1      41.666  27.202  27.499  1.00  0.00     0.014 A 
ATOM     31  C   UNL A   1      39.876  25.838  28.401  1.00  0.00     0.014 A 
ATOM     32  C   UNL A   1      41.552  28.061  28.593  1.00  0.00     0.010 A 
ATOM     33  C   UNL A   1      39.704  26.742  29.441  1.00  0.00     0.010 A 
ATOM     34  C   UNL A   1      40.548  27.856  29.553  1.00  0.00    -0.014 A 
BRANCH  34  35
ATOM     35  C   UNL A   1      40.381  28.786  30.696  1.00  0.00     0.031 A 
ATOM     36  C   UNL A   1      41.263  28.653  31.907  1.00  0.00     0.074 A 
ATOM     37  C   UNL A   1      39.407  29.717  30.660  1.00  0.00     0.049 A 
ATOM     38  N   UNL A   1      41.264  29.356  33.009  1.00  0.00    -0.248 NA
ATOM     39  C   UNL A   1      42.255  27.565  31.890  1.00  0.00     0.031 C 
ATOM     40  C   UNL A   1      38.450  29.900  29.565  1.00  0.00     0.029 A 
ATOM     41  N   UNL A   1      39.065  30.686  31.566  1.00  0.00    -0.354 N 
ATOM     42  C   UNL A   1      42.245  28.793  33.816  1.00  0.00     0.074 A 
ATOM     43  C   UNL A   1      42.769  27.647  33.107  1.00  0.00     0.031 C 
ATOM     44  C   UNL A   1      37.659  30.948  29.845  1.00  0.00     0.029 A 
ATOM     45  C   UNL A   1      38.031  31.492  31.147  1.00  0.00     0.049 A 
ATOM     46  H   UNL A   1      39.515  30.795  32.434  1.00  0.00     0.167 HD
ATOM     47  C   UNL A   1      42.695  29.212  35.024  1.00  0.00     0.037 A 
ATOM     48  C   UNL A   1      37.463  32.557  31.742  1.00  0.00     0.037 A 
ATOM     49  C   UNL A   1      42.185  30.368  35.712  1.00  0.00     0.049 A 
ATOM     50  C   UNL A   1      37.993  33.017  33.073  1.00  0.00     0.074 A 
ATOM     51  C   UNL A   1      42.594  30.904  36.920  1.00  0.00     0.029 A 
ATOM     52  N   UNL A   1      41.155  31.171  35.247  1.00  0.00    -0.354 N 
ATOM     53  N   UNL A   1      38.958  32.506  33.798  1.00  0.00    -0.248 NA
ATOM     54  C   UNL A   1      37.363  34.208  33.658  1.00  0.00     0.031 C 
ATOM     55  C   UNL A   1      41.791  32.017  37.199  1.00  0.00     0.029 A 
ATOM     56  C   UNL A   1      40.908  32.197  36.145  1.00  0.00     0.049 A 
ATOM     57  H   UNL A   1      40.669  31.034  34.401  1.00  0.00     0.167 HD
ATOM     58  C   UNL A   1      39.073  33.330  34.912  1.00  0.00     0.074 A 
ATOM     59  C   UNL A   1      38.085  34.379  34.756  1.00  0.00     0.031 C 
ATOM     60  C   UNL A   1      39.921  33.232  35.967  1.00  0.00     0.037 A 
BRANCH  47  61
ATOM     61  C   UNL A   1      43.801  28.413  35.658  1.00  0.00     0.058 A 
ATOM     62  C   UNL A   1      45.152  28.673  35.371  1.00  0.00     0.135 A 
ATOM     63  C   UNL A   1      43.511  27.366  36.548  1.00  0.00     0.135 A 
ATOM     64  F   UNL A   1      45.485  29.650  34.513  1.00  0.00    -0.206 F 
ATOM     65  C   UNL A   1      46.174  27.897  35.908  1.00  0.00     0.059 A 
ATOM     66  C   UNL A   1      44.520  26.595  37.120  1.00  0.00     0.059 A 
ATOM     67  F   UNL A   1      42.239  27.073  36.857  1.00  0.00    -0.206 F 
ATOM     68  C   UNL A   1      45.846  26.854  36.775  1.00  0.00     0.060 A 
BRANCH  68  69
ATOM     69  S   UNL A   1      47.180  25.836  37.444  1.00  0.00     0.124 S 
ATOM     70  O   UNL A   1      48.277  26.169  36.541  1.00  0.00    -0.237 OA
ATOM     71  O   UNL A   1      47.307  26.341  38.807  1.00  0.00    -0.237 OA
ATOM     72  O   UNL A   1      46.660  24.478  37.328  1.00  0.00    -0.744 OA
ENDBRANCH  68  69
ENDBRANCH  47  61
BRANCH  48  73
ATOM     73  C   UNL A   1      36.377  33.302  31.052  1.00  0.00     0.058 A 
ATOM     74  C   UNL A   1      36.665  34.149  29.971  1.00  0.00     0.135 A 
ATOM     75  C   UNL A   1      35.036  33.171  31.443  1.00  0.00     0.135 A 
ATOM     76  F   UNL A   1      37.933  34.308  29.564  1.00  0.00    -0.206 F 
ATOM     77  C   UNL A   1      35.665  34.855  29.312  1.00  0.00     0.059 A 
ATOM     78  C   UNL A   1      34.015  33.850  30.784  1.00  0.00     0.059 A 
ATOM     79  F   UNL A   1      34.708  32.359  32.459  1.00  0.00    -0.206 F 
ATOM     80  C   UNL A   1      34.341  34.698  29.725  1.00  0.00     0.060 A 
BRANCH  80  81
ATOM     81  S   UNL A   1      33.045  35.580  28.829  1.00  0.00     0.124 S 
ATOM     82  O   UNL A   1      33.825  36.527  28.041  1.00  0.00    -0.237 OA
ATOM     83  O   UNL A   1      32.400  34.505  28.082  1.00  0.00    -0.237 OA
ATOM     84  O   UNL A   1      32.236  36.161  29.898  1.00  0.00    -0.744 OA
ENDBRANCH  80  81
ENDBRANCH  48  73
BRANCH  60  85
ATOM     85  C   UNL A   1      39.838  34.311  37.010  1.00  0.00     0.058 A 
ATOM     86  C   UNL A   1      40.531  35.524  36.875  1.00  0.00     0.135 A 
ATOM     87  C   UNL A   1      39.046  34.130  38.154  1.00  0.00     0.135 A 
ATOM     88  F   UNL A   1      41.306  35.743  35.801  1.00  0.00    -0.206 F 
ATOM     89  C   UNL A   1      40.473  36.506  37.859  1.00  0.00     0.059 A 
ATOM     90  C   UNL A   1      38.951  35.110  39.138  1.00  0.00     0.059 A 
ATOM     91  F   UNL A   1      38.352  32.993  38.324  1.00  0.00    -0.206 F 
ATOM     92  C   UNL A   1      39.684  36.286  38.990  1.00  0.00     0.060 A 
BRANCH  92  93
ATOM     93  S   UNL A   1      39.616  37.564  40.263  1.00  0.00     0.124 S 
ATOM     94  O   UNL A   1      41.018  37.952  40.363  1.00  0.00    -0.237 OA
ATOM     95  O   UNL A   1      38.724  38.554  39.667  1.00  0.00    -0.237 OA
ATOM     96  O   UNL A   1      39.073  36.859  41.420  1.00  0.00    -0.744 OA
ENDBRANCH  92  93
ENDBRANCH  60  85
ENDBRANCH  34  35
ENDBRANCH  26  29
ENDBRANCH  24  25
ENDBRANCH   1  24
TORSDOF 16
ENDMDL
