MODEL 1
REMARK VINA RESULT:     -11.4      0.000      0.000
REMARK SMILES O=C(/C=C/c1c(Cl)cccc1Cl)NCC(=O)NCCCCNC(=O)c1ccc(-c2c3nc(c(-c4c(F)cc(S(=O)(=O)[O-])cc4F)c4ccc([nH]4)c(-c4c(F)cc(S(=O)(=O)[O-])cc4F)c4nc(c(-c5c(F)cc(S(=O)(=O)[O-])cc5F)c5ccc2[nH]5)C=C4)C=C3)cc1
REMARK SMILES IDX 19 1 18 2 17 3 15 4 16 5 14 7 13 8 1 9 2 10 3 12 4 13 5 14
REMARK SMILES IDX 6 15 11 16 7 17 8 18 10 19 12 20 9 21 20 22 21 23 22 24
REMARK SMILES IDX 23 25 24 27 25 28 26 29 90 30 27 31 89 32 28 33 29 34 30 35
REMARK SMILES IDX 83 36 31 37 88 38 82 39 84 40 32 41 87 42 81 43 80 44 33 46
REMARK SMILES IDX 67 47 46 48 66 49 47 50 50 51 65 52 85 53 48 54 49 55 64 57
REMARK SMILES IDX 86 58 51 59 34 60 35 61 44 62 36 63 37 64 43 65 45 66 38 67
REMARK SMILES IDX 39 68 40 69 41 70 42 71 68 72 69 73 78 74 70 75 71 76 77 77
REMARK SMILES IDX 79 78 72 79 73 80 74 81 75 82 76 83 52 84 53 85 62 86 54 87
REMARK SMILES IDX 55 88 61 89 63 90 56 91 57 92 58 93 59 94 60 95
REMARK H PARENT 17 6 13 11 22 26 84 45 50 56
REMARK Flexibility Score: inf
ROOT
ATOM      1  C   UNL A   1      32.842  30.132  26.802  1.00  0.00     0.023 C 
ENDROOT
BRANCH   1   2
ATOM      2  C   UNL A   1      32.259  29.827  25.423  1.00  0.00     0.116 C 
BRANCH   2   3
ATOM      3  N   UNL A   1      33.297  29.693  24.418  1.00  0.00    -0.355 N 
ATOM      4  C   UNL A   1      33.550  28.638  23.588  1.00  0.00     0.239 C 
ATOM      5  O   UNL A   1      34.450  28.746  22.754  1.00  0.00    -0.273 OA
ATOM      6  H   UNL A   1      33.900  30.465  24.323  1.00  0.00     0.163 HD
BRANCH   4   7
ATOM      7  C   UNL A   1      32.676  27.383  23.651  1.00  0.00     0.216 C 
BRANCH   7   8
ATOM      8  N   UNL A   1      33.466  26.163  23.663  1.00  0.00    -0.343 N 
ATOM      9  O   UNL A   1      33.706  26.083  25.940  1.00  0.00    -0.270 OA
ATOM     10  C   UNL A   1      33.919  25.612  24.829  1.00  0.00     0.244 C 
ATOM     11  H   UNL A   1      33.679  25.721  22.810  1.00  0.00     0.164 HD
BRANCH  10  12
ATOM     12  C   UNL A   1      34.799  24.426  24.700  1.00  0.00     0.072 C 
ATOM     13  C   UNL A   1      35.131  23.586  25.691  1.00  0.00     0.017 C 
BRANCH  13  14
ATOM     14  C   UNL A   1      36.053  22.452  25.472  1.00  0.00     0.012 A 
ATOM     15  C   UNL A   1      35.601  21.194  25.023  1.00  0.00     0.049 A 
ATOM     16  C   UNL A   1      37.436  22.612  25.688  1.00  0.00     0.049 A 
ATOM     17  Cl  UNL A   1      33.936  20.883  24.653  1.00  0.00    -0.084 Cl
ATOM     18  C   UNL A   1      36.495  20.134  24.826  1.00  0.00     0.021 A 
ATOM     19  C   UNL A   1      38.327  21.552  25.480  1.00  0.00     0.021 A 
ATOM     20  Cl  UNL A   1      38.108  24.117  26.225  1.00  0.00    -0.084 Cl
ATOM     21  C   UNL A   1      37.856  20.313  25.053  1.00  0.00     0.003 A 
ENDBRANCH  13  14
ENDBRANCH  10  12
ENDBRANCH   7   8
ENDBRANCH   4   7
ENDBRANCH   2   3
ENDBRANCH   1   2
BRANCH   1  22
ATOM     22  C   UNL A   1      33.809  29.068  27.333  1.00  0.00     0.023 C 
BRANCH  22  23
ATOM     23  C   UNL A   1      35.202  29.574  27.697  1.00  0.00     0.116 C 
BRANCH  23  24
ATOM     24  N   UNL A   1      35.242  30.275  28.971  1.00  0.00    -0.352 N 
ATOM     25  C   UNL A   1      36.284  30.389  29.858  1.00  0.00     0.251 C 
ATOM     26  H   UNL A   1      34.408  30.728  29.233  1.00  0.00     0.163 HD
ATOM     27  O   UNL A   1      36.103  30.915  30.953  1.00  0.00    -0.269 OA
BRANCH  25  28
ATOM     28  C   UNL A   1      37.615  29.845  29.506  1.00  0.00     0.039 A 
ATOM     29  C   UNL A   1      38.021  29.872  28.170  1.00  0.00     0.014 A 
ATOM     30  C   UNL A   1      38.463  29.327  30.488  1.00  0.00     0.014 A 
ATOM     31  C   UNL A   1      39.307  29.445  27.827  1.00  0.00     0.010 A 
ATOM     32  C   UNL A   1      39.766  28.963  30.156  1.00  0.00     0.010 A 
ATOM     33  C   UNL A   1      40.203  29.021  28.823  1.00  0.00    -0.014 A 
BRANCH  33  34
ATOM     34  C   UNL A   1      41.603  28.650  28.491  1.00  0.00     0.031 A 
ATOM     35  C   UNL A   1      42.679  29.702  28.455  1.00  0.00     0.074 A 
ATOM     36  C   UNL A   1      41.892  27.378  28.154  1.00  0.00     0.049 A 
ATOM     37  N   UNL A   1      43.937  29.585  28.118  1.00  0.00    -0.248 NA
ATOM     38  C   UNL A   1      42.280  31.071  28.822  1.00  0.00     0.031 C 
ATOM     39  C   UNL A   1      40.929  26.275  28.103  1.00  0.00     0.029 A 
ATOM     40  N   UNL A   1      43.078  26.796  27.781  1.00  0.00    -0.354 N 
ATOM     41  C   UNL A   1      44.477  30.862  28.218  1.00  0.00     0.074 A 
ATOM     42  C   UNL A   1      43.398  31.747  28.598  1.00  0.00     0.031 C 
ATOM     43  C   UNL A   1      41.564  25.151  27.737  1.00  0.00     0.029 A 
ATOM     44  C   UNL A   1      42.971  25.454  27.494  1.00  0.00     0.049 A 
ATOM     45  H   UNL A   1      43.926  27.291  27.722  1.00  0.00     0.167 HD
ATOM     46  C   UNL A   1      45.760  31.256  28.032  1.00  0.00     0.037 A 
ATOM     47  C   UNL A   1      43.898  24.572  27.075  1.00  0.00     0.037 A 
ATOM     48  C   UNL A   1      46.835  30.367  27.678  1.00  0.00     0.049 A 
ATOM     49  C   UNL A   1      45.315  25.033  26.876  1.00  0.00     0.074 A 
ATOM     50  C   UNL A   1      48.180  30.659  27.527  1.00  0.00     0.029 A 
ATOM     51  N   UNL A   1      46.690  29.011  27.418  1.00  0.00    -0.354 N 
ATOM     52  N   UNL A   1      45.822  26.232  27.039  1.00  0.00    -0.248 NA
ATOM     53  C   UNL A   1      46.290  24.022  26.442  1.00  0.00     0.031 C 
ATOM     54  C   UNL A   1      48.841  29.490  27.136  1.00  0.00     0.029 A 
ATOM     55  C   UNL A   1      47.917  28.459  27.088  1.00  0.00     0.049 A 
ATOM     56  H   UNL A   1      45.840  28.515  27.461  1.00  0.00     0.167 HD
ATOM     57  C   UNL A   1      47.177  26.114  26.750  1.00  0.00     0.074 A 
ATOM     58  C   UNL A   1      47.413  24.726  26.416  1.00  0.00     0.031 C 
ATOM     59  C   UNL A   1      48.137  27.072  26.761  1.00  0.00     0.037 A 
BRANCH  46  60
ATOM     60  C   UNL A   1      46.072  32.716  28.213  1.00  0.00     0.058 A 
ATOM     61  C   UNL A   1      46.470  33.234  29.457  1.00  0.00     0.135 A 
ATOM     62  C   UNL A   1      46.005  33.603  27.126  1.00  0.00     0.135 A 
ATOM     63  F   UNL A   1      46.537  32.434  30.532  1.00  0.00    -0.206 F 
ATOM     64  C   UNL A   1      46.760  34.584  29.623  1.00  0.00     0.059 A 
ATOM     65  C   UNL A   1      46.318  34.953  27.264  1.00  0.00     0.059 A 
ATOM     66  F   UNL A   1      45.632  33.161  25.916  1.00  0.00    -0.206 F 
ATOM     67  C   UNL A   1      46.679  35.437  28.521  1.00  0.00     0.060 A 
BRANCH  67  68
ATOM     68  S   UNL A   1      47.060  37.186  28.754  1.00  0.00     0.124 S 
ATOM     69  O   UNL A   1      46.815  37.717  27.416  1.00  0.00    -0.237 OA
ATOM     70  O   UNL A   1      46.099  37.582  29.779  1.00  0.00    -0.237 OA
ATOM     71  O   UNL A   1      48.457  37.176  29.179  1.00  0.00    -0.744 OA
ENDBRANCH  67  68
ENDBRANCH  46  60
BRANCH  47  72
ATOM     72  C   UNL A   1      43.517  23.154  26.835  1.00  0.00     0.058 A 
ATOM     73  C   UNL A   1      43.240  22.291  27.906  1.00  0.00     0.135 A 
ATOM     74  C   UNL A   1      43.412  22.636  25.535  1.00  0.00     0.135 A 
ATOM     75  F   UNL A   1      43.333  22.738  29.168  1.00  0.00    -0.206 F 
ATOM     76  C   UNL A   1      42.885  20.962  27.699  1.00  0.00     0.059 A 
ATOM     77  C   UNL A   1      43.035  21.318  25.301  1.00  0.00     0.059 A 
ATOM     78  F   UNL A   1      43.651  23.425  24.475  1.00  0.00    -0.206 F 
ATOM     79  C   UNL A   1      42.783  20.484  26.391  1.00  0.00     0.060 A 
BRANCH  79  80
ATOM     80  S   UNL A   1      42.273  18.772  26.130  1.00  0.00     0.124 S 
ATOM     81  O   UNL A   1      43.202  18.344  25.092  1.00  0.00    -0.237 OA
ATOM     82  O   UNL A   1      42.477  18.186  27.452  1.00  0.00    -0.237 OA
ATOM     83  O   UNL A   1      40.878  18.897  25.719  1.00  0.00    -0.744 OA
ENDBRANCH  79  80
ENDBRANCH  47  72
BRANCH  59  84
ATOM     84  C   UNL A   1      49.541  26.647  26.427  1.00  0.00     0.058 A 
ATOM     85  C   UNL A   1      50.355  25.990  27.363  1.00  0.00     0.135 A 
ATOM     86  C   UNL A   1      50.060  26.856  25.138  1.00  0.00     0.135 A 
ATOM     87  F   UNL A   1      49.909  25.772  28.610  1.00  0.00    -0.206 F 
ATOM     88  C   UNL A   1      51.642  25.574  27.040  1.00  0.00     0.059 A 
ATOM     89  C   UNL A   1      51.336  26.425  24.787  1.00  0.00     0.059 A 
ATOM     90  F   UNL A   1      49.320  27.472  24.203  1.00  0.00    -0.206 F 
ATOM     91  C   UNL A   1      52.123  25.795  25.748  1.00  0.00     0.060 A 
BRANCH  91  92
ATOM     92  S   UNL A   1      53.783  25.219  25.331  1.00  0.00     0.124 S 
ATOM     93  O   UNL A   1      54.594  25.921  26.320  1.00  0.00    -0.237 OA
ATOM     94  O   UNL A   1      53.669  23.775  25.515  1.00  0.00    -0.237 OA
ATOM     95  O   UNL A   1      53.958  25.657  23.950  1.00  0.00    -0.744 OA
ENDBRANCH  91  92
ENDBRANCH  59  84
ENDBRANCH  33  34
ENDBRANCH  25  28
ENDBRANCH  23  24
ENDBRANCH  22  23
ENDBRANCH   1  22
TORSDOF 17
ENDMDL
MODEL 2
REMARK VINA RESULT:     -11.3      3.982     10.792
REMARK SMILES O=C(/C=C/c1c(Cl)cccc1Cl)NCC(=O)NCCCCNC(=O)c1ccc(-c2c3nc(c(-c4c(F)cc(S(=O)(=O)[O-])cc4F)c4ccc([nH]4)c(-c4c(F)cc(S(=O)(=O)[O-])cc4F)c4nc(c(-c5c(F)cc(S(=O)(=O)[O-])cc5F)c5ccc2[nH]5)C=C4)C=C3)cc1
REMARK SMILES IDX 19 1 18 2 17 3 15 4 16 5 14 7 13 8 1 9 2 10 3 12 4 13 5 14
REMARK SMILES IDX 6 15 11 16 7 17 8 18 10 19 12 20 9 21 20 22 21 23 22 24
REMARK SMILES IDX 23 25 24 27 25 28 26 29 90 30 27 31 89 32 28 33 29 34 30 35
REMARK SMILES IDX 83 36 31 37 88 38 82 39 84 40 32 41 87 42 81 43 80 44 33 46
REMARK SMILES IDX 67 47 46 48 66 49 47 50 50 51 65 52 85 53 48 54 49 55 64 57
REMARK SMILES IDX 86 58 51 59 34 60 35 61 44 62 36 63 37 64 43 65 45 66 38 67
REMARK SMILES IDX 39 68 40 69 41 70 42 71 68 72 69 73 78 74 70 75 71 76 77 77
REMARK SMILES IDX 79 78 72 79 73 80 74 81 75 82 76 83 52 84 53 85 62 86 54 87
REMARK SMILES IDX 55 88 61 89 63 90 56 91 57 92 58 93 59 94 60 95
REMARK H PARENT 17 6 13 11 22 26 84 45 50 56
REMARK Flexibility Score: inf
ROOT
ATOM      1  C   UNL A   1      41.880  19.757  27.412  1.00  0.00     0.023 C 
ENDROOT
BRANCH   1   2
ATOM      2  C   UNL A   1      42.013  19.180  26.003  1.00  0.00     0.116 C 
BRANCH   2   3
ATOM      3  N   UNL A   1      43.245  18.430  25.844  1.00  0.00    -0.355 N 
ATOM      4  C   UNL A   1      44.420  18.830  25.275  1.00  0.00     0.239 C 
ATOM      5  O   UNL A   1      45.378  18.057  25.292  1.00  0.00    -0.273 OA
ATOM      6  H   UNL A   1      43.230  17.509  26.190  1.00  0.00     0.163 HD
BRANCH   4   7
ATOM      7  C   UNL A   1      44.554  20.243  24.701  1.00  0.00     0.216 C 
BRANCH   7   8
ATOM      8  N   UNL A   1      44.564  21.260  25.739  1.00  0.00    -0.343 N 
ATOM      9  O   UNL A   1      44.477  23.040  24.298  1.00  0.00    -0.270 OA
ATOM     10  C   UNL A   1      44.525  22.594  25.438  1.00  0.00     0.244 C 
ATOM     11  H   UNL A   1      44.600  20.983  26.682  1.00  0.00     0.164 HD
BRANCH  10  12
ATOM     12  C   UNL A   1      44.644  23.531  26.580  1.00  0.00     0.072 C 
ATOM     13  C   UNL A   1      45.197  23.251  27.769  1.00  0.00     0.017 C 
BRANCH  13  14
ATOM     14  C   UNL A   1      45.230  24.243  28.864  1.00  0.00     0.012 A 
ATOM     15  C   UNL A   1      44.134  24.444  29.728  1.00  0.00     0.049 A 
ATOM     16  C   UNL A   1      46.391  25.009  29.090  1.00  0.00     0.049 A 
ATOM     17  Cl  UNL A   1      42.672  23.520  29.604  1.00  0.00    -0.084 Cl
ATOM     18  C   UNL A   1      44.189  25.392  30.756  1.00  0.00     0.021 A 
ATOM     19  C   UNL A   1      46.445  25.950  30.126  1.00  0.00     0.021 A 
ATOM     20  Cl  UNL A   1      47.805  24.838  28.103  1.00  0.00    -0.084 Cl
ATOM     21  C   UNL A   1      45.343  26.144  30.956  1.00  0.00     0.003 A 
ENDBRANCH  13  14
ENDBRANCH  10  12
ENDBRANCH   7   8
ENDBRANCH   4   7
ENDBRANCH   2   3
ENDBRANCH   1   2
BRANCH   1  22
ATOM     22  C   UNL A   1      41.056  21.047  27.494  1.00  0.00     0.023 C 
BRANCH  22  23
ATOM     23  C   UNL A   1      40.763  21.722  26.157  1.00  0.00     0.116 C 
BRANCH  23  24
ATOM     24  N   UNL A   1      39.354  22.032  25.969  1.00  0.00    -0.352 N 
ATOM     25  C   UNL A   1      38.680  23.191  26.264  1.00  0.00     0.251 C 
ATOM     26  H   UNL A   1      38.810  21.311  25.577  1.00  0.00     0.163 HD
ATOM     27  O   UNL A   1      37.457  23.235  26.156  1.00  0.00    -0.269 OA
BRANCH  25  28
ATOM     28  C   UNL A   1      39.427  24.375  26.748  1.00  0.00     0.039 A 
ATOM     29  C   UNL A   1      40.075  25.188  25.815  1.00  0.00     0.014 A 
ATOM     30  C   UNL A   1      39.473  24.690  28.108  1.00  0.00     0.014 A 
ATOM     31  C   UNL A   1      40.712  26.358  26.240  1.00  0.00     0.010 A 
ATOM     32  C   UNL A   1      40.050  25.888  28.522  1.00  0.00     0.010 A 
ATOM     33  C   UNL A   1      40.672  26.736  27.592  1.00  0.00    -0.014 A 
BRANCH  33  34
ATOM     34  C   UNL A   1      41.263  28.021  28.049  1.00  0.00     0.031 A 
ATOM     35  C   UNL A   1      42.749  28.245  27.965  1.00  0.00     0.074 A 
ATOM     36  C   UNL A   1      40.469  28.959  28.603  1.00  0.00     0.049 A 
ATOM     37  N   UNL A   1      43.455  29.266  28.377  1.00  0.00    -0.248 NA
ATOM     38  C   UNL A   1      43.548  27.168  27.360  1.00  0.00     0.031 C 
ATOM     39  C   UNL A   1      39.021  28.842  28.787  1.00  0.00     0.029 A 
ATOM     40  N   UNL A   1      40.768  30.193  29.125  1.00  0.00    -0.354 N 
ATOM     41  C   UNL A   1      44.779  28.950  28.097  1.00  0.00     0.074 A 
ATOM     42  C   UNL A   1      44.783  27.622  27.524  1.00  0.00     0.031 C 
ATOM     43  C   UNL A   1      38.557  29.963  29.362  1.00  0.00     0.029 A 
ATOM     44  C   UNL A   1      39.675  30.864  29.622  1.00  0.00     0.049 A 
ATOM     45  H   UNL A   1      41.680  30.564  29.143  1.00  0.00     0.167 HD
ATOM     46  C   UNL A   1      45.887  29.708  28.278  1.00  0.00     0.037 A 
ATOM     47  C   UNL A   1      39.584  32.065  30.224  1.00  0.00     0.037 A 
ATOM     48  C   UNL A   1      45.875  31.040  28.825  1.00  0.00     0.049 A 
ATOM     49  C   UNL A   1      40.829  32.888  30.414  1.00  0.00     0.074 A 
ATOM     50  C   UNL A   1      46.937  31.912  28.991  1.00  0.00     0.029 A 
ATOM     51  N   UNL A   1      44.744  31.693  29.296  1.00  0.00    -0.354 N 
ATOM     52  N   UNL A   1      42.065  32.602  30.082  1.00  0.00    -0.248 NA
ATOM     53  C   UNL A   1      40.668  34.201  31.055  1.00  0.00     0.031 C 
ATOM     54  C   UNL A   1      46.456  33.076  29.601  1.00  0.00     0.029 A 
ATOM     55  C   UNL A   1      45.087  32.948  29.772  1.00  0.00     0.049 A 
ATOM     56  H   UNL A   1      43.834  31.319  29.293  1.00  0.00     0.167 HD
ATOM     57  C   UNL A   1      42.825  33.706  30.452  1.00  0.00     0.074 A 
ATOM     58  C   UNL A   1      41.907  34.671  31.020  1.00  0.00     0.031 C 
ATOM     59  C   UNL A   1      44.161  33.901  30.332  1.00  0.00     0.037 A 
BRANCH  46  60
ATOM     60  C   UNL A   1      47.209  29.114  27.876  1.00  0.00     0.058 A 
ATOM     61  C   UNL A   1      48.127  28.647  28.831  1.00  0.00     0.135 A 
ATOM     62  C   UNL A   1      47.551  28.980  26.520  1.00  0.00     0.135 A 
ATOM     63  F   UNL A   1      47.858  28.764  30.141  1.00  0.00    -0.206 F 
ATOM     64  C   UNL A   1      49.348  28.097  28.457  1.00  0.00     0.059 A 
ATOM     65  C   UNL A   1      48.756  28.406  26.124  1.00  0.00     0.059 A 
ATOM     66  F   UNL A   1      46.710  29.409  25.566  1.00  0.00    -0.206 F 
ATOM     67  C   UNL A   1      49.655  27.982  27.101  1.00  0.00     0.060 A 
BRANCH  67  68
ATOM     68  S   UNL A   1      51.244  27.264  26.634  1.00  0.00     0.124 S 
ATOM     69  O   UNL A   1      52.085  28.454  26.545  1.00  0.00    -0.237 OA
ATOM     70  O   UNL A   1      51.525  26.371  27.754  1.00  0.00    -0.237 OA
ATOM     71  O   UNL A   1      50.958  26.601  25.365  1.00  0.00    -0.744 OA
ENDBRANCH  67  68
ENDBRANCH  46  60
BRANCH  47  72
ATOM     72  C   UNL A   1      38.260  32.572  30.674  1.00  0.00     0.058 A 
ATOM     73  C   UNL A   1      37.794  32.315  31.972  1.00  0.00     0.135 A 
ATOM     74  C   UNL A   1      37.442  33.332  29.824  1.00  0.00     0.135 A 
ATOM     75  F   UNL A   1      38.537  31.587  32.820  1.00  0.00    -0.206 F 
ATOM     76  C   UNL A   1      36.557  32.780  32.408  1.00  0.00     0.059 A 
ATOM     77  C   UNL A   1      36.212  33.828  30.245  1.00  0.00     0.059 A 
ATOM     78  F   UNL A   1      37.850  33.620  28.578  1.00  0.00    -0.206 F 
ATOM     79  C   UNL A   1      35.773  33.538  31.536  1.00  0.00     0.060 A 
BRANCH  79  80
ATOM     80  S   UNL A   1      34.192  34.180  32.128  1.00  0.00     0.124 S 
ATOM     81  O   UNL A   1      34.617  35.345  32.895  1.00  0.00    -0.237 OA
ATOM     82  O   UNL A   1      33.488  34.459  30.880  1.00  0.00    -0.237 OA
ATOM     83  O   UNL A   1      33.653  33.071  32.908  1.00  0.00    -0.744 OA
ENDBRANCH  79  80
ENDBRANCH  47  72
BRANCH  59  84
ATOM     84  C   UNL A   1      44.712  35.220  30.799  1.00  0.00     0.058 A 
ATOM     85  C   UNL A   1      44.764  36.339  29.953  1.00  0.00     0.135 A 
ATOM     86  C   UNL A   1      45.148  35.380  32.125  1.00  0.00     0.135 A 
ATOM     87  F   UNL A   1      44.366  36.238  28.674  1.00  0.00    -0.206 F 
ATOM     88  C   UNL A   1      45.248  37.564  30.399  1.00  0.00     0.059 A 
ATOM     89  C   UNL A   1      45.612  36.603  32.598  1.00  0.00     0.059 A 
ATOM     90  F   UNL A   1      45.112  34.344  32.978  1.00  0.00    -0.206 F 
ATOM     91  C   UNL A   1      45.668  37.687  31.724  1.00  0.00     0.060 A 
BRANCH  91  92
ATOM     92  S   UNL A   1      46.262  39.291  32.299  1.00  0.00     0.124 S 
ATOM     93  O   UNL A   1      47.703  39.153  32.118  1.00  0.00    -0.237 OA
ATOM     94  O   UNL A   1      45.596  40.218  31.388  1.00  0.00    -0.237 OA
ATOM     95  O   UNL A   1      45.806  39.346  33.685  1.00  0.00    -0.744 OA
ENDBRANCH  91  92
ENDBRANCH  59  84
ENDBRANCH  33  34
ENDBRANCH  25  28
ENDBRANCH  23  24
ENDBRANCH  22  23
ENDBRANCH   1  22
TORSDOF 17
ENDMDL
MODEL 3
REMARK VINA RESULT:     -11.3      3.599      6.027
REMARK SMILES O=C(/C=C/c1c(Cl)cccc1Cl)NCC(=O)NCCCCNC(=O)c1ccc(-c2c3nc(c(-c4c(F)cc(S(=O)(=O)[O-])cc4F)c4ccc([nH]4)c(-c4c(F)cc(S(=O)(=O)[O-])cc4F)c4nc(c(-c5c(F)cc(S(=O)(=O)[O-])cc5F)c5ccc2[nH]5)C=C4)C=C3)cc1
REMARK SMILES IDX 19 1 18 2 17 3 15 4 16 5 14 7 13 8 1 9 2 10 3 12 4 13 5 14
REMARK SMILES IDX 6 15 11 16 7 17 8 18 10 19 12 20 9 21 20 22 21 23 22 24
REMARK SMILES IDX 23 25 24 27 25 28 26 29 90 30 27 31 89 32 28 33 29 34 30 35
REMARK SMILES IDX 83 36 31 37 88 38 82 39 84 40 32 41 87 42 81 43 80 44 33 46
REMARK SMILES IDX 67 47 46 48 66 49 47 50 50 51 65 52 85 53 48 54 49 55 64 57
REMARK SMILES IDX 86 58 51 59 34 60 35 61 44 62 36 63 37 64 43 65 45 66 38 67
REMARK SMILES IDX 39 68 40 69 41 70 42 71 68 72 69 73 78 74 70 75 71 76 77 77
REMARK SMILES IDX 79 78 72 79 73 80 74 81 75 82 76 83 52 84 53 85 62 86 54 87
REMARK SMILES IDX 55 88 61 89 63 90 56 91 57 92 58 93 59 94 60 95
REMARK H PARENT 17 6 13 11 22 26 84 45 50 56
REMARK Flexibility Score: inf
ROOT
ATOM      1  C   UNL A   1      34.675  34.758  28.554  1.00  0.00     0.023 C 
ENDROOT
BRANCH   1   2
ATOM      2  C   UNL A   1      33.314  34.827  29.245  1.00  0.00     0.116 C 
BRANCH   2   3
ATOM      3  N   UNL A   1      33.006  36.172  29.692  1.00  0.00    -0.355 N 
ATOM      4  C   UNL A   1      33.107  36.698  30.949  1.00  0.00     0.239 C 
ATOM      5  O   UNL A   1      32.853  37.892  31.112  1.00  0.00    -0.273 OA
ATOM      6  H   UNL A   1      32.679  36.788  28.998  1.00  0.00     0.163 HD
BRANCH   4   7
ATOM      7  C   UNL A   1      33.603  35.830  32.108  1.00  0.00     0.216 C 
BRANCH   7   8
ATOM      8  N   UNL A   1      35.052  35.714  32.128  1.00  0.00    -0.343 N 
ATOM      9  O   UNL A   1      35.085  33.425  32.210  1.00  0.00    -0.270 OA
ATOM     10  C   UNL A   1      35.675  34.498  32.179  1.00  0.00     0.244 C 
ATOM     11  H   UNL A   1      35.599  36.532  32.105  1.00  0.00     0.164 HD
BRANCH  10  12
ATOM     12  C   UNL A   1      37.152  34.518  32.299  1.00  0.00     0.072 C 
ATOM     13  C   UNL A   1      37.920  33.494  32.699  1.00  0.00     0.017 C 
BRANCH  13  14
ATOM     14  C   UNL A   1      39.385  33.625  32.828  1.00  0.00     0.012 A 
ATOM     15  C   UNL A   1      40.041  33.527  34.072  1.00  0.00     0.049 A 
ATOM     16  C   UNL A   1      40.181  33.831  31.682  1.00  0.00     0.049 A 
ATOM     17  Cl  UNL A   1      39.190  33.206  35.548  1.00  0.00    -0.084 Cl
ATOM     18  C   UNL A   1      41.432  33.658  34.168  1.00  0.00     0.021 A 
ATOM     19  C   UNL A   1      41.573  33.952  31.783  1.00  0.00     0.021 A 
ATOM     20  Cl  UNL A   1      39.488  33.953  30.099  1.00  0.00    -0.084 Cl
ATOM     21  C   UNL A   1      42.197  33.870  33.025  1.00  0.00     0.003 A 
ENDBRANCH  13  14
ENDBRANCH  10  12
ENDBRANCH   7   8
ENDBRANCH   4   7
ENDBRANCH   2   3
ENDBRANCH   1   2
BRANCH   1  22
ATOM     22  C   UNL A   1      35.100  33.347  28.129  1.00  0.00     0.023 C 
BRANCH  22  23
ATOM     23  C   UNL A   1      36.257  32.746  28.923  1.00  0.00     0.116 C 
BRANCH  23  24
ATOM     24  N   UNL A   1      35.825  31.780  29.921  1.00  0.00    -0.352 N 
ATOM     25  C   UNL A   1      36.490  30.675  30.395  1.00  0.00     0.251 C 
ATOM     26  H   UNL A   1      34.935  31.940  30.310  1.00  0.00     0.163 HD
ATOM     27  O   UNL A   1      35.919  29.893  31.151  1.00  0.00    -0.269 OA
BRANCH  25  28
ATOM     28  C   UNL A   1      37.881  30.411  29.963  1.00  0.00     0.039 A 
ATOM     29  C   UNL A   1      38.898  30.430  30.920  1.00  0.00     0.014 A 
ATOM     30  C   UNL A   1      38.179  30.130  28.627  1.00  0.00     0.014 A 
ATOM     31  C   UNL A   1      40.204  30.098  30.551  1.00  0.00     0.010 A 
ATOM     32  C   UNL A   1      39.467  29.735  28.273  1.00  0.00     0.010 A 
ATOM     33  C   UNL A   1      40.492  29.711  29.231  1.00  0.00    -0.014 A 
BRANCH  33  34
ATOM     34  C   UNL A   1      41.855  29.266  28.839  1.00  0.00     0.031 A 
ATOM     35  C   UNL A   1      42.987  30.255  28.777  1.00  0.00     0.074 A 
ATOM     36  C   UNL A   1      42.057  27.985  28.473  1.00  0.00     0.049 A 
ATOM     37  N   UNL A   1      44.223  30.073  28.390  1.00  0.00    -0.248 NA
ATOM     38  C   UNL A   1      42.682  31.638  29.179  1.00  0.00     0.031 C 
ATOM     39  C   UNL A   1      41.030  26.940  28.443  1.00  0.00     0.029 A 
ATOM     40  N   UNL A   1      43.192  27.343  28.046  1.00  0.00    -0.354 N 
ATOM     41  C   UNL A   1      44.839  31.315  28.487  1.00  0.00     0.074 A 
ATOM     42  C   UNL A   1      43.828  32.253  28.922  1.00  0.00     0.031 C 
ATOM     43  C   UNL A   1      41.585  25.788  28.037  1.00  0.00     0.029 A 
ATOM     44  C   UNL A   1      42.997  26.015  27.744  1.00  0.00     0.049 A 
ATOM     45  H   UNL A   1      44.065  27.790  27.961  1.00  0.00     0.167 HD
ATOM     46  C   UNL A   1      46.135  31.638  28.257  1.00  0.00     0.037 A 
ATOM     47  C   UNL A   1      43.855  25.087  27.277  1.00  0.00     0.037 A 
ATOM     48  C   UNL A   1      47.142  30.695  27.849  1.00  0.00     0.049 A 
ATOM     49  C   UNL A   1      45.288  25.470  27.030  1.00  0.00     0.074 A 
ATOM     50  C   UNL A   1      48.495  30.912  27.651  1.00  0.00     0.029 A 
ATOM     51  N   UNL A   1      46.910  29.354  27.576  1.00  0.00    -0.354 N 
ATOM     52  N   UNL A   1      45.869  26.635  27.191  1.00  0.00    -0.248 NA
ATOM     53  C   UNL A   1      46.186  24.413  26.544  1.00  0.00     0.031 C 
ATOM     54  C   UNL A   1      49.072  29.714  27.218  1.00  0.00     0.029 A 
ATOM     55  C   UNL A   1      48.089  28.738  27.190  1.00  0.00     0.049 A 
ATOM     56  H   UNL A   1      46.035  28.907  27.644  1.00  0.00     0.167 HD
ATOM     57  C   UNL A   1      47.204  26.446  26.848  1.00  0.00     0.074 A 
ATOM     58  C   UNL A   1      47.346  25.052  26.485  1.00  0.00     0.031 C 
ATOM     59  C   UNL A   1      48.217  27.346  26.835  1.00  0.00     0.037 A 
BRANCH  46  60
ATOM     60  C   UNL A   1      46.537  33.075  28.447  1.00  0.00     0.058 A 
ATOM     61  C   UNL A   1      46.407  34.018  27.415  1.00  0.00     0.135 A 
ATOM     62  C   UNL A   1      47.027  33.523  29.685  1.00  0.00     0.135 A 
ATOM     63  F   UNL A   1      45.957  33.641  26.207  1.00  0.00    -0.206 F 
ATOM     64  C   UNL A   1      46.778  35.346  27.592  1.00  0.00     0.059 A 
ATOM     65  C   UNL A   1      47.378  34.854  29.893  1.00  0.00     0.059 A 
ATOM     66  F   UNL A   1      47.171  32.664  30.706  1.00  0.00    -0.206 F 
ATOM     67  C   UNL A   1      47.265  35.755  28.834  1.00  0.00     0.060 A 
BRANCH  67  68
ATOM     68  S   UNL A   1      47.740  37.484  29.049  1.00  0.00     0.124 S 
ATOM     69  O   UNL A   1      49.170  37.428  28.762  1.00  0.00    -0.237 OA
ATOM     70  O   UNL A   1      46.919  38.160  28.048  1.00  0.00    -0.237 OA
ATOM     71  O   UNL A   1      47.388  37.764  30.437  1.00  0.00    -0.744 OA
ENDBRANCH  67  68
ENDBRANCH  46  60
BRANCH  47  72
ATOM     72  C   UNL A   1      43.385  23.698  27.031  1.00  0.00     0.058 A 
ATOM     73  C   UNL A   1      43.066  22.846  28.100  1.00  0.00     0.135 A 
ATOM     74  C   UNL A   1      43.232  23.198  25.729  1.00  0.00     0.135 A 
ATOM     75  F   UNL A   1      43.202  23.276  29.364  1.00  0.00    -0.206 F 
ATOM     76  C   UNL A   1      42.627  21.542  27.887  1.00  0.00     0.059 A 
ATOM     77  C   UNL A   1      42.772  21.907  25.491  1.00  0.00     0.059 A 
ATOM     78  F   UNL A   1      43.508  23.979  24.673  1.00  0.00    -0.206 F 
ATOM     79  C   UNL A   1      42.481  21.083  26.577  1.00  0.00     0.060 A 
BRANCH  79  80
ATOM     80  S   UNL A   1      41.862  19.407  26.311  1.00  0.00     0.124 S 
ATOM     81  O   UNL A   1      40.423  19.633  26.249  1.00  0.00    -0.237 OA
ATOM     82  O   UNL A   1      42.506  19.038  25.053  1.00  0.00    -0.237 OA
ATOM     83  O   UNL A   1      42.339  18.684  27.485  1.00  0.00    -0.744 OA
ENDBRANCH  79  80
ENDBRANCH  47  72
BRANCH  59  84
ATOM     84  C   UNL A   1      49.580  26.847  26.441  1.00  0.00     0.058 A 
ATOM     85  C   UNL A   1      50.394  26.140  27.339  1.00  0.00     0.135 A 
ATOM     86  C   UNL A   1      50.057  27.038  25.133  1.00  0.00     0.135 A 
ATOM     87  F   UNL A   1      49.989  25.938  28.603  1.00  0.00    -0.206 F 
ATOM     88  C   UNL A   1      51.642  25.656  26.961  1.00  0.00     0.059 A 
ATOM     89  C   UNL A   1      51.291  26.539  24.727  1.00  0.00     0.059 A 
ATOM     90  F   UNL A   1      49.314  27.700  24.233  1.00  0.00    -0.206 F 
ATOM     91  C   UNL A   1      52.081  25.860  25.652  1.00  0.00     0.060 A 
BRANCH  91  92
ATOM     92  S   UNL A   1      53.688  25.197  25.164  1.00  0.00     0.124 S 
ATOM     93  O   UNL A   1      53.774  25.631  23.773  1.00  0.00    -0.237 OA
ATOM     94  O   UNL A   1      54.597  25.862  26.093  1.00  0.00    -0.237 OA
ATOM     95  O   UNL A   1      53.538  23.759  25.365  1.00  0.00    -0.744 OA
ENDBRANCH  91  92
ENDBRANCH  59  84
ENDBRANCH  33  34
ENDBRANCH  25  28
ENDBRANCH  23  24
ENDBRANCH  22  23
ENDBRANCH   1  22
TORSDOF 17
ENDMDL
