MODEL 1
REMARK VINA RESULT:     -12.4      0.000      0.000
REMARK SMILES C[C@H]1SC[C@H](C(=O)NCCCCNC(=O)c2ccc(-c3c4nc(c(-c5c(F)cc(S(=O)(=O)[O-])cc5F)c5ccc([nH]5)c(-c5c(F)cc(S(=O)(=O)[O-])cc5F)c5nc(c(-c6c(F)cc(S(=O)(=O)[O-])cc6F)c6ccc3[nH]6)C=C5)C=C4)cc2)N1C(=O)[C@@H]1CSc2ccccc21
REMARK SMILES IDX 11 1 10 2 9 3 8 4 6 5 7 6 5 8 1 9 2 10 3 11 82 12 4 13 83 14
REMARK SMILES IDX 84 15 85 16 86 17 93 18 87 19 88 20 92 21 89 22 91 23 90 24
REMARK SMILES IDX 12 25 13 26 14 27 15 29 16 30 17 31 81 32 18 33 80 34 19 35
REMARK SMILES IDX 20 36 21 37 74 38 22 39 79 40 73 41 75 42 23 43 78 44 72 45
REMARK SMILES IDX 71 46 24 48 58 49 37 50 57 51 38 52 41 53 56 54 76 55 39 56
REMARK SMILES IDX 40 57 55 59 77 60 42 61 25 62 26 63 35 64 27 65 28 66 34 67
REMARK SMILES IDX 36 68 29 69 30 70 31 71 32 72 33 73 59 74 60 75 69 76 61 77
REMARK SMILES IDX 62 78 68 79 70 80 63 81 64 82 65 83 66 84 67 85 43 86 44 87
REMARK SMILES IDX 53 88 45 89 46 90 52 91 54 92 47 93 48 94 49 95 50 96 51 97
REMARK H PARENT 8 7 13 28 75 47 41 58
REMARK Flexibility Score: inf
ROOT
ATOM      1  C   UNL A   1      39.347  22.974  27.041  1.00  0.00     0.023 C 
ENDROOT
BRANCH   1   2
ATOM      2  C   UNL A   1      38.918  21.961  25.981  1.00  0.00     0.023 C 
BRANCH   2   3
ATOM      3  C   UNL A   1      37.533  22.200  25.390  1.00  0.00     0.116 C 
BRANCH   3   4
ATOM      4  N   UNL A   1      36.482  21.775  26.289  1.00  0.00    -0.354 N 
ATOM      5  C   UNL A   1      35.137  21.685  26.084  1.00  0.00     0.243 C 
ATOM      6  O   UNL A   1      34.422  21.515  27.077  1.00  0.00    -0.273 OA
ATOM      7  H   UNL A   1      36.784  21.511  27.189  1.00  0.00     0.163 HD
BRANCH   5   8
ATOM      8  C   UNL A   1      34.498  22.007  24.721  1.00  0.00     0.185 C 
ATOM      9  C   UNL A   1      33.361  23.395  22.139  1.00  0.00     0.043 C 
ATOM     10  C   UNL A   1      32.717  23.103  23.496  1.00  0.00     0.141 C 
ATOM     11  S   UNL A   1      32.180  21.374  23.478  1.00  0.00    -0.135 SA
ATOM     12  N   UNL A   1      33.660  23.217  24.597  1.00  0.00    -0.318 N 
ATOM     13  C   UNL A   1      33.651  20.779  24.347  1.00  0.00     0.107 C 
BRANCH  12  14
ATOM     14  C   UNL A   1      34.117  24.413  25.133  1.00  0.00     0.232 C 
ATOM     15  O   UNL A   1      35.322  24.687  25.082  1.00  0.00    -0.274 OA
BRANCH  14  16
ATOM     16  C   UNL A   1      33.190  25.400  25.871  1.00  0.00     0.120 C 
ATOM     17  C   UNL A   1      31.943  24.764  26.502  1.00  0.00     0.093 C 
ATOM     18  C   UNL A   1      32.767  26.581  25.043  1.00  0.00    -0.021 A 
ATOM     19  S   UNL A   1      30.455  25.506  25.749  1.00  0.00    -0.125 SA
ATOM     20  C   UNL A   1      31.393  26.684  24.827  1.00  0.00     0.011 A 
ATOM     21  C   UNL A   1      33.644  27.494  24.464  1.00  0.00     0.006 A 
ATOM     22  C   UNL A   1      30.886  27.607  23.927  1.00  0.00     0.015 A 
ATOM     23  C   UNL A   1      33.138  28.443  23.578  1.00  0.00     0.000 A 
ATOM     24  C   UNL A   1      31.770  28.479  23.286  1.00  0.00     0.001 A 
ENDBRANCH  14  16
ENDBRANCH  12  14
ENDBRANCH   5   8
ENDBRANCH   3   4
ENDBRANCH   2   3
ENDBRANCH   1   2
BRANCH   1  25
ATOM     25  C   UNL A   1      40.839  23.289  27.073  1.00  0.00     0.116 C 
BRANCH  25  26
ATOM     26  N   UNL A   1      41.245  24.195  26.011  1.00  0.00    -0.352 N 
ATOM     27  C   UNL A   1      41.366  25.564  26.028  1.00  0.00     0.251 C 
ATOM     28  H   UNL A   1      41.467  23.764  25.154  1.00  0.00     0.163 HD
ATOM     29  O   UNL A   1      41.587  26.162  24.980  1.00  0.00    -0.269 OA
BRANCH  27  30
ATOM     30  C   UNL A   1      41.197  26.313  27.294  1.00  0.00     0.039 A 
ATOM     31  C   UNL A   1      42.165  27.258  27.642  1.00  0.00     0.014 A 
ATOM     32  C   UNL A   1      40.102  26.092  28.135  1.00  0.00     0.014 A 
ATOM     33  C   UNL A   1      42.001  28.021  28.799  1.00  0.00     0.010 A 
ATOM     34  C   UNL A   1      39.899  26.910  29.245  1.00  0.00     0.010 A 
ATOM     35  C   UNL A   1      40.848  27.881  29.592  1.00  0.00    -0.014 A 
BRANCH  35  36
ATOM     36  C   UNL A   1      40.631  28.769  30.765  1.00  0.00     0.031 A 
ATOM     37  C   UNL A   1      41.471  28.630  32.006  1.00  0.00     0.074 A 
ATOM     38  C   UNL A   1      39.651  29.694  30.715  1.00  0.00     0.049 A 
ATOM     39  N   UNL A   1      41.453  29.351  33.099  1.00  0.00    -0.248 NA
ATOM     40  C   UNL A   1      42.440  27.523  32.038  1.00  0.00     0.031 C 
ATOM     41  C   UNL A   1      38.719  29.877  29.598  1.00  0.00     0.029 A 
ATOM     42  N   UNL A   1      39.278  30.659  31.616  1.00  0.00    -0.354 N 
ATOM     43  C   UNL A   1      42.402  28.789  33.944  1.00  0.00     0.074 A 
ATOM     44  C   UNL A   1      42.934  27.628  33.264  1.00  0.00     0.031 C 
ATOM     45  C   UNL A   1      37.914  30.917  29.862  1.00  0.00     0.029 A 
ATOM     46  C   UNL A   1      38.248  31.457  31.176  1.00  0.00     0.049 A 
ATOM     47  H   UNL A   1      39.707  30.768  32.495  1.00  0.00     0.167 HD
ATOM     48  C   UNL A   1      42.812  29.215  35.163  1.00  0.00     0.037 A 
ATOM     49  C   UNL A   1      37.648  32.512  31.758  1.00  0.00     0.037 A 
ATOM     50  C   UNL A   1      42.286  30.380  35.829  1.00  0.00     0.049 A 
ATOM     51  C   UNL A   1      38.140  32.983  33.099  1.00  0.00     0.074 A 
ATOM     52  C   UNL A   1      42.674  30.929  37.039  1.00  0.00     0.029 A 
ATOM     53  N   UNL A   1      41.255  31.174  35.345  1.00  0.00    -0.354 N 
ATOM     54  N   UNL A   1      39.095  32.487  33.848  1.00  0.00    -0.248 NA
ATOM     55  C   UNL A   1      37.484  34.168  33.665  1.00  0.00     0.031 C 
ATOM     56  C   UNL A   1      41.846  32.025  37.310  1.00  0.00     0.029 A 
ATOM     57  C   UNL A   1      40.980  32.195  36.241  1.00  0.00     0.049 A 
ATOM     58  H   UNL A   1      40.788  31.032  34.490  1.00  0.00     0.167 HD
ATOM     59  C   UNL A   1      39.171  33.313  34.965  1.00  0.00     0.074 A 
ATOM     60  C   UNL A   1      38.180  34.354  34.777  1.00  0.00     0.031 C 
ATOM     61  C   UNL A   1      39.983  33.218  36.048  1.00  0.00     0.037 A 
BRANCH  48  62
ATOM     62  C   UNL A   1      43.890  28.423  35.855  1.00  0.00     0.058 A 
ATOM     63  C   UNL A   1      45.253  28.709  35.666  1.00  0.00     0.135 A 
ATOM     64  C   UNL A   1      43.560  27.389  36.746  1.00  0.00     0.135 A 
ATOM     65  F   UNL A   1      45.630  29.676  34.814  1.00  0.00    -0.206 F 
ATOM     66  C   UNL A   1      46.247  27.982  36.313  1.00  0.00     0.059 A 
ATOM     67  C   UNL A   1      44.537  26.668  37.427  1.00  0.00     0.059 A 
ATOM     68  F   UNL A   1      42.274  27.070  36.965  1.00  0.00    -0.206 F 
ATOM     69  C   UNL A   1      45.879  26.963  37.193  1.00  0.00     0.060 A 
BRANCH  69  70
ATOM     70  S   UNL A   1      47.183  26.038  38.033  1.00  0.00     0.124 S 
ATOM     71  O   UNL A   1      48.118  27.103  38.380  1.00  0.00    -0.237 OA
ATOM     72  O   UNL A   1      46.466  25.434  39.151  1.00  0.00    -0.237 OA
ATOM     73  O   UNL A   1      47.648  25.104  37.012  1.00  0.00    -0.744 OA
ENDBRANCH  69  70
ENDBRANCH  48  62
BRANCH  49  74
ATOM     74  C   UNL A   1      36.542  33.220  31.055  1.00  0.00     0.058 A 
ATOM     75  C   UNL A   1      35.215  33.112  31.499  1.00  0.00     0.135 A 
ATOM     76  C   UNL A   1      36.793  34.027  29.935  1.00  0.00     0.135 A 
ATOM     77  F   UNL A   1      34.924  32.349  32.563  1.00  0.00    -0.206 F 
ATOM     78  C   UNL A   1      34.173  33.763  30.847  1.00  0.00     0.059 A 
ATOM     79  C   UNL A   1      35.772  34.710  29.283  1.00  0.00     0.059 A 
ATOM     80  F   UNL A   1      38.047  34.179  29.483  1.00  0.00    -0.206 F 
ATOM     81  C   UNL A   1      34.463  34.562  29.740  1.00  0.00     0.060 A 
BRANCH  81  82
ATOM     82  S   UNL A   1      33.110  35.442  28.930  1.00  0.00     0.124 S 
ATOM     83  O   UNL A   1      32.335  35.908  30.072  1.00  0.00    -0.237 OA
ATOM     84  O   UNL A   1      33.821  36.470  28.176  1.00  0.00    -0.237 OA
ATOM     85  O   UNL A   1      32.477  34.407  28.116  1.00  0.00    -0.744 OA
ENDBRANCH  81  82
ENDBRANCH  49  74
BRANCH  61  86
ATOM     86  C   UNL A   1      39.847  34.290  37.096  1.00  0.00     0.058 A 
ATOM     87  C   UNL A   1      39.062  34.107  38.246  1.00  0.00     0.135 A 
ATOM     88  C   UNL A   1      40.506  35.522  36.944  1.00  0.00     0.135 A 
ATOM     89  F   UNL A   1      38.410  32.949  38.442  1.00  0.00    -0.206 F 
ATOM     90  C   UNL A   1      38.888  35.124  39.178  1.00  0.00     0.059 A 
ATOM     91  C   UNL A   1      40.373  36.541  37.881  1.00  0.00     0.059 A 
ATOM     92  F   UNL A   1      41.283  35.747  35.873  1.00  0.00    -0.206 F 
ATOM     93  C   UNL A   1      39.541  36.343  38.982  1.00  0.00     0.060 A 
BRANCH  93  94
ATOM     94  S   UNL A   1      39.287  37.666  40.182  1.00  0.00     0.124 S 
ATOM     95  O   UNL A   1      40.592  38.321  40.175  1.00  0.00    -0.237 OA
ATOM     96  O   UNL A   1      38.194  38.427  39.586  1.00  0.00    -0.237 OA
ATOM     97  O   UNL A   1      38.949  36.951  41.409  1.00  0.00    -0.744 OA
ENDBRANCH  93  94
ENDBRANCH  61  86
ENDBRANCH  35  36
ENDBRANCH  27  30
ENDBRANCH  25  26
ENDBRANCH   1  25
TORSDOF 16
ENDMDL
MODEL 2
REMARK VINA RESULT:     -12.3      6.475     12.141
REMARK SMILES C[C@H]1SC[C@H](C(=O)NCCCCNC(=O)c2ccc(-c3c4nc(c(-c5c(F)cc(S(=O)(=O)[O-])cc5F)c5ccc([nH]5)c(-c5c(F)cc(S(=O)(=O)[O-])cc5F)c5nc(c(-c6c(F)cc(S(=O)(=O)[O-])cc6F)c6ccc3[nH]6)C=C5)C=C4)cc2)N1C(=O)[C@@H]1CSc2ccccc21
REMARK SMILES IDX 11 1 10 2 9 3 8 4 6 5 7 6 5 8 1 9 2 10 3 11 82 12 4 13 83 14
REMARK SMILES IDX 84 15 85 16 86 17 93 18 87 19 88 20 92 21 89 22 91 23 90 24
REMARK SMILES IDX 12 25 13 26 14 27 15 29 16 30 17 31 81 32 18 33 80 34 19 35
REMARK SMILES IDX 20 36 21 37 74 38 22 39 79 40 73 41 75 42 23 43 78 44 72 45
REMARK SMILES IDX 71 46 24 48 58 49 37 50 57 51 38 52 41 53 56 54 76 55 39 56
REMARK SMILES IDX 40 57 55 59 77 60 42 61 25 62 26 63 35 64 27 65 28 66 34 67
REMARK SMILES IDX 36 68 29 69 30 70 31 71 32 72 33 73 59 74 60 75 69 76 61 77
REMARK SMILES IDX 62 78 68 79 70 80 63 81 64 82 65 83 66 84 67 85 43 86 44 87
REMARK SMILES IDX 53 88 45 89 46 90 52 91 54 92 47 93 48 94 49 95 50 96 51 97
REMARK H PARENT 8 7 13 28 75 47 41 58
REMARK Flexibility Score: inf
ROOT
ATOM      1  C   UNL A   1      34.764  31.623  28.034  1.00  0.00     0.023 C 
ENDROOT
BRANCH   1   2
ATOM      2  C   UNL A   1      34.645  30.201  27.490  1.00  0.00     0.023 C 
BRANCH   2   3
ATOM      3  C   UNL A   1      33.331  29.895  26.780  1.00  0.00     0.116 C 
BRANCH   3   4
ATOM      4  N   UNL A   1      33.490  29.850  25.344  1.00  0.00    -0.354 N 
ATOM      5  C   UNL A   1      32.838  29.096  24.413  1.00  0.00     0.243 C 
ATOM      6  O   UNL A   1      33.312  29.070  23.272  1.00  0.00    -0.273 OA
ATOM      7  H   UNL A   1      34.175  30.458  24.981  1.00  0.00     0.163 HD
BRANCH   5   8
ATOM      8  C   UNL A   1      31.701  28.132  24.797  1.00  0.00     0.185 C 
ATOM      9  C   UNL A   1      29.962  25.742  25.868  1.00  0.00     0.043 C 
ATOM     10  C   UNL A   1      30.684  25.948  24.534  1.00  0.00     0.141 C 
ATOM     11  S   UNL A   1      29.620  26.988  23.502  1.00  0.00    -0.135 SA
ATOM     12  N   UNL A   1      31.933  26.678  24.683  1.00  0.00    -0.318 N 
ATOM     13  C   UNL A   1      30.503  28.513  23.911  1.00  0.00     0.107 C 
BRANCH  12  14
ATOM     14  C   UNL A   1      33.114  26.142  25.176  1.00  0.00     0.232 C 
ATOM     15  O   UNL A   1      33.468  26.397  26.334  1.00  0.00    -0.274 OA
BRANCH  14  16
ATOM     16  C   UNL A   1      34.063  25.289  24.310  1.00  0.00     0.120 C 
ATOM     17  C   UNL A   1      33.696  25.229  22.820  1.00  0.00     0.093 C 
ATOM     18  C   UNL A   1      34.267  23.890  24.817  1.00  0.00    -0.021 A 
ATOM     19  S   UNL A   1      33.362  23.493  22.364  1.00  0.00    -0.125 SA
ATOM     20  C   UNL A   1      33.850  22.883  23.947  1.00  0.00     0.011 A 
ATOM     21  C   UNL A   1      34.773  23.572  26.076  1.00  0.00     0.006 A 
ATOM     22  C   UNL A   1      33.801  21.563  24.364  1.00  0.00     0.015 A 
ATOM     23  C   UNL A   1      34.751  22.242  26.493  1.00  0.00     0.000 A 
ATOM     24  C   UNL A   1      34.238  21.247  25.653  1.00  0.00     0.001 A 
ENDBRANCH  14  16
ENDBRANCH  12  14
ENDBRANCH   5   8
ENDBRANCH   3   4
ENDBRANCH   2   3
ENDBRANCH   1   2
BRANCH   1  25
ATOM     25  C   UNL A   1      35.921  31.854  29.001  1.00  0.00     0.116 C 
BRANCH  25  26
ATOM     26  N   UNL A   1      35.772  31.112  30.243  1.00  0.00    -0.352 N 
ATOM     27  C   UNL A   1      36.635  30.226  30.841  1.00  0.00     0.251 C 
ATOM     28  H   UNL A   1      34.929  31.269  30.727  1.00  0.00     0.163 HD
ATOM     29  O   UNL A   1      36.262  29.591  31.822  1.00  0.00    -0.269 OA
BRANCH  27  30
ATOM     30  C   UNL A   1      37.991  30.014  30.286  1.00  0.00     0.039 A 
ATOM     31  C   UNL A   1      39.043  29.772  31.172  1.00  0.00     0.014 A 
ATOM     32  C   UNL A   1      38.232  30.051  28.909  1.00  0.00     0.014 A 
ATOM     33  C   UNL A   1      40.320  29.509  30.674  1.00  0.00     0.010 A 
ATOM     34  C   UNL A   1      39.489  29.708  28.411  1.00  0.00     0.010 A 
ATOM     35  C   UNL A   1      40.548  29.438  29.288  1.00  0.00    -0.014 A 
BRANCH  35  36
ATOM     36  C   UNL A   1      41.887  29.056  28.766  1.00  0.00     0.031 A 
ATOM     37  C   UNL A   1      43.003  30.062  28.689  1.00  0.00     0.074 A 
ATOM     38  C   UNL A   1      42.087  27.793  28.336  1.00  0.00     0.049 A 
ATOM     39  N   UNL A   1      44.244  29.888  28.311  1.00  0.00    -0.248 NA
ATOM     40  C   UNL A   1      42.681  31.449  29.062  1.00  0.00     0.031 C 
ATOM     41  C   UNL A   1      41.062  26.745  28.288  1.00  0.00     0.029 A 
ATOM     42  N   UNL A   1      43.216  27.171  27.867  1.00  0.00    -0.354 N 
ATOM     43  C   UNL A   1      44.848  31.137  28.398  1.00  0.00     0.074 A 
ATOM     44  C   UNL A   1      43.823  32.072  28.806  1.00  0.00     0.031 C 
ATOM     45  C   UNL A   1      41.621  25.603  27.859  1.00  0.00     0.029 A 
ATOM     46  C   UNL A   1      43.032  25.841  27.572  1.00  0.00     0.049 A 
ATOM     47  H   UNL A   1      44.077  27.635  27.752  1.00  0.00     0.167 HD
ATOM     48  C   UNL A   1      46.145  31.469  28.186  1.00  0.00     0.037 A 
ATOM     49  C   UNL A   1      43.902  24.913  27.132  1.00  0.00     0.037 A 
ATOM     50  C   UNL A   1      47.164  30.530  27.792  1.00  0.00     0.049 A 
ATOM     51  C   UNL A   1      45.341  25.300  26.930  1.00  0.00     0.074 A 
ATOM     52  C   UNL A   1      48.518  30.754  27.606  1.00  0.00     0.029 A 
ATOM     53  N   UNL A   1      46.944  29.187  27.518  1.00  0.00    -0.354 N 
ATOM     54  N   UNL A   1      45.912  26.469  27.096  1.00  0.00    -0.248 NA
ATOM     55  C   UNL A   1      46.257  24.237  26.497  1.00  0.00     0.031 C 
ATOM     56  C   UNL A   1      49.106  29.560  27.174  1.00  0.00     0.029 A 
ATOM     57  C   UNL A   1      48.131  28.576  27.146  1.00  0.00     0.049 A 
ATOM     58  H   UNL A   1      46.071  28.735  27.580  1.00  0.00     0.167 HD
ATOM     59  C   UNL A   1      47.260  26.278  26.810  1.00  0.00     0.074 A 
ATOM     60  C   UNL A   1      47.419  24.874  26.486  1.00  0.00     0.031 C 
ATOM     61  C   UNL A   1      48.274  27.180  26.814  1.00  0.00     0.037 A 
BRANCH  48  62
ATOM     62  C   UNL A   1      46.538  32.910  28.382  1.00  0.00     0.058 A 
ATOM     63  C   UNL A   1      46.487  33.840  27.328  1.00  0.00     0.135 A 
ATOM     64  C   UNL A   1      46.936  33.380  29.644  1.00  0.00     0.135 A 
ATOM     65  F   UNL A   1      46.129  33.446  26.096  1.00  0.00    -0.206 F 
ATOM     66  C   UNL A   1      46.842  35.172  27.513  1.00  0.00     0.059 A 
ATOM     67  C   UNL A   1      47.266  34.715  29.860  1.00  0.00     0.059 A 
ATOM     68  F   UNL A   1      47.004  32.537  30.688  1.00  0.00    -0.206 F 
ATOM     69  C   UNL A   1      47.229  35.601  28.784  1.00  0.00     0.060 A 
BRANCH  69  70
ATOM     70  S   UNL A   1      47.676  37.336  29.008  1.00  0.00     0.124 S 
ATOM     71  O   UNL A   1      48.462  37.591  27.805  1.00  0.00    -0.237 OA
ATOM     72  O   UNL A   1      46.372  37.989  29.063  1.00  0.00    -0.237 OA
ATOM     73  O   UNL A   1      48.428  37.335  30.259  1.00  0.00    -0.744 OA
ENDBRANCH  69  70
ENDBRANCH  48  62
BRANCH  49  74
ATOM     74  C   UNL A   1      43.443  23.517  26.892  1.00  0.00     0.058 A 
ATOM     75  C   UNL A   1      43.235  23.035  25.591  1.00  0.00     0.135 A 
ATOM     76  C   UNL A   1      43.217  22.634  27.960  1.00  0.00     0.135 A 
ATOM     77  F   UNL A   1      43.434  23.842  24.538  1.00  0.00    -0.206 F 
ATOM     78  C   UNL A   1      42.800  21.735  25.355  1.00  0.00     0.059 A 
ATOM     79  C   UNL A   1      42.809  21.321  27.748  1.00  0.00     0.059 A 
ATOM     80  F   UNL A   1      43.420  23.039  29.223  1.00  0.00    -0.206 F 
ATOM     81  C   UNL A   1      42.592  20.885  26.441  1.00  0.00     0.060 A 
BRANCH  81  82
ATOM     82  S   UNL A   1      42.074  19.184  26.123  1.00  0.00     0.124 S 
ATOM     83  O   UNL A   1      42.466  18.520  27.360  1.00  0.00    -0.237 OA
ATOM     84  O   UNL A   1      40.638  19.337  25.907  1.00  0.00    -0.237 OA
ATOM     85  O   UNL A   1      42.842  18.816  24.937  1.00  0.00    -0.744 OA
ENDBRANCH  81  82
ENDBRANCH  49  74
BRANCH  61  86
ATOM     86  C   UNL A   1      49.647  26.663  26.482  1.00  0.00     0.058 A 
ATOM     87  C   UNL A   1      50.134  26.642  25.164  1.00  0.00     0.135 A 
ATOM     88  C   UNL A   1      50.488  26.172  27.496  1.00  0.00     0.135 A 
ATOM     89  F   UNL A   1      49.373  27.099  24.156  1.00  0.00    -0.206 F 
ATOM     90  C   UNL A   1      51.378  26.102  24.856  1.00  0.00     0.059 A 
ATOM     91  C   UNL A   1      51.749  25.658  27.214  1.00  0.00     0.059 A 
ATOM     92  F   UNL A   1      50.082  26.183  28.775  1.00  0.00    -0.206 F 
ATOM     93  C   UNL A   1      52.175  25.603  25.888  1.00  0.00     0.060 A 
BRANCH  93  94
ATOM     94  S   UNL A   1      53.776  24.879  25.475  1.00  0.00     0.124 S 
ATOM     95  O   UNL A   1      54.224  25.756  24.397  1.00  0.00    -0.237 OA
ATOM     96  O   UNL A   1      54.508  24.997  26.732  1.00  0.00    -0.237 OA
ATOM     97  O   UNL A   1      53.440  23.515  25.078  1.00  0.00    -0.744 OA
ENDBRANCH  93  94
ENDBRANCH  61  86
ENDBRANCH  35  36
ENDBRANCH  27  30
ENDBRANCH  25  26
ENDBRANCH   1  25
TORSDOF 16
ENDMDL
MODEL 3
REMARK VINA RESULT:     -12.2      6.579     12.146
REMARK SMILES C[C@H]1SC[C@H](C(=O)NCCCCNC(=O)c2ccc(-c3c4nc(c(-c5c(F)cc(S(=O)(=O)[O-])cc5F)c5ccc([nH]5)c(-c5c(F)cc(S(=O)(=O)[O-])cc5F)c5nc(c(-c6c(F)cc(S(=O)(=O)[O-])cc6F)c6ccc3[nH]6)C=C5)C=C4)cc2)N1C(=O)[C@@H]1CSc2ccccc21
REMARK SMILES IDX 11 1 10 2 9 3 8 4 6 5 7 6 5 8 1 9 2 10 3 11 82 12 4 13 83 14
REMARK SMILES IDX 84 15 85 16 86 17 93 18 87 19 88 20 92 21 89 22 91 23 90 24
REMARK SMILES IDX 12 25 13 26 14 27 15 29 16 30 17 31 81 32 18 33 80 34 19 35
REMARK SMILES IDX 20 36 21 37 74 38 22 39 79 40 73 41 75 42 23 43 78 44 72 45
REMARK SMILES IDX 71 46 24 48 58 49 37 50 57 51 38 52 41 53 56 54 76 55 39 56
REMARK SMILES IDX 40 57 55 59 77 60 42 61 25 62 26 63 35 64 27 65 28 66 34 67
REMARK SMILES IDX 36 68 29 69 30 70 31 71 32 72 33 73 59 74 60 75 69 76 61 77
REMARK SMILES IDX 62 78 68 79 70 80 63 81 64 82 65 83 66 84 67 85 43 86 44 87
REMARK SMILES IDX 53 88 45 89 46 90 52 91 54 92 47 93 48 94 49 95 50 96 51 97
REMARK H PARENT 8 7 13 28 75 47 41 58
REMARK Flexibility Score: inf
ROOT
ATOM      1  C   UNL A   1      34.745  32.162  28.498  1.00  0.00     0.023 C 
ENDROOT
BRANCH   1   2
ATOM      2  C   UNL A   1      34.475  30.813  27.835  1.00  0.00     0.023 C 
BRANCH   2   3
ATOM      3  C   UNL A   1      33.130  30.707  27.124  1.00  0.00     0.116 C 
BRANCH   3   4
ATOM      4  N   UNL A   1      32.413  29.509  27.500  1.00  0.00    -0.354 N 
ATOM      5  C   UNL A   1      32.317  28.309  26.860  1.00  0.00     0.243 C 
ATOM      6  O   UNL A   1      31.459  27.518  27.265  1.00  0.00    -0.273 OA
ATOM      7  H   UNL A   1      31.915  29.570  28.348  1.00  0.00     0.163 HD
BRANCH   5   8
ATOM      8  C   UNL A   1      33.072  28.022  25.550  1.00  0.00     0.185 C 
ATOM      9  C   UNL A   1      34.077  27.905  22.573  1.00  0.00     0.043 C 
ATOM     10  C   UNL A   1      33.025  27.080  23.317  1.00  0.00     0.141 C 
ATOM     11  S   UNL A   1      33.905  25.800  24.249  1.00  0.00    -0.135 SA
ATOM     12  N   UNL A   1      32.297  27.862  24.303  1.00  0.00    -0.318 N 
ATOM     13  C   UNL A   1      33.880  26.736  25.797  1.00  0.00     0.107 C 
BRANCH  12  14
ATOM     14  C   UNL A   1      31.293  28.775  24.011  1.00  0.00     0.232 C 
ATOM     15  O   UNL A   1      31.078  29.718  24.781  1.00  0.00    -0.274 OA
BRANCH  14  16
ATOM     16  C   UNL A   1      30.364  28.623  22.789  1.00  0.00     0.120 C 
ATOM     17  C   UNL A   1      30.236  29.881  21.917  1.00  0.00     0.093 C 
ATOM     18  C   UNL A   1      28.987  28.122  23.123  1.00  0.00    -0.021 A 
ATOM     19  S   UNL A   1      28.491  30.416  21.902  1.00  0.00    -0.125 SA
ATOM     20  C   UNL A   1      27.951  29.000  22.806  1.00  0.00     0.011 A 
ATOM     21  C   UNL A   1      28.720  26.910  23.753  1.00  0.00     0.006 A 
ATOM     22  C   UNL A   1      26.657  28.749  23.234  1.00  0.00     0.015 A 
ATOM     23  C   UNL A   1      27.416  26.638  24.163  1.00  0.00     0.000 A 
ATOM     24  C   UNL A   1      26.395  27.568  23.933  1.00  0.00     0.001 A 
ENDBRANCH  14  16
ENDBRANCH  12  14
ENDBRANCH   5   8
ENDBRANCH   3   4
ENDBRANCH   2   3
ENDBRANCH   1   2
BRANCH   1  25
ATOM     25  C   UNL A   1      35.928  32.188  29.459  1.00  0.00     0.116 C 
BRANCH  25  26
ATOM     26  N   UNL A   1      35.756  31.288  30.589  1.00  0.00    -0.352 N 
ATOM     27  C   UNL A   1      36.579  30.285  31.041  1.00  0.00     0.251 C 
ATOM     28  H   UNL A   1      34.927  31.417  31.104  1.00  0.00     0.163 HD
ATOM     29  O   UNL A   1      36.185  29.539  31.931  1.00  0.00    -0.269 OA
BRANCH  27  30
ATOM     30  C   UNL A   1      37.916  30.087  30.437  1.00  0.00     0.039 A 
ATOM     31  C   UNL A   1      39.017  29.955  31.286  1.00  0.00     0.014 A 
ATOM     32  C   UNL A   1      38.092  30.031  29.051  1.00  0.00     0.014 A 
ATOM     33  C   UNL A   1      40.280  29.707  30.747  1.00  0.00     0.010 A 
ATOM     34  C   UNL A   1      39.338  29.703  28.519  1.00  0.00     0.010 A 
ATOM     35  C   UNL A   1      40.447  29.541  29.361  1.00  0.00    -0.014 A 
BRANCH  35  36
ATOM     36  C   UNL A   1      41.776  29.175  28.803  1.00  0.00     0.031 A 
ATOM     37  C   UNL A   1      42.878  30.195  28.696  1.00  0.00     0.074 A 
ATOM     38  C   UNL A   1      41.980  27.915  28.368  1.00  0.00     0.049 A 
ATOM     39  N   UNL A   1      44.110  30.037  28.284  1.00  0.00    -0.248 NA
ATOM     40  C   UNL A   1      42.549  31.578  29.076  1.00  0.00     0.031 C 
ATOM     41  C   UNL A   1      40.968  26.854  28.348  1.00  0.00     0.029 A 
ATOM     42  N   UNL A   1      43.104  27.306  27.870  1.00  0.00    -0.354 N 
ATOM     43  C   UNL A   1      44.701  31.293  28.355  1.00  0.00     0.074 A 
ATOM     44  C   UNL A   1      43.675  32.216  28.790  1.00  0.00     0.031 C 
ATOM     45  C   UNL A   1      41.528  25.719  27.904  1.00  0.00     0.029 A 
ATOM     46  C   UNL A   1      42.928  25.974  27.580  1.00  0.00     0.049 A 
ATOM     47  H   UNL A   1      43.956  27.780  27.732  1.00  0.00     0.167 HD
ATOM     48  C   UNL A   1      45.987  31.641  28.108  1.00  0.00     0.037 A 
ATOM     49  C   UNL A   1      43.798  25.056  27.117  1.00  0.00     0.037 A 
ATOM     50  C   UNL A   1      47.007  30.714  27.688  1.00  0.00     0.049 A 
ATOM     51  C   UNL A   1      45.226  25.461  26.876  1.00  0.00     0.074 A 
ATOM     52  C   UNL A   1      48.352  30.955  27.465  1.00  0.00     0.029 A 
ATOM     53  N   UNL A   1      46.796  29.368  27.420  1.00  0.00    -0.354 N 
ATOM     54  N   UNL A   1      45.787  26.637  27.027  1.00  0.00    -0.248 NA
ATOM     55  C   UNL A   1      46.143  24.409  26.420  1.00  0.00     0.031 C 
ATOM     56  C   UNL A   1      48.944  29.768  27.018  1.00  0.00     0.029 A 
ATOM     57  C   UNL A   1      47.980  28.771  27.016  1.00  0.00     0.049 A 
ATOM     58  H   UNL A   1      45.931  28.905  27.505  1.00  0.00     0.167 HD
ATOM     59  C   UNL A   1      47.129  26.462  26.705  1.00  0.00     0.074 A 
ATOM     60  C   UNL A   1      47.297  25.060  26.377  1.00  0.00     0.031 C 
ATOM     61  C   UNL A   1      48.131  27.377  26.681  1.00  0.00     0.037 A 
BRANCH  48  62
ATOM     62  C   UNL A   1      46.368  33.086  28.293  1.00  0.00     0.058 A 
ATOM     63  C   UNL A   1      46.286  34.013  27.238  1.00  0.00     0.135 A 
ATOM     64  C   UNL A   1      46.784  33.564  29.547  1.00  0.00     0.135 A 
ATOM     65  F   UNL A   1      45.910  33.611  26.014  1.00  0.00    -0.206 F 
ATOM     66  C   UNL A   1      46.629  35.349  27.413  1.00  0.00     0.059 A 
ATOM     67  C   UNL A   1      47.103  34.903  29.752  1.00  0.00     0.059 A 
ATOM     68  F   UNL A   1      46.881  32.725  30.591  1.00  0.00    -0.206 F 
ATOM     69  C   UNL A   1      47.036  35.786  28.675  1.00  0.00     0.060 A 
BRANCH  69  70
ATOM     70  S   UNL A   1      47.467  37.527  28.886  1.00  0.00     0.124 S 
ATOM     71  O   UNL A   1      48.666  37.631  28.060  1.00  0.00    -0.237 OA
ATOM     72  O   UNL A   1      46.282  38.206  28.372  1.00  0.00    -0.237 OA
ATOM     73  O   UNL A   1      47.684  37.651  30.324  1.00  0.00    -0.744 OA
ENDBRANCH  69  70
ENDBRANCH  48  62
BRANCH  49  74
ATOM     74  C   UNL A   1      43.350  23.655  26.890  1.00  0.00     0.058 A 
ATOM     75  C   UNL A   1      43.124  23.166  25.594  1.00  0.00     0.135 A 
ATOM     76  C   UNL A   1      43.152  22.773  27.964  1.00  0.00     0.135 A 
ATOM     77  F   UNL A   1      43.295  23.971  24.535  1.00  0.00    -0.206 F 
ATOM     78  C   UNL A   1      42.699  21.861  25.370  1.00  0.00     0.059 A 
ATOM     79  C   UNL A   1      42.755  21.456  27.765  1.00  0.00     0.059 A 
ATOM     80  F   UNL A   1      43.373  23.185  29.222  1.00  0.00    -0.206 F 
ATOM     81  C   UNL A   1      42.519  21.012  26.463  1.00  0.00     0.060 A 
BRANCH  81  82
ATOM     82  S   UNL A   1      42.014  19.305  26.160  1.00  0.00     0.124 S 
ATOM     83  O   UNL A   1      42.820  18.961  24.996  1.00  0.00    -0.237 OA
ATOM     84  O   UNL A   1      42.384  18.649  27.411  1.00  0.00    -0.237 OA
ATOM     85  O   UNL A   1      40.577  19.418  25.923  1.00  0.00    -0.744 OA
ENDBRANCH  81  82
ENDBRANCH  49  74
BRANCH  61  86
ATOM     86  C   UNL A   1      49.502  26.876  26.312  1.00  0.00     0.058 A 
ATOM     87  C   UNL A   1      50.038  27.060  25.027  1.00  0.00     0.135 A 
ATOM     88  C   UNL A   1      50.288  26.194  27.256  1.00  0.00     0.135 A 
ATOM     89  F   UNL A   1      49.329  27.705  24.086  1.00  0.00    -0.206 F 
ATOM     90  C   UNL A   1      51.277  26.538  24.674  1.00  0.00     0.059 A 
ATOM     91  C   UNL A   1      51.545  25.693  26.935  1.00  0.00     0.059 A 
ATOM     92  F   UNL A   1      49.834  26.004  28.505  1.00  0.00    -0.206 F 
ATOM     93  C   UNL A   1      52.020  25.846  25.633  1.00  0.00     0.060 A 
BRANCH  93  94
ATOM     94  S   UNL A   1      53.615  25.148  25.158  1.00  0.00     0.124 S 
ATOM     95  O   UNL A   1      54.516  25.815  26.092  1.00  0.00    -0.237 OA
ATOM     96  O   UNL A   1      53.413  23.720  25.382  1.00  0.00    -0.237 OA
ATOM     97  O   UNL A   1      53.755  25.543  23.759  1.00  0.00    -0.744 OA
ENDBRANCH  93  94
ENDBRANCH  61  86
ENDBRANCH  35  36
ENDBRANCH  27  30
ENDBRANCH  25  26
ENDBRANCH   1  25
TORSDOF 16
ENDMDL
