MODEL 1
REMARK VINA RESULT:     -12.4      0.000      0.000
REMARK SMILES CC1=C[C@@H]([C@@H]2N=N[C@H](S)N2/N=C/c2ccc(C(=O)NCCCCNC(=O)c3ccc(-c4c5nc(c(-c6c(F)cc(S(=O)(=O)[O-])cc6F)c6ccc([nH]6)c(-c6c(F)cc(S(=O)(=O)[O-])cc6F)c6nc(c(-c7c(F)cc(S(=O)(=O)[O-])cc7F)c7ccc4[nH]7)C=C6)C=C5)cc3)cc2)N=N1
REMARK SMILES IDX 21 1 20 2 19 3 17 4 18 5 16 7 13 8 14 9 94 10 15 11 93 12
REMARK SMILES IDX 12 13 11 14 10 15 5 16 6 17 7 18 8 19 4 20 1 21 2 22 3 23
REMARK SMILES IDX 96 24 95 25 9 26 22 28 23 29 24 30 25 31 26 33 27 34 28 35
REMARK SMILES IDX 92 36 29 37 91 38 30 39 31 40 32 41 85 42 33 43 90 44 84 45
REMARK SMILES IDX 86 46 34 47 89 48 83 49 82 50 35 52 69 53 48 54 68 55 49 56
REMARK SMILES IDX 52 57 67 58 87 59 50 60 51 61 66 63 88 64 53 65 36 66 37 67
REMARK SMILES IDX 46 68 38 69 39 70 45 71 47 72 40 73 41 74 42 75 43 76 44 77
REMARK SMILES IDX 70 78 71 79 80 80 72 81 73 82 79 83 81 84 74 85 75 86 76 87
REMARK SMILES IDX 77 88 78 89 54 90 55 91 64 92 56 93 57 94 63 95 65 96 58 97
REMARK SMILES IDX 59 98 60 99 61 100 62 101
REMARK H PARENT 19 6 9 27 24 32 86 51 52 62
REMARK Flexibility Score: inf
ROOT
ATOM      1  C   UNL A   1      39.902  21.625  26.330  1.00  0.00     0.023 C 
ENDROOT
BRANCH   1   2
ATOM      2  C   UNL A   1      38.628  22.197  25.692  1.00  0.00     0.116 C 
BRANCH   2   3
ATOM      3  N   UNL A   1      37.697  21.137  25.363  1.00  0.00    -0.352 N 
ATOM      4  C   UNL A   1      36.357  21.140  25.076  1.00  0.00     0.251 C 
ATOM      5  O   UNL A   1      35.809  20.052  24.902  1.00  0.00    -0.269 OA
ATOM      6  H   UNL A   1      38.104  20.241  25.344  1.00  0.00     0.163 HD
BRANCH   4   7
ATOM      7  C   UNL A   1      35.542  22.382  24.930  1.00  0.00     0.039 A 
ATOM      8  C   UNL A   1      34.054  24.708  24.452  1.00  0.00    -0.005 A 
ATOM      9  C   UNL A   1      34.570  23.983  23.375  1.00  0.00     0.010 A 
ATOM     10  C   UNL A   1      34.255  24.279  25.757  1.00  0.00     0.010 A 
ATOM     11  C   UNL A   1      35.321  22.833  23.618  1.00  0.00     0.014 A 
ATOM     12  C   UNL A   1      34.965  23.100  25.986  1.00  0.00     0.014 A 
BRANCH   8  13
ATOM     13  C   UNL A   1      33.213  25.877  24.167  1.00  0.00     0.141 C 
ATOM     14  N   UNL A   1      31.942  25.924  24.419  1.00  0.00    -0.180 NA
BRANCH  14  15
ATOM     15  N   UNL A   1      31.275  27.048  24.040  1.00  0.00    -0.233 NA
ATOM     16  C   UNL A   1      31.937  28.359  23.985  1.00  0.00     0.274 C 
ATOM     17  N   UNL A   1      31.358  29.089  22.816  1.00  0.00    -0.161 NA
ATOM     18  N   UNL A   1      30.340  28.497  22.387  1.00  0.00    -0.153 NA
ATOM     19  C   UNL A   1      30.225  27.173  23.025  1.00  0.00     0.298 C 
BRANCH  16  20
ATOM     20  C   UNL A   1      31.725  29.226  25.278  1.00  0.00     0.201 C 
ATOM     21  C   UNL A   1      34.832  29.166  27.224  1.00  0.00     0.068 C 
ATOM     22  C   UNL A   1      33.432  29.181  26.728  1.00  0.00     0.058 C 
ATOM     23  C   UNL A   1      32.973  29.920  25.719  1.00  0.00     0.031 C 
ATOM     24  N   UNL A   1      32.507  28.273  27.176  1.00  0.00    -0.160 NA
ATOM     25  N   UNL A   1      31.471  28.320  26.446  1.00  0.00    -0.177 NA
ENDBRANCH  16  20
BRANCH  19  26
ATOM     26  S   UNL A   1      28.613  26.771  23.784  1.00  0.00    -0.128 SA
ATOM     27  H   UNL A   1      27.685  27.682  23.389  1.00  0.00     0.106 HD
ENDBRANCH  19  26
ENDBRANCH  14  15
ENDBRANCH   8  13
ENDBRANCH   4   7
ENDBRANCH   2   3
ENDBRANCH   1   2
BRANCH   1  28
ATOM     28  C   UNL A   1      40.376  22.338  27.604  1.00  0.00     0.023 C 
BRANCH  28  29
ATOM     29  C   UNL A   1      41.870  22.225  27.871  1.00  0.00     0.116 C 
BRANCH  29  30
ATOM     30  N   UNL A   1      42.691  22.373  26.656  1.00  0.00    -0.352 N 
ATOM     31  C   UNL A   1      42.772  23.457  25.794  1.00  0.00     0.251 C 
ATOM     32  H   UNL A   1      43.256  21.601  26.426  1.00  0.00     0.163 HD
ATOM     33  O   UNL A   1      43.171  23.318  24.635  1.00  0.00    -0.269 OA
BRANCH  31  34
ATOM     34  C   UNL A   1      42.406  24.783  26.310  1.00  0.00     0.039 A 
ATOM     35  C   UNL A   1      41.296  25.527  25.899  1.00  0.00     0.014 A 
ATOM     36  C   UNL A   1      43.223  25.245  27.328  1.00  0.00     0.014 A 
ATOM     37  C   UNL A   1      41.027  26.725  26.562  1.00  0.00     0.010 A 
ATOM     38  C   UNL A   1      42.732  26.165  28.191  1.00  0.00     0.010 A 
ATOM     39  C   UNL A   1      41.775  27.032  27.705  1.00  0.00    -0.014 A 
BRANCH  39  40
ATOM     40  C   UNL A   1      41.664  28.257  28.471  1.00  0.00     0.031 A 
ATOM     41  C   UNL A   1      42.734  29.244  28.219  1.00  0.00     0.074 A 
ATOM     42  C   UNL A   1      40.502  28.569  29.096  1.00  0.00     0.049 A 
ATOM     43  N   UNL A   1      43.695  29.570  29.013  1.00  0.00    -0.248 NA
ATOM     44  C   UNL A   1      42.865  29.806  26.866  1.00  0.00     0.031 C 
ATOM     45  C   UNL A   1      39.226  27.831  29.124  1.00  0.00     0.029 A 
ATOM     46  N   UNL A   1      40.192  29.705  29.767  1.00  0.00    -0.354 N 
ATOM     47  C   UNL A   1      44.425  30.550  28.350  1.00  0.00     0.074 A 
ATOM     48  C   UNL A   1      44.011  30.485  26.973  1.00  0.00     0.031 C 
ATOM     49  C   UNL A   1      38.241  28.635  29.583  1.00  0.00     0.029 A 
ATOM     50  C   UNL A   1      38.835  29.878  30.034  1.00  0.00     0.049 A 
ATOM     51  H   UNL A   1      40.874  30.359  30.046  1.00  0.00     0.167 HD
ATOM     52  C   UNL A   1      45.144  31.482  29.038  1.00  0.00     0.037 A 
ATOM     53  C   UNL A   1      38.269  30.997  30.556  1.00  0.00     0.037 A 
ATOM     54  C   UNL A   1      45.194  31.146  30.443  1.00  0.00     0.049 A 
ATOM     55  C   UNL A   1      39.373  31.741  31.234  1.00  0.00     0.074 A 
ATOM     56  C   UNL A   1      45.707  30.083  31.158  1.00  0.00     0.029 A 
ATOM     57  N   UNL A   1      44.273  31.752  31.270  1.00  0.00    -0.354 N 
ATOM     58  N   UNL A   1      40.016  31.272  32.275  1.00  0.00    -0.248 NA
ATOM     59  C   UNL A   1      40.110  32.721  30.445  1.00  0.00     0.031 C 
ATOM     60  C   UNL A   1      44.726  29.808  32.156  1.00  0.00     0.029 A 
ATOM     61  C   UNL A   1      43.720  30.772  32.058  1.00  0.00     0.049 A 
ATOM     62  H   UNL A   1      44.052  32.711  31.290  1.00  0.00     0.167 HD
ATOM     63  C   UNL A   1      41.354  31.572  32.044  1.00  0.00     0.074 A 
ATOM     64  C   UNL A   1      41.341  32.519  30.929  1.00  0.00     0.031 C 
ATOM     65  C   UNL A   1      42.361  30.802  32.562  1.00  0.00     0.037 A 
BRANCH  52  66
ATOM     66  C   UNL A   1      45.523  32.853  28.542  1.00  0.00     0.058 A 
ATOM     67  C   UNL A   1      46.886  33.215  28.508  1.00  0.00     0.135 A 
ATOM     68  C   UNL A   1      44.609  33.911  28.345  1.00  0.00     0.135 A 
ATOM     69  F   UNL A   1      47.845  32.287  28.670  1.00  0.00    -0.206 F 
ATOM     70  C   UNL A   1      47.308  34.537  28.380  1.00  0.00     0.059 A 
ATOM     71  C   UNL A   1      45.010  35.230  28.159  1.00  0.00     0.059 A 
ATOM     72  F   UNL A   1      43.285  33.737  28.419  1.00  0.00    -0.206 F 
ATOM     73  C   UNL A   1      46.358  35.541  28.225  1.00  0.00     0.060 A 
BRANCH  73  74
ATOM     74  S   UNL A   1      46.892  37.259  28.186  1.00  0.00     0.124 S 
ATOM     75  O   UNL A   1      45.627  37.952  27.963  1.00  0.00    -0.237 OA
ATOM     76  O   UNL A   1      47.485  37.422  29.509  1.00  0.00    -0.237 OA
ATOM     77  O   UNL A   1      47.835  37.294  27.073  1.00  0.00    -0.744 OA
ENDBRANCH  73  74
ENDBRANCH  52  66
BRANCH  53  78
ATOM     78  C   UNL A   1      36.966  31.609  30.169  1.00  0.00     0.058 A 
ATOM     79  C   UNL A   1      36.048  32.079  31.126  1.00  0.00     0.135 A 
ATOM     80  C   UNL A   1      36.706  31.986  28.834  1.00  0.00     0.135 A 
ATOM     81  F   UNL A   1      36.223  31.788  32.425  1.00  0.00    -0.206 F 
ATOM     82  C   UNL A   1      34.964  32.904  30.786  1.00  0.00     0.059 A 
ATOM     83  C   UNL A   1      35.632  32.800  28.471  1.00  0.00     0.059 A 
ATOM     84  F   UNL A   1      37.544  31.645  27.844  1.00  0.00    -0.206 F 
ATOM     85  C   UNL A   1      34.777  33.277  29.455  1.00  0.00     0.060 A 
BRANCH  85  86
ATOM     86  S   UNL A   1      33.494  34.481  29.026  1.00  0.00     0.124 S 
ATOM     87  O   UNL A   1      32.923  34.794  30.331  1.00  0.00    -0.237 OA
ATOM     88  O   UNL A   1      34.269  35.545  28.397  1.00  0.00    -0.237 OA
ATOM     89  O   UNL A   1      32.619  33.736  28.125  1.00  0.00    -0.744 OA
ENDBRANCH  85  86
ENDBRANCH  53  78
BRANCH  65  90
ATOM     90  C   UNL A   1      42.010  29.734  33.573  1.00  0.00     0.058 A 
ATOM     91  C   UNL A   1      41.759  28.387  33.252  1.00  0.00     0.135 A 
ATOM     92  C   UNL A   1      42.144  30.043  34.935  1.00  0.00     0.135 A 
ATOM     93  F   UNL A   1      41.721  27.981  31.978  1.00  0.00    -0.206 F 
ATOM     94  C   UNL A   1      41.622  27.402  34.232  1.00  0.00     0.059 A 
ATOM     95  C   UNL A   1      42.039  29.073  35.928  1.00  0.00     0.059 A 
ATOM     96  F   UNL A   1      42.451  31.296  35.309  1.00  0.00    -0.206 F 
ATOM     97  C   UNL A   1      41.768  27.755  35.571  1.00  0.00     0.060 A 
BRANCH  97  98
ATOM     98  S   UNL A   1      41.676  26.468  36.835  1.00  0.00     0.124 S 
ATOM     99  O   UNL A   1      40.437  26.807  37.527  1.00  0.00    -0.237 OA
ATOM    100  O   UNL A   1      41.643  25.243  36.042  1.00  0.00    -0.237 OA
ATOM    101  O   UNL A   1      42.898  26.665  37.611  1.00  0.00    -0.744 OA
ENDBRANCH  97  98
ENDBRANCH  65  90
ENDBRANCH  39  40
ENDBRANCH  31  34
ENDBRANCH  29  30
ENDBRANCH  28  29
ENDBRANCH   1  28
TORSDOF 18
ENDMDL
MODEL 2
REMARK VINA RESULT:     -12.3      2.397      3.300
REMARK SMILES CC1=C[C@@H]([C@@H]2N=N[C@H](S)N2/N=C/c2ccc(C(=O)NCCCCNC(=O)c3ccc(-c4c5nc(c(-c6c(F)cc(S(=O)(=O)[O-])cc6F)c6ccc([nH]6)c(-c6c(F)cc(S(=O)(=O)[O-])cc6F)c6nc(c(-c7c(F)cc(S(=O)(=O)[O-])cc7F)c7ccc4[nH]7)C=C6)C=C5)cc3)cc2)N=N1
REMARK SMILES IDX 21 1 20 2 19 3 17 4 18 5 16 7 13 8 14 9 94 10 15 11 93 12
REMARK SMILES IDX 12 13 11 14 10 15 5 16 6 17 7 18 8 19 4 20 1 21 2 22 3 23
REMARK SMILES IDX 96 24 95 25 9 26 22 28 23 29 24 30 25 31 26 33 27 34 28 35
REMARK SMILES IDX 92 36 29 37 91 38 30 39 31 40 32 41 85 42 33 43 90 44 84 45
REMARK SMILES IDX 86 46 34 47 89 48 83 49 82 50 35 52 69 53 48 54 68 55 49 56
REMARK SMILES IDX 52 57 67 58 87 59 50 60 51 61 66 63 88 64 53 65 36 66 37 67
REMARK SMILES IDX 46 68 38 69 39 70 45 71 47 72 40 73 41 74 42 75 43 76 44 77
REMARK SMILES IDX 70 78 71 79 80 80 72 81 73 82 79 83 81 84 74 85 75 86 76 87
REMARK SMILES IDX 77 88 78 89 54 90 55 91 64 92 56 93 57 94 63 95 65 96 58 97
REMARK SMILES IDX 59 98 60 99 61 100 62 101
REMARK H PARENT 19 6 9 27 24 32 86 51 52 62
REMARK Flexibility Score: inf
ROOT
ATOM      1  C   UNL A   1      40.567  21.080  26.880  1.00  0.00     0.023 C 
ENDROOT
BRANCH   1   2
ATOM      2  C   UNL A   1      39.417  21.705  26.077  1.00  0.00     0.116 C 
BRANCH   2   3
ATOM      3  N   UNL A   1      38.523  20.681  25.577  1.00  0.00    -0.352 N 
ATOM      4  C   UNL A   1      37.216  20.716  25.166  1.00  0.00     0.251 C 
ATOM      5  O   UNL A   1      36.689  19.649  24.852  1.00  0.00    -0.269 OA
ATOM      6  H   UNL A   1      38.932  19.788  25.523  1.00  0.00     0.163 HD
BRANCH   4   7
ATOM      7  C   UNL A   1      36.417  21.971  25.044  1.00  0.00     0.039 A 
ATOM      8  C   UNL A   1      34.975  24.335  24.616  1.00  0.00    -0.005 A 
ATOM      9  C   UNL A   1      35.571  23.683  23.534  1.00  0.00     0.010 A 
ATOM     10  C   UNL A   1      35.073  23.814  25.899  1.00  0.00     0.010 A 
ATOM     11  C   UNL A   1      36.300  22.514  23.754  1.00  0.00     0.014 A 
ATOM     12  C   UNL A   1      35.761  22.617  26.099  1.00  0.00     0.014 A 
BRANCH   8  13
ATOM     13  C   UNL A   1      34.160  25.527  24.350  1.00  0.00     0.141 C 
ATOM     14  N   UNL A   1      33.775  26.352  25.274  1.00  0.00    -0.180 NA
BRANCH  14  15
ATOM     15  N   UNL A   1      32.966  27.378  24.892  1.00  0.00    -0.233 NA
ATOM     16  C   UNL A   1      31.684  27.643  25.561  1.00  0.00     0.274 C 
ATOM     17  N   UNL A   1      31.510  29.127  25.593  1.00  0.00    -0.161 NA
ATOM     18  N   UNL A   1      32.351  29.686  24.851  1.00  0.00    -0.153 NA
ATOM     19  C   UNL A   1      33.360  28.704  24.411  1.00  0.00     0.298 C 
BRANCH  16  20
ATOM     20  C   UNL A   1      30.448  27.005  24.829  1.00  0.00     0.201 C 
ATOM     21  C   UNL A   1      30.967  23.380  24.642  1.00  0.00     0.068 C 
ATOM     22  C   UNL A   1      30.629  24.810  24.422  1.00  0.00     0.058 C 
ATOM     23  C   UNL A   1      30.121  25.638  25.333  1.00  0.00     0.031 C 
ATOM     24  N   UNL A   1      30.988  25.459  23.267  1.00  0.00    -0.160 NA
ATOM     25  N   UNL A   1      30.815  26.708  23.405  1.00  0.00    -0.177 NA
ENDBRANCH  16  20
BRANCH  19  26
ATOM     26  S   UNL A   1      33.681  28.615  22.615  1.00  0.00    -0.128 SA
ATOM     27  H   UNL A   1      32.502  28.502  21.948  1.00  0.00     0.106 HD
ENDBRANCH  19  26
ENDBRANCH  14  15
ENDBRANCH   8  13
ENDBRANCH   4   7
ENDBRANCH   2   3
ENDBRANCH   1   2
BRANCH   1  28
ATOM     28  C   UNL A   1      41.359  19.985  26.150  1.00  0.00     0.023 C 
BRANCH  28  29
ATOM     29  C   UNL A   1      42.699  19.646  26.787  1.00  0.00     0.116 C 
BRANCH  29  30
ATOM     30  N   UNL A   1      43.815  19.639  25.824  1.00  0.00    -0.352 N 
ATOM     31  C   UNL A   1      44.276  20.676  25.027  1.00  0.00     0.251 C 
ATOM     32  H   UNL A   1      44.296  18.785  25.735  1.00  0.00     0.163 HD
ATOM     33  O   UNL A   1      44.932  20.449  24.007  1.00  0.00    -0.269 OA
BRANCH  31  34
ATOM     34  C   UNL A   1      43.996  22.055  25.451  1.00  0.00     0.039 A 
ATOM     35  C   UNL A   1      43.109  22.927  24.812  1.00  0.00     0.014 A 
ATOM     36  C   UNL A   1      44.637  22.435  26.617  1.00  0.00     0.014 A 
ATOM     37  C   UNL A   1      42.875  24.171  25.400  1.00  0.00     0.010 A 
ATOM     38  C   UNL A   1      44.107  23.439  27.354  1.00  0.00     0.010 A 
ATOM     39  C   UNL A   1      43.401  24.411  26.675  1.00  0.00    -0.014 A 
BRANCH  39  40
ATOM     40  C   UNL A   1      43.301  25.663  27.397  1.00  0.00     0.031 A 
ATOM     41  C   UNL A   1      44.327  26.666  27.043  1.00  0.00     0.074 A 
ATOM     42  C   UNL A   1      42.170  25.970  28.077  1.00  0.00     0.049 A 
ATOM     43  N   UNL A   1      45.323  27.048  27.764  1.00  0.00    -0.248 NA
ATOM     44  C   UNL A   1      44.363  27.175  25.663  1.00  0.00     0.031 C 
ATOM     45  C   UNL A   1      40.919  25.202  28.210  1.00  0.00     0.029 A 
ATOM     46  N   UNL A   1      41.868  27.125  28.720  1.00  0.00    -0.354 N 
ATOM     47  C   UNL A   1      45.985  28.018  27.021  1.00  0.00     0.074 A 
ATOM     48  C   UNL A   1      45.493  27.887  25.675  1.00  0.00     0.031 C 
ATOM     49  C   UNL A   1      39.941  25.999  28.696  1.00  0.00     0.029 A 
ATOM     50  C   UNL A   1      40.525  27.274  29.061  1.00  0.00     0.049 A 
ATOM     51  H   UNL A   1      42.547  27.807  28.932  1.00  0.00     0.167 HD
ATOM     52  C   UNL A   1      46.718  28.996  27.627  1.00  0.00     0.037 A 
ATOM     53  C   UNL A   1      39.960  28.399  29.571  1.00  0.00     0.037 A 
ATOM     54  C   UNL A   1      46.860  28.719  29.038  1.00  0.00     0.049 A 
ATOM     55  C   UNL A   1      41.080  29.197  30.152  1.00  0.00     0.074 A 
ATOM     56  C   UNL A   1      47.443  27.700  29.763  1.00  0.00     0.029 A 
ATOM     57  N   UNL A   1      45.972  29.335  29.894  1.00  0.00    -0.354 N 
ATOM     58  N   UNL A   1      41.796  28.789  31.170  1.00  0.00    -0.248 NA
ATOM     59  C   UNL A   1      41.742  30.163  29.282  1.00  0.00     0.031 C 
ATOM     60  C   UNL A   1      46.530  27.442  30.828  1.00  0.00     0.029 A 
ATOM     61  C   UNL A   1      45.493  28.375  30.753  1.00  0.00     0.049 A 
ATOM     62  H   UNL A   1      45.726  30.288  29.890  1.00  0.00     0.167 HD
ATOM     63  C   UNL A   1      43.109  29.113  30.848  1.00  0.00     0.074 A 
ATOM     64  C   UNL A   1      43.005  30.013  29.699  1.00  0.00     0.031 C 
ATOM     65  C   UNL A   1      44.166  28.390  31.335  1.00  0.00     0.037 A 
BRANCH  52  66
ATOM     66  C   UNL A   1      47.028  30.355  27.055  1.00  0.00     0.058 A 
ATOM     67  C   UNL A   1      48.363  30.812  27.068  1.00  0.00     0.135 A 
ATOM     68  C   UNL A   1      46.056  31.327  26.735  1.00  0.00     0.135 A 
ATOM     69  F   UNL A   1      49.372  29.970  27.345  1.00  0.00    -0.206 F 
ATOM     70  C   UNL A   1      48.699  32.150  26.868  1.00  0.00     0.059 A 
ATOM     71  C   UNL A   1      46.375  32.657  26.478  1.00  0.00     0.059 A 
ATOM     72  F   UNL A   1      44.745  31.063  26.752  1.00  0.00    -0.206 F 
ATOM     73  C   UNL A   1      47.692  33.069  26.593  1.00  0.00     0.060 A 
BRANCH  73  74
ATOM     74  S   UNL A   1      48.106  34.816  26.460  1.00  0.00     0.124 S 
ATOM     75  O   UNL A   1      49.023  34.812  25.325  1.00  0.00    -0.237 OA
ATOM     76  O   UNL A   1      46.799  35.420  26.225  1.00  0.00    -0.237 OA
ATOM     77  O   UNL A   1      48.707  35.118  27.755  1.00  0.00    -0.744 OA
ENDBRANCH  73  74
ENDBRANCH  52  66
BRANCH  53  78
ATOM     78  C   UNL A   1      38.619  28.961  29.239  1.00  0.00     0.058 A 
ATOM     79  C   UNL A   1      37.659  29.237  30.230  1.00  0.00     0.135 A 
ATOM     80  C   UNL A   1      38.347  29.487  27.958  1.00  0.00     0.135 A 
ATOM     81  F   UNL A   1      37.841  28.795  31.484  1.00  0.00    -0.206 F 
ATOM     82  C   UNL A   1      36.522  30.019  29.975  1.00  0.00     0.059 A 
ATOM     83  C   UNL A   1      37.220  30.262  27.680  1.00  0.00     0.059 A 
ATOM     84  F   UNL A   1      39.219  29.337  26.950  1.00  0.00    -0.206 F 
ATOM     85  C   UNL A   1      36.323  30.546  28.699  1.00  0.00     0.060 A 
BRANCH  85  86
ATOM     86  S   UNL A   1      34.959  31.701  28.402  1.00  0.00     0.124 S 
ATOM     87  O   UNL A   1      34.008  30.867  27.677  1.00  0.00    -0.237 OA
ATOM     88  O   UNL A   1      34.573  32.077  29.758  1.00  0.00    -0.237 OA
ATOM     89  O   UNL A   1      35.581  32.764  27.617  1.00  0.00    -0.744 OA
ENDBRANCH  85  86
ENDBRANCH  53  78
BRANCH  65  90
ATOM     90  C   UNL A   1      43.905  27.357  32.407  1.00  0.00     0.058 A 
ATOM     91  C   UNL A   1      43.835  25.971  32.173  1.00  0.00     0.135 A 
ATOM     92  C   UNL A   1      43.942  27.769  33.747  1.00  0.00     0.135 A 
ATOM     93  F   UNL A   1      43.900  25.480  30.931  1.00  0.00    -0.206 F 
ATOM     94  C   UNL A   1      43.776  25.043  33.215  1.00  0.00     0.059 A 
ATOM     95  C   UNL A   1      43.914  26.861  34.803  1.00  0.00     0.059 A 
ATOM     96  F   UNL A   1      44.079  29.073  34.042  1.00  0.00    -0.206 F 
ATOM     97  C   UNL A   1      43.821  25.499  34.531  1.00  0.00     0.060 A 
BRANCH  97  98
ATOM     98  S   UNL A   1      43.833  24.297  35.878  1.00  0.00     0.124 S 
ATOM     99  O   UNL A   1      44.010  23.038  35.163  1.00  0.00    -0.237 OA
ATOM    100  O   UNL A   1      44.970  24.733  36.685  1.00  0.00    -0.237 OA
ATOM    101  O   UNL A   1      42.527  24.479  36.508  1.00  0.00    -0.744 OA
ENDBRANCH  97  98
ENDBRANCH  65  90
ENDBRANCH  39  40
ENDBRANCH  31  34
ENDBRANCH  29  30
ENDBRANCH  28  29
ENDBRANCH   1  28
TORSDOF 18
ENDMDL
MODEL 3
REMARK VINA RESULT:     -11.4      4.210      8.219
REMARK SMILES CC1=C[C@@H]([C@@H]2N=N[C@H](S)N2/N=C/c2ccc(C(=O)NCCCCNC(=O)c3ccc(-c4c5nc(c(-c6c(F)cc(S(=O)(=O)[O-])cc6F)c6ccc([nH]6)c(-c6c(F)cc(S(=O)(=O)[O-])cc6F)c6nc(c(-c7c(F)cc(S(=O)(=O)[O-])cc7F)c7ccc4[nH]7)C=C6)C=C5)cc3)cc2)N=N1
REMARK SMILES IDX 21 1 20 2 19 3 17 4 18 5 16 7 13 8 14 9 94 10 15 11 93 12
REMARK SMILES IDX 12 13 11 14 10 15 5 16 6 17 7 18 8 19 4 20 1 21 2 22 3 23
REMARK SMILES IDX 96 24 95 25 9 26 22 28 23 29 24 30 25 31 26 33 27 34 28 35
REMARK SMILES IDX 92 36 29 37 91 38 30 39 31 40 32 41 85 42 33 43 90 44 84 45
REMARK SMILES IDX 86 46 34 47 89 48 83 49 82 50 35 52 69 53 48 54 68 55 49 56
REMARK SMILES IDX 52 57 67 58 87 59 50 60 51 61 66 63 88 64 53 65 36 66 37 67
REMARK SMILES IDX 46 68 38 69 39 70 45 71 47 72 40 73 41 74 42 75 43 76 44 77
REMARK SMILES IDX 70 78 71 79 80 80 72 81 73 82 79 83 81 84 74 85 75 86 76 87
REMARK SMILES IDX 77 88 78 89 54 90 55 91 64 92 56 93 57 94 63 95 65 96 58 97
REMARK SMILES IDX 59 98 60 99 61 100 62 101
REMARK H PARENT 19 6 9 27 24 32 86 51 52 62
REMARK Flexibility Score: inf
ROOT
ATOM      1  C   UNL A   1      45.274  22.929  26.237  1.00  0.00     0.023 C 
ENDROOT
BRANCH   1   2
ATOM      2  C   UNL A   1      46.232  23.653  25.280  1.00  0.00     0.116 C 
BRANCH   2   3
ATOM      3  N   UNL A   1      45.852  25.042  25.125  1.00  0.00    -0.352 N 
ATOM      4  C   UNL A   1      45.623  26.044  26.032  1.00  0.00     0.251 C 
ATOM      5  O   UNL A   1      45.236  27.128  25.596  1.00  0.00    -0.269 OA
ATOM      6  H   UNL A   1      45.734  25.320  24.188  1.00  0.00     0.163 HD
BRANCH   4   7
ATOM      7  C   UNL A   1      45.849  25.902  27.500  1.00  0.00     0.039 A 
ATOM      8  C   UNL A   1      46.477  25.625  30.217  1.00  0.00    -0.005 A 
ATOM      9  C   UNL A   1      47.504  25.774  29.281  1.00  0.00     0.010 A 
ATOM     10  C   UNL A   1      45.148  25.632  29.818  1.00  0.00     0.010 A 
ATOM     11  C   UNL A   1      47.187  25.898  27.928  1.00  0.00     0.014 A 
ATOM     12  C   UNL A   1      44.841  25.808  28.468  1.00  0.00     0.014 A 
BRANCH   8  13
ATOM     13  C   UNL A   1      46.833  25.561  31.640  1.00  0.00     0.141 C 
ATOM     14  N   UNL A   1      46.079  25.015  32.543  1.00  0.00    -0.180 NA
BRANCH  14  15
ATOM     15  N   UNL A   1      46.505  25.090  33.834  1.00  0.00    -0.233 NA
ATOM     16  C   UNL A   1      46.812  23.885  34.618  1.00  0.00     0.274 C 
ATOM     17  N   UNL A   1      47.976  24.221  35.493  1.00  0.00    -0.161 NA
ATOM     18  N   UNL A   1      48.188  25.456  35.489  1.00  0.00    -0.153 NA
ATOM     19  C   UNL A   1      47.379  26.099  34.437  1.00  0.00     0.298 C 
BRANCH  16  20
ATOM     20  C   UNL A   1      45.621  23.402  35.523  1.00  0.00     0.201 C 
ATOM     21  C   UNL A   1      46.210  19.898  36.427  1.00  0.00     0.068 C 
ATOM     22  C   UNL A   1      45.662  21.224  36.044  1.00  0.00     0.058 C 
ATOM     23  C   UNL A   1      46.043  22.398  36.545  1.00  0.00     0.031 C 
ATOM     24  N   UNL A   1      44.807  21.362  34.979  1.00  0.00    -0.160 NA
ATOM     25  N   UNL A   1      44.669  22.591  34.696  1.00  0.00    -0.177 NA
ENDBRANCH  16  20
BRANCH  19  26
ATOM     26  S   UNL A   1      46.368  27.532  34.948  1.00  0.00    -0.128 SA
ATOM     27  H   UNL A   1      46.519  28.538  34.046  1.00  0.00     0.106 HD
ENDBRANCH  19  26
ENDBRANCH  14  15
ENDBRANCH   8  13
ENDBRANCH   4   7
ENDBRANCH   2   3
ENDBRANCH   1   2
BRANCH   1  28
ATOM     28  C   UNL A   1      44.133  22.154  25.563  1.00  0.00     0.023 C 
BRANCH  28  29
ATOM     29  C   UNL A   1      42.919  23.001  25.208  1.00  0.00     0.116 C 
BRANCH  29  30
ATOM     30  N   UNL A   1      41.640  22.360  25.559  1.00  0.00    -0.352 N 
ATOM     31  C   UNL A   1      40.741  22.713  26.555  1.00  0.00     0.251 C 
ATOM     32  H   UNL A   1      41.390  21.579  25.015  1.00  0.00     0.163 HD
ATOM     33  O   UNL A   1      39.933  21.893  26.999  1.00  0.00    -0.269 OA
BRANCH  31  34
ATOM     34  C   UNL A   1      40.749  24.100  27.039  1.00  0.00     0.039 A 
ATOM     35  C   UNL A   1      39.864  25.100  26.626  1.00  0.00     0.014 A 
ATOM     36  C   UNL A   1      41.684  24.353  28.029  1.00  0.00     0.014 A 
ATOM     37  C   UNL A   1      39.936  26.342  27.259  1.00  0.00     0.010 A 
ATOM     38  C   UNL A   1      41.472  25.389  28.874  1.00  0.00     0.010 A 
ATOM     39  C   UNL A   1      40.766  26.467  28.380  1.00  0.00    -0.014 A 
BRANCH  39  40
ATOM     40  C   UNL A   1      41.000  27.695  29.113  1.00  0.00     0.031 A 
ATOM     41  C   UNL A   1      42.027  28.580  28.526  1.00  0.00     0.074 A 
ATOM     42  C   UNL A   1      40.113  28.110  30.050  1.00  0.00     0.049 A 
ATOM     43  N   UNL A   1      43.207  28.814  28.986  1.00  0.00    -0.248 NA
ATOM     44  C   UNL A   1      41.793  29.131  27.182  1.00  0.00     0.031 C 
ATOM     45  C   UNL A   1      38.844  27.493  30.478  1.00  0.00     0.029 A 
ATOM     46  N   UNL A   1      40.121  29.269  30.754  1.00  0.00    -0.354 N 
ATOM     47  C   UNL A   1      43.787  29.725  28.110  1.00  0.00     0.074 A 
ATOM     48  C   UNL A   1      42.973  29.702  26.923  1.00  0.00     0.031 C 
ATOM     49  C   UNL A   1      38.119  28.383  31.191  1.00  0.00     0.029 A 
ATOM     50  C   UNL A   1      38.928  29.565  31.412  1.00  0.00     0.049 A 
ATOM     51  H   UNL A   1      40.910  29.856  30.798  1.00  0.00     0.167 HD
ATOM     52  C   UNL A   1      44.759  30.585  28.526  1.00  0.00     0.037 A 
ATOM     53  C   UNL A   1      38.647  30.730  32.051  1.00  0.00     0.037 A 
ATOM     54  C   UNL A   1      45.201  30.243  29.859  1.00  0.00     0.049 A 
ATOM     55  C   UNL A   1      39.965  31.367  32.347  1.00  0.00     0.074 A 
ATOM     56  C   UNL A   1      45.809  29.135  30.414  1.00  0.00     0.029 A 
ATOM     57  N   UNL A   1      44.629  30.928  30.909  1.00  0.00    -0.354 N 
ATOM     58  N   UNL A   1      40.847  30.839  33.158  1.00  0.00    -0.248 NA
ATOM     59  C   UNL A   1      40.513  32.277  31.348  1.00  0.00     0.031 C 
ATOM     60  C   UNL A   1      45.155  28.949  31.667  1.00  0.00     0.029 A 
ATOM     61  C   UNL A   1      44.254  30.002  31.852  1.00  0.00     0.049 A 
ATOM     62  H   UNL A   1      44.510  31.904  30.971  1.00  0.00     0.167 HD
ATOM     63  C   UNL A   1      42.075  31.016  32.529  1.00  0.00     0.074 A 
ATOM     64  C   UNL A   1      41.810  31.962  31.445  1.00  0.00     0.031 C 
ATOM     65  C   UNL A   1      43.118  30.155  32.739  1.00  0.00     0.037 A 
BRANCH  52  66
ATOM     66  C   UNL A   1      45.090  31.917  27.905  1.00  0.00     0.058 A 
ATOM     67  C   UNL A   1      46.375  32.114  27.356  1.00  0.00     0.135 A 
ATOM     68  C   UNL A   1      44.307  33.082  28.050  1.00  0.00     0.135 A 
ATOM     69  F   UNL A   1      47.202  31.073  27.158  1.00  0.00    -0.206 F 
ATOM     70  C   UNL A   1      46.878  33.380  27.059  1.00  0.00     0.059 A 
ATOM     71  C   UNL A   1      44.769  34.350  27.709  1.00  0.00     0.059 A 
ATOM     72  F   UNL A   1      43.097  33.066  28.620  1.00  0.00    -0.206 F 
ATOM     73  C   UNL A   1      46.070  34.495  27.259  1.00  0.00     0.060 A 
BRANCH  73  74
ATOM     74  S   UNL A   1      46.758  36.137  26.998  1.00  0.00     0.124 S 
ATOM     75  O   UNL A   1      45.776  36.976  27.677  1.00  0.00    -0.237 OA
ATOM     76  O   UNL A   1      48.061  36.027  27.645  1.00  0.00    -0.237 OA
ATOM     77  O   UNL A   1      46.794  36.260  25.544  1.00  0.00    -0.744 OA
ENDBRANCH  73  74
ENDBRANCH  52  66
BRANCH  53  78
ATOM     78  C   UNL A   1      37.347  31.460  32.058  1.00  0.00     0.058 A 
ATOM     79  C   UNL A   1      36.741  31.895  33.251  1.00  0.00     0.135 A 
ATOM     80  C   UNL A   1      36.796  31.979  30.866  1.00  0.00     0.135 A 
ATOM     81  F   UNL A   1      37.208  31.471  34.436  1.00  0.00    -0.206 F 
ATOM     82  C   UNL A   1      35.683  32.818  33.263  1.00  0.00     0.059 A 
ATOM     83  C   UNL A   1      35.741  32.892  30.853  1.00  0.00     0.059 A 
ATOM     84  F   UNL A   1      37.328  31.681  29.672  1.00  0.00    -0.206 F 
ATOM     85  C   UNL A   1      35.204  33.328  32.056  1.00  0.00     0.060 A 
BRANCH  85  86
ATOM     86  S   UNL A   1      33.964  34.649  32.063  1.00  0.00     0.124 S 
ATOM     87  O   UNL A   1      32.955  34.113  32.969  1.00  0.00    -0.237 OA
ATOM     88  O   UNL A   1      34.730  35.786  32.562  1.00  0.00    -0.237 OA
ATOM     89  O   UNL A   1      33.561  34.741  30.662  1.00  0.00    -0.744 OA
ENDBRANCH  85  86
ENDBRANCH  53  78
BRANCH  65  90
ATOM     90  C   UNL A   1      42.996  29.122  33.836  1.00  0.00     0.058 A 
ATOM     91  C   UNL A   1      43.140  29.400  35.209  1.00  0.00     0.135 A 
ATOM     92  C   UNL A   1      42.505  27.852  33.499  1.00  0.00     0.135 A 
ATOM     93  F   UNL A   1      43.501  30.618  35.628  1.00  0.00    -0.206 F 
ATOM     94  C   UNL A   1      42.838  28.458  36.194  1.00  0.00     0.059 A 
ATOM     95  C   UNL A   1      42.170  26.906  34.464  1.00  0.00     0.059 A 
ATOM     96  F   UNL A   1      42.278  27.543  32.211  1.00  0.00    -0.206 F 
ATOM     97  C   UNL A   1      42.348  27.212  35.811  1.00  0.00     0.060 A 
BRANCH  97  98
ATOM     98  S   UNL A   1      41.875  26.023  37.086  1.00  0.00     0.124 S 
ATOM     99  O   UNL A   1      40.501  26.417  37.376  1.00  0.00    -0.237 OA
ATOM    100  O   UNL A   1      42.036  24.742  36.404  1.00  0.00    -0.237 OA
ATOM    101  O   UNL A   1      42.836  26.273  38.158  1.00  0.00    -0.744 OA
ENDBRANCH  97  98
ENDBRANCH  65  90
ENDBRANCH  39  40
ENDBRANCH  31  34
ENDBRANCH  29  30
ENDBRANCH  28  29
ENDBRANCH   1  28
TORSDOF 18
ENDMDL
