MODEL 1
REMARK VINA RESULT:     -10.1      0.000      0.000
REMARK SMILES O=C(NCCCCNC(=O)C1CCN(c2ccc(C(F)(F)F)cc2[N+](=O)[O-])CC1)c1ccc(-c2c3nc(c(-c4c(F)cc(S(=O)(=O)[O-])cc4F)c4ccc([nH]4)c(-c4c(F)cc(S(=O)(=O)[O-])cc4F)c4nc(c(-c5c(F)cc(S(=O)(=O)[O-])cc5F)c5ccc2[nH]5)C=C4)C=C3)cc1
REMARK SMILES IDX 5 1 4 2 3 3 1 4 2 5 30 7 31 8 95 9 32 10 94 11 33 12 34 13
REMARK SMILES IDX 35 14 88 15 36 16 93 17 87 18 89 19 37 20 92 21 86 22 85 23
REMARK SMILES IDX 38 25 72 26 51 27 71 28 52 29 55 30 70 31 90 32 53 33 54 34
REMARK SMILES IDX 69 36 91 37 56 38 39 39 40 40 49 41 41 42 42 43 48 44 50 45
REMARK SMILES IDX 43 46 44 47 45 48 46 49 47 50 73 51 74 52 83 53 75 54 76 55
REMARK SMILES IDX 82 56 84 57 77 58 78 59 79 60 80 61 81 62 57 63 58 64 67 65
REMARK SMILES IDX 59 66 60 67 66 68 68 69 61 70 62 71 63 72 64 73 65 74 6 75
REMARK SMILES IDX 7 76 8 77 9 78 10 80 11 81 12 82 29 83 13 84 28 85 14 86
REMARK SMILES IDX 15 87 16 88 24 89 17 90 23 91 18 92 25 93 26 94 27 95 19 96
REMARK SMILES IDX 20 97 21 98 22 99
REMARK H PARENT 3 6 89 24 55 35 8 79
REMARK Flexibility Score: inf
ROOT
ATOM      1  C   UNL A   1      34.674  33.805  28.517  1.00  0.00     0.023 C 
ENDROOT
BRANCH   1   2
ATOM      2  C   UNL A   1      34.815  32.448  29.189  1.00  0.00     0.116 C 
BRANCH   2   3
ATOM      3  N   UNL A   1      34.085  31.378  28.523  1.00  0.00    -0.352 N 
ATOM      4  O   UNL A   1      33.891  29.393  27.454  1.00  0.00    -0.269 OA
ATOM      5  C   UNL A   1      34.591  30.182  28.064  1.00  0.00     0.251 C 
ATOM      6  H   UNL A   1      33.122  31.526  28.386  1.00  0.00     0.163 HD
BRANCH   5   7
ATOM      7  C   UNL A   1      36.025  29.912  28.296  1.00  0.00     0.039 A 
ATOM      8  C   UNL A   1      36.951  30.158  27.279  1.00  0.00     0.014 A 
ATOM      9  C   UNL A   1      36.420  29.329  29.501  1.00  0.00     0.014 A 
ATOM     10  C   UNL A   1      38.252  29.701  27.417  1.00  0.00     0.010 A 
ATOM     11  C   UNL A   1      37.752  28.948  29.671  1.00  0.00     0.010 A 
ATOM     12  C   UNL A   1      38.670  29.116  28.623  1.00  0.00    -0.014 A 
BRANCH  12  13
ATOM     13  C   UNL A   1      40.105  28.804  28.811  1.00  0.00     0.031 A 
ATOM     14  C   UNL A   1      40.681  27.481  28.401  1.00  0.00     0.074 A 
ATOM     15  C   UNL A   1      40.878  29.754  29.376  1.00  0.00     0.049 A 
ATOM     16  N   UNL A   1      41.904  27.042  28.552  1.00  0.00    -0.248 NA
ATOM     17  C   UNL A   1      39.776  26.521  27.749  1.00  0.00     0.031 C 
ATOM     18  C   UNL A   1      40.399  31.066  29.827  1.00  0.00     0.029 A 
ATOM     19  N   UNL A   1      42.214  29.771  29.671  1.00  0.00    -0.354 N 
ATOM     20  C   UNL A   1      41.912  25.749  28.046  1.00  0.00     0.074 A 
ATOM     21  C   UNL A   1      40.571  25.471  27.579  1.00  0.00     0.031 C 
ATOM     22  C   UNL A   1      41.428  31.765  30.322  1.00  0.00     0.029 A 
ATOM     23  C   UNL A   1      42.620  30.929  30.289  1.00  0.00     0.049 A 
ATOM     24  H   UNL A   1      42.824  29.027  29.461  1.00  0.00     0.167 HD
ATOM     25  C   UNL A   1      42.951  24.882  27.984  1.00  0.00     0.037 A 
ATOM     26  C   UNL A   1      43.810  31.267  30.817  1.00  0.00     0.037 A 
ATOM     27  C   UNL A   1      44.287  25.197  28.422  1.00  0.00     0.049 A 
ATOM     28  C   UNL A   1      44.933  30.278  30.747  1.00  0.00     0.074 A 
ATOM     29  C   UNL A   1      45.431  24.426  28.313  1.00  0.00     0.029 A 
ATOM     30  N   UNL A   1      44.656  26.371  29.065  1.00  0.00    -0.354 N 
ATOM     31  N   UNL A   1      44.938  29.082  30.207  1.00  0.00    -0.248 NA
ATOM     32  C   UNL A   1      46.203  30.671  31.368  1.00  0.00     0.031 C 
ATOM     33  C   UNL A   1      46.482  25.113  28.931  1.00  0.00     0.029 A 
ATOM     34  C   UNL A   1      45.999  26.328  29.394  1.00  0.00     0.049 A 
ATOM     35  H   UNL A   1      44.051  27.123  29.258  1.00  0.00     0.167 HD
ATOM     36  C   UNL A   1      46.210  28.574  30.433  1.00  0.00     0.074 A 
ATOM     37  C   UNL A   1      46.955  29.604  31.130  1.00  0.00     0.031 C 
ATOM     38  C   UNL A   1      46.712  27.359  30.104  1.00  0.00     0.037 A 
BRANCH  25  39
ATOM     39  C   UNL A   1      42.704  23.502  27.443  1.00  0.00     0.058 A 
ATOM     40  C   UNL A   1      42.899  23.191  26.090  1.00  0.00     0.135 A 
ATOM     41  C   UNL A   1      42.372  22.452  28.316  1.00  0.00     0.135 A 
ATOM     42  F   UNL A   1      43.205  24.159  25.211  1.00  0.00    -0.206 F 
ATOM     43  C   UNL A   1      42.777  21.886  25.620  1.00  0.00     0.059 A 
ATOM     44  C   UNL A   1      42.260  21.138  27.871  1.00  0.00     0.059 A 
ATOM     45  F   UNL A   1      42.171  22.698  29.620  1.00  0.00    -0.206 F 
ATOM     46  C   UNL A   1      42.464  20.865  26.520  1.00  0.00     0.060 A 
BRANCH  46  47
ATOM     47  S   UNL A   1      42.360  19.169  25.905  1.00  0.00     0.124 S 
ATOM     48  O   UNL A   1      43.227  19.231  24.733  1.00  0.00    -0.237 OA
ATOM     49  O   UNL A   1      42.874  18.396  27.032  1.00  0.00    -0.237 OA
ATOM     50  O   UNL A   1      40.939  18.994  25.626  1.00  0.00    -0.744 OA
ENDBRANCH  46  47
ENDBRANCH  25  39
BRANCH  26  51
ATOM     51  C   UNL A   1      43.964  32.571  31.507  1.00  0.00     0.058 A 
ATOM     52  C   UNL A   1      43.972  32.657  32.905  1.00  0.00     0.135 A 
ATOM     53  C   UNL A   1      44.143  33.756  30.774  1.00  0.00     0.135 A 
ATOM     54  F   UNL A   1      43.805  31.551  33.646  1.00  0.00    -0.206 F 
ATOM     55  C   UNL A   1      44.140  33.875  33.555  1.00  0.00     0.059 A 
ATOM     56  C   UNL A   1      44.338  34.981  31.401  1.00  0.00     0.059 A 
ATOM     57  F   UNL A   1      44.165  33.720  29.433  1.00  0.00    -0.206 F 
ATOM     58  C   UNL A   1      44.322  35.031  32.793  1.00  0.00     0.060 A 
BRANCH  58  59
ATOM     59  S   UNL A   1      44.589  36.604  33.640  1.00  0.00     0.124 S 
ATOM     60  O   UNL A   1      45.494  37.279  32.718  1.00  0.00    -0.237 OA
ATOM     61  O   UNL A   1      43.237  37.147  33.722  1.00  0.00    -0.237 OA
ATOM     62  O   UNL A   1      45.170  36.199  34.916  1.00  0.00    -0.744 OA
ENDBRANCH  58  59
ENDBRANCH  26  51
BRANCH  38  63
ATOM     63  C   UNL A   1      48.128  27.081  30.509  1.00  0.00     0.058 A 
ATOM     64  C   UNL A   1      48.416  26.308  31.643  1.00  0.00     0.135 A 
ATOM     65  C   UNL A   1      49.200  27.552  29.737  1.00  0.00     0.135 A 
ATOM     66  F   UNL A   1      47.422  25.848  32.419  1.00  0.00    -0.206 F 
ATOM     67  C   UNL A   1      49.726  26.021  32.008  1.00  0.00     0.059 A 
ATOM     68  C   UNL A   1      50.518  27.259  30.073  1.00  0.00     0.059 A 
ATOM     69  F   UNL A   1      48.972  28.293  28.641  1.00  0.00    -0.206 F 
ATOM     70  C   UNL A   1      50.770  26.499  31.215  1.00  0.00     0.060 A 
BRANCH  70  71
ATOM     71  S   UNL A   1      52.465  26.086  31.675  1.00  0.00     0.124 S 
ATOM     72  O   UNL A   1      52.858  27.266  32.439  1.00  0.00    -0.237 OA
ATOM     73  O   UNL A   1      52.292  24.860  32.446  1.00  0.00    -0.237 OA
ATOM     74  O   UNL A   1      53.134  25.920  30.388  1.00  0.00    -0.744 OA
ENDBRANCH  70  71
ENDBRANCH  38  63
ENDBRANCH  12  13
ENDBRANCH   5   7
ENDBRANCH   2   3
ENDBRANCH   1   2
BRANCH   1  75
ATOM     75  C   UNL A   1      33.454  34.601  28.966  1.00  0.00     0.023 C 
BRANCH  75  76
ATOM     76  C   UNL A   1      33.625  35.382  30.268  1.00  0.00     0.116 C 
BRANCH  76  77
ATOM     77  N   UNL A   1      33.334  34.553  31.419  1.00  0.00    -0.356 N 
ATOM     78  C   UNL A   1      34.021  34.177  32.516  1.00  0.00     0.223 C 
ATOM     79  H   UNL A   1      32.424  34.178  31.394  1.00  0.00     0.163 HD
ATOM     80  O   UNL A   1      33.434  33.359  33.240  1.00  0.00    -0.275 OA
BRANCH  78  81
ATOM     81  C   UNL A   1      35.411  34.655  32.956  1.00  0.00     0.082 C 
ATOM     82  C   UNL A   1      36.620  34.695  32.034  1.00  0.00     0.035 C 
ATOM     83  C   UNL A   1      35.798  34.005  34.293  1.00  0.00     0.035 C 
ATOM     84  C   UNL A   1      37.404  33.391  31.923  1.00  0.00     0.117 C 
ATOM     85  C   UNL A   1      36.411  32.626  34.088  1.00  0.00     0.117 C 
ATOM     86  N   UNL A   1      37.590  32.724  33.222  1.00  0.00    -0.366 N 
BRANCH  86  87
ATOM     87  C   UNL A   1      38.598  31.753  33.238  1.00  0.00     0.116 A 
ATOM     88  C   UNL A   1      38.226  30.435  32.893  1.00  0.00     0.034 A 
ATOM     89  C   UNL A   1      39.956  31.914  33.574  1.00  0.00     0.293 A 
ATOM     90  C   UNL A   1      39.123  29.358  32.919  1.00  0.00     0.016 A 
ATOM     91  C   UNL A   1      40.877  30.844  33.596  1.00  0.00     0.101 A 
ATOM     92  C   UNL A   1      40.460  29.549  33.274  1.00  0.00     0.062 A 
BRANCH  89  93
ATOM     93  N   UNL A   1      40.495  33.185  34.003  1.00  0.00     0.064 N 
ATOM     94  O   UNL A   1      40.634  33.348  35.223  1.00  0.00    -0.258 OA
ATOM     95  O   UNL A   1      40.714  34.032  33.128  1.00  0.00    -0.258 OA
ENDBRANCH  89  93
BRANCH  92  96
ATOM     96  C   UNL A   1      41.405  28.374  33.331  1.00  0.00     0.416 C 
ATOM     97  F   UNL A   1      41.686  27.877  32.097  1.00  0.00    -0.166 F 
ATOM     98  F   UNL A   1      42.606  28.701  33.884  1.00  0.00    -0.166 F 
ATOM     99  F   UNL A   1      40.929  27.329  34.061  1.00  0.00    -0.166 F 
ENDBRANCH  92  96
ENDBRANCH  86  87
ENDBRANCH  78  81
ENDBRANCH  76  77
ENDBRANCH  75  76
ENDBRANCH   1  75
TORSDOF 17
ENDMDL
MODEL 2
REMARK VINA RESULT:      -9.9      4.710      7.253
REMARK SMILES O=C(NCCCCNC(=O)C1CCN(c2ccc(C(F)(F)F)cc2[N+](=O)[O-])CC1)c1ccc(-c2c3nc(c(-c4c(F)cc(S(=O)(=O)[O-])cc4F)c4ccc([nH]4)c(-c4c(F)cc(S(=O)(=O)[O-])cc4F)c4nc(c(-c5c(F)cc(S(=O)(=O)[O-])cc5F)c5ccc2[nH]5)C=C4)C=C3)cc1
REMARK SMILES IDX 5 1 4 2 3 3 1 4 2 5 30 7 31 8 95 9 32 10 94 11 33 12 34 13
REMARK SMILES IDX 35 14 88 15 36 16 93 17 87 18 89 19 37 20 92 21 86 22 85 23
REMARK SMILES IDX 38 25 72 26 51 27 71 28 52 29 55 30 70 31 90 32 53 33 54 34
REMARK SMILES IDX 69 36 91 37 56 38 39 39 40 40 49 41 41 42 42 43 48 44 50 45
REMARK SMILES IDX 43 46 44 47 45 48 46 49 47 50 73 51 74 52 83 53 75 54 76 55
REMARK SMILES IDX 82 56 84 57 77 58 78 59 79 60 80 61 81 62 57 63 58 64 67 65
REMARK SMILES IDX 59 66 60 67 66 68 68 69 61 70 62 71 63 72 64 73 65 74 6 75
REMARK SMILES IDX 7 76 8 77 9 78 10 80 11 81 12 82 29 83 13 84 28 85 14 86
REMARK SMILES IDX 15 87 16 88 24 89 17 90 23 91 18 92 25 93 26 94 27 95 19 96
REMARK SMILES IDX 20 97 21 98 22 99
REMARK H PARENT 3 6 89 24 55 35 8 79
REMARK Flexibility Score: inf
ROOT
ATOM      1  C   UNL A   1      35.247  32.261  27.972  1.00  0.00     0.023 C 
ENDROOT
BRANCH   1   2
ATOM      2  C   UNL A   1      36.406  31.804  28.844  1.00  0.00     0.116 C 
BRANCH   2   3
ATOM      3  N   UNL A   1      35.998  31.095  30.048  1.00  0.00    -0.352 N 
ATOM      4  O   UNL A   1      36.184  29.501  31.644  1.00  0.00    -0.269 OA
ATOM      5  C   UNL A   1      36.665  30.066  30.678  1.00  0.00     0.251 C 
ATOM      6  H   UNL A   1      35.151  31.382  30.459  1.00  0.00     0.163 HD
BRANCH   5   7
ATOM      7  C   UNL A   1      37.962  29.644  30.111  1.00  0.00     0.039 A 
ATOM      8  C   UNL A   1      39.036  29.374  30.963  1.00  0.00     0.014 A 
ATOM      9  C   UNL A   1      38.120  29.609  28.725  1.00  0.00     0.014 A 
ATOM     10  C   UNL A   1      40.302  29.194  30.429  1.00  0.00     0.010 A 
ATOM     11  C   UNL A   1      39.379  29.343  28.187  1.00  0.00     0.010 A 
ATOM     12  C   UNL A   1      40.480  29.152  29.037  1.00  0.00    -0.014 A 
BRANCH  12  13
ATOM     13  C   UNL A   1      41.806  28.779  28.493  1.00  0.00     0.031 A 
ATOM     14  C   UNL A   1      42.095  27.387  28.015  1.00  0.00     0.074 A 
ATOM     15  C   UNL A   1      42.752  29.738  28.453  1.00  0.00     0.049 A 
ATOM     16  N   UNL A   1      43.220  26.896  27.566  1.00  0.00    -0.248 NA
ATOM     17  C   UNL A   1      40.990  26.415  28.051  1.00  0.00     0.031 C 
ATOM     18  C   UNL A   1      42.568  31.119  28.917  1.00  0.00     0.029 A 
ATOM     19  N   UNL A   1      44.046  29.709  28.010  1.00  0.00    -0.354 N 
ATOM     20  C   UNL A   1      42.974  25.557  27.296  1.00  0.00     0.074 A 
ATOM     21  C   UNL A   1      41.588  25.307  27.629  1.00  0.00     0.031 C 
ATOM     22  C   UNL A   1      43.699  31.806  28.716  1.00  0.00     0.029 A 
ATOM     23  C   UNL A   1      44.706  30.903  28.178  1.00  0.00     0.049 A 
ATOM     24  H   UNL A   1      44.464  28.912  27.610  1.00  0.00     0.167 HD
ATOM     25  C   UNL A   1      43.836  24.628  26.816  1.00  0.00     0.037 A 
ATOM     26  C   UNL A   1      45.994  31.227  27.966  1.00  0.00     0.037 A 
ATOM     27  C   UNL A   1      45.202  24.911  26.456  1.00  0.00     0.049 A 
ATOM     28  C   UNL A   1      46.924  30.171  27.451  1.00  0.00     0.074 A 
ATOM     29  C   UNL A   1      46.128  24.066  25.869  1.00  0.00     0.029 A 
ATOM     30  N   UNL A   1      45.842  26.124  26.662  1.00  0.00    -0.354 N 
ATOM     31  N   UNL A   1      46.657  28.925  27.141  1.00  0.00    -0.248 NA
ATOM     32  C   UNL A   1      48.329  30.555  27.271  1.00  0.00     0.031 C 
ATOM     33  C   UNL A   1      47.341  24.755  25.762  1.00  0.00     0.029 A 
ATOM     34  C   UNL A   1      47.161  26.039  26.251  1.00  0.00     0.049 A 
ATOM     35  H   UNL A   1      45.420  26.928  27.043  1.00  0.00     0.167 HD
ATOM     36  C   UNL A   1      47.865  28.371  26.739  1.00  0.00     0.074 A 
ATOM     37  C   UNL A   1      48.855  29.427  26.814  1.00  0.00     0.031 C 
ATOM     38  C   UNL A   1      48.131  27.100  26.354  1.00  0.00     0.037 A 
BRANCH  25  39
ATOM     39  C   UNL A   1      43.354  23.214  26.659  1.00  0.00     0.058 A 
ATOM     40  C   UNL A   1      43.142  22.638  25.398  1.00  0.00     0.135 A 
ATOM     41  C   UNL A   1      43.207  22.390  27.788  1.00  0.00     0.135 A 
ATOM     42  F   UNL A   1      43.258  23.384  24.287  1.00  0.00    -0.206 F 
ATOM     43  C   UNL A   1      42.805  21.294  25.260  1.00  0.00     0.059 A 
ATOM     44  C   UNL A   1      42.886  21.041  27.673  1.00  0.00     0.059 A 
ATOM     45  F   UNL A   1      43.394  22.894  29.018  1.00  0.00    -0.206 F 
ATOM     46  C   UNL A   1      42.686  20.501  26.404  1.00  0.00     0.060 A 
BRANCH  46  47
ATOM     47  S   UNL A   1      42.299  18.748  26.207  1.00  0.00     0.124 S 
ATOM     48  O   UNL A   1      42.461  18.258  27.572  1.00  0.00    -0.237 OA
ATOM     49  O   UNL A   1      40.928  18.785  25.707  1.00  0.00    -0.237 OA
ATOM     50  O   UNL A   1      43.298  18.284  25.251  1.00  0.00    -0.744 OA
ENDBRANCH  46  47
ENDBRANCH  25  39
BRANCH  26  51
ATOM     51  C   UNL A   1      46.475  32.589  28.307  1.00  0.00     0.058 A 
ATOM     52  C   UNL A   1      46.977  32.885  29.580  1.00  0.00     0.135 A 
ATOM     53  C   UNL A   1      46.473  33.613  27.346  1.00  0.00     0.135 A 
ATOM     54  F   UNL A   1      46.999  31.937  30.530  1.00  0.00    -0.206 F 
ATOM     55  C   UNL A   1      47.451  34.153  29.896  1.00  0.00     0.059 A 
ATOM     56  C   UNL A   1      46.965  34.882  27.630  1.00  0.00     0.059 A 
ATOM     57  F   UNL A   1      46.023  33.371  26.106  1.00  0.00    -0.206 F 
ATOM     58  C   UNL A   1      47.440  35.145  28.913  1.00  0.00     0.060 A 
BRANCH  58  59
ATOM     59  S   UNL A   1      48.100  36.778  29.310  1.00  0.00     0.124 S 
ATOM     60  O   UNL A   1      46.975  37.638  28.964  1.00  0.00    -0.237 OA
ATOM     61  O   UNL A   1      48.398  36.657  30.734  1.00  0.00    -0.237 OA
ATOM     62  O   UNL A   1      49.269  36.884  28.443  1.00  0.00    -0.744 OA
ENDBRANCH  58  59
ENDBRANCH  26  51
BRANCH  38  63
ATOM     63  C   UNL A   1      49.553  26.785  26.000  1.00  0.00     0.058 A 
ATOM     64  C   UNL A   1      50.415  26.189  26.932  1.00  0.00     0.135 A 
ATOM     65  C   UNL A   1      50.045  27.041  24.711  1.00  0.00     0.135 A 
ATOM     66  F   UNL A   1      49.992  25.939  28.181  1.00  0.00    -0.206 F 
ATOM     67  C   UNL A   1      51.726  25.867  26.601  1.00  0.00     0.059 A 
ATOM     68  C   UNL A   1      51.347  26.708  24.353  1.00  0.00     0.059 A 
ATOM     69  F   UNL A   1      49.255  27.607  23.785  1.00  0.00    -0.206 F 
ATOM     70  C   UNL A   1      52.182  26.129  25.309  1.00  0.00     0.060 A 
BRANCH  70  71
ATOM     71  S   UNL A   1      53.873  25.669  24.878  1.00  0.00     0.124 S 
ATOM     72  O   UNL A   1      53.796  24.212  24.901  1.00  0.00    -0.237 OA
ATOM     73  O   UNL A   1      54.038  26.275  23.562  1.00  0.00    -0.237 OA
ATOM     74  O   UNL A   1      54.669  26.273  25.943  1.00  0.00    -0.744 OA
ENDBRANCH  70  71
ENDBRANCH  38  63
ENDBRANCH  12  13
ENDBRANCH   5   7
ENDBRANCH   2   3
ENDBRANCH   1   2
BRANCH   1  75
ATOM     75  C   UNL A   1      33.954  31.483  28.192  1.00  0.00     0.023 C 
BRANCH  75  76
ATOM     76  C   UNL A   1      33.584  30.503  27.081  1.00  0.00     0.116 C 
BRANCH  76  77
ATOM     77  N   UNL A   1      32.706  29.461  27.571  1.00  0.00    -0.356 N 
ATOM     78  C   UNL A   1      32.084  28.403  27.014  1.00  0.00     0.223 C 
ATOM     79  H   UNL A   1      32.521  29.545  28.534  1.00  0.00     0.163 HD
ATOM     80  O   UNL A   1      31.321  27.790  27.775  1.00  0.00    -0.275 OA
BRANCH  78  81
ATOM     81  C   UNL A   1      32.230  27.887  25.576  1.00  0.00     0.082 C 
ATOM     82  C   UNL A   1      31.150  27.100  24.848  1.00  0.00     0.035 C 
ATOM     83  C   UNL A   1      33.588  27.193  25.396  1.00  0.00     0.035 C 
ATOM     84  C   UNL A   1      31.153  25.595  25.099  1.00  0.00     0.117 C 
ATOM     85  C   UNL A   1      33.537  25.737  25.843  1.00  0.00     0.117 C 
ATOM     86  N   UNL A   1      32.506  25.017  25.089  1.00  0.00    -0.366 N 
BRANCH  86  87
ATOM     87  C   UNL A   1      32.544  23.626  24.936  1.00  0.00     0.116 A 
ATOM     88  C   UNL A   1      32.899  23.130  23.662  1.00  0.00     0.034 A 
ATOM     89  C   UNL A   1      32.255  22.637  25.895  1.00  0.00     0.293 A 
ATOM     90  C   UNL A   1      32.924  21.762  23.357  1.00  0.00     0.016 A 
ATOM     91  C   UNL A   1      32.285  21.254  25.611  1.00  0.00     0.101 A 
ATOM     92  C   UNL A   1      32.614  20.806  24.328  1.00  0.00     0.062 A 
BRANCH  89  93
ATOM     93  N   UNL A   1      31.823  22.969  27.234  1.00  0.00     0.064 N 
ATOM     94  O   UNL A   1      32.666  22.861  28.135  1.00  0.00    -0.258 OA
ATOM     95  O   UNL A   1      30.634  23.274  27.387  1.00  0.00    -0.258 OA
ENDBRANCH  89  93
BRANCH  92  96
ATOM     96  C   UNL A   1      32.613  19.339  23.975  1.00  0.00     0.416 C 
ATOM     97  F   UNL A   1      32.026  19.097  22.772  1.00  0.00    -0.166 F 
ATOM     98  F   UNL A   1      33.872  18.826  23.887  1.00  0.00    -0.166 F 
ATOM     99  F   UNL A   1      31.955  18.564  24.880  1.00  0.00    -0.166 F 
ENDBRANCH  92  96
ENDBRANCH  86  87
ENDBRANCH  78  81
ENDBRANCH  76  77
ENDBRANCH  75  76
ENDBRANCH   1  75
TORSDOF 17
ENDMDL
MODEL 3
REMARK VINA RESULT:      -9.8      5.860     12.056
REMARK SMILES O=C(NCCCCNC(=O)C1CCN(c2ccc(C(F)(F)F)cc2[N+](=O)[O-])CC1)c1ccc(-c2c3nc(c(-c4c(F)cc(S(=O)(=O)[O-])cc4F)c4ccc([nH]4)c(-c4c(F)cc(S(=O)(=O)[O-])cc4F)c4nc(c(-c5c(F)cc(S(=O)(=O)[O-])cc5F)c5ccc2[nH]5)C=C4)C=C3)cc1
REMARK SMILES IDX 5 1 4 2 3 3 1 4 2 5 30 7 31 8 95 9 32 10 94 11 33 12 34 13
REMARK SMILES IDX 35 14 88 15 36 16 93 17 87 18 89 19 37 20 92 21 86 22 85 23
REMARK SMILES IDX 38 25 72 26 51 27 71 28 52 29 55 30 70 31 90 32 53 33 54 34
REMARK SMILES IDX 69 36 91 37 56 38 39 39 40 40 49 41 41 42 42 43 48 44 50 45
REMARK SMILES IDX 43 46 44 47 45 48 46 49 47 50 73 51 74 52 83 53 75 54 76 55
REMARK SMILES IDX 82 56 84 57 77 58 78 59 79 60 80 61 81 62 57 63 58 64 67 65
REMARK SMILES IDX 59 66 60 67 66 68 68 69 61 70 62 71 63 72 64 73 65 74 6 75
REMARK SMILES IDX 7 76 8 77 9 78 10 80 11 81 12 82 29 83 13 84 28 85 14 86
REMARK SMILES IDX 15 87 16 88 24 89 17 90 23 91 18 92 25 93 26 94 27 95 19 96
REMARK SMILES IDX 20 97 21 98 22 99
REMARK H PARENT 3 6 89 24 55 35 8 79
REMARK Flexibility Score: inf
ROOT
ATOM      1  C   UNL A   1      38.434  23.565  26.657  1.00  0.00     0.023 C 
ENDROOT
BRANCH   1   2
ATOM      2  C   UNL A   1      39.324  24.729  26.248  1.00  0.00     0.116 C 
BRANCH   2   3
ATOM      3  N   UNL A   1      40.711  24.358  26.007  1.00  0.00    -0.352 N 
ATOM      4  O   UNL A   1      42.950  24.527  26.283  1.00  0.00    -0.269 OA
ATOM      5  C   UNL A   1      41.832  24.868  26.625  1.00  0.00     0.251 C 
ATOM      6  H   UNL A   1      40.865  23.663  25.327  1.00  0.00     0.163 HD
BRANCH   5   7
ATOM      7  C   UNL A   1      41.629  25.878  27.684  1.00  0.00     0.039 A 
ATOM      8  C   UNL A   1      42.450  27.007  27.731  1.00  0.00     0.014 A 
ATOM      9  C   UNL A   1      40.675  25.642  28.675  1.00  0.00     0.014 A 
ATOM     10  C   UNL A   1      42.407  27.836  28.842  1.00  0.00     0.010 A 
ATOM     11  C   UNL A   1      40.574  26.526  29.750  1.00  0.00     0.010 A 
ATOM     12  C   UNL A   1      41.452  27.617  29.847  1.00  0.00    -0.014 A 
BRANCH  12  13
ATOM     13  C   UNL A   1      41.305  28.618  30.928  1.00  0.00     0.031 A 
ATOM     14  C   UNL A   1      42.165  28.579  32.156  1.00  0.00     0.074 A 
ATOM     15  C   UNL A   1      40.358  29.565  30.772  1.00  0.00     0.049 A 
ATOM     16  N   UNL A   1      42.118  29.352  33.210  1.00  0.00    -0.248 NA
ATOM     17  C   UNL A   1      43.206  27.540  32.222  1.00  0.00     0.031 C 
ATOM     18  C   UNL A   1      39.456  29.668  29.618  1.00  0.00     0.029 A 
ATOM     19  N   UNL A   1      39.989  30.611  31.574  1.00  0.00    -0.354 N 
ATOM     20  C   UNL A   1      43.093  28.878  34.077  1.00  0.00     0.074 A 
ATOM     21  C   UNL A   1      43.723  27.749  33.426  1.00  0.00     0.031 C 
ATOM     22  C   UNL A   1      38.655  30.729  29.778  1.00  0.00     0.029 A 
ATOM     23  C   UNL A   1      38.935  31.336  31.071  1.00  0.00     0.049 A 
ATOM     24  H   UNL A   1      40.434  30.823  32.426  1.00  0.00     0.167 HD
ATOM     25  C   UNL A   1      43.422  29.350  35.303  1.00  0.00     0.037 A 
ATOM     26  C   UNL A   1      38.236  32.350  31.612  1.00  0.00     0.037 A 
ATOM     27  C   UNL A   1      42.805  30.500  35.914  1.00  0.00     0.049 A 
ATOM     28  C   UNL A   1      38.616  32.837  32.977  1.00  0.00     0.074 A 
ATOM     29  C   UNL A   1      43.132  31.119  37.108  1.00  0.00     0.029 A 
ATOM     30  N   UNL A   1      41.725  31.195  35.387  1.00  0.00    -0.354 N 
ATOM     31  N   UNL A   1      39.584  32.417  33.756  1.00  0.00    -0.248 NA
ATOM     32  C   UNL A   1      37.803  33.919  33.546  1.00  0.00     0.031 C 
ATOM     33  C   UNL A   1      42.221  32.158  37.325  1.00  0.00     0.029 A 
ATOM     34  C   UNL A   1      41.349  32.209  36.249  1.00  0.00     0.049 A 
ATOM     35  H   UNL A   1      41.292  30.996  34.525  1.00  0.00     0.167 HD
ATOM     36  C   UNL A   1      39.491  33.176  34.914  1.00  0.00     0.074 A 
ATOM     37  C   UNL A   1      38.393  34.103  34.719  1.00  0.00     0.031 C 
ATOM     38  C   UNL A   1      40.240  33.106  36.040  1.00  0.00     0.037 A 
BRANCH  25  39
ATOM     39  C   UNL A   1      44.482  28.631  36.089  1.00  0.00     0.058 A 
ATOM     40  C   UNL A   1      45.827  29.031  36.059  1.00  0.00     0.135 A 
ATOM     41  C   UNL A   1      44.126  27.596  36.970  1.00  0.00     0.135 A 
ATOM     42  F   UNL A   1      46.222  30.007  35.226  1.00  0.00    -0.206 F 
ATOM     43  C   UNL A   1      46.781  28.431  36.876  1.00  0.00     0.059 A 
ATOM     44  C   UNL A   1      45.060  26.993  37.807  1.00  0.00     0.059 A 
ATOM     45  F   UNL A   1      42.853  27.174  37.034  1.00  0.00    -0.206 F 
ATOM     46  C   UNL A   1      46.387  27.417  37.752  1.00  0.00     0.060 A 
BRANCH  46  47
ATOM     47  S   UNL A   1      47.626  26.684  38.843  1.00  0.00     0.124 S 
ATOM     48  O   UNL A   1      48.567  27.788  38.998  1.00  0.00    -0.237 OA
ATOM     49  O   UNL A   1      46.841  26.351  40.028  1.00  0.00    -0.237 OA
ATOM     50  O   UNL A   1      48.118  25.542  38.081  1.00  0.00    -0.744 OA
ENDBRANCH  46  47
ENDBRANCH  25  39
BRANCH  26  51
ATOM     51  C   UNL A   1      37.075  32.915  30.879  1.00  0.00     0.058 A 
ATOM     52  C   UNL A   1      35.762  32.582  31.232  1.00  0.00     0.135 A 
ATOM     53  C   UNL A   1      37.264  33.831  29.831  1.00  0.00     0.135 A 
ATOM     54  F   UNL A   1      35.534  31.712  32.227  1.00  0.00    -0.206 F 
ATOM     55  C   UNL A   1      34.671  33.128  30.563  1.00  0.00     0.059 A 
ATOM     56  C   UNL A   1      36.190  34.410  29.165  1.00  0.00     0.059 A 
ATOM     57  F   UNL A   1      38.504  34.198  29.473  1.00  0.00    -0.206 F 
ATOM     58  C   UNL A   1      34.897  34.041  29.531  1.00  0.00     0.060 A 
BRANCH  58  59
ATOM     59  S   UNL A   1      33.479  34.786  28.696  1.00  0.00     0.124 S 
ATOM     60  O   UNL A   1      34.073  35.996  28.140  1.00  0.00    -0.237 OA
ATOM     61  O   UNL A   1      33.108  33.755  27.732  1.00  0.00    -0.237 OA
ATOM     62  O   UNL A   1      32.524  34.989  29.781  1.00  0.00    -0.744 OA
ENDBRANCH  58  59
ENDBRANCH  26  51
BRANCH  38  63
ATOM     63  C   UNL A   1      39.883  34.048  37.150  1.00  0.00     0.058 A 
ATOM     64  C   UNL A   1      39.077  33.632  38.220  1.00  0.00     0.135 A 
ATOM     65  C   UNL A   1      40.381  35.359  37.166  1.00  0.00     0.135 A 
ATOM     66  F   UNL A   1      38.567  32.390  38.239  1.00  0.00    -0.206 F 
ATOM     67  C   UNL A   1      38.767  34.491  39.267  1.00  0.00     0.059 A 
ATOM     68  C   UNL A   1      40.099  36.229  38.214  1.00  0.00     0.059 A 
ATOM     69  F   UNL A   1      41.158  35.800  36.164  1.00  0.00    -0.206 F 
ATOM     70  C   UNL A   1      39.284  35.787  39.256  1.00  0.00     0.060 A 
BRANCH  70  71
ATOM     71  S   UNL A   1      38.907  36.881  40.641  1.00  0.00     0.124 S 
ATOM     72  O   UNL A   1      40.243  37.236  41.106  1.00  0.00    -0.237 OA
ATOM     73  O   UNL A   1      38.153  37.953  39.999  1.00  0.00    -0.237 OA
ATOM     74  O   UNL A   1      38.133  36.032  41.541  1.00  0.00    -0.744 OA
ENDBRANCH  70  71
ENDBRANCH  38  63
ENDBRANCH  12  13
ENDBRANCH   5   7
ENDBRANCH   2   3
ENDBRANCH   1   2
BRANCH   1  75
ATOM     75  C   UNL A   1      38.891  22.211  26.127  1.00  0.00     0.023 C 
BRANCH  75  76
ATOM     76  C   UNL A   1      37.844  21.431  25.335  1.00  0.00     0.116 C 
BRANCH  76  77
ATOM     77  N   UNL A   1      37.397  22.178  24.178  1.00  0.00    -0.356 N 
ATOM     78  C   UNL A   1      36.216  22.689  23.776  1.00  0.00     0.223 C 
ATOM     79  H   UNL A   1      38.123  22.353  23.537  1.00  0.00     0.163 HD
ATOM     80  O   UNL A   1      36.228  23.194  22.644  1.00  0.00    -0.275 OA
BRANCH  78  81
ATOM     81  C   UNL A   1      34.898  22.721  24.560  1.00  0.00     0.082 C 
ATOM     82  C   UNL A   1      33.537  22.450  23.937  1.00  0.00     0.035 C 
ATOM     83  C   UNL A   1      34.828  23.985  25.431  1.00  0.00     0.035 C 
ATOM     84  C   UNL A   1      32.863  23.655  23.287  1.00  0.00     0.117 C 
ATOM     85  C   UNL A   1      34.310  25.180  24.641  1.00  0.00     0.117 C 
ATOM     86  N   UNL A   1      32.984  24.881  24.090  1.00  0.00    -0.366 N 
BRANCH  86  87
ATOM     87  C   UNL A   1      32.085  25.897  23.743  1.00  0.00     0.116 A 
ATOM     88  C   UNL A   1      30.913  26.011  24.522  1.00  0.00     0.034 A 
ATOM     89  C   UNL A   1      32.188  26.828  22.692  1.00  0.00     0.293 A 
ATOM     90  C   UNL A   1      29.906  26.948  24.251  1.00  0.00     0.016 A 
ATOM     91  C   UNL A   1      31.191  27.786  22.410  1.00  0.00     0.101 A 
ATOM     92  C   UNL A   1      30.031  27.846  23.188  1.00  0.00     0.062 A 
BRANCH  89  93
ATOM     93  N   UNL A   1      33.298  26.818  21.765  1.00  0.00     0.064 N 
ATOM     94  O   UNL A   1      33.277  25.952  20.879  1.00  0.00    -0.258 OA
ATOM     95  O   UNL A   1      34.210  27.630  21.964  1.00  0.00    -0.258 OA
ENDBRANCH  89  93
BRANCH  92  96
ATOM     96  C   UNL A   1      28.924  28.826  22.889  1.00  0.00     0.416 C 
ATOM     97  F   UNL A   1      27.690  28.272  23.031  1.00  0.00    -0.166 F 
ATOM     98  F   UNL A   1      28.947  29.905  23.721  1.00  0.00    -0.166 F 
ATOM     99  F   UNL A   1      28.970  29.327  21.624  1.00  0.00    -0.166 F 
ENDBRANCH  92  96
ENDBRANCH  86  87
ENDBRANCH  78  81
ENDBRANCH  76  77
ENDBRANCH  75  76
ENDBRANCH   1  75
TORSDOF 17
ENDMDL
