MODEL 1
REMARK VINA RESULT:     -13.1      0.000      0.000
REMARK SMILES Cc1c(C(=O)NCCCCNC(=O)c2ccc(-c3c4nc(c(-c5c(F)cc(S(=O)(=O)[O-])cc5F)c5ccc([nH]5)c(-c5c(F)cc(S(=O)(=O)[O-])cc5F)c5nc(c(-c6c(F)cc(S(=O)(=O)[O-])cc6F)c6ccc3[nH]6)C=C5)C=C4)cc2)sc2c1=C(CSc1nncn1-c1ccccc1)CC(=O)N=2
REMARK SMILES IDX 8 1 7 2 6 3 4 4 5 5 3 7 1 8 2 9 82 10 80 11 81 12 83 13
REMARK SMILES IDX 100 14 97 15 98 16 99 17 84 18 85 19 86 20 87 21 90 22 88 23
REMARK SMILES IDX 89 24 91 25 92 26 96 27 93 28 95 29 94 30 9 31 10 32 11 33
REMARK SMILES IDX 12 34 13 36 14 37 15 38 79 39 16 40 78 41 17 42 18 43 19 44
REMARK SMILES IDX 72 45 20 46 77 47 71 48 73 49 21 50 76 51 70 52 69 53 22 55
REMARK SMILES IDX 56 56 35 57 55 58 36 59 39 60 54 61 74 62 37 63 38 64 53 66
REMARK SMILES IDX 75 67 40 68 23 69 24 70 33 71 25 72 26 73 32 74 34 75 27 76
REMARK SMILES IDX 28 77 29 78 30 79 31 80 57 81 58 82 67 83 59 84 60 85 66 86
REMARK SMILES IDX 68 87 61 88 62 89 63 90 64 91 65 92 41 93 42 94 51 95 43 96
REMARK SMILES IDX 44 97 50 98 52 99 45 100 46 101 47 102 48 103 49 104
REMARK H PARENT 6 6 11 35 73 54 39 65
REMARK Flexibility Score: inf
ROOT
ATOM      1  C   UNL A   1      39.013  23.359  26.691  1.00  0.00     0.023 C 
ENDROOT
BRANCH   1   2
ATOM      2  C   UNL A   1      37.578  23.359  26.127  1.00  0.00     0.116 C 
BRANCH   2   3
ATOM      3  N   UNL A   1      37.137  22.035  25.742  1.00  0.00    -0.351 N 
ATOM      4  C   UNL A   1      35.977  21.487  25.293  1.00  0.00     0.261 C 
ATOM      5  O   UNL A   1      36.090  20.299  24.963  1.00  0.00    -0.268 OA
ATOM      6  H   UNL A   1      37.855  21.366  25.826  1.00  0.00     0.163 HD
BRANCH   4   7
ATOM      7  C   UNL A   1      34.635  22.179  25.151  1.00  0.00     0.098 A 
ATOM      8  C   UNL A   1      34.971  24.726  25.019  1.00  0.00     0.047 C 
ATOM      9  C   UNL A   1      34.198  23.455  24.997  1.00  0.00    -0.018 A 
ATOM     10  C   UNL A   1      32.729  23.556  24.996  1.00  0.00     0.016 A 
ATOM     11  S   UNL A   1      33.249  21.085  25.513  1.00  0.00    -0.110 S 
ATOM     12  C   UNL A   1      32.167  22.423  25.776  1.00  0.00     0.128 A 
ATOM     13  C   UNL A   1      31.948  24.659  25.025  1.00  0.00    -0.040 C 
ATOM     14  N   UNL A   1      31.164  22.405  26.578  1.00  0.00    -0.202 NA
ATOM     15  C   UNL A   1      31.262  24.886  26.366  1.00  0.00     0.135 C 
ATOM     16  C   UNL A   1      30.513  23.610  26.777  1.00  0.00     0.251 C 
ATOM     17  O   UNL A   1      29.420  23.693  27.315  1.00  0.00    -0.272 OA
BRANCH  13  18
ATOM     18  C   UNL A   1      30.926  24.884  23.906  1.00  0.00     0.110 C 
BRANCH  18  19
ATOM     19  S   UNL A   1      29.695  26.142  24.269  1.00  0.00    -0.081 SA
BRANCH  19  20
ATOM     20  C   UNL A   1      30.324  27.497  23.394  1.00  0.00     0.195 A 
ATOM     21  N   UNL A   1      29.778  27.983  22.299  1.00  0.00    -0.123 NA
ATOM     22  N   UNL A   1      31.331  28.336  23.836  1.00  0.00    -0.277 N 
ATOM     23  N   UNL A   1      30.408  29.160  21.996  1.00  0.00    -0.138 NA
ATOM     24  C   UNL A   1      31.323  29.360  22.916  1.00  0.00     0.231 A 
BRANCH  22  25
ATOM     25  C   UNL A   1      32.092  28.299  25.031  1.00  0.00     0.049 A 
ATOM     26  C   UNL A   1      31.518  28.554  26.285  1.00  0.00     0.027 A 
ATOM     27  C   UNL A   1      33.472  28.112  24.929  1.00  0.00     0.027 A 
ATOM     28  C   UNL A   1      32.325  28.735  27.405  1.00  0.00     0.002 A 
ATOM     29  C   UNL A   1      34.268  28.305  26.047  1.00  0.00     0.002 A 
ATOM     30  C   UNL A   1      33.701  28.640  27.278  1.00  0.00     0.000 A 
ENDBRANCH  22  25
ENDBRANCH  19  20
ENDBRANCH  18  19
ENDBRANCH  13  18
ENDBRANCH   4   7
ENDBRANCH   2   3
ENDBRANCH   1   2
BRANCH   1  31
ATOM     31  C   UNL A   1      39.866  22.102  26.418  1.00  0.00     0.023 C 
BRANCH  31  32
ATOM     32  C   UNL A   1      41.215  22.047  27.131  1.00  0.00     0.116 C 
BRANCH  32  33
ATOM     33  N   UNL A   1      42.381  22.196  26.247  1.00  0.00    -0.352 N 
ATOM     34  C   UNL A   1      42.836  23.338  25.592  1.00  0.00     0.251 C 
ATOM     35  H   UNL A   1      42.910  21.379  26.096  1.00  0.00     0.163 HD
ATOM     36  O   UNL A   1      43.549  23.238  24.598  1.00  0.00    -0.269 OA
BRANCH  34  37
ATOM     37  C   UNL A   1      42.497  24.670  26.138  1.00  0.00     0.039 A 
ATOM     38  C   UNL A   1      41.641  25.587  25.524  1.00  0.00     0.014 A 
ATOM     39  C   UNL A   1      43.114  25.014  27.329  1.00  0.00     0.014 A 
ATOM     40  C   UNL A   1      41.401  26.810  26.162  1.00  0.00     0.010 A 
ATOM     41  C   UNL A   1      42.758  26.115  28.038  1.00  0.00     0.010 A 
ATOM     42  C   UNL A   1      41.979  27.062  27.417  1.00  0.00    -0.014 A 
BRANCH  42  43
ATOM     43  C   UNL A   1      41.728  28.250  28.207  1.00  0.00     0.031 A 
ATOM     44  C   UNL A   1      42.723  29.322  27.993  1.00  0.00     0.074 A 
ATOM     45  C   UNL A   1      40.551  28.485  28.826  1.00  0.00     0.049 A 
ATOM     46  N   UNL A   1      43.683  29.640  28.790  1.00  0.00    -0.248 NA
ATOM     47  C   UNL A   1      42.794  29.985  26.681  1.00  0.00     0.031 C 
ATOM     48  C   UNL A   1      39.313  27.695  28.812  1.00  0.00     0.029 A 
ATOM     49  N   UNL A   1      40.190  29.578  29.542  1.00  0.00    -0.354 N 
ATOM     50  C   UNL A   1      44.326  30.718  28.198  1.00  0.00     0.074 A 
ATOM     51  C   UNL A   1      43.893  30.730  26.825  1.00  0.00     0.031 C 
ATOM     52  C   UNL A   1      38.293  28.439  29.301  1.00  0.00     0.029 A 
ATOM     53  C   UNL A   1      38.832  29.687  29.812  1.00  0.00     0.049 A 
ATOM     54  H   UNL A   1      40.844  30.247  29.848  1.00  0.00     0.167 HD
ATOM     55  C   UNL A   1      44.966  31.648  28.960  1.00  0.00     0.037 A 
ATOM     56  C   UNL A   1      38.216  30.752  30.388  1.00  0.00     0.037 A 
ATOM     57  C   UNL A   1      45.053  31.210  30.335  1.00  0.00     0.049 A 
ATOM     58  C   UNL A   1      39.275  31.503  31.123  1.00  0.00     0.074 A 
ATOM     59  C   UNL A   1      45.603  30.109  30.966  1.00  0.00     0.029 A 
ATOM     60  N   UNL A   1      44.141  31.734  31.224  1.00  0.00    -0.354 N 
ATOM     61  N   UNL A   1      39.914  31.023  32.158  1.00  0.00    -0.248 NA
ATOM     62  C   UNL A   1      39.967  32.569  30.411  1.00  0.00     0.031 C 
ATOM     63  C   UNL A   1      44.650  29.745  31.963  1.00  0.00     0.029 A 
ATOM     64  C   UNL A   1      43.621  30.689  31.945  1.00  0.00     0.049 A 
ATOM     65  H   UNL A   1      43.904  32.685  31.322  1.00  0.00     0.167 HD
ATOM     66  C   UNL A   1      41.236  31.402  31.971  1.00  0.00     0.074 A 
ATOM     67  C   UNL A   1      41.193  32.421  30.922  1.00  0.00     0.031 C 
ATOM     68  C   UNL A   1      42.269  30.654  32.463  1.00  0.00     0.037 A 
BRANCH  55  69
ATOM     69  C   UNL A   1      45.195  33.087  28.577  1.00  0.00     0.058 A 
ATOM     70  C   UNL A   1      46.513  33.586  28.586  1.00  0.00     0.135 A 
ATOM     71  C   UNL A   1      44.174  34.054  28.466  1.00  0.00     0.135 A 
ATOM     72  F   UNL A   1      47.561  32.753  28.683  1.00  0.00    -0.206 F 
ATOM     73  C   UNL A   1      46.793  34.951  28.572  1.00  0.00     0.059 A 
ATOM     74  C   UNL A   1      44.434  35.418  28.393  1.00  0.00     0.059 A 
ATOM     75  F   UNL A   1      42.875  33.737  28.523  1.00  0.00    -0.206 F 
ATOM     76  C   UNL A   1      45.743  35.859  28.492  1.00  0.00     0.060 A 
BRANCH  76  77
ATOM     77  S   UNL A   1      46.099  37.621  28.581  1.00  0.00     0.124 S 
ATOM     78  O   UNL A   1      45.524  38.094  27.327  1.00  0.00    -0.237 OA
ATOM     79  O   UNL A   1      45.395  38.010  29.797  1.00  0.00    -0.237 OA
ATOM     80  O   UNL A   1      47.556  37.663  28.665  1.00  0.00    -0.744 OA
ENDBRANCH  76  77
ENDBRANCH  55  69
BRANCH  56  81
ATOM     81  C   UNL A   1      36.895  31.351  30.041  1.00  0.00     0.058 A 
ATOM     82  C   UNL A   1      36.095  31.957  31.028  1.00  0.00     0.135 A 
ATOM     83  C   UNL A   1      36.530  31.614  28.705  1.00  0.00     0.135 A 
ATOM     84  F   UNL A   1      36.369  31.766  32.328  1.00  0.00    -0.206 F 
ATOM     85  C   UNL A   1      35.050  32.833  30.713  1.00  0.00     0.059 A 
ATOM     86  C   UNL A   1      35.486  32.477  28.366  1.00  0.00     0.059 A 
ATOM     87  F   UNL A   1      37.236  31.117  27.680  1.00  0.00    -0.206 F 
ATOM     88  C   UNL A   1      34.773  33.111  29.376  1.00  0.00     0.060 A 
BRANCH  88  89
ATOM     89  S   UNL A   1      33.583  34.410  28.960  1.00  0.00     0.124 S 
ATOM     90  O   UNL A   1      33.017  34.729  30.265  1.00  0.00    -0.237 OA
ATOM     91  O   UNL A   1      34.438  35.432  28.366  1.00  0.00    -0.237 OA
ATOM     92  O   UNL A   1      32.674  33.747  28.028  1.00  0.00    -0.744 OA
ENDBRANCH  88  89
ENDBRANCH  56  81
BRANCH  68  93
ATOM     93  C   UNL A   1      41.961  29.562  33.460  1.00  0.00     0.058 A 
ATOM     94  C   UNL A   1      41.676  28.226  33.125  1.00  0.00     0.135 A 
ATOM     95  C   UNL A   1      42.128  29.854  34.822  1.00  0.00     0.135 A 
ATOM     96  F   UNL A   1      41.603  27.833  31.847  1.00  0.00    -0.206 F 
ATOM     97  C   UNL A   1      41.525  27.237  34.100  1.00  0.00     0.059 A 
ATOM     98  C   UNL A   1      42.015  28.879  35.809  1.00  0.00     0.059 A 
ATOM     99  F   UNL A   1      42.464  31.097  35.206  1.00  0.00    -0.206 F 
ATOM    100  C   UNL A   1      41.698  27.574  35.441  1.00  0.00     0.060 A 
BRANCH 100 101
ATOM    101  S   UNL A   1      41.570  26.283  36.698  1.00  0.00     0.124 S 
ATOM    102  O   UNL A   1      40.547  26.822  37.586  1.00  0.00    -0.237 OA
ATOM    103  O   UNL A   1      41.178  25.115  35.914  1.00  0.00    -0.237 OA
ATOM    104  O   UNL A   1      42.917  26.221  37.261  1.00  0.00    -0.744 OA
ENDBRANCH 100 101
ENDBRANCH  68  93
ENDBRANCH  42  43
ENDBRANCH  34  37
ENDBRANCH  32  33
ENDBRANCH  31  32
ENDBRANCH   1  31
TORSDOF 18
ENDMDL
MODEL 2
REMARK VINA RESULT:     -12.7      2.386      3.250
REMARK SMILES Cc1c(C(=O)NCCCCNC(=O)c2ccc(-c3c4nc(c(-c5c(F)cc(S(=O)(=O)[O-])cc5F)c5ccc([nH]5)c(-c5c(F)cc(S(=O)(=O)[O-])cc5F)c5nc(c(-c6c(F)cc(S(=O)(=O)[O-])cc6F)c6ccc3[nH]6)C=C5)C=C4)cc2)sc2c1=C(CSc1nncn1-c1ccccc1)CC(=O)N=2
REMARK SMILES IDX 8 1 7 2 6 3 4 4 5 5 3 7 1 8 2 9 82 10 80 11 81 12 83 13
REMARK SMILES IDX 100 14 97 15 98 16 99 17 84 18 85 19 86 20 87 21 90 22 88 23
REMARK SMILES IDX 89 24 91 25 92 26 96 27 93 28 95 29 94 30 9 31 10 32 11 33
REMARK SMILES IDX 12 34 13 36 14 37 15 38 79 39 16 40 78 41 17 42 18 43 19 44
REMARK SMILES IDX 72 45 20 46 77 47 71 48 73 49 21 50 76 51 70 52 69 53 22 55
REMARK SMILES IDX 56 56 35 57 55 58 36 59 39 60 54 61 74 62 37 63 38 64 53 66
REMARK SMILES IDX 75 67 40 68 23 69 24 70 33 71 25 72 26 73 32 74 34 75 27 76
REMARK SMILES IDX 28 77 29 78 30 79 31 80 57 81 58 82 67 83 59 84 60 85 66 86
REMARK SMILES IDX 68 87 61 88 62 89 63 90 64 91 65 92 41 93 42 94 51 95 43 96
REMARK SMILES IDX 44 97 50 98 52 99 45 100 46 101 47 102 48 103 49 104
REMARK H PARENT 6 6 11 35 73 54 39 65
REMARK Flexibility Score: inf
ROOT
ATOM      1  C   UNL A   1      40.501  21.455  27.335  1.00  0.00     0.023 C 
ENDROOT
BRANCH   1   2
ATOM      2  C   UNL A   1      39.679  21.878  26.101  1.00  0.00     0.116 C 
BRANCH   2   3
ATOM      3  N   UNL A   1      38.701  20.880  25.722  1.00  0.00    -0.351 N 
ATOM      4  C   UNL A   1      37.410  20.894  25.297  1.00  0.00     0.261 C 
ATOM      5  O   UNL A   1      36.990  19.778  24.961  1.00  0.00    -0.268 OA
ATOM      6  H   UNL A   1      39.059  19.965  25.787  1.00  0.00     0.163 HD
BRANCH   4   7
ATOM      7  C   UNL A   1      36.497  22.101  25.187  1.00  0.00     0.098 A 
ATOM      8  C   UNL A   1      34.693  22.005  27.018  1.00  0.00     0.047 C 
ATOM      9  C   UNL A   1      35.438  22.598  25.875  1.00  0.00    -0.018 A 
ATOM     10  C   UNL A   1      34.869  23.803  25.248  1.00  0.00     0.016 A 
ATOM     11  S   UNL A   1      36.697  22.981  23.627  1.00  0.00    -0.110 S 
ATOM     12  C   UNL A   1      35.152  23.768  23.790  1.00  0.00     0.128 A 
ATOM     13  C   UNL A   1      33.733  24.469  25.552  1.00  0.00    -0.040 C 
ATOM     14  N   UNL A   1      34.407  24.126  22.808  1.00  0.00    -0.202 NA
ATOM     15  C   UNL A   1      32.617  24.269  24.535  1.00  0.00     0.135 C 
ATOM     16  C   UNL A   1      33.145  24.592  23.130  1.00  0.00     0.251 C 
ATOM     17  O   UNL A   1      32.430  25.180  22.332  1.00  0.00    -0.272 OA
BRANCH  13  18
ATOM     18  C   UNL A   1      33.809  25.957  25.911  1.00  0.00     0.110 C 
BRANCH  18  19
ATOM     19  S   UNL A   1      32.270  26.855  25.675  1.00  0.00    -0.081 SA
BRANCH  19  20
ATOM     20  C   UNL A   1      32.696  27.929  24.386  1.00  0.00     0.195 A 
ATOM     21  N   UNL A   1      33.922  28.084  23.933  1.00  0.00    -0.123 NA
ATOM     22  N   UNL A   1      31.798  28.586  23.564  1.00  0.00    -0.277 N 
ATOM     23  N   UNL A   1      33.862  28.843  22.795  1.00  0.00    -0.138 NA
ATOM     24  C   UNL A   1      32.599  29.130  22.584  1.00  0.00     0.231 A 
BRANCH  22  25
ATOM     25  C   UNL A   1      30.382  28.584  23.573  1.00  0.00     0.049 A 
ATOM     26  C   UNL A   1      29.642  27.398  23.684  1.00  0.00     0.027 A 
ATOM     27  C   UNL A   1      29.717  29.792  23.351  1.00  0.00     0.027 A 
ATOM     28  C   UNL A   1      28.268  27.401  23.462  1.00  0.00     0.002 A 
ATOM     29  C   UNL A   1      28.351  29.784  23.120  1.00  0.00     0.002 A 
ATOM     30  C   UNL A   1      27.629  28.590  23.150  1.00  0.00     0.000 A 
ENDBRANCH  22  25
ENDBRANCH  19  20
ENDBRANCH  18  19
ENDBRANCH  13  18
ENDBRANCH   4   7
ENDBRANCH   2   3
ENDBRANCH   1   2
BRANCH   1  31
ATOM     31  C   UNL A   1      41.290  20.134  27.224  1.00  0.00     0.023 C 
BRANCH  31  32
ATOM     32  C   UNL A   1      41.711  19.727  25.814  1.00  0.00     0.116 C 
BRANCH  32  33
ATOM     33  N   UNL A   1      43.163  19.579  25.628  1.00  0.00    -0.352 N 
ATOM     34  C   UNL A   1      44.111  20.564  25.363  1.00  0.00     0.251 C 
ATOM     35  H   UNL A   1      43.510  18.661  25.698  1.00  0.00     0.163 HD
ATOM     36  O   UNL A   1      45.181  20.267  24.841  1.00  0.00    -0.269 OA
BRANCH  34  37
ATOM     37  C   UNL A   1      43.837  21.960  25.766  1.00  0.00     0.039 A 
ATOM     38  C   UNL A   1      43.134  22.888  24.994  1.00  0.00     0.014 A 
ATOM     39  C   UNL A   1      44.356  22.354  26.987  1.00  0.00     0.014 A 
ATOM     40  C   UNL A   1      42.939  24.176  25.507  1.00  0.00     0.010 A 
ATOM     41  C   UNL A   1      44.029  23.535  27.568  1.00  0.00     0.010 A 
ATOM     42  C   UNL A   1      43.405  24.486  26.795  1.00  0.00    -0.014 A 
BRANCH  42  43
ATOM     43  C   UNL A   1      43.181  25.753  27.460  1.00  0.00     0.031 A 
ATOM     44  C   UNL A   1      44.142  26.805  27.066  1.00  0.00     0.074 A 
ATOM     45  C   UNL A   1      42.039  26.044  28.121  1.00  0.00     0.049 A 
ATOM     46  N   UNL A   1      45.142  27.222  27.762  1.00  0.00    -0.248 NA
ATOM     47  C   UNL A   1      44.122  27.316  25.686  1.00  0.00     0.031 C 
ATOM     48  C   UNL A   1      40.816  25.244  28.272  1.00  0.00     0.029 A 
ATOM     49  N   UNL A   1      41.702  27.206  28.730  1.00  0.00    -0.354 N 
ATOM     50  C   UNL A   1      45.729  28.233  27.014  1.00  0.00     0.074 A 
ATOM     51  C   UNL A   1      45.214  28.085  25.677  1.00  0.00     0.031 C 
ATOM     52  C   UNL A   1      39.815  26.027  28.736  1.00  0.00     0.029 A 
ATOM     53  C   UNL A   1      40.361  27.331  29.070  1.00  0.00     0.049 A 
ATOM     54  H   UNL A   1      42.361  27.914  28.918  1.00  0.00     0.167 HD
ATOM     55  C   UNL A   1      46.397  29.250  27.625  1.00  0.00     0.037 A 
ATOM     56  C   UNL A   1      39.762  28.447  29.559  1.00  0.00     0.037 A 
ATOM     57  C   UNL A   1      46.574  28.971  29.032  1.00  0.00     0.049 A 
ATOM     58  C   UNL A   1      40.850  29.289  30.138  1.00  0.00     0.074 A 
ATOM     59  C   UNL A   1      47.180  27.955  29.748  1.00  0.00     0.029 A 
ATOM     60  N   UNL A   1      45.708  29.583  29.911  1.00  0.00    -0.354 N 
ATOM     61  N   UNL A   1      41.558  28.935  31.179  1.00  0.00    -0.248 NA
ATOM     62  C   UNL A   1      41.478  30.274  29.269  1.00  0.00     0.031 C 
ATOM     63  C   UNL A   1      46.296  27.697  30.837  1.00  0.00     0.029 A 
ATOM     64  C   UNL A   1      45.251  28.621  30.777  1.00  0.00     0.049 A 
ATOM     65  H   UNL A   1      45.461  30.536  29.917  1.00  0.00     0.167 HD
ATOM     66  C   UNL A   1      42.860  29.306  30.869  1.00  0.00     0.074 A 
ATOM     67  C   UNL A   1      42.735  30.198  29.717  1.00  0.00     0.031 C 
ATOM     68  C   UNL A   1      43.934  28.629  31.378  1.00  0.00     0.037 A 
BRANCH  55  69
ATOM     69  C   UNL A   1      46.577  30.639  27.070  1.00  0.00     0.058 A 
ATOM     70  C   UNL A   1      47.874  31.188  27.032  1.00  0.00     0.135 A 
ATOM     71  C   UNL A   1      45.521  31.543  26.827  1.00  0.00     0.135 A 
ATOM     72  F   UNL A   1      48.952  30.416  27.245  1.00  0.00    -0.206 F 
ATOM     73  C   UNL A   1      48.102  32.551  26.853  1.00  0.00     0.059 A 
ATOM     74  C   UNL A   1      45.729  32.897  26.588  1.00  0.00     0.059 A 
ATOM     75  F   UNL A   1      44.234  31.183  26.907  1.00  0.00    -0.206 F 
ATOM     76  C   UNL A   1      47.018  33.399  26.648  1.00  0.00     0.060 A 
BRANCH  76  77
ATOM     77  S   UNL A   1      47.305  35.171  26.521  1.00  0.00     0.124 S 
ATOM     78  O   UNL A   1      46.455  35.520  25.388  1.00  0.00    -0.237 OA
ATOM     79  O   UNL A   1      46.858  35.643  27.827  1.00  0.00    -0.237 OA
ATOM     80  O   UNL A   1      48.743  35.261  26.286  1.00  0.00    -0.744 OA
ENDBRANCH  76  77
ENDBRANCH  55  69
BRANCH  56  81
ATOM     81  C   UNL A   1      38.412  28.989  29.229  1.00  0.00     0.058 A 
ATOM     82  C   UNL A   1      37.470  29.247  30.242  1.00  0.00     0.135 A 
ATOM     83  C   UNL A   1      38.127  29.547  27.966  1.00  0.00     0.135 A 
ATOM     84  F   UNL A   1      37.659  28.759  31.478  1.00  0.00    -0.206 F 
ATOM     85  C   UNL A   1      36.358  30.073  30.040  1.00  0.00     0.059 A 
ATOM     86  C   UNL A   1      37.020  30.365  27.737  1.00  0.00     0.059 A 
ATOM     87  F   UNL A   1      38.967  29.394  26.932  1.00  0.00    -0.206 F 
ATOM     88  C   UNL A   1      36.158  30.653  28.789  1.00  0.00     0.060 A 
BRANCH  88  89
ATOM     89  S   UNL A   1      34.861  31.898  28.576  1.00  0.00     0.124 S 
ATOM     90  O   UNL A   1      33.789  31.115  27.972  1.00  0.00    -0.237 OA
ATOM     91  O   UNL A   1      34.633  32.342  29.947  1.00  0.00    -0.237 OA
ATOM     92  O   UNL A   1      35.485  32.887  27.701  1.00  0.00    -0.744 OA
ENDBRANCH  88  89
ENDBRANCH  56  81
BRANCH  68  93
ATOM     93  C   UNL A   1      43.706  27.654  32.508  1.00  0.00     0.058 A 
ATOM     94  C   UNL A   1      43.673  26.256  32.368  1.00  0.00     0.135 A 
ATOM     95  C   UNL A   1      43.686  28.162  33.815  1.00  0.00     0.135 A 
ATOM     96  F   UNL A   1      43.793  25.677  31.165  1.00  0.00    -0.206 F 
ATOM     97  C   UNL A   1      43.585  25.405  33.472  1.00  0.00     0.059 A 
ATOM     98  C   UNL A   1      43.632  27.333  34.932  1.00  0.00     0.059 A 
ATOM     99  F   UNL A   1      43.779  29.487  34.023  1.00  0.00    -0.206 F 
ATOM    100  C   UNL A   1      43.566  25.954  34.752  1.00  0.00     0.060 A 
BRANCH 100 101
ATOM    101  S   UNL A   1      43.520  24.853  36.183  1.00  0.00     0.124 S 
ATOM    102  O   UNL A   1      44.570  25.409  37.030  1.00  0.00    -0.237 OA
ATOM    103  O   UNL A   1      42.155  25.023  36.671  1.00  0.00    -0.237 OA
ATOM    104  O   UNL A   1      43.810  23.540  35.612  1.00  0.00    -0.744 OA
ENDBRANCH 100 101
ENDBRANCH  68  93
ENDBRANCH  42  43
ENDBRANCH  34  37
ENDBRANCH  32  33
ENDBRANCH  31  32
ENDBRANCH   1  31
TORSDOF 18
ENDMDL
MODEL 3
REMARK VINA RESULT:     -12.6      1.839      2.517
REMARK SMILES Cc1c(C(=O)NCCCCNC(=O)c2ccc(-c3c4nc(c(-c5c(F)cc(S(=O)(=O)[O-])cc5F)c5ccc([nH]5)c(-c5c(F)cc(S(=O)(=O)[O-])cc5F)c5nc(c(-c6c(F)cc(S(=O)(=O)[O-])cc6F)c6ccc3[nH]6)C=C5)C=C4)cc2)sc2c1=C(CSc1nncn1-c1ccccc1)CC(=O)N=2
REMARK SMILES IDX 8 1 7 2 6 3 4 4 5 5 3 7 1 8 2 9 82 10 80 11 81 12 83 13
REMARK SMILES IDX 100 14 97 15 98 16 99 17 84 18 85 19 86 20 87 21 90 22 88 23
REMARK SMILES IDX 89 24 91 25 92 26 96 27 93 28 95 29 94 30 9 31 10 32 11 33
REMARK SMILES IDX 12 34 13 36 14 37 15 38 79 39 16 40 78 41 17 42 18 43 19 44
REMARK SMILES IDX 72 45 20 46 77 47 71 48 73 49 21 50 76 51 70 52 69 53 22 55
REMARK SMILES IDX 56 56 35 57 55 58 36 59 39 60 54 61 74 62 37 63 38 64 53 66
REMARK SMILES IDX 75 67 40 68 23 69 24 70 33 71 25 72 26 73 32 74 34 75 27 76
REMARK SMILES IDX 28 77 29 78 30 79 31 80 57 81 58 82 67 83 59 84 60 85 66 86
REMARK SMILES IDX 68 87 61 88 62 89 63 90 64 91 65 92 41 93 42 94 51 95 43 96
REMARK SMILES IDX 44 97 50 98 52 99 45 100 46 101 47 102 48 103 49 104
REMARK H PARENT 6 6 11 35 73 54 39 65
REMARK Flexibility Score: inf
ROOT
ATOM      1  C   UNL A   1      36.956  20.386  24.929  1.00  0.00     0.023 C 
ENDROOT
BRANCH   1   2
ATOM      2  C   UNL A   1      35.444  20.227  25.186  1.00  0.00     0.116 C 
BRANCH   2   3
ATOM      3  N   UNL A   1      35.021  20.876  26.410  1.00  0.00    -0.351 N 
ATOM      4  C   UNL A   1      34.201  21.911  26.731  1.00  0.00     0.261 C 
ATOM      5  O   UNL A   1      34.033  22.046  27.950  1.00  0.00    -0.268 OA
ATOM      6  H   UNL A   1      35.428  20.464  27.207  1.00  0.00     0.163 HD
BRANCH   4   7
ATOM      7  C   UNL A   1      33.497  22.851  25.770  1.00  0.00     0.098 A 
ATOM      8  C   UNL A   1      32.196  21.495  24.014  1.00  0.00     0.047 C 
ATOM      9  C   UNL A   1      32.661  22.726  24.709  1.00  0.00    -0.018 A 
ATOM     10  C   UNL A   1      32.345  24.019  24.080  1.00  0.00     0.016 A 
ATOM     11  S   UNL A   1      34.092  24.547  25.900  1.00  0.00    -0.110 S 
ATOM     12  C   UNL A   1      33.464  24.964  24.330  1.00  0.00     0.128 A 
ATOM     13  C   UNL A   1      31.687  24.270  22.926  1.00  0.00    -0.040 C 
ATOM     14  N   UNL A   1      33.974  25.846  23.550  1.00  0.00    -0.202 NA
ATOM     15  C   UNL A   1      32.593  24.738  21.795  1.00  0.00     0.135 C 
ATOM     16  C   UNL A   1      33.435  25.929  22.277  1.00  0.00     0.251 C 
ATOM     17  O   UNL A   1      33.655  26.864  21.523  1.00  0.00    -0.272 OA
BRANCH  13  18
ATOM     18  C   UNL A   1      30.438  25.157  22.953  1.00  0.00     0.110 C 
BRANCH  18  19
ATOM     19  S   UNL A   1      30.467  26.440  24.211  1.00  0.00    -0.081 SA
BRANCH  19  20
ATOM     20  C   UNL A   1      30.547  27.870  23.238  1.00  0.00     0.195 A 
ATOM     21  N   UNL A   1      29.792  28.083  22.181  1.00  0.00    -0.123 NA
ATOM     22  N   UNL A   1      31.250  29.017  23.560  1.00  0.00    -0.277 N 
ATOM     23  N   UNL A   1      29.974  29.380  21.783  1.00  0.00    -0.138 NA
ATOM     24  C   UNL A   1      30.836  29.924  22.610  1.00  0.00     0.231 A 
BRANCH  22  25
ATOM     25  C   UNL A   1      32.065  29.303  24.682  1.00  0.00     0.049 A 
ATOM     26  C   UNL A   1      33.333  28.726  24.846  1.00  0.00     0.027 A 
ATOM     27  C   UNL A   1      31.533  30.097  25.700  1.00  0.00     0.027 A 
ATOM     28  C   UNL A   1      34.010  28.845  26.056  1.00  0.00     0.002 A 
ATOM     29  C   UNL A   1      32.210  30.200  26.905  1.00  0.00     0.002 A 
ATOM     30  C   UNL A   1      33.433  29.557  27.094  1.00  0.00     0.000 A 
ENDBRANCH  22  25
ENDBRANCH  19  20
ENDBRANCH  18  19
ENDBRANCH  13  18
ENDBRANCH   4   7
ENDBRANCH   2   3
ENDBRANCH   1   2
BRANCH   1  31
ATOM     31  C   UNL A   1      37.480  21.825  24.742  1.00  0.00     0.023 C 
BRANCH  31  32
ATOM     32  C   UNL A   1      38.198  22.433  25.945  1.00  0.00     0.116 C 
BRANCH  32  33
ATOM     33  N   UNL A   1      39.499  21.820  26.255  1.00  0.00    -0.352 N 
ATOM     34  C   UNL A   1      40.719  22.445  26.504  1.00  0.00     0.251 C 
ATOM     35  H   UNL A   1      39.510  20.836  26.290  1.00  0.00     0.163 HD
ATOM     36  O   UNL A   1      41.770  21.833  26.347  1.00  0.00    -0.269 OA
BRANCH  34  37
ATOM     37  C   UNL A   1      40.730  23.835  27.010  1.00  0.00     0.039 A 
ATOM     38  C   UNL A   1      39.838  24.833  26.612  1.00  0.00     0.014 A 
ATOM     39  C   UNL A   1      41.729  24.144  27.917  1.00  0.00     0.014 A 
ATOM     40  C   UNL A   1      39.959  26.106  27.184  1.00  0.00     0.010 A 
ATOM     41  C   UNL A   1      41.749  25.314  28.603  1.00  0.00     0.010 A 
ATOM     42  C   UNL A   1      40.931  26.331  28.172  1.00  0.00    -0.014 A 
BRANCH  42  43
ATOM     43  C   UNL A   1      41.086  27.578  28.893  1.00  0.00     0.031 A 
ATOM     44  C   UNL A   1      42.070  28.496  28.282  1.00  0.00     0.074 A 
ATOM     45  C   UNL A   1      40.209  27.998  29.831  1.00  0.00     0.049 A 
ATOM     46  N   UNL A   1      43.266  28.719  28.703  1.00  0.00    -0.248 NA
ATOM     47  C   UNL A   1      41.783  29.082  26.963  1.00  0.00     0.031 C 
ATOM     48  C   UNL A   1      38.953  27.380  30.280  1.00  0.00     0.029 A 
ATOM     49  N   UNL A   1      40.225  29.160  30.526  1.00  0.00    -0.354 N 
ATOM     50  C   UNL A   1      43.797  29.672  27.846  1.00  0.00     0.074 A 
ATOM     51  C   UNL A   1      42.945  29.679  26.686  1.00  0.00     0.031 C 
ATOM     52  C   UNL A   1      38.239  28.276  31.000  1.00  0.00     0.029 A 
ATOM     53  C   UNL A   1      39.050  29.463  31.203  1.00  0.00     0.049 A 
ATOM     54  H   UNL A   1      41.014  29.750  30.550  1.00  0.00     0.167 HD
ATOM     55  C   UNL A   1      44.751  30.543  28.281  1.00  0.00     0.037 A 
ATOM     56  C   UNL A   1      38.779  30.627  31.849  1.00  0.00     0.037 A 
ATOM     57  C   UNL A   1      45.231  30.161  29.590  1.00  0.00     0.049 A 
ATOM     58  C   UNL A   1      40.097  31.263  32.142  1.00  0.00     0.074 A 
ATOM     59  C   UNL A   1      45.830  29.027  30.108  1.00  0.00     0.029 A 
ATOM     60  N   UNL A   1      44.723  30.844  30.673  1.00  0.00    -0.354 N 
ATOM     61  N   UNL A   1      40.980  30.749  32.958  1.00  0.00    -0.248 NA
ATOM     62  C   UNL A   1      40.633  32.192  31.157  1.00  0.00     0.031 C 
ATOM     63  C   UNL A   1      45.220  28.841  31.383  1.00  0.00     0.029 A 
ATOM     64  C   UNL A   1      44.353  29.912  31.610  1.00  0.00     0.049 A 
ATOM     65  H   UNL A   1      44.640  31.821  30.758  1.00  0.00     0.167 HD
ATOM     66  C   UNL A   1      42.202  30.939  32.329  1.00  0.00     0.074 A 
ATOM     67  C   UNL A   1      41.934  31.904  31.263  1.00  0.00     0.031 C 
ATOM     68  C   UNL A   1      43.249  30.082  32.531  1.00  0.00     0.037 A 
BRANCH  55  69
ATOM     69  C   UNL A   1      45.002  31.918  27.722  1.00  0.00     0.058 A 
ATOM     70  C   UNL A   1      46.247  32.184  27.116  1.00  0.00     0.135 A 
ATOM     71  C   UNL A   1      44.197  33.046  27.987  1.00  0.00     0.135 A 
ATOM     72  F   UNL A   1      47.091  31.184  26.816  1.00  0.00    -0.206 F 
ATOM     73  C   UNL A   1      46.696  33.480  26.872  1.00  0.00     0.059 A 
ATOM     74  C   UNL A   1      44.600  34.345  27.697  1.00  0.00     0.059 A 
ATOM     75  F   UNL A   1      43.025  32.957  28.627  1.00  0.00    -0.206 F 
ATOM     76  C   UNL A   1      45.869  34.555  27.182  1.00  0.00     0.060 A 
BRANCH  76  77
ATOM     77  S   UNL A   1      46.490  36.229  26.964  1.00  0.00     0.124 S 
ATOM     78  O   UNL A   1      47.299  36.082  25.759  1.00  0.00    -0.237 OA
ATOM     79  O   UNL A   1      45.255  36.992  26.817  1.00  0.00    -0.237 OA
ATOM     80  O   UNL A   1      47.230  36.475  28.198  1.00  0.00    -0.744 OA
ENDBRANCH  76  77
ENDBRANCH  55  69
BRANCH  56  81
ATOM     81  C   UNL A   1      37.493  31.381  31.888  1.00  0.00     0.058 A 
ATOM     82  C   UNL A   1      36.893  31.723  33.115  1.00  0.00     0.135 A 
ATOM     83  C   UNL A   1      36.987  32.041  30.750  1.00  0.00     0.135 A 
ATOM     84  F   UNL A   1      37.311  31.148  34.253  1.00  0.00    -0.206 F 
ATOM     85  C   UNL A   1      35.911  32.716  33.219  1.00  0.00     0.059 A 
ATOM     86  C   UNL A   1      36.002  33.027  30.827  1.00  0.00     0.059 A 
ATOM     87  F   UNL A   1      37.501  31.819  29.531  1.00  0.00    -0.206 F 
ATOM     88  C   UNL A   1      35.494  33.386  32.070  1.00  0.00     0.060 A 
BRANCH  88  89
ATOM     89  S   UNL A   1      34.400  34.819  32.217  1.00  0.00     0.124 S 
ATOM     90  O   UNL A   1      33.243  34.247  32.896  1.00  0.00    -0.237 OA
ATOM     91  O   UNL A   1      35.209  35.744  33.003  1.00  0.00    -0.237 OA
ATOM     92  O   UNL A   1      34.178  35.217  30.829  1.00  0.00    -0.744 OA
ENDBRANCH  88  89
ENDBRANCH  56  81
BRANCH  68  93
ATOM     93  C   UNL A   1      43.162  29.089  33.665  1.00  0.00     0.058 A 
ATOM     94  C   UNL A   1      43.490  29.368  35.004  1.00  0.00     0.135 A 
ATOM     95  C   UNL A   1      42.559  27.850  33.404  1.00  0.00     0.135 A 
ATOM     96  F   UNL A   1      43.972  30.565  35.364  1.00  0.00    -0.206 F 
ATOM     97  C   UNL A   1      43.267  28.443  36.027  1.00  0.00     0.059 A 
ATOM     98  C   UNL A   1      42.297  26.926  34.411  1.00  0.00     0.059 A 
ATOM     99  F   UNL A   1      42.163  27.545  32.156  1.00  0.00    -0.206 F 
ATOM    100  C   UNL A   1      42.667  27.223  35.720  1.00  0.00     0.060 A 
BRANCH 100 101
ATOM    101  S   UNL A   1      42.316  26.054  37.051  1.00  0.00     0.124 S 
ATOM    102  O   UNL A   1      43.147  26.566  38.134  1.00  0.00    -0.237 OA
ATOM    103  O   UNL A   1      40.875  26.202  37.231  1.00  0.00    -0.237 OA
ATOM    104  O   UNL A   1      42.737  24.769  36.496  1.00  0.00    -0.744 OA
ENDBRANCH 100 101
ENDBRANCH  68  93
ENDBRANCH  42  43
ENDBRANCH  34  37
ENDBRANCH  32  33
ENDBRANCH  31  32
ENDBRANCH   1  31
TORSDOF 18
ENDMDL
