MODEL 1
REMARK VINA RESULT:     -11.0      0.000      0.000
REMARK SMILES Cc1cc(C)c(C#N)c(NC[C@H](CC(C)C)C(=O)NCCCCNC(=O)c2ccc(-c3c4nc(c(-c5c(F)cc(S(=O)(=O)[O-])cc5F)c5ccc([nH]5)c(-c5c(F)cc(S(=O)(=O)[O-])cc5F)c5nc(c(-c6c(F)cc(S(=O)(=O)[O-])cc6F)c6ccc3[nH]6)C=C5)C=C4)cc2)n1
REMARK SMILES IDX 21 1 20 2 19 3 17 4 18 5 12 7 11 8 10 9 9 11 1 12 2 13 3 14
REMARK SMILES IDX 93 15 4 16 5 17 6 18 7 19 8 20 13 21 14 22 15 23 16 24 22 25
REMARK SMILES IDX 23 26 24 27 25 28 26 30 27 31 28 32 92 33 29 34 91 35 30 36
REMARK SMILES IDX 31 37 32 38 85 39 33 40 90 41 84 42 86 43 34 44 89 45 83 46
REMARK SMILES IDX 82 47 35 49 69 50 48 51 68 52 49 53 52 54 67 55 87 56 50 57
REMARK SMILES IDX 51 58 66 60 88 61 53 62 36 63 37 64 46 65 38 66 39 67 45 68
REMARK SMILES IDX 47 69 40 70 41 71 42 72 43 73 44 74 70 75 71 76 80 77 72 78
REMARK SMILES IDX 73 79 79 80 81 81 74 82 75 83 76 84 77 85 78 86 54 87 55 88
REMARK SMILES IDX 64 89 56 90 57 91 63 92 65 93 58 94 59 95 60 96 61 97 62 98
REMARK H PARENT 19 6 10 10 24 29 86 48 52 59
REMARK Flexibility Score: inf
ROOT
ATOM      1  C   UNL A   1      39.185  21.815  26.044  1.00  0.00     0.023 C 
ENDROOT
BRANCH   1   2
ATOM      2  C   UNL A   1      37.730  21.604  25.613  1.00  0.00     0.116 C 
BRANCH   2   3
ATOM      3  N   UNL A   1      37.461  22.165  24.310  1.00  0.00    -0.356 N 
ATOM      4  C   UNL A   1      36.361  22.758  23.787  1.00  0.00     0.224 C 
ATOM      5  O   UNL A   1      36.499  23.238  22.655  1.00  0.00    -0.275 OA
ATOM      6  H   UNL A   1      38.219  22.105  23.684  1.00  0.00     0.163 HD
BRANCH   4   7
ATOM      7  C   UNL A   1      34.997  22.872  24.487  1.00  0.00     0.098 C 
BRANCH   7   8
ATOM      8  C   UNL A   1      34.979  23.631  25.823  1.00  0.00     0.128 C 
BRANCH   8   9
ATOM      9  N   UNL A   1      34.679  25.046  25.813  1.00  0.00    -0.368 N 
ATOM     10  H   UNL A   1      35.333  25.625  26.269  1.00  0.00     0.162 HD
BRANCH   9  11
ATOM     11  C   UNL A   1      33.602  25.691  25.251  1.00  0.00     0.144 A 
ATOM     12  C   UNL A   1      33.600  28.343  22.663  1.00  0.00     0.067 C 
ATOM     13  C   UNL A   1      33.087  27.326  23.642  1.00  0.00     0.040 A 
ATOM     14  C   UNL A   1      31.725  27.143  23.808  1.00  0.00     0.028 A 
ATOM     15  N   UNL A   1      34.008  26.614  24.340  1.00  0.00    -0.235 NA
ATOM     16  C   UNL A   1      31.284  26.207  24.741  1.00  0.00    -0.028 A 
ATOM     17  C   UNL A   1      29.804  25.990  24.926  1.00  0.00     0.046 C 
ATOM     18  C   UNL A   1      32.238  25.478  25.488  1.00  0.00     0.097 A 
BRANCH  18  19
ATOM     19  C   UNL A   1      31.744  24.565  26.473  1.00  0.00     0.103 C 
ATOM     20  N   UNL A   1      31.410  23.827  27.308  1.00  0.00    -0.192 NA
ENDBRANCH  18  19
ENDBRANCH   9  11
ENDBRANCH   8   9
ENDBRANCH   7   8
BRANCH   7  21
ATOM     21  C   UNL A   1      33.897  21.823  24.191  1.00  0.00     0.018 C 
BRANCH  21  22
ATOM     22  C   UNL A   1      32.680  22.180  23.345  1.00  0.00    -0.017 C 
ATOM     23  C   UNL A   1      32.868  23.378  22.425  1.00  0.00     0.007 C 
ATOM     24  C   UNL A   1      32.161  20.990  22.534  1.00  0.00     0.007 C 
ENDBRANCH  21  22
ENDBRANCH   7  21
ENDBRANCH   4   7
ENDBRANCH   2   3
ENDBRANCH   1   2
BRANCH   1  25
ATOM     25  C   UNL A   1      39.455  23.027  26.902  1.00  0.00     0.023 C 
BRANCH  25  26
ATOM     26  C   UNL A   1      40.915  23.416  26.972  1.00  0.00     0.116 C 
BRANCH  26  27
ATOM     27  N   UNL A   1      41.376  24.245  25.862  1.00  0.00    -0.352 N 
ATOM     28  C   UNL A   1      41.794  25.559  25.915  1.00  0.00     0.251 C 
ATOM     29  H   UNL A   1      41.393  23.817  24.976  1.00  0.00     0.163 HD
ATOM     30  O   UNL A   1      42.088  26.176  24.899  1.00  0.00    -0.269 OA
BRANCH  28  31
ATOM     31  C   UNL A   1      41.815  26.211  27.240  1.00  0.00     0.039 A 
ATOM     32  C   UNL A   1      42.711  27.254  27.469  1.00  0.00     0.014 A 
ATOM     33  C   UNL A   1      40.806  25.917  28.160  1.00  0.00     0.014 A 
ATOM     34  C   UNL A   1      42.527  28.070  28.585  1.00  0.00     0.010 A 
ATOM     35  C   UNL A   1      40.538  26.821  29.175  1.00  0.00     0.010 A 
ATOM     36  C   UNL A   1      41.403  27.900  29.413  1.00  0.00    -0.014 A 
BRANCH  36  37
ATOM     37  C   UNL A   1      41.128  28.815  30.551  1.00  0.00     0.031 A 
ATOM     38  C   UNL A   1      41.939  28.687  31.814  1.00  0.00     0.074 A 
ATOM     39  C   UNL A   1      40.126  29.715  30.474  1.00  0.00     0.049 A 
ATOM     40  N   UNL A   1      41.822  29.340  32.941  1.00  0.00    -0.248 NA
ATOM     41  C   UNL A   1      43.000  27.664  31.827  1.00  0.00     0.031 C 
ATOM     42  C   UNL A   1      39.225  29.891  29.332  1.00  0.00     0.029 A 
ATOM     43  N   UNL A   1      39.693  30.652  31.379  1.00  0.00    -0.354 N 
ATOM     44  C   UNL A   1      42.787  28.804  33.786  1.00  0.00     0.074 A 
ATOM     45  C   UNL A   1      43.414  27.712  33.082  1.00  0.00     0.031 C 
ATOM     46  C   UNL A   1      38.373  30.897  29.591  1.00  0.00     0.029 A 
ATOM     47  C   UNL A   1      38.630  31.405  30.934  1.00  0.00     0.049 A 
ATOM     48  H   UNL A   1      40.103  30.775  32.266  1.00  0.00     0.167 HD
ATOM     49  C   UNL A   1      43.151  29.215  35.024  1.00  0.00     0.037 A 
ATOM     50  C   UNL A   1      37.934  32.386  31.544  1.00  0.00     0.037 A 
ATOM     51  C   UNL A   1      42.535  30.315  35.712  1.00  0.00     0.049 A 
ATOM     52  C   UNL A   1      38.339  32.808  32.932  1.00  0.00     0.074 A 
ATOM     53  C   UNL A   1      42.851  30.837  36.953  1.00  0.00     0.029 A 
ATOM     54  N   UNL A   1      41.473  31.063  35.220  1.00  0.00    -0.354 N 
ATOM     55  N   UNL A   1      39.301  32.336  33.691  1.00  0.00    -0.248 NA
ATOM     56  C   UNL A   1      37.573  33.901  33.546  1.00  0.00     0.031 C 
ATOM     57  C   UNL A   1      41.943  31.860  37.239  1.00  0.00     0.029 A 
ATOM     58  C   UNL A   1      41.107  32.026  36.145  1.00  0.00     0.049 A 
ATOM     59  H   UNL A   1      41.045  30.928  34.345  1.00  0.00     0.167 HD
ATOM     60  C   UNL A   1      39.273  33.094  34.857  1.00  0.00     0.074 A 
ATOM     61  C   UNL A   1      38.213  34.066  34.695  1.00  0.00     0.031 C 
ATOM     62  C   UNL A   1      40.055  32.995  35.961  1.00  0.00     0.037 A 
BRANCH  49  63
ATOM     63  C   UNL A   1      44.277  28.477  35.697  1.00  0.00     0.058 A 
ATOM     64  C   UNL A   1      44.038  27.391  36.556  1.00  0.00     0.135 A 
ATOM     65  C   UNL A   1      45.612  28.838  35.458  1.00  0.00     0.135 A 
ATOM     66  F   UNL A   1      42.780  27.015  36.839  1.00  0.00    -0.206 F 
ATOM     67  C   UNL A   1      45.078  26.710  37.177  1.00  0.00     0.059 A 
ATOM     68  C   UNL A   1      46.671  28.147  36.040  1.00  0.00     0.059 A 
ATOM     69  F   UNL A   1      45.901  29.872  34.653  1.00  0.00    -0.206 F 
ATOM     70  C   UNL A   1      46.392  27.092  36.908  1.00  0.00     0.060 A 
BRANCH  70  71
ATOM     71  S   UNL A   1      47.730  26.181  37.707  1.00  0.00     0.124 S 
ATOM     72  O   UNL A   1      47.949  26.982  38.909  1.00  0.00    -0.237 OA
ATOM     73  O   UNL A   1      47.126  24.870  37.922  1.00  0.00    -0.237 OA
ATOM     74  O   UNL A   1      48.807  26.222  36.722  1.00  0.00    -0.744 OA
ENDBRANCH  70  71
ENDBRANCH  49  63
BRANCH  50  75
ATOM     75  C   UNL A   1      36.786  33.037  30.850  1.00  0.00     0.058 A 
ATOM     76  C   UNL A   1      36.986  33.964  29.816  1.00  0.00     0.135 A 
ATOM     77  C   UNL A   1      35.462  32.750  31.217  1.00  0.00     0.135 A 
ATOM     78  F   UNL A   1      38.232  34.281  29.430  1.00  0.00    -0.206 F 
ATOM     79  C   UNL A   1      35.920  34.604  29.191  1.00  0.00     0.059 A 
ATOM     80  C   UNL A   1      34.378  33.350  30.584  1.00  0.00     0.059 A 
ATOM     81  F   UNL A   1      35.210  31.858  32.189  1.00  0.00    -0.206 F 
ATOM     82  C   UNL A   1      34.618  34.288  29.581  1.00  0.00     0.060 A 
BRANCH  82  83
ATOM     83  S   UNL A   1      33.239  35.100  28.742  1.00  0.00     0.124 S 
ATOM     84  O   UNL A   1      32.708  34.013  27.928  1.00  0.00    -0.237 OA
ATOM     85  O   UNL A   1      32.408  35.523  29.864  1.00  0.00    -0.237 OA
ATOM     86  O   UNL A   1      33.885  36.183  28.006  1.00  0.00    -0.744 OA
ENDBRANCH  82  83
ENDBRANCH  50  75
BRANCH  62  87
ATOM     87  C   UNL A   1      39.828  33.991  37.067  1.00  0.00     0.058 A 
ATOM     88  C   UNL A   1      39.006  33.707  38.168  1.00  0.00     0.135 A 
ATOM     89  C   UNL A   1      40.496  35.227  37.051  1.00  0.00     0.135 A 
ATOM     90  F   UNL A   1      38.340  32.542  38.232  1.00  0.00    -0.206 F 
ATOM     91  C   UNL A   1      38.830  34.623  39.199  1.00  0.00     0.059 A 
ATOM     92  C   UNL A   1      40.365  36.142  38.090  1.00  0.00     0.059 A 
ATOM     93  F   UNL A   1      41.306  35.546  36.030  1.00  0.00    -0.206 F 
ATOM     94  C   UNL A   1      39.519  35.837  39.154  1.00  0.00     0.060 A 
BRANCH  94  95
ATOM     95  S   UNL A   1      39.308  37.000  40.518  1.00  0.00     0.124 S 
ATOM     96  O   UNL A   1      38.583  38.087  39.869  1.00  0.00    -0.237 OA
ATOM     97  O   UNL A   1      38.545  36.212  41.480  1.00  0.00    -0.237 OA
ATOM     98  O   UNL A   1      40.679  37.309  40.916  1.00  0.00    -0.744 OA
ENDBRANCH  94  95
ENDBRANCH  62  87
ENDBRANCH  36  37
ENDBRANCH  28  31
ENDBRANCH  26  27
ENDBRANCH  25  26
ENDBRANCH   1  25
TORSDOF 20
ENDMDL
MODEL 2
REMARK VINA RESULT:     -11.0      6.525     12.071
REMARK SMILES Cc1cc(C)c(C#N)c(NC[C@H](CC(C)C)C(=O)NCCCCNC(=O)c2ccc(-c3c4nc(c(-c5c(F)cc(S(=O)(=O)[O-])cc5F)c5ccc([nH]5)c(-c5c(F)cc(S(=O)(=O)[O-])cc5F)c5nc(c(-c6c(F)cc(S(=O)(=O)[O-])cc6F)c6ccc3[nH]6)C=C5)C=C4)cc2)n1
REMARK SMILES IDX 21 1 20 2 19 3 17 4 18 5 12 7 11 8 10 9 9 11 1 12 2 13 3 14
REMARK SMILES IDX 93 15 4 16 5 17 6 18 7 19 8 20 13 21 14 22 15 23 16 24 22 25
REMARK SMILES IDX 23 26 24 27 25 28 26 30 27 31 28 32 92 33 29 34 91 35 30 36
REMARK SMILES IDX 31 37 32 38 85 39 33 40 90 41 84 42 86 43 34 44 89 45 83 46
REMARK SMILES IDX 82 47 35 49 69 50 48 51 68 52 49 53 52 54 67 55 87 56 50 57
REMARK SMILES IDX 51 58 66 60 88 61 53 62 36 63 37 64 46 65 38 66 39 67 45 68
REMARK SMILES IDX 47 69 40 70 41 71 42 72 43 73 44 74 70 75 71 76 80 77 72 78
REMARK SMILES IDX 73 79 79 80 81 81 74 82 75 83 76 84 77 85 78 86 54 87 55 88
REMARK SMILES IDX 64 89 56 90 57 91 63 92 65 93 58 94 59 95 60 96 61 97 62 98
REMARK H PARENT 19 6 10 10 24 29 86 48 52 59
REMARK Flexibility Score: inf
ROOT
ATOM      1  C   UNL A   1      33.159  29.822  27.050  1.00  0.00     0.023 C 
ENDROOT
BRANCH   1   2
ATOM      2  C   UNL A   1      32.182  30.147  25.916  1.00  0.00     0.116 C 
BRANCH   2   3
ATOM      3  N   UNL A   1      32.595  29.571  24.659  1.00  0.00    -0.356 N 
ATOM      4  C   UNL A   1      31.892  29.148  23.581  1.00  0.00     0.224 C 
ATOM      5  O   UNL A   1      32.568  28.803  22.603  1.00  0.00    -0.275 OA
ATOM      6  H   UNL A   1      33.570  29.466  24.567  1.00  0.00     0.163 HD
BRANCH   4   7
ATOM      7  C   UNL A   1      30.360  29.073  23.494  1.00  0.00     0.098 C 
BRANCH   7   8
ATOM      8  C   UNL A   1      29.726  27.708  23.808  1.00  0.00     0.128 C 
BRANCH   8   9
ATOM      9  N   UNL A   1      30.162  26.552  23.056  1.00  0.00    -0.368 N 
ATOM     10  H   UNL A   1      29.862  26.515  22.119  1.00  0.00     0.162 HD
BRANCH   9  11
ATOM     11  C   UNL A   1      30.938  25.498  23.477  1.00  0.00     0.144 A 
ATOM     12  C   UNL A   1      30.575  23.452  26.545  1.00  0.00     0.067 C 
ATOM     13  C   UNL A   1      31.104  23.933  25.225  1.00  0.00     0.040 A 
ATOM     14  C   UNL A   1      32.172  23.288  24.624  1.00  0.00     0.028 A 
ATOM     15  N   UNL A   1      30.493  25.008  24.665  1.00  0.00    -0.235 NA
ATOM     16  C   UNL A   1      32.649  23.775  23.409  1.00  0.00    -0.028 A 
ATOM     17  C   UNL A   1      33.806  23.079  22.738  1.00  0.00     0.046 C 
ATOM     18  C   UNL A   1      32.033  24.909  22.831  1.00  0.00     0.097 A 
BRANCH  18  19
ATOM     19  C   UNL A   1      32.588  25.409  21.611  1.00  0.00     0.103 C 
ATOM     20  N   UNL A   1      33.106  25.783  20.638  1.00  0.00    -0.192 NA
ENDBRANCH  18  19
ENDBRANCH   9  11
ENDBRANCH   8   9
ENDBRANCH   7   8
BRANCH   7  21
ATOM     21  C   UNL A   1      29.595  30.081  22.600  1.00  0.00     0.018 C 
BRANCH  21  22
ATOM     22  C   UNL A   1      28.866  31.273  23.210  1.00  0.00    -0.017 C 
ATOM     23  C   UNL A   1      28.793  32.504  22.318  1.00  0.00     0.007 C 
ATOM     24  C   UNL A   1      27.460  30.912  23.697  1.00  0.00     0.007 C 
ENDBRANCH  21  22
ENDBRANCH   7  21
ENDBRANCH   4   7
ENDBRANCH   2   3
ENDBRANCH   1   2
BRANCH   1  25
ATOM     25  C   UNL A   1      34.060  30.948  27.496  1.00  0.00     0.023 C 
BRANCH  25  26
ATOM     26  C   UNL A   1      35.310  30.487  28.214  1.00  0.00     0.116 C 
BRANCH  26  27
ATOM     27  N   UNL A   1      35.470  31.027  29.560  1.00  0.00    -0.352 N 
ATOM     28  C   UNL A   1      36.552  30.870  30.402  1.00  0.00     0.251 C 
ATOM     29  H   UNL A   1      34.722  31.566  29.906  1.00  0.00     0.163 HD
ATOM     30  O   UNL A   1      36.541  31.311  31.545  1.00  0.00    -0.269 OA
BRANCH  28  31
ATOM     31  C   UNL A   1      37.703  30.098  29.892  1.00  0.00     0.039 A 
ATOM     32  C   UNL A   1      38.022  30.170  28.537  1.00  0.00     0.014 A 
ATOM     33  C   UNL A   1      38.567  29.484  30.801  1.00  0.00     0.014 A 
ATOM     34  C   UNL A   1      39.267  29.709  28.110  1.00  0.00     0.010 A 
ATOM     35  C   UNL A   1      39.856  29.172  30.397  1.00  0.00     0.010 A 
ATOM     36  C   UNL A   1      40.219  29.263  29.045  1.00  0.00    -0.014 A 
BRANCH  36  37
ATOM     37  C   UNL A   1      41.588  28.859  28.632  1.00  0.00     0.031 A 
ATOM     38  C   UNL A   1      42.673  29.900  28.556  1.00  0.00     0.074 A 
ATOM     39  C   UNL A   1      41.842  27.582  28.276  1.00  0.00     0.049 A 
ATOM     40  N   UNL A   1      43.914  29.773  28.161  1.00  0.00    -0.248 NA
ATOM     41  C   UNL A   1      42.309  31.276  28.938  1.00  0.00     0.031 C 
ATOM     42  C   UNL A   1      40.860  26.495  28.243  1.00  0.00     0.029 A 
ATOM     43  N   UNL A   1      43.008  26.981  27.870  1.00  0.00    -0.354 N 
ATOM     44  C   UNL A   1      44.467  31.045  28.247  1.00  0.00     0.074 A 
ATOM     45  C   UNL A   1      43.409  31.946  28.636  1.00  0.00     0.031 C 
ATOM     46  C   UNL A   1      41.471  25.357  27.874  1.00  0.00     0.029 A 
ATOM     47  C   UNL A   1      42.876  25.639  27.595  1.00  0.00     0.049 A 
ATOM     48  H   UNL A   1      43.861  27.465  27.781  1.00  0.00     0.167 HD
ATOM     49  C   UNL A   1      45.753  31.423  28.063  1.00  0.00     0.037 A 
ATOM     50  C   UNL A   1      43.779  24.741  27.156  1.00  0.00     0.037 A 
ATOM     51  C   UNL A   1      46.806  30.519  27.694  1.00  0.00     0.049 A 
ATOM     52  C   UNL A   1      45.200  25.191  26.931  1.00  0.00     0.074 A 
ATOM     53  C   UNL A   1      48.150  30.791  27.517  1.00  0.00     0.029 A 
ATOM     54  N   UNL A   1      46.634  29.164  27.441  1.00  0.00    -0.354 N 
ATOM     55  N   UNL A   1      45.721  26.386  27.085  1.00  0.00    -0.248 NA
ATOM     56  C   UNL A   1      46.158  24.171  26.483  1.00  0.00     0.031 C 
ATOM     57  C   UNL A   1      48.781  29.616  27.100  1.00  0.00     0.029 A 
ATOM     58  C   UNL A   1      47.844  28.593  27.087  1.00  0.00     0.049 A 
ATOM     59  H   UNL A   1      45.778  28.681  27.505  1.00  0.00     0.167 HD
ATOM     60  C   UNL A   1      47.073  26.254  26.782  1.00  0.00     0.074 A 
ATOM     61  C   UNL A   1      47.291  24.861  26.454  1.00  0.00     0.031 C 
ATOM     62  C   UNL A   1      48.045  27.200  26.775  1.00  0.00     0.037 A 
BRANCH  49  63
ATOM     63  C   UNL A   1      46.087  32.876  28.277  1.00  0.00     0.058 A 
ATOM     64  C   UNL A   1      46.023  33.809  27.228  1.00  0.00     0.135 A 
ATOM     65  C   UNL A   1      46.445  33.348  29.550  1.00  0.00     0.135 A 
ATOM     66  F   UNL A   1      45.708  33.411  25.985  1.00  0.00    -0.206 F 
ATOM     67  C   UNL A   1      46.331  35.150  27.426  1.00  0.00     0.059 A 
ATOM     68  C   UNL A   1      46.722  34.692  29.778  1.00  0.00     0.059 A 
ATOM     69  F   UNL A   1      46.529  32.501  30.587  1.00  0.00    -0.206 F 
ATOM     70  C   UNL A   1      46.674  35.583  28.707  1.00  0.00     0.060 A 
BRANCH  70  71
ATOM     71  S   UNL A   1      47.049  37.332  28.949  1.00  0.00     0.124 S 
ATOM     72  O   UNL A   1      46.186  37.955  27.948  1.00  0.00    -0.237 OA
ATOM     73  O   UNL A   1      46.661  37.542  30.339  1.00  0.00    -0.237 OA
ATOM     74  O   UNL A   1      48.481  37.414  28.679  1.00  0.00    -0.744 OA
ENDBRANCH  70  71
ENDBRANCH  49  63
BRANCH  50  75
ATOM     75  C   UNL A   1      43.375  23.328  26.901  1.00  0.00     0.058 A 
ATOM     76  C   UNL A   1      43.213  22.837  25.598  1.00  0.00     0.135 A 
ATOM     77  C   UNL A   1      43.132  22.443  27.963  1.00  0.00     0.135 A 
ATOM     78  F   UNL A   1      43.426  23.642  24.545  1.00  0.00    -0.206 F 
ATOM     79  C   UNL A   1      42.799  21.530  25.354  1.00  0.00     0.059 A 
ATOM     80  C   UNL A   1      42.750  21.122  27.746  1.00  0.00     0.059 A 
ATOM     81  F   UNL A   1      43.286  22.853  29.232  1.00  0.00    -0.206 F 
ATOM     82  C   UNL A   1      42.572  20.679  26.436  1.00  0.00     0.060 A 
BRANCH  82  83
ATOM     83  S   UNL A   1      42.066  18.976  26.110  1.00  0.00     0.124 S 
ATOM     84  O   UNL A   1      42.957  18.609  25.016  1.00  0.00    -0.237 OA
ATOM     85  O   UNL A   1      42.327  18.331  27.392  1.00  0.00    -0.237 OA
ATOM     86  O   UNL A   1      40.655  19.107  25.759  1.00  0.00    -0.744 OA
ENDBRANCH  82  83
ENDBRANCH  50  75
BRANCH  62  87
ATOM     87  C   UNL A   1      49.446  26.757  26.447  1.00  0.00     0.058 A 
ATOM     88  C   UNL A   1      50.291  26.185  27.410  1.00  0.00     0.135 A 
ATOM     89  C   UNL A   1      49.925  26.852  25.130  1.00  0.00     0.135 A 
ATOM     90  F   UNL A   1      49.885  26.073  28.686  1.00  0.00    -0.206 F 
ATOM     91  C   UNL A   1      51.571  25.751  27.087  1.00  0.00     0.059 A 
ATOM     92  C   UNL A   1      51.187  26.389  24.776  1.00  0.00     0.059 A 
ATOM     93  F   UNL A   1      49.155  27.378  24.165  1.00  0.00    -0.206 F 
ATOM     94  C   UNL A   1      52.009  25.851  25.765  1.00  0.00     0.060 A 
BRANCH  94  95
ATOM     95  S   UNL A   1      53.660  25.249  25.354  1.00  0.00     0.124 S 
ATOM     96  O   UNL A   1      53.790  25.670  23.963  1.00  0.00    -0.237 OA
ATOM     97  O   UNL A   1      54.497  25.961  26.314  1.00  0.00    -0.237 OA
ATOM     98  O   UNL A   1      53.560  23.808  25.567  1.00  0.00    -0.744 OA
ENDBRANCH  94  95
ENDBRANCH  62  87
ENDBRANCH  36  37
ENDBRANCH  28  31
ENDBRANCH  26  27
ENDBRANCH  25  26
ENDBRANCH   1  25
TORSDOF 20
ENDMDL
MODEL 3
REMARK VINA RESULT:     -10.9      2.967      3.983
REMARK SMILES Cc1cc(C)c(C#N)c(NC[C@H](CC(C)C)C(=O)NCCCCNC(=O)c2ccc(-c3c4nc(c(-c5c(F)cc(S(=O)(=O)[O-])cc5F)c5ccc([nH]5)c(-c5c(F)cc(S(=O)(=O)[O-])cc5F)c5nc(c(-c6c(F)cc(S(=O)(=O)[O-])cc6F)c6ccc3[nH]6)C=C5)C=C4)cc2)n1
REMARK SMILES IDX 21 1 20 2 19 3 17 4 18 5 12 7 11 8 10 9 9 11 1 12 2 13 3 14
REMARK SMILES IDX 93 15 4 16 5 17 6 18 7 19 8 20 13 21 14 22 15 23 16 24 22 25
REMARK SMILES IDX 23 26 24 27 25 28 26 30 27 31 28 32 92 33 29 34 91 35 30 36
REMARK SMILES IDX 31 37 32 38 85 39 33 40 90 41 84 42 86 43 34 44 89 45 83 46
REMARK SMILES IDX 82 47 35 49 69 50 48 51 68 52 49 53 52 54 67 55 87 56 50 57
REMARK SMILES IDX 51 58 66 60 88 61 53 62 36 63 37 64 46 65 38 66 39 67 45 68
REMARK SMILES IDX 47 69 40 70 41 71 42 72 43 73 44 74 70 75 71 76 80 77 72 78
REMARK SMILES IDX 73 79 79 80 81 81 74 82 75 83 76 84 77 85 78 86 54 87 55 88
REMARK SMILES IDX 64 89 56 90 57 91 63 92 65 93 58 94 59 95 60 96 61 97 62 98
REMARK H PARENT 19 6 10 10 24 29 86 48 52 59
REMARK Flexibility Score: inf
ROOT
ATOM      1  C   UNL A   1      35.209  22.052  25.060  1.00  0.00     0.023 C 
ENDROOT
BRANCH   1   2
ATOM      2  C   UNL A   1      34.869  22.519  23.642  1.00  0.00     0.116 C 
BRANCH   2   3
ATOM      3  N   UNL A   1      33.448  22.504  23.389  1.00  0.00    -0.356 N 
ATOM      4  C   UNL A   1      32.493  23.456  23.526  1.00  0.00     0.224 C 
ATOM      5  O   UNL A   1      31.369  23.149  23.109  1.00  0.00    -0.275 OA
ATOM      6  H   UNL A   1      33.109  21.643  23.053  1.00  0.00     0.163 HD
BRANCH   4   7
ATOM      7  C   UNL A   1      32.707  24.845  24.146  1.00  0.00     0.098 C 
BRANCH   7   8
ATOM      8  C   UNL A   1      33.722  25.758  23.438  1.00  0.00     0.128 C 
BRANCH   8   9
ATOM      9  N   UNL A   1      33.348  27.127  23.161  1.00  0.00    -0.368 N 
ATOM     10  H   UNL A   1      33.362  27.390  22.212  1.00  0.00     0.162 HD
BRANCH   9  11
ATOM     11  C   UNL A   1      32.977  28.110  24.047  1.00  0.00     0.144 A 
ATOM     12  C   UNL A   1      34.724  29.218  27.122  1.00  0.00     0.067 C 
ATOM     13  C   UNL A   1      33.706  29.165  26.019  1.00  0.00     0.040 A 
ATOM     14  C   UNL A   1      32.649  30.058  26.001  1.00  0.00     0.028 A 
ATOM     15  N   UNL A   1      33.874  28.216  25.063  1.00  0.00    -0.235 NA
ATOM     16  C   UNL A   1      31.712  29.965  24.974  1.00  0.00    -0.028 A 
ATOM     17  C   UNL A   1      30.560  30.937  24.937  1.00  0.00     0.046 C 
ATOM     18  C   UNL A   1      31.868  28.965  23.987  1.00  0.00     0.097 A 
BRANCH  18  19
ATOM     19  C   UNL A   1      30.856  28.870  22.981  1.00  0.00     0.103 C 
ATOM     20  N   UNL A   1      30.064  28.853  22.128  1.00  0.00    -0.192 NA
ENDBRANCH  18  19
ENDBRANCH   9  11
ENDBRANCH   8   9
ENDBRANCH   7   8
BRANCH   7  21
ATOM     21  C   UNL A   1      32.401  25.067  25.648  1.00  0.00     0.018 C 
BRANCH  21  22
ATOM     22  C   UNL A   1      31.047  25.603  26.101  1.00  0.00    -0.017 C 
ATOM     23  C   UNL A   1      31.110  26.853  26.968  1.00  0.00     0.007 C 
ATOM     24  C   UNL A   1      30.092  25.843  24.929  1.00  0.00     0.007 C 
ENDBRANCH  21  22
ENDBRANCH   7  21
ENDBRANCH   4   7
ENDBRANCH   2   3
ENDBRANCH   1   2
BRANCH   1  25
ATOM     25  C   UNL A   1      35.922  23.052  25.937  1.00  0.00     0.023 C 
BRANCH  25  26
ATOM     26  C   UNL A   1      37.185  23.615  25.323  1.00  0.00     0.116 C 
BRANCH  26  27
ATOM     27  N   UNL A   1      38.380  22.805  25.544  1.00  0.00    -0.352 N 
ATOM     28  C   UNL A   1      39.508  23.154  26.258  1.00  0.00     0.251 C 
ATOM     29  H   UNL A   1      38.380  21.908  25.138  1.00  0.00     0.163 HD
ATOM     30  O   UNL A   1      40.483  22.415  26.311  1.00  0.00    -0.269 OA
BRANCH  28  31
ATOM     31  C   UNL A   1      39.517  24.480  26.908  1.00  0.00     0.039 A 
ATOM     32  C   UNL A   1      38.955  24.618  28.176  1.00  0.00     0.014 A 
ATOM     33  C   UNL A   1      40.266  25.512  26.338  1.00  0.00     0.014 A 
ATOM     34  C   UNL A   1      39.234  25.767  28.918  1.00  0.00     0.010 A 
ATOM     35  C   UNL A   1      40.663  26.574  27.137  1.00  0.00     0.010 A 
ATOM     36  C   UNL A   1      40.140  26.725  28.429  1.00  0.00    -0.014 A 
BRANCH  36  37
ATOM     37  C   UNL A   1      40.532  27.909  29.237  1.00  0.00     0.031 A 
ATOM     38  C   UNL A   1      41.855  27.906  29.957  1.00  0.00     0.074 A 
ATOM     39  C   UNL A   1      39.688  28.954  29.369  1.00  0.00     0.049 A 
ATOM     40  N   UNL A   1      42.361  28.806  30.760  1.00  0.00    -0.248 NA
ATOM     41  C   UNL A   1      42.710  26.718  29.781  1.00  0.00     0.031 C 
ATOM     42  C   UNL A   1      38.351  29.048  28.778  1.00  0.00     0.029 A 
ATOM     43  N   UNL A   1      39.829  30.139  30.049  1.00  0.00    -0.354 N 
ATOM     44  C   UNL A   1      43.581  28.289  31.180  1.00  0.00     0.074 A 
ATOM     45  C   UNL A   1      43.698  26.962  30.624  1.00  0.00     0.031 C 
ATOM     46  C   UNL A   1      37.811  30.238  29.089  1.00  0.00     0.029 A 
ATOM     47  C   UNL A   1      38.739  30.973  29.944  1.00  0.00     0.049 A 
ATOM     48  H   UNL A   1      40.635  30.371  30.565  1.00  0.00     0.167 HD
ATOM     49  C   UNL A   1      44.541  28.884  31.925  1.00  0.00     0.037 A 
ATOM     50  C   UNL A   1      38.508  32.186  30.485  1.00  0.00     0.037 A 
ATOM     51  C   UNL A   1      44.427  30.213  32.460  1.00  0.00     0.049 A 
ATOM     52  C   UNL A   1      39.580  32.817  31.334  1.00  0.00     0.074 A 
ATOM     53  C   UNL A   1      45.356  30.924  33.198  1.00  0.00     0.029 A 
ATOM     54  N   UNL A   1      43.314  31.031  32.318  1.00  0.00    -0.354 N 
ATOM     55  N   UNL A   1      40.758  32.343  31.665  1.00  0.00    -0.248 NA
ATOM     56  C   UNL A   1      39.298  34.153  31.878  1.00  0.00     0.031 C 
ATOM     57  C   UNL A   1      44.782  32.149  33.552  1.00  0.00     0.029 A 
ATOM     58  C   UNL A   1      43.525  32.231  32.975  1.00  0.00     0.049 A 
ATOM     59  H   UNL A   1      42.497  30.793  31.823  1.00  0.00     0.167 HD
ATOM     60  C   UNL A   1      41.369  33.333  32.428  1.00  0.00     0.074 A 
ATOM     61  C   UNL A   1      40.437  34.438  32.494  1.00  0.00     0.031 C 
ATOM     62  C   UNL A   1      42.589  33.327  33.020  1.00  0.00     0.037 A 
BRANCH  49  63
ATOM     63  C   UNL A   1      45.802  28.104  32.187  1.00  0.00     0.058 A 
ATOM     64  C   UNL A   1      45.941  27.287  33.322  1.00  0.00     0.135 A 
ATOM     65  C   UNL A   1      46.871  28.146  31.279  1.00  0.00     0.135 A 
ATOM     66  F   UNL A   1      44.959  27.224  34.237  1.00  0.00    -0.206 F 
ATOM     67  C   UNL A   1      47.104  26.565  33.563  1.00  0.00     0.059 A 
ATOM     68  C   UNL A   1      48.031  27.403  31.481  1.00  0.00     0.059 A 
ATOM     69  F   UNL A   1      46.797  28.914  30.181  1.00  0.00    -0.206 F 
ATOM     70  C   UNL A   1      48.142  26.626  32.633  1.00  0.00     0.060 A 
BRANCH  70  71
ATOM     71  S   UNL A   1      49.636  25.665  32.953  1.00  0.00     0.124 S 
ATOM     72  O   UNL A   1      49.082  24.460  33.564  1.00  0.00    -0.237 OA
ATOM     73  O   UNL A   1      50.189  25.498  31.613  1.00  0.00    -0.237 OA
ATOM     74  O   UNL A   1      50.409  26.522  33.847  1.00  0.00    -0.744 OA
ENDBRANCH  70  71
ENDBRANCH  49  63
BRANCH  50  75
ATOM     75  C   UNL A   1      37.213  32.884  30.242  1.00  0.00     0.058 A 
ATOM     76  C   UNL A   1      37.012  33.678  29.103  1.00  0.00     0.135 A 
ATOM     77  C   UNL A   1      36.151  32.778  31.154  1.00  0.00     0.135 A 
ATOM     78  F   UNL A   1      37.996  33.820  28.201  1.00  0.00    -0.206 F 
ATOM     79  C   UNL A   1      35.819  34.363  28.889  1.00  0.00     0.059 A 
ATOM     80  C   UNL A   1      34.937  33.425  30.946  1.00  0.00     0.059 A 
ATOM     81  F   UNL A   1      36.281  32.019  32.254  1.00  0.00    -0.206 F 
ATOM     82  C   UNL A   1      34.786  34.228  29.817  1.00  0.00     0.060 A 
BRANCH  82  83
ATOM     83  S   UNL A   1      33.230  35.095  29.515  1.00  0.00     0.124 S 
ATOM     84  O   UNL A   1      32.590  35.015  30.823  1.00  0.00    -0.237 OA
ATOM     85  O   UNL A   1      33.694  36.418  29.111  1.00  0.00    -0.237 OA
ATOM     86  O   UNL A   1      32.606  34.307  28.457  1.00  0.00    -0.744 OA
ENDBRANCH  82  83
ENDBRANCH  50  75
BRANCH  62  87
ATOM     87  C   UNL A   1      43.012  34.571  33.755  1.00  0.00     0.058 A 
ATOM     88  C   UNL A   1      42.866  34.702  35.144  1.00  0.00     0.135 A 
ATOM     89  C   UNL A   1      43.631  35.624  33.061  1.00  0.00     0.135 A 
ATOM     90  F   UNL A   1      42.277  33.727  35.857  1.00  0.00    -0.206 F 
ATOM     91  C   UNL A   1      43.290  35.843  35.815  1.00  0.00     0.059 A 
ATOM     92  C   UNL A   1      44.098  36.758  33.716  1.00  0.00     0.059 A 
ATOM     93  F   UNL A   1      43.810  35.548  31.732  1.00  0.00    -0.206 F 
ATOM     94  C   UNL A   1      43.911  36.864  35.094  1.00  0.00     0.060 A 
BRANCH  94  95
ATOM     95  S   UNL A   1      44.489  38.322  35.985  1.00  0.00     0.124 S 
ATOM     96  O   UNL A   1      43.706  38.248  37.213  1.00  0.00    -0.237 OA
ATOM     97  O   UNL A   1      45.917  38.053  36.125  1.00  0.00    -0.237 OA
ATOM     98  O   UNL A   1      44.151  39.425  35.090  1.00  0.00    -0.744 OA
ENDBRANCH  94  95
ENDBRANCH  62  87
ENDBRANCH  36  37
ENDBRANCH  28  31
ENDBRANCH  26  27
ENDBRANCH  25  26
ENDBRANCH   1  25
TORSDOF 20
ENDMDL
