MODEL 1
REMARK VINA RESULT:     -12.6      0.000      0.000
REMARK SMILES C[C@H](C(=O)Nc1ccc(C(F)(F)F)cc1)n1nc(C(=O)NCCCCNC(=O)c2ccc(-c3c4nc(c(-c5c(F)cc(S(=O)(=O)[O-])cc5F)c5ccc([nH]5)c(-c5c(F)cc(S(=O)(=O)[O-])cc5F)c5nc(c(-c6c(F)cc(S(=O)(=O)[O-])cc6F)c6ccc3[nH]6)C=C5)C=C4)cc2)c2ccccc2c1=O
REMARK SMILES IDX 23 1 22 2 21 3 19 4 20 5 18 7 16 8 17 9 101 10 100 11 102 12
REMARK SMILES IDX 95 13 99 14 96 15 98 16 97 17 2 18 1 19 3 20 4 21 5 22 6 24
REMARK SMILES IDX 7 25 15 26 8 27 14 28 9 29 10 30 11 31 12 32 13 33 24 34
REMARK SMILES IDX 25 35 26 36 27 37 28 39 29 40 30 41 94 42 31 43 93 44 32 45
REMARK SMILES IDX 33 46 34 47 87 48 35 49 92 50 86 51 88 52 36 53 91 54 85 55
REMARK SMILES IDX 84 56 37 58 71 59 50 60 70 61 51 62 54 63 69 64 89 65 52 66
REMARK SMILES IDX 53 67 68 69 90 70 55 71 38 72 39 73 48 74 40 75 41 76 47 77
REMARK SMILES IDX 49 78 42 79 43 80 44 81 45 82 46 83 72 84 73 85 82 86 74 87
REMARK SMILES IDX 75 88 81 89 83 90 76 91 77 92 78 93 79 94 80 95 56 96 57 97
REMARK SMILES IDX 66 98 58 99 59 100 65 101 67 102 60 103 61 104 62 105 63 106
REMARK SMILES IDX 64 107
REMARK H PARENT 21 6 5 23 26 38 88 57 54 68
REMARK Flexibility Score: inf
ROOT
ATOM      1  C   UNL A   1      32.472  28.587  24.798  1.00  0.00     0.023 C 
ENDROOT
BRANCH   1   2
ATOM      2  C   UNL A   1      33.672  28.007  24.042  1.00  0.00     0.116 C 
BRANCH   2   3
ATOM      3  N   UNL A   1      33.283  27.686  22.678  1.00  0.00    -0.351 N 
ATOM      4  C   UNL A   1      33.355  26.452  22.058  1.00  0.00     0.272 C 
ATOM      5  O   UNL A   1      33.205  26.329  20.851  1.00  0.00    -0.267 OA
ATOM      6  H   UNL A   1      32.930  28.428  22.135  1.00  0.00     0.163 HD
BRANCH   4   7
ATOM      7  C   UNL A   1      33.460  25.217  22.950  1.00  0.00     0.156 A 
ATOM      8  N   UNL A   1      34.933  23.911  24.210  1.00  0.00    -0.216 N 
ATOM      9  N   UNL A   1      34.562  24.491  22.939  1.00  0.00    -0.163 NA
ATOM     10  C   UNL A   1      34.360  24.650  25.231  1.00  0.00     0.275 A 
ATOM     11  C   UNL A   1      32.910  24.581  25.198  1.00  0.00     0.051 A 
ATOM     12  O   UNL A   1      34.876  25.636  25.741  1.00  0.00    -0.267 OA
ATOM     13  C   UNL A   1      32.412  25.038  23.988  1.00  0.00     0.020 A 
ATOM     14  C   UNL A   1      32.094  24.246  26.268  1.00  0.00     0.014 A 
ATOM     15  C   UNL A   1      31.045  25.246  23.848  1.00  0.00     0.011 A 
ATOM     16  C   UNL A   1      30.720  24.414  26.118  1.00  0.00     0.001 A 
ATOM     17  C   UNL A   1      30.202  24.935  24.924  1.00  0.00     0.001 A 
BRANCH   8  18
ATOM     18  C   UNL A   1      36.378  23.548  24.312  1.00  0.00     0.197 C 
ATOM     19  C   UNL A   1      36.771  22.798  23.022  1.00  0.00     0.044 C 
BRANCH  18  20
ATOM     20  C   UNL A   1      36.852  22.636  25.527  1.00  0.00     0.249 C 
ATOM     21  O   UNL A   1      38.006  22.674  25.964  1.00  0.00    -0.272 OA
ATOM     22  N   UNL A   1      35.873  21.983  26.266  1.00  0.00    -0.324 N 
ATOM     23  H   UNL A   1      35.658  22.351  27.154  1.00  0.00     0.170 HD
BRANCH  22  24
ATOM     24  C   UNL A   1      35.162  20.838  25.857  1.00  0.00     0.041 A 
ATOM     25  C   UNL A   1      33.778  20.799  26.062  1.00  0.00     0.027 A 
ATOM     26  C   UNL A   1      35.785  19.795  25.166  1.00  0.00     0.027 A 
ATOM     27  C   UNL A   1      32.999  19.868  25.361  1.00  0.00     0.015 A 
ATOM     28  C   UNL A   1      35.005  18.838  24.498  1.00  0.00     0.015 A 
ATOM     29  C   UNL A   1      33.603  18.937  24.503  1.00  0.00     0.056 A 
BRANCH  29  30
ATOM     30  C   UNL A   1      32.792  18.169  23.484  1.00  0.00     0.416 C 
ATOM     31  F   UNL A   1      31.988  18.974  22.734  1.00  0.00    -0.166 F 
ATOM     32  F   UNL A   1      33.545  17.461  22.597  1.00  0.00    -0.166 F 
ATOM     33  F   UNL A   1      31.955  17.259  24.062  1.00  0.00    -0.166 F 
ENDBRANCH  29  30
ENDBRANCH  22  24
ENDBRANCH  18  20
ENDBRANCH   8  18
ENDBRANCH   4   7
ENDBRANCH   2   3
ENDBRANCH   1   2
BRANCH   1  34
ATOM     34  C   UNL A   1      32.344  28.017  26.209  1.00  0.00     0.023 C 
BRANCH  34  35
ATOM     35  C   UNL A   1      33.472  28.455  27.131  1.00  0.00     0.116 C 
BRANCH  35  36
ATOM     36  N   UNL A   1      33.360  29.851  27.531  1.00  0.00    -0.352 N 
ATOM     37  C   UNL A   1      34.325  30.647  28.115  1.00  0.00     0.251 C 
ATOM     38  H   UNL A   1      32.489  30.279  27.365  1.00  0.00     0.163 HD
ATOM     39  O   UNL A   1      34.067  31.767  28.497  1.00  0.00    -0.269 OA
BRANCH  37  40
ATOM     40  C   UNL A   1      35.674  30.066  28.298  1.00  0.00     0.039 A 
ATOM     41  C   UNL A   1      36.579  30.123  27.238  1.00  0.00     0.014 A 
ATOM     42  C   UNL A   1      36.059  29.567  29.544  1.00  0.00     0.014 A 
ATOM     43  C   UNL A   1      37.903  29.738  27.452  1.00  0.00     0.010 A 
ATOM     44  C   UNL A   1      37.394  29.263  29.775  1.00  0.00     0.010 A 
ATOM     45  C   UNL A   1      38.329  29.342  28.731  1.00  0.00    -0.014 A 
BRANCH  45  46
ATOM     46  C   UNL A   1      39.749  29.001  28.996  1.00  0.00     0.031 A 
ATOM     47  C   UNL A   1      40.661  30.023  29.617  1.00  0.00     0.074 A 
ATOM     48  C   UNL A   1      40.230  27.799  28.622  1.00  0.00     0.049 A 
ATOM     49  N   UNL A   1      41.935  29.935  29.894  1.00  0.00    -0.248 NA
ATOM     50  C   UNL A   1      40.067  31.331  29.939  1.00  0.00     0.031 C 
ATOM     51  C   UNL A   1      39.459  26.747  27.957  1.00  0.00     0.029 A 
ATOM     52  N   UNL A   1      41.485  27.259  28.748  1.00  0.00    -0.354 N 
ATOM     53  C   UNL A   1      42.299  31.176  30.401  1.00  0.00     0.074 A 
ATOM     54  C   UNL A   1      41.126  32.019  30.337  1.00  0.00     0.031 C 
ATOM     55  C   UNL A   1      40.247  25.675  27.770  1.00  0.00     0.029 A 
ATOM     56  C   UNL A   1      41.585  25.973  28.272  1.00  0.00     0.049 A 
ATOM     57  H   UNL A   1      42.244  27.748  29.141  1.00  0.00     0.167 HD
ATOM     58  C   UNL A   1      43.494  31.570  30.902  1.00  0.00     0.037 A 
ATOM     59  C   UNL A   1      42.634  25.129  28.253  1.00  0.00     0.037 A 
ATOM     60  C   UNL A   1      44.647  30.714  30.995  1.00  0.00     0.049 A 
ATOM     61  C   UNL A   1      43.948  25.582  28.829  1.00  0.00     0.074 A 
ATOM     62  C   UNL A   1      45.882  30.989  31.553  1.00  0.00     0.029 A 
ATOM     63  N   UNL A   1      44.704  29.412  30.517  1.00  0.00    -0.354 N 
ATOM     64  N   UNL A   1      44.255  26.736  29.374  1.00  0.00    -0.248 NA
ATOM     65  C   UNL A   1      45.055  24.619  28.792  1.00  0.00     0.031 C 
ATOM     66  C   UNL A   1      46.700  29.867  31.379  1.00  0.00     0.029 A 
ATOM     67  C   UNL A   1      45.961  28.878  30.749  1.00  0.00     0.049 A 
ATOM     68  H   UNL A   1      43.962  28.939  30.077  1.00  0.00     0.167 HD
ATOM     69  C   UNL A   1      45.582  26.625  29.773  1.00  0.00     0.074 A 
ATOM     70  C   UNL A   1      46.016  25.290  29.413  1.00  0.00     0.031 C 
ATOM     71  C   UNL A   1      46.371  27.544  30.386  1.00  0.00     0.037 A 
BRANCH  58  72
ATOM     72  C   UNL A   1      43.603  32.990  31.386  1.00  0.00     0.058 A 
ATOM     73  C   UNL A   1      43.986  34.035  30.529  1.00  0.00     0.135 A 
ATOM     74  C   UNL A   1      43.333  33.310  32.726  1.00  0.00     0.135 A 
ATOM     75  F   UNL A   1      44.273  33.782  29.241  1.00  0.00    -0.206 F 
ATOM     76  C   UNL A   1      44.143  35.336  30.992  1.00  0.00     0.059 A 
ATOM     77  C   UNL A   1      43.454  34.611  33.205  1.00  0.00     0.059 A 
ATOM     78  F   UNL A   1      42.962  32.351  33.590  1.00  0.00    -0.206 F 
ATOM     79  C   UNL A   1      43.883  35.613  32.335  1.00  0.00     0.060 A 
BRANCH  79  80
ATOM     80  S   UNL A   1      44.119  37.301  32.930  1.00  0.00     0.124 S 
ATOM     81  O   UNL A   1      42.969  37.459  33.815  1.00  0.00    -0.237 OA
ATOM     82  O   UNL A   1      45.419  37.223  33.589  1.00  0.00    -0.237 OA
ATOM     83  O   UNL A   1      44.086  38.098  31.708  1.00  0.00    -0.744 OA
ENDBRANCH  79  80
ENDBRANCH  58  72
BRANCH  59  84
ATOM     84  C   UNL A   1      42.471  23.751  27.718  1.00  0.00     0.058 A 
ATOM     85  C   UNL A   1      42.464  23.520  26.334  1.00  0.00     0.135 A 
ATOM     86  C   UNL A   1      42.339  22.642  28.567  1.00  0.00     0.135 A 
ATOM     87  F   UNL A   1      42.582  24.549  25.482  1.00  0.00    -0.206 F 
ATOM     88  C   UNL A   1      42.318  22.240  25.809  1.00  0.00     0.059 A 
ATOM     89  C   UNL A   1      42.213  21.350  28.066  1.00  0.00     0.059 A 
ATOM     90  F   UNL A   1      42.357  22.810  29.899  1.00  0.00    -0.206 F 
ATOM     91  C   UNL A   1      42.195  21.160  26.684  1.00  0.00     0.060 A 
BRANCH  91  92
ATOM     92  S   UNL A   1      42.060  19.497  25.992  1.00  0.00     0.124 S 
ATOM     93  O   UNL A   1      42.902  19.603  24.807  1.00  0.00    -0.237 OA
ATOM     94  O   UNL A   1      42.584  18.671  27.076  1.00  0.00    -0.237 OA
ATOM     95  O   UNL A   1      40.629  19.354  25.742  1.00  0.00    -0.744 OA
ENDBRANCH  91  92
ENDBRANCH  59  84
BRANCH  71  96
ATOM     96  C   UNL A   1      47.771  27.123  30.734  1.00  0.00     0.058 A 
ATOM     97  C   UNL A   1      48.071  26.494  31.951  1.00  0.00     0.135 A 
ATOM     98  C   UNL A   1      48.818  27.318  29.818  1.00  0.00     0.135 A 
ATOM     99  F   UNL A   1      47.107  26.290  32.862  1.00  0.00    -0.206 F 
ATOM    100  C   UNL A   1      49.367  26.095  32.261  1.00  0.00     0.059 A 
ATOM    101  C   UNL A   1      50.116  26.904  30.096  1.00  0.00     0.059 A 
ATOM    102  F   UNL A   1      48.581  27.906  28.635  1.00  0.00    -0.206 F 
ATOM    103  C   UNL A   1      50.384  26.305  31.327  1.00  0.00     0.060 A 
BRANCH 103 104
ATOM    104  S   UNL A   1      52.057  25.762  31.730  1.00  0.00     0.124 S 
ATOM    105  O   UNL A   1      52.760  26.023  30.478  1.00  0.00    -0.237 OA
ATOM    106  O   UNL A   1      52.409  26.632  32.848  1.00  0.00    -0.237 OA
ATOM    107  O   UNL A   1      51.883  24.353  32.072  1.00  0.00    -0.744 OA
ENDBRANCH 103 104
ENDBRANCH  71  96
ENDBRANCH  45  46
ENDBRANCH  37  40
ENDBRANCH  35  36
ENDBRANCH  34  35
ENDBRANCH   1  34
TORSDOF 18
ENDMDL
MODEL 2
REMARK VINA RESULT:     -12.4      3.178      8.750
REMARK SMILES C[C@H](C(=O)Nc1ccc(C(F)(F)F)cc1)n1nc(C(=O)NCCCCNC(=O)c2ccc(-c3c4nc(c(-c5c(F)cc(S(=O)(=O)[O-])cc5F)c5ccc([nH]5)c(-c5c(F)cc(S(=O)(=O)[O-])cc5F)c5nc(c(-c6c(F)cc(S(=O)(=O)[O-])cc6F)c6ccc3[nH]6)C=C5)C=C4)cc2)c2ccccc2c1=O
REMARK SMILES IDX 23 1 22 2 21 3 19 4 20 5 18 7 16 8 17 9 101 10 100 11 102 12
REMARK SMILES IDX 95 13 99 14 96 15 98 16 97 17 2 18 1 19 3 20 4 21 5 22 6 24
REMARK SMILES IDX 7 25 15 26 8 27 14 28 9 29 10 30 11 31 12 32 13 33 24 34
REMARK SMILES IDX 25 35 26 36 27 37 28 39 29 40 30 41 94 42 31 43 93 44 32 45
REMARK SMILES IDX 33 46 34 47 87 48 35 49 92 50 86 51 88 52 36 53 91 54 85 55
REMARK SMILES IDX 84 56 37 58 71 59 50 60 70 61 51 62 54 63 69 64 89 65 52 66
REMARK SMILES IDX 53 67 68 69 90 70 55 71 38 72 39 73 48 74 40 75 41 76 47 77
REMARK SMILES IDX 49 78 42 79 43 80 44 81 45 82 46 83 72 84 73 85 82 86 74 87
REMARK SMILES IDX 75 88 81 89 83 90 76 91 77 92 78 93 79 94 80 95 56 96 57 97
REMARK SMILES IDX 66 98 58 99 59 100 65 101 67 102 60 103 61 104 62 105 63 106
REMARK SMILES IDX 64 107
REMARK H PARENT 21 6 5 23 26 38 88 57 54 68
REMARK Flexibility Score: inf
ROOT
ATOM      1  C   UNL A   1      35.033  30.450  27.465  1.00  0.00     0.023 C 
ENDROOT
BRANCH   1   2
ATOM      2  C   UNL A   1      33.705  30.156  26.760  1.00  0.00     0.116 C 
BRANCH   2   3
ATOM      3  N   UNL A   1      32.836  29.397  27.647  1.00  0.00    -0.351 N 
ATOM      4  C   UNL A   1      31.904  28.442  27.285  1.00  0.00     0.272 C 
ATOM      5  O   UNL A   1      31.079  28.017  28.080  1.00  0.00    -0.267 OA
ATOM      6  H   UNL A   1      32.920  29.585  28.610  1.00  0.00     0.163 HD
BRANCH   4   7
ATOM      7  C   UNL A   1      32.043  27.804  25.905  1.00  0.00     0.156 A 
ATOM      8  N   UNL A   1      32.248  25.770  24.773  1.00  0.00    -0.216 N 
ATOM      9  N   UNL A   1      32.748  26.697  25.762  1.00  0.00    -0.163 NA
ATOM     10  C   UNL A   1      30.897  26.001  24.574  1.00  0.00     0.275 A 
ATOM     11  C   UNL A   1      30.654  27.317  24.010  1.00  0.00     0.051 A 
ATOM     12  O   UNL A   1      30.005  25.487  25.235  1.00  0.00    -0.267 OA
ATOM     13  C   UNL A   1      31.158  28.316  24.828  1.00  0.00     0.020 A 
ATOM     14  C   UNL A   1      29.893  27.583  22.880  1.00  0.00     0.014 A 
ATOM     15  C   UNL A   1      30.836  29.642  24.562  1.00  0.00     0.011 A 
ATOM     16  C   UNL A   1      29.604  28.913  22.588  1.00  0.00     0.001 A 
ATOM     17  C   UNL A   1      30.051  29.934  23.438  1.00  0.00     0.001 A 
BRANCH   8  18
ATOM     18  C   UNL A   1      32.713  24.364  24.969  1.00  0.00     0.197 C 
ATOM     19  C   UNL A   1      33.219  24.230  26.420  1.00  0.00     0.044 C 
BRANCH  18  20
ATOM     20  C   UNL A   1      33.870  23.805  24.031  1.00  0.00     0.249 C 
ATOM     21  O   UNL A   1      34.268  24.423  23.041  1.00  0.00    -0.272 OA
ATOM     22  N   UNL A   1      34.613  22.725  24.496  1.00  0.00    -0.324 N 
ATOM     23  H   UNL A   1      35.523  22.913  24.823  1.00  0.00     0.170 HD
BRANCH  22  24
ATOM     24  C   UNL A   1      34.179  21.387  24.538  1.00  0.00     0.041 A 
ATOM     25  C   UNL A   1      32.884  21.087  24.099  1.00  0.00     0.027 A 
ATOM     26  C   UNL A   1      35.038  20.347  24.908  1.00  0.00     0.027 A 
ATOM     27  C   UNL A   1      32.547  19.763  23.785  1.00  0.00     0.015 A 
ATOM     28  C   UNL A   1      34.682  19.018  24.632  1.00  0.00     0.015 A 
ATOM     29  C   UNL A   1      33.477  18.729  23.967  1.00  0.00     0.056 A 
BRANCH  29  30
ATOM     30  C   UNL A   1      33.280  17.374  23.325  1.00  0.00     0.416 C 
ATOM     31  F   UNL A   1      34.439  16.848  22.837  1.00  0.00    -0.166 F 
ATOM     32  F   UNL A   1      32.766  16.434  24.165  1.00  0.00    -0.166 F 
ATOM     33  F   UNL A   1      32.427  17.422  22.260  1.00  0.00    -0.166 F 
ENDBRANCH  29  30
ENDBRANCH  22  24
ENDBRANCH  18  20
ENDBRANCH   8  18
ENDBRANCH   4   7
ENDBRANCH   2   3
ENDBRANCH   1   2
BRANCH   1  34
ATOM     34  C   UNL A   1      35.075  31.854  28.062  1.00  0.00     0.023 C 
BRANCH  34  35
ATOM     35  C   UNL A   1      36.118  32.004  29.158  1.00  0.00     0.116 C 
BRANCH  35  36
ATOM     36  N   UNL A   1      35.866  31.130  30.296  1.00  0.00    -0.352 N 
ATOM     37  C   UNL A   1      36.720  30.203  30.860  1.00  0.00     0.251 C 
ATOM     38  H   UNL A   1      34.978  31.210  30.713  1.00  0.00     0.163 HD
ATOM     39  O   UNL A   1      36.345  29.462  31.741  1.00  0.00    -0.269 OA
BRANCH  37  40
ATOM     40  C   UNL A   1      38.094  30.118  30.318  1.00  0.00     0.039 A 
ATOM     41  C   UNL A   1      39.168  30.112  31.208  1.00  0.00     0.014 A 
ATOM     42  C   UNL A   1      38.296  29.942  28.947  1.00  0.00     0.014 A 
ATOM     43  C   UNL A   1      40.452  29.858  30.724  1.00  0.00     0.010 A 
ATOM     44  C   UNL A   1      39.562  29.610  28.481  1.00  0.00     0.010 A 
ATOM     45  C   UNL A   1      40.653  29.567  29.363  1.00  0.00    -0.014 A 
BRANCH  45  46
ATOM     46  C   UNL A   1      41.999  29.221  28.843  1.00  0.00     0.031 A 
ATOM     47  C   UNL A   1      42.280  27.823  28.366  1.00  0.00     0.074 A 
ATOM     48  C   UNL A   1      42.980  30.145  28.858  1.00  0.00     0.049 A 
ATOM     49  N   UNL A   1      43.395  27.313  27.912  1.00  0.00    -0.248 NA
ATOM     50  C   UNL A   1      41.168  26.862  28.441  1.00  0.00     0.031 C 
ATOM     51  C   UNL A   1      42.847  31.517  29.352  1.00  0.00     0.029 A 
ATOM     52  N   UNL A   1      44.287  30.068  28.447  1.00  0.00    -0.354 N 
ATOM     53  C   UNL A   1      43.125  25.972  27.668  1.00  0.00     0.074 A 
ATOM     54  C   UNL A   1      41.760  25.733  28.080  1.00  0.00     0.031 C 
ATOM     55  C   UNL A   1      44.011  32.163  29.177  1.00  0.00     0.029 A 
ATOM     56  C   UNL A   1      44.982  31.246  28.590  1.00  0.00     0.049 A 
ATOM     57  H   UNL A   1      44.690  29.246  28.084  1.00  0.00     0.167 HD
ATOM     58  C   UNL A   1      43.932  25.031  27.122  1.00  0.00     0.037 A 
ATOM     59  C   UNL A   1      46.255  31.551  28.273  1.00  0.00     0.037 A 
ATOM     60  C   UNL A   1      45.277  25.284  26.681  1.00  0.00     0.049 A 
ATOM     61  C   UNL A   1      47.128  30.495  27.654  1.00  0.00     0.074 A 
ATOM     62  C   UNL A   1      46.154  24.423  26.047  1.00  0.00     0.029 A 
ATOM     63  N   UNL A   1      45.941  26.495  26.828  1.00  0.00    -0.354 N 
ATOM     64  N   UNL A   1      46.834  29.250  27.359  1.00  0.00    -0.248 NA
ATOM     65  C   UNL A   1      48.504  30.884  27.318  1.00  0.00     0.031 C 
ATOM     66  C   UNL A   1      47.362  25.100  25.845  1.00  0.00     0.029 A 
ATOM     67  C   UNL A   1      47.224  26.396  26.316  1.00  0.00     0.049 A 
ATOM     68  H   UNL A   1      45.558  27.303  27.238  1.00  0.00     0.167 HD
ATOM     69  C   UNL A   1      47.978  28.717  26.775  1.00  0.00     0.074 A 
ATOM     70  C   UNL A   1      48.966  29.778  26.752  1.00  0.00     0.031 C 
ATOM     71  C   UNL A   1      48.191  27.465  26.298  1.00  0.00     0.037 A 
BRANCH  58  72
ATOM     72  C   UNL A   1      43.369  23.643  26.975  1.00  0.00     0.058 A 
ATOM     73  C   UNL A   1      43.261  22.771  28.070  1.00  0.00     0.135 A 
ATOM     74  C   UNL A   1      42.942  23.175  25.722  1.00  0.00     0.135 A 
ATOM     75  F   UNL A   1      43.671  23.161  29.289  1.00  0.00    -0.206 F 
ATOM     76  C   UNL A   1      42.796  21.469  27.921  1.00  0.00     0.059 A 
ATOM     77  C   UNL A   1      42.444  21.886  25.555  1.00  0.00     0.059 A 
ATOM     78  F   UNL A   1      43.021  23.967  24.641  1.00  0.00    -0.206 F 
ATOM     79  C   UNL A   1      42.398  21.033  26.657  1.00  0.00     0.060 A 
BRANCH  79  80
ATOM     80  S   UNL A   1      41.823  19.332  26.471  1.00  0.00     0.124 S 
ATOM     81  O   UNL A   1      42.117  18.782  27.791  1.00  0.00    -0.237 OA
ATOM     82  O   UNL A   1      40.408  19.510  26.161  1.00  0.00    -0.237 OA
ATOM     83  O   UNL A   1      42.642  18.815  25.379  1.00  0.00    -0.744 OA
ENDBRANCH  79  80
ENDBRANCH  58  72
BRANCH  59  84
ATOM     84  C   UNL A   1      46.764  32.932  28.486  1.00  0.00     0.058 A 
ATOM     85  C   UNL A   1      47.337  33.300  29.713  1.00  0.00     0.135 A 
ATOM     86  C   UNL A   1      46.708  33.902  27.474  1.00  0.00     0.135 A 
ATOM     87  F   UNL A   1      47.408  32.408  30.713  1.00  0.00    -0.206 F 
ATOM     88  C   UNL A   1      47.825  34.583  29.935  1.00  0.00     0.059 A 
ATOM     89  C   UNL A   1      47.208  35.186  27.665  1.00  0.00     0.059 A 
ATOM     90  F   UNL A   1      46.184  33.595  26.277  1.00  0.00    -0.206 F 
ATOM     91  C   UNL A   1      47.758  35.520  28.903  1.00  0.00     0.060 A 
BRANCH  91  92
ATOM     92  S   UNL A   1      48.443  37.168  29.184  1.00  0.00     0.124 S 
ATOM     93  O   UNL A   1      47.586  37.990  28.337  1.00  0.00    -0.237 OA
ATOM     94  O   UNL A   1      48.265  37.332  30.623  1.00  0.00    -0.237 OA
ATOM     95  O   UNL A   1      49.828  37.035  28.744  1.00  0.00    -0.744 OA
ENDBRANCH  91  92
ENDBRANCH  59  84
BRANCH  71  96
ATOM     96  C   UNL A   1      49.533  27.185  25.681  1.00  0.00     0.058 A 
ATOM     97  C   UNL A   1      49.763  27.353  24.308  1.00  0.00     0.135 A 
ATOM     98  C   UNL A   1      50.612  26.783  26.485  1.00  0.00     0.135 A 
ATOM     99  F   UNL A   1      48.763  27.731  23.497  1.00  0.00    -0.206 F 
ATOM    100  C   UNL A   1      51.011  27.105  23.746  1.00  0.00     0.059 A 
ATOM    101  C   UNL A   1      51.875  26.554  25.949  1.00  0.00     0.059 A 
ATOM    102  F   UNL A   1      50.447  26.618  27.807  1.00  0.00    -0.206 F 
ATOM    103  C   UNL A   1      52.061  26.705  24.575  1.00  0.00     0.060 A 
BRANCH 103 104
ATOM    104  S   UNL A   1      53.682  26.409  23.839  1.00  0.00     0.124 S 
ATOM    105  O   UNL A   1      53.324  26.061  22.468  1.00  0.00    -0.237 OA
ATOM    106  O   UNL A   1      54.347  27.697  24.014  1.00  0.00    -0.237 OA
ATOM    107  O   UNL A   1      54.225  25.318  24.644  1.00  0.00    -0.744 OA
ENDBRANCH 103 104
ENDBRANCH  71  96
ENDBRANCH  45  46
ENDBRANCH  37  40
ENDBRANCH  35  36
ENDBRANCH  34  35
ENDBRANCH   1  34
TORSDOF 18
ENDMDL
MODEL 3
REMARK VINA RESULT:     -12.1      4.375      9.255
REMARK SMILES C[C@H](C(=O)Nc1ccc(C(F)(F)F)cc1)n1nc(C(=O)NCCCCNC(=O)c2ccc(-c3c4nc(c(-c5c(F)cc(S(=O)(=O)[O-])cc5F)c5ccc([nH]5)c(-c5c(F)cc(S(=O)(=O)[O-])cc5F)c5nc(c(-c6c(F)cc(S(=O)(=O)[O-])cc6F)c6ccc3[nH]6)C=C5)C=C4)cc2)c2ccccc2c1=O
REMARK SMILES IDX 23 1 22 2 21 3 19 4 20 5 18 7 16 8 17 9 101 10 100 11 102 12
REMARK SMILES IDX 95 13 99 14 96 15 98 16 97 17 2 18 1 19 3 20 4 21 5 22 6 24
REMARK SMILES IDX 7 25 15 26 8 27 14 28 9 29 10 30 11 31 12 32 13 33 24 34
REMARK SMILES IDX 25 35 26 36 27 37 28 39 29 40 30 41 94 42 31 43 93 44 32 45
REMARK SMILES IDX 33 46 34 47 87 48 35 49 92 50 86 51 88 52 36 53 91 54 85 55
REMARK SMILES IDX 84 56 37 58 71 59 50 60 70 61 51 62 54 63 69 64 89 65 52 66
REMARK SMILES IDX 53 67 68 69 90 70 55 71 38 72 39 73 48 74 40 75 41 76 47 77
REMARK SMILES IDX 49 78 42 79 43 80 44 81 45 82 46 83 72 84 73 85 82 86 74 87
REMARK SMILES IDX 75 88 81 89 83 90 76 91 77 92 78 93 79 94 80 95 56 96 57 97
REMARK SMILES IDX 66 98 58 99 59 100 65 101 67 102 60 103 61 104 62 105 63 106
REMARK SMILES IDX 64 107
REMARK H PARENT 21 6 5 23 26 38 88 57 54 68
REMARK Flexibility Score: inf
ROOT
ATOM      1  C   UNL A   1      34.831  30.676  27.918  1.00  0.00     0.023 C 
ENDROOT
BRANCH   1   2
ATOM      2  C   UNL A   1      34.110  29.638  27.052  1.00  0.00     0.116 C 
BRANCH   2   3
ATOM      3  N   UNL A   1      33.082  28.972  27.837  1.00  0.00    -0.351 N 
ATOM      4  C   UNL A   1      32.062  28.168  27.364  1.00  0.00     0.272 C 
ATOM      5  O   UNL A   1      31.128  27.829  28.077  1.00  0.00    -0.267 OA
ATOM      6  H   UNL A   1      33.116  29.110  28.811  1.00  0.00     0.163 HD
BRANCH   4   7
ATOM      7  C   UNL A   1      32.220  27.570  25.968  1.00  0.00     0.156 A 
ATOM      8  N   UNL A   1      32.485  25.573  24.784  1.00  0.00    -0.216 N 
ATOM      9  N   UNL A   1      32.957  26.488  25.798  1.00  0.00    -0.163 NA
ATOM     10  C   UNL A   1      31.129  25.770  24.589  1.00  0.00     0.275 A 
ATOM     11  C   UNL A   1      30.848  27.092  24.058  1.00  0.00     0.051 A 
ATOM     12  O   UNL A   1      30.252  25.213  25.235  1.00  0.00    -0.267 OA
ATOM     13  C   UNL A   1      31.322  28.084  24.903  1.00  0.00     0.020 A 
ATOM     14  C   UNL A   1      30.081  27.365  22.935  1.00  0.00     0.014 A 
ATOM     15  C   UNL A   1      30.962  29.406  24.671  1.00  0.00     0.011 A 
ATOM     16  C   UNL A   1      29.753  28.693  22.676  1.00  0.00     0.001 A 
ATOM     17  C   UNL A   1      30.170  29.704  23.553  1.00  0.00     0.001 A 
BRANCH   8  18
ATOM     18  C   UNL A   1      32.991  24.177  24.945  1.00  0.00     0.197 C 
ATOM     19  C   UNL A   1      33.665  24.072  26.328  1.00  0.00     0.044 C 
BRANCH  18  20
ATOM     20  C   UNL A   1      34.039  23.617  23.886  1.00  0.00     0.249 C 
ATOM     21  O   UNL A   1      34.210  24.151  22.787  1.00  0.00    -0.272 OA
ATOM     22  N   UNL A   1      34.955  22.666  24.323  1.00  0.00    -0.324 N 
ATOM     23  H   UNL A   1      35.880  22.969  24.474  1.00  0.00     0.170 HD
BRANCH  22  24
ATOM     24  C   UNL A   1      34.675  21.308  24.568  1.00  0.00     0.041 A 
ATOM     25  C   UNL A   1      33.376  20.839  24.340  1.00  0.00     0.027 A 
ATOM     26  C   UNL A   1      35.679  20.406  24.934  1.00  0.00     0.027 A 
ATOM     27  C   UNL A   1      33.148  19.461  24.220  1.00  0.00     0.015 A 
ATOM     28  C   UNL A   1      35.437  19.026  24.854  1.00  0.00     0.015 A 
ATOM     29  C   UNL A   1      34.199  18.548  24.390  1.00  0.00     0.056 A 
BRANCH  29  30
ATOM     30  C   UNL A   1      34.072  17.112  23.931  1.00  0.00     0.416 C 
ATOM     31  F   UNL A   1      32.835  16.592  24.164  1.00  0.00    -0.166 F 
ATOM     32  F   UNL A   1      34.311  16.933  22.603  1.00  0.00    -0.166 F 
ATOM     33  F   UNL A   1      34.943  16.281  24.576  1.00  0.00    -0.166 F 
ENDBRANCH  29  30
ENDBRANCH  22  24
ENDBRANCH  18  20
ENDBRANCH   8  18
ENDBRANCH   4   7
ENDBRANCH   2   3
ENDBRANCH   1   2
BRANCH   1  34
ATOM     34  C   UNL A   1      34.476  32.108  27.525  1.00  0.00     0.023 C 
BRANCH  34  35
ATOM     35  C   UNL A   1      33.096  32.531  28.004  1.00  0.00     0.116 C 
BRANCH  35  36
ATOM     36  N   UNL A   1      32.897  33.972  27.938  1.00  0.00    -0.352 N 
ATOM     37  C   UNL A   1      33.559  34.955  28.647  1.00  0.00     0.251 C 
ATOM     38  H   UNL A   1      32.205  34.283  27.310  1.00  0.00     0.163 HD
ATOM     39  O   UNL A   1      33.220  36.115  28.574  1.00  0.00    -0.269 OA
BRANCH  37  40
ATOM     40  C   UNL A   1      34.667  34.532  29.531  1.00  0.00     0.039 A 
ATOM     41  C   UNL A   1      34.363  34.035  30.799  1.00  0.00     0.014 A 
ATOM     42  C   UNL A   1      35.981  34.536  29.058  1.00  0.00     0.014 A 
ATOM     43  C   UNL A   1      35.380  33.474  31.572  1.00  0.00     0.010 A 
ATOM     44  C   UNL A   1      36.974  33.903  29.795  1.00  0.00     0.010 A 
ATOM     45  C   UNL A   1      36.685  33.369  31.060  1.00  0.00    -0.014 A 
BRANCH  45  46
ATOM     46  C   UNL A   1      37.763  32.708  31.837  1.00  0.00     0.031 A 
ATOM     47  C   UNL A   1      38.457  31.498  31.274  1.00  0.00     0.074 A 
ATOM     48  C   UNL A   1      38.072  33.157  33.069  1.00  0.00     0.049 A 
ATOM     49  N   UNL A   1      39.393  30.759  31.808  1.00  0.00    -0.248 NA
ATOM     50  C   UNL A   1      38.014  31.039  29.947  1.00  0.00     0.031 C 
ATOM     51  C   UNL A   1      37.429  34.284  33.748  1.00  0.00     0.029 A 
ATOM     52  N   UNL A   1      39.008  32.719  33.973  1.00  0.00    -0.354 N 
ATOM     53  C   UNL A   1      39.637  29.740  30.896  1.00  0.00     0.074 A 
ATOM     54  C   UNL A   1      38.708  29.920  29.802  1.00  0.00     0.031 C 
ATOM     55  C   UNL A   1      38.016  34.473  34.941  1.00  0.00     0.029 A 
ATOM     56  C   UNL A   1      39.053  33.464  35.127  1.00  0.00     0.049 A 
ATOM     57  H   UNL A   1      39.591  31.942  33.809  1.00  0.00     0.167 HD
ATOM     58  C   UNL A   1      40.569  28.759  30.950  1.00  0.00     0.037 A 
ATOM     59  C   UNL A   1      39.850  33.350  36.207  1.00  0.00     0.037 A 
ATOM     60  C   UNL A   1      41.513  28.607  32.024  1.00  0.00     0.049 A 
ATOM     61  C   UNL A   1      40.889  32.263  36.239  1.00  0.00     0.074 A 
ATOM     62  C   UNL A   1      42.547  27.695  32.142  1.00  0.00     0.029 A 
ATOM     63  N   UNL A   1      41.539  29.391  33.170  1.00  0.00    -0.354 N 
ATOM     64  N   UNL A   1      41.157  31.352  35.333  1.00  0.00    -0.248 NA
ATOM     65  C   UNL A   1      41.737  32.190  37.435  1.00  0.00     0.031 C 
ATOM     66  C   UNL A   1      43.174  27.902  33.376  1.00  0.00     0.029 A 
ATOM     67  C   UNL A   1      42.557  28.970  34.009  1.00  0.00     0.049 A 
ATOM     68  H   UNL A   1      40.923  30.135  33.358  1.00  0.00     0.167 HD
ATOM     69  C   UNL A   1      42.225  30.618  35.837  1.00  0.00     0.074 A 
ATOM     70  C   UNL A   1      42.558  31.197  37.123  1.00  0.00     0.031 C 
ATOM     71  C   UNL A   1      42.875  29.563  35.284  1.00  0.00     0.037 A 
BRANCH  58  72
ATOM     72  C   UNL A   1      40.605  27.780  29.808  1.00  0.00     0.058 A 
ATOM     73  C   UNL A   1      41.604  27.831  28.823  1.00  0.00     0.135 A 
ATOM     74  C   UNL A   1      39.621  26.785  29.690  1.00  0.00     0.135 A 
ATOM     75  F   UNL A   1      42.560  28.774  28.878  1.00  0.00    -0.206 F 
ATOM     76  C   UNL A   1      41.602  26.963  27.737  1.00  0.00     0.059 A 
ATOM     77  C   UNL A   1      39.617  25.885  28.628  1.00  0.00     0.059 A 
ATOM     78  F   UNL A   1      38.642  26.688  30.603  1.00  0.00    -0.206 F 
ATOM     79  C   UNL A   1      40.598  25.998  27.643  1.00  0.00     0.060 A 
BRANCH  79  80
ATOM     80  S   UNL A   1      40.590  24.897  26.213  1.00  0.00     0.124 S 
ATOM     81  O   UNL A   1      41.517  23.856  26.645  1.00  0.00    -0.237 OA
ATOM     82  O   UNL A   1      39.187  24.500  26.130  1.00  0.00    -0.237 OA
ATOM     83  O   UNL A   1      41.063  25.749  25.127  1.00  0.00    -0.744 OA
ENDBRANCH  79  80
ENDBRANCH  58  72
BRANCH  59  84
ATOM     84  C   UNL A   1      39.733  34.325  37.324  1.00  0.00     0.058 A 
ATOM     85  C   UNL A   1      38.981  34.012  38.467  1.00  0.00     0.135 A 
ATOM     86  C   UNL A   1      40.377  35.570  37.286  1.00  0.00     0.135 A 
ATOM     87  F   UNL A   1      38.343  32.835  38.548  1.00  0.00    -0.206 F 
ATOM     88  C   UNL A   1      38.861  34.905  39.528  1.00  0.00     0.059 A 
ATOM     89  C   UNL A   1      40.289  36.471  38.342  1.00  0.00     0.059 A 
ATOM     90  F   UNL A   1      41.121  35.909  36.221  1.00  0.00    -0.206 F 
ATOM     91  C   UNL A   1      39.521  36.132  39.457  1.00  0.00     0.060 A 
BRANCH  91  92
ATOM     92  S   UNL A   1      39.401  37.261  40.862  1.00  0.00     0.124 S 
ATOM     93  O   UNL A   1      40.793  37.656  41.040  1.00  0.00    -0.237 OA
ATOM     94  O   UNL A   1      38.505  38.294  40.349  1.00  0.00    -0.237 OA
ATOM     95  O   UNL A   1      38.839  36.424  41.917  1.00  0.00    -0.744 OA
ENDBRANCH  91  92
ENDBRANCH  59  84
BRANCH  71  96
ATOM     96  C   UNL A   1      44.031  28.989  36.054  1.00  0.00     0.058 A 
ATOM     97  C   UNL A   1      43.883  27.858  36.871  1.00  0.00     0.135 A 
ATOM     98  C   UNL A   1      45.311  29.556  35.939  1.00  0.00     0.135 A 
ATOM     99  F   UNL A   1      42.680  27.283  37.018  1.00  0.00    -0.206 F 
ATOM    100  C   UNL A   1      44.960  27.323  37.571  1.00  0.00     0.059 A 
ATOM    101  C   UNL A   1      46.407  29.022  36.609  1.00  0.00     0.059 A 
ATOM    102  F   UNL A   1      45.507  30.632  35.162  1.00  0.00    -0.206 F 
ATOM    103  C   UNL A   1      46.219  27.913  37.434  1.00  0.00     0.060 A 
BRANCH 103 104
ATOM    104  S   UNL A   1      47.614  27.197  38.327  1.00  0.00     0.124 S 
ATOM    105  O   UNL A   1      48.203  26.333  37.309  1.00  0.00    -0.237 OA
ATOM    106  O   UNL A   1      48.395  28.377  38.687  1.00  0.00    -0.237 OA
ATOM    107  O   UNL A   1      46.981  26.507  39.448  1.00  0.00    -0.744 OA
ENDBRANCH 103 104
ENDBRANCH  71  96
ENDBRANCH  45  46
ENDBRANCH  37  40
ENDBRANCH  35  36
ENDBRANCH  34  35
ENDBRANCH   1  34
TORSDOF 18
ENDMDL
