MODEL 1
REMARK VINA RESULT:     -11.6      0.000      0.000
REMARK SMILES Cc1cc(OC(F)(F)F)cc2c1O[C@H](C(F)(F)F)C(C(=O)NCCCCNC(=O)c1ccc(-c3c4nc(c(-c5c(F)cc(S(=O)(=O)[O-])cc5F)c5ccc([nH]5)c(-c5c(F)cc(S(=O)(=O)[O-])cc5F)c5nc(c(-c6c(F)cc(S(=O)(=O)[O-])cc6F)c6ccc3[nH]6)C=C5)C=C4)cc1)=C2
REMARK SMILES IDX 25 1 24 2 23 3 22 4 20 5 21 6 19 8 1 9 2 10 3 11 12 12 4 13
REMARK SMILES IDX 11 14 13 15 10 16 96 17 14 18 5 19 6 20 7 21 8 22 9 23 15 24
REMARK SMILES IDX 16 25 17 26 18 27 26 28 27 29 28 30 29 32 30 33 31 34 95 35
REMARK SMILES IDX 32 36 94 37 33 38 34 39 35 40 88 41 36 42 93 43 87 44 89 45
REMARK SMILES IDX 37 46 92 47 86 48 85 49 38 51 72 52 51 53 71 54 52 55 55 56
REMARK SMILES IDX 70 57 90 58 53 59 54 60 69 62 91 63 56 64 39 65 40 66 49 67
REMARK SMILES IDX 41 68 42 69 48 70 50 71 43 72 44 73 45 74 46 75 47 76 73 77
REMARK SMILES IDX 74 78 83 79 75 80 76 81 82 82 84 83 77 84 78 85 79 86 80 87
REMARK SMILES IDX 81 88 57 89 58 90 67 91 59 92 60 93 66 94 68 95 61 96 62 97
REMARK SMILES IDX 63 98 64 99 65 100
REMARK H PARENT 22 7 27 31 89 50 55 61
REMARK Flexibility Score: inf
ROOT
ATOM      1  C   UNL A   1      33.770  28.216  25.762  1.00  0.00     0.023 C 
ENDROOT
BRANCH   1   2
ATOM      2  C   UNL A   1      32.523  28.627  24.973  1.00  0.00     0.023 C 
BRANCH   2   3
ATOM      3  C   UNL A   1      31.737  27.455  24.392  1.00  0.00     0.116 C 
BRANCH   3   4
ATOM      4  N   UNL A   1      30.808  26.893  25.354  1.00  0.00    -0.352 N 
ATOM      5  C   UNL A   1      30.598  25.688  25.934  1.00  0.00     0.251 C 
ATOM      6  O   UNL A   1      29.652  25.641  26.727  1.00  0.00    -0.270 OA
ATOM      7  H   UNL A   1      30.158  27.563  25.667  1.00  0.00     0.163 HD
BRANCH   5   8
ATOM      8  C   UNL A   1      31.410  24.459  25.688  1.00  0.00     0.067 C 
ATOM      9  C   UNL A   1      33.181  19.736  24.733  1.00  0.00     0.048 C 
ATOM     10  C   UNL A   1      33.772  21.004  25.282  1.00  0.00    -0.005 A 
ATOM     11  C   UNL A   1      35.135  21.065  25.617  1.00  0.00     0.054 A 
ATOM     12  C   UNL A   1      32.974  22.138  25.474  1.00  0.00     0.131 A 
ATOM     13  C   UNL A   1      35.688  22.236  26.139  1.00  0.00     0.130 A 
ATOM     14  C   UNL A   1      33.514  23.313  26.000  1.00  0.00     0.021 A 
ATOM     15  O   UNL A   1      31.643  22.035  25.174  1.00  0.00    -0.475 OA
ATOM     16  C   UNL A   1      34.871  23.356  26.329  1.00  0.00     0.058 A 
ATOM     17  C   UNL A   1      32.645  24.461  26.227  1.00  0.00     0.025 C 
ATOM     18  C   UNL A   1      30.961  23.285  24.866  1.00  0.00     0.314 C 
BRANCH  13  19
ATOM     19  O   UNL A   1      36.992  22.423  26.505  1.00  0.00    -0.406 OA
BRANCH  19  20
ATOM     20  C   UNL A   1      37.931  22.712  25.485  1.00  0.00     0.573 C 
ATOM     21  F   UNL A   1      38.218  21.611  24.757  1.00  0.00    -0.132 F 
ATOM     22  F   UNL A   1      37.481  23.688  24.667  1.00  0.00    -0.132 F 
ATOM     23  F   UNL A   1      39.076  23.143  26.058  1.00  0.00    -0.132 F 
ENDBRANCH  19  20
ENDBRANCH  13  19
BRANCH  18  24
ATOM     24  C   UNL A   1      31.047  23.551  23.351  1.00  0.00     0.429 C 
ATOM     25  F   UNL A   1      31.243  22.390  22.677  1.00  0.00    -0.167 F 
ATOM     26  F   UNL A   1      29.912  24.096  22.854  1.00  0.00    -0.167 F 
ATOM     27  F   UNL A   1      32.061  24.384  23.022  1.00  0.00    -0.167 F 
ENDBRANCH  18  24
ENDBRANCH   5   8
ENDBRANCH   3   4
ENDBRANCH   2   3
ENDBRANCH   1   2
BRANCH   1  28
ATOM     28  C   UNL A   1      33.675  28.390  27.278  1.00  0.00     0.116 C 
BRANCH  28  29
ATOM     29  N   UNL A   1      33.531  29.776  27.699  1.00  0.00    -0.352 N 
ATOM     30  C   UNL A   1      34.497  30.584  28.249  1.00  0.00     0.251 C 
ATOM     31  H   UNL A   1      32.642  30.179  27.577  1.00  0.00     0.163 HD
ATOM     32  O   UNL A   1      34.233  31.722  28.620  1.00  0.00    -0.269 OA
BRANCH  30  33
ATOM     33  C   UNL A   1      35.851  30.029  28.418  1.00  0.00     0.039 A 
ATOM     34  C   UNL A   1      36.731  30.066  27.335  1.00  0.00     0.014 A 
ATOM     35  C   UNL A   1      36.267  29.574  29.673  1.00  0.00     0.014 A 
ATOM     36  C   UNL A   1      38.064  29.705  27.528  1.00  0.00     0.010 A 
ATOM     37  C   UNL A   1      37.605  29.251  29.872  1.00  0.00     0.010 A 
ATOM     38  C   UNL A   1      38.513  29.325  28.805  1.00  0.00    -0.014 A 
BRANCH  38  39
ATOM     39  C   UNL A   1      39.938  29.002  29.036  1.00  0.00     0.031 A 
ATOM     40  C   UNL A   1      40.847  30.034  29.632  1.00  0.00     0.074 A 
ATOM     41  C   UNL A   1      40.415  27.798  28.668  1.00  0.00     0.049 A 
ATOM     42  N   UNL A   1      42.126  29.954  29.890  1.00  0.00    -0.248 NA
ATOM     43  C   UNL A   1      40.241  31.332  29.971  1.00  0.00     0.031 C 
ATOM     44  C   UNL A   1      39.628  26.730  28.048  1.00  0.00     0.029 A 
ATOM     45  N   UNL A   1      41.677  27.270  28.762  1.00  0.00    -0.354 N 
ATOM     46  C   UNL A   1      42.478  31.186  30.424  1.00  0.00     0.074 A 
ATOM     47  C   UNL A   1      41.290  32.013  30.407  1.00  0.00     0.031 C 
ATOM     48  C   UNL A   1      40.423  25.666  27.837  1.00  0.00     0.029 A 
ATOM     49  C   UNL A   1      41.774  25.984  28.288  1.00  0.00     0.049 A 
ATOM     50  H   UNL A   1      42.442  27.766  29.135  1.00  0.00     0.167 HD
ATOM     51  C   UNL A   1      43.678  31.583  30.910  1.00  0.00     0.037 A 
ATOM     52  C   UNL A   1      42.834  25.155  28.232  1.00  0.00     0.037 A 
ATOM     53  C   UNL A   1      44.852  30.755  30.933  1.00  0.00     0.049 A 
ATOM     54  C   UNL A   1      44.162  25.623  28.762  1.00  0.00     0.074 A 
ATOM     55  C   UNL A   1      46.108  31.054  31.429  1.00  0.00     0.029 A 
ATOM     56  N   UNL A   1      44.912  29.459  30.443  1.00  0.00    -0.354 N 
ATOM     57  N   UNL A   1      44.470  26.779  29.299  1.00  0.00    -0.248 NA
ATOM     58  C   UNL A   1      45.283  24.677  28.680  1.00  0.00     0.031 C 
ATOM     59  C   UNL A   1      46.935  29.945  31.218  1.00  0.00     0.029 A 
ATOM     60  C   UNL A   1      46.186  28.946  30.616  1.00  0.00     0.049 A 
ATOM     61  H   UNL A   1      44.159  28.974  30.034  1.00  0.00     0.167 HD
ATOM     62  C   UNL A   1      45.814  26.693  29.639  1.00  0.00     0.074 A 
ATOM     63  C   UNL A   1      46.260  25.371  29.250  1.00  0.00     0.031 C 
ATOM     64  C   UNL A   1      46.606  27.624  30.225  1.00  0.00     0.037 A 
BRANCH  51  65
ATOM     65  C   UNL A   1      43.761  32.974  31.464  1.00  0.00     0.058 A 
ATOM     66  C   UNL A   1      43.472  33.236  32.813  1.00  0.00     0.135 A 
ATOM     67  C   UNL A   1      44.128  34.054  30.647  1.00  0.00     0.135 A 
ATOM     68  F   UNL A   1      43.096  32.238  33.629  1.00  0.00    -0.206 F 
ATOM     69  C   UNL A   1      43.514  34.526  33.327  1.00  0.00     0.059 A 
ATOM     70  C   UNL A   1      44.196  35.353  31.146  1.00  0.00     0.059 A 
ATOM     71  F   UNL A   1      44.409  33.857  29.350  1.00  0.00    -0.206 F 
ATOM     72  C   UNL A   1      43.870  35.580  32.483  1.00  0.00     0.060 A 
BRANCH  72  73
ATOM     73  S   UNL A   1      43.901  37.253  33.159  1.00  0.00     0.124 S 
ATOM     74  O   UNL A   1      45.214  37.282  33.797  1.00  0.00    -0.237 OA
ATOM     75  O   UNL A   1      43.759  38.079  31.965  1.00  0.00    -0.237 OA
ATOM     76  O   UNL A   1      42.760  37.272  34.068  1.00  0.00    -0.744 OA
ENDBRANCH  72  73
ENDBRANCH  51  65
BRANCH  52  77
ATOM     77  C   UNL A   1      42.668  23.782  27.694  1.00  0.00     0.058 A 
ATOM     78  C   UNL A   1      42.486  22.693  28.560  1.00  0.00     0.135 A 
ATOM     79  C   UNL A   1      42.648  23.534  26.314  1.00  0.00     0.135 A 
ATOM     80  F   UNL A   1      42.502  22.884  29.888  1.00  0.00    -0.206 F 
ATOM     81  C   UNL A   1      42.293  21.404  28.076  1.00  0.00     0.059 A 
ATOM     82  C   UNL A   1      42.442  22.255  25.806  1.00  0.00     0.059 A 
ATOM     83  F   UNL A   1      42.804  24.547  25.447  1.00  0.00    -0.206 F 
ATOM     84  C   UNL A   1      42.268  21.195  26.696  1.00  0.00     0.060 A 
BRANCH  84  85
ATOM     85  S   UNL A   1      41.946  19.528  26.079  1.00  0.00     0.124 S 
ATOM     86  O   UNL A   1      42.389  18.709  27.201  1.00  0.00    -0.237 OA
ATOM     87  O   UNL A   1      40.506  19.562  25.842  1.00  0.00    -0.237 OA
ATOM     88  O   UNL A   1      42.769  19.453  24.876  1.00  0.00    -0.744 OA
ENDBRANCH  84  85
ENDBRANCH  52  77
BRANCH  64  89
ATOM     89  C   UNL A   1      48.031  27.245  30.497  1.00  0.00     0.058 A 
ATOM     90  C   UNL A   1      49.064  27.621  29.625  1.00  0.00     0.135 A 
ATOM     91  C   UNL A   1      48.376  26.576  31.681  1.00  0.00     0.135 A 
ATOM     92  F   UNL A   1      48.781  28.257  28.477  1.00  0.00    -0.206 F 
ATOM     93  C   UNL A   1      50.394  27.344  29.919  1.00  0.00     0.059 A 
ATOM     94  C   UNL A   1      49.701  26.302  32.002  1.00  0.00     0.059 A 
ATOM     95  F   UNL A   1      47.422  26.202  32.548  1.00  0.00    -0.206 F 
ATOM     96  C   UNL A   1      50.703  26.687  31.111  1.00  0.00     0.060 A 
BRANCH  96  97
ATOM     97  S   UNL A   1      52.439  26.388  31.512  1.00  0.00     0.124 S 
ATOM     98  O   UNL A   1      52.332  25.307  32.487  1.00  0.00    -0.237 OA
ATOM     99  O   UNL A   1      53.002  26.021  30.217  1.00  0.00    -0.237 OA
ATOM    100  O   UNL A   1      52.889  27.671  32.042  1.00  0.00    -0.744 OA
ENDBRANCH  96  97
ENDBRANCH  64  89
ENDBRANCH  38  39
ENDBRANCH  30  33
ENDBRANCH  28  29
ENDBRANCH   1  28
TORSDOF 17
ENDMDL
MODEL 2
REMARK VINA RESULT:     -11.5      1.184      2.040
REMARK SMILES Cc1cc(OC(F)(F)F)cc2c1O[C@H](C(F)(F)F)C(C(=O)NCCCCNC(=O)c1ccc(-c3c4nc(c(-c5c(F)cc(S(=O)(=O)[O-])cc5F)c5ccc([nH]5)c(-c5c(F)cc(S(=O)(=O)[O-])cc5F)c5nc(c(-c6c(F)cc(S(=O)(=O)[O-])cc6F)c6ccc3[nH]6)C=C5)C=C4)cc1)=C2
REMARK SMILES IDX 25 1 24 2 23 3 22 4 20 5 21 6 19 8 1 9 2 10 3 11 12 12 4 13
REMARK SMILES IDX 11 14 13 15 10 16 96 17 14 18 5 19 6 20 7 21 8 22 9 23 15 24
REMARK SMILES IDX 16 25 17 26 18 27 26 28 27 29 28 30 29 32 30 33 31 34 95 35
REMARK SMILES IDX 32 36 94 37 33 38 34 39 35 40 88 41 36 42 93 43 87 44 89 45
REMARK SMILES IDX 37 46 92 47 86 48 85 49 38 51 72 52 51 53 71 54 52 55 55 56
REMARK SMILES IDX 70 57 90 58 53 59 54 60 69 62 91 63 56 64 39 65 40 66 49 67
REMARK SMILES IDX 41 68 42 69 48 70 50 71 43 72 44 73 45 74 46 75 47 76 73 77
REMARK SMILES IDX 74 78 83 79 75 80 76 81 82 82 84 83 77 84 78 85 79 86 80 87
REMARK SMILES IDX 81 88 57 89 58 90 67 91 59 92 60 93 66 94 68 95 61 96 62 97
REMARK SMILES IDX 63 98 64 99 65 100
REMARK H PARENT 22 7 27 31 89 50 55 61
REMARK Flexibility Score: inf
ROOT
ATOM      1  C   UNL A   1      33.847  28.251  25.710  1.00  0.00     0.023 C 
ENDROOT
BRANCH   1   2
ATOM      2  C   UNL A   1      33.128  29.234  24.781  1.00  0.00     0.023 C 
BRANCH   2   3
ATOM      3  C   UNL A   1      32.055  28.594  23.905  1.00  0.00     0.116 C 
BRANCH   3   4
ATOM      4  N   UNL A   1      32.629  27.811  22.825  1.00  0.00    -0.352 N 
ATOM      5  C   UNL A   1      33.123  26.561  22.669  1.00  0.00     0.251 C 
ATOM      6  O   UNL A   1      33.534  26.293  21.535  1.00  0.00    -0.270 OA
ATOM      7  H   UNL A   1      32.672  28.325  21.986  1.00  0.00     0.163 HD
BRANCH   5   8
ATOM      8  C   UNL A   1      33.198  25.523  23.739  1.00  0.00     0.067 C 
ATOM      9  C   UNL A   1      32.595  22.540  27.875  1.00  0.00     0.048 C 
ATOM     10  C   UNL A   1      33.668  22.719  26.838  1.00  0.00    -0.005 A 
ATOM     11  C   UNL A   1      34.819  21.914  26.862  1.00  0.00     0.054 A 
ATOM     12  C   UNL A   1      33.541  23.693  25.840  1.00  0.00     0.131 A 
ATOM     13  C   UNL A   1      35.826  22.082  25.909  1.00  0.00     0.130 A 
ATOM     14  C   UNL A   1      34.543  23.874  24.885  1.00  0.00     0.021 A 
ATOM     15  O   UNL A   1      32.427  24.486  25.866  1.00  0.00    -0.475 OA
ATOM     16  C   UNL A   1      35.682  23.066  24.924  1.00  0.00     0.058 A 
ATOM     17  C   UNL A   1      34.398  24.926  23.887  1.00  0.00     0.025 C 
ATOM     18  C   UNL A   1      32.044  25.089  24.597  1.00  0.00     0.314 C 
BRANCH  13  19
ATOM     19  O   UNL A   1      36.989  21.369  25.825  1.00  0.00    -0.406 OA
BRANCH  19  20
ATOM     20  C   UNL A   1      37.050  20.312  24.883  1.00  0.00     0.573 C 
ATOM     21  F   UNL A   1      37.889  19.337  25.295  1.00  0.00    -0.132 F 
ATOM     22  F   UNL A   1      35.827  19.788  24.655  1.00  0.00    -0.132 F 
ATOM     23  F   UNL A   1      37.520  20.800  23.713  1.00  0.00    -0.132 F 
ENDBRANCH  19  20
ENDBRANCH  13  19
BRANCH  18  24
ATOM     24  C   UNL A   1      31.074  24.147  23.858  1.00  0.00     0.429 C 
ATOM     25  F   UNL A   1      30.602  23.196  24.704  1.00  0.00    -0.167 F 
ATOM     26  F   UNL A   1      29.993  24.795  23.367  1.00  0.00    -0.167 F 
ATOM     27  F   UNL A   1      31.656  23.507  22.818  1.00  0.00    -0.167 F 
ENDBRANCH  18  24
ENDBRANCH   5   8
ENDBRANCH   3   4
ENDBRANCH   2   3
ENDBRANCH   1   2
BRANCH   1  28
ATOM     28  C   UNL A   1      33.602  28.461  27.204  1.00  0.00     0.116 C 
BRANCH  28  29
ATOM     29  N   UNL A   1      33.469  29.860  27.584  1.00  0.00    -0.352 N 
ATOM     30  C   UNL A   1      34.433  30.669  28.135  1.00  0.00     0.251 C 
ATOM     31  H   UNL A   1      32.589  30.273  27.428  1.00  0.00     0.163 HD
ATOM     32  O   UNL A   1      34.176  31.821  28.469  1.00  0.00    -0.269 OA
BRANCH  30  33
ATOM     33  C   UNL A   1      35.774  30.100  28.353  1.00  0.00     0.039 A 
ATOM     34  C   UNL A   1      36.713  30.184  27.324  1.00  0.00     0.014 A 
ATOM     35  C   UNL A   1      36.117  29.584  29.606  1.00  0.00     0.014 A 
ATOM     36  C   UNL A   1      38.032  29.807  27.574  1.00  0.00     0.010 A 
ATOM     37  C   UNL A   1      37.441  29.245  29.864  1.00  0.00     0.010 A 
ATOM     38  C   UNL A   1      38.408  29.365  28.854  1.00  0.00    -0.014 A 
BRANCH  38  39
ATOM     39  C   UNL A   1      39.817  29.024  29.149  1.00  0.00     0.031 A 
ATOM     40  C   UNL A   1      40.699  30.029  29.827  1.00  0.00     0.074 A 
ATOM     41  C   UNL A   1      40.307  27.829  28.767  1.00  0.00     0.049 A 
ATOM     42  N   UNL A   1      41.962  29.932  30.148  1.00  0.00    -0.248 NA
ATOM     43  C   UNL A   1      40.083  31.320  30.176  1.00  0.00     0.031 C 
ATOM     44  C   UNL A   1      39.548  26.788  28.070  1.00  0.00     0.029 A 
ATOM     45  N   UNL A   1      41.559  27.290  28.909  1.00  0.00    -0.354 N 
ATOM     46  C   UNL A   1      42.292  31.143  30.741  1.00  0.00     0.074 A 
ATOM     47  C   UNL A   1      41.112  31.978  30.690  1.00  0.00     0.031 C 
ATOM     48  C   UNL A   1      40.346  25.726  27.866  1.00  0.00     0.029 A 
ATOM     49  C   UNL A   1      41.673  26.019  28.399  1.00  0.00     0.049 A 
ATOM     50  H   UNL A   1      42.305  27.768  29.338  1.00  0.00     0.167 HD
ATOM     51  C   UNL A   1      43.467  31.515  31.302  1.00  0.00     0.037 A 
ATOM     52  C   UNL A   1      42.731  25.185  28.370  1.00  0.00     0.037 A 
ATOM     53  C   UNL A   1      44.633  30.678  31.360  1.00  0.00     0.049 A 
ATOM     54  C   UNL A   1      44.031  25.625  28.985  1.00  0.00     0.074 A 
ATOM     55  C   UNL A   1      45.863  30.952  31.930  1.00  0.00     0.029 A 
ATOM     56  N   UNL A   1      44.712  29.398  30.831  1.00  0.00    -0.354 N 
ATOM     57  N   UNL A   1      44.316  26.761  29.576  1.00  0.00    -0.248 NA
ATOM     58  C   UNL A   1      45.149  24.674  28.931  1.00  0.00     0.031 C 
ATOM     59  C   UNL A   1      46.694  29.844  31.727  1.00  0.00     0.029 A 
ATOM     60  C   UNL A   1      45.972  28.871  31.053  1.00  0.00     0.049 A 
ATOM     61  H   UNL A   1      43.979  28.933  30.366  1.00  0.00     0.167 HD
ATOM     62  C   UNL A   1      45.640  26.654  29.983  1.00  0.00     0.074 A 
ATOM     63  C   UNL A   1      46.098  25.342  29.574  1.00  0.00     0.031 C 
ATOM     64  C   UNL A   1      46.405  27.560  30.640  1.00  0.00     0.037 A 
BRANCH  51  65
ATOM     65  C   UNL A   1      43.528  32.886  31.906  1.00  0.00     0.058 A 
ATOM     66  C   UNL A   1      43.217  33.097  33.259  1.00  0.00     0.135 A 
ATOM     67  C   UNL A   1      43.897  33.998  31.134  1.00  0.00     0.135 A 
ATOM     68  F   UNL A   1      42.838  32.067  34.033  1.00  0.00    -0.206 F 
ATOM     69  C   UNL A   1      43.238  34.369  33.819  1.00  0.00     0.059 A 
ATOM     70  C   UNL A   1      43.945  35.278  31.679  1.00  0.00     0.059 A 
ATOM     71  F   UNL A   1      44.199  33.849  29.835  1.00  0.00    -0.206 F 
ATOM     72  C   UNL A   1      43.597  35.455  33.018  1.00  0.00     0.060 A 
BRANCH  72  73
ATOM     73  S   UNL A   1      43.602  37.104  33.753  1.00  0.00     0.124 S 
ATOM     74  O   UNL A   1      42.346  37.091  34.498  1.00  0.00    -0.237 OA
ATOM     75  O   UNL A   1      44.817  37.087  34.559  1.00  0.00    -0.237 OA
ATOM     76  O   UNL A   1      43.635  37.990  32.594  1.00  0.00    -0.744 OA
ENDBRANCH  72  73
ENDBRANCH  51  65
BRANCH  52  77
ATOM     77  C   UNL A   1      42.585  23.832  27.779  1.00  0.00     0.058 A 
ATOM     78  C   UNL A   1      42.654  23.648  26.390  1.00  0.00     0.135 A 
ATOM     79  C   UNL A   1      42.413  22.696  28.584  1.00  0.00     0.135 A 
ATOM     80  F   UNL A   1      42.814  24.708  25.583  1.00  0.00    -0.206 F 
ATOM     81  C   UNL A   1      42.556  22.385  25.818  1.00  0.00     0.059 A 
ATOM     82  C   UNL A   1      42.327  21.420  28.036  1.00  0.00     0.059 A 
ATOM     83  F   UNL A   1      42.355  22.821  29.919  1.00  0.00    -0.206 F 
ATOM     84  C   UNL A   1      42.397  21.275  26.649  1.00  0.00     0.060 A 
BRANCH  84  85
ATOM     85  S   UNL A   1      42.341  19.633  25.900  1.00  0.00     0.124 S 
ATOM     86  O   UNL A   1      43.364  19.747  24.867  1.00  0.00    -0.237 OA
ATOM     87  O   UNL A   1      42.668  18.769  27.030  1.00  0.00    -0.237 OA
ATOM     88  O   UNL A   1      40.966  19.531  25.421  1.00  0.00    -0.744 OA
ENDBRANCH  84  85
ENDBRANCH  52  77
BRANCH  64  89
ATOM     89  C   UNL A   1      47.812  27.162  30.974  1.00  0.00     0.058 A 
ATOM     90  C   UNL A   1      48.105  26.421  32.128  1.00  0.00     0.135 A 
ATOM     91  C   UNL A   1      48.862  27.450  30.089  1.00  0.00     0.135 A 
ATOM     92  F   UNL A   1      47.134  26.128  33.008  1.00  0.00    -0.206 F 
ATOM     93  C   UNL A   1      49.396  25.980  32.395  1.00  0.00     0.059 A 
ATOM     94  C   UNL A   1      50.158  27.005  30.328  1.00  0.00     0.059 A 
ATOM     95  F   UNL A   1      48.627  28.151  28.967  1.00  0.00    -0.206 F 
ATOM     96  C   UNL A   1      50.415  26.274  31.487  1.00  0.00     0.060 A 
BRANCH  96  97
ATOM     97  S   UNL A   1      52.076  25.642  31.813  1.00  0.00     0.124 S 
ATOM     98  O   UNL A   1      52.754  25.940  30.556  1.00  0.00    -0.237 OA
ATOM     99  O   UNL A   1      52.494  26.435  32.964  1.00  0.00    -0.237 OA
ATOM    100  O   UNL A   1      51.850  24.225  32.085  1.00  0.00    -0.744 OA
ENDBRANCH  96  97
ENDBRANCH  64  89
ENDBRANCH  38  39
ENDBRANCH  30  33
ENDBRANCH  28  29
ENDBRANCH   1  28
TORSDOF 17
ENDMDL
MODEL 3
REMARK VINA RESULT:     -11.4      3.178      9.167
REMARK SMILES Cc1cc(OC(F)(F)F)cc2c1O[C@H](C(F)(F)F)C(C(=O)NCCCCNC(=O)c1ccc(-c3c4nc(c(-c5c(F)cc(S(=O)(=O)[O-])cc5F)c5ccc([nH]5)c(-c5c(F)cc(S(=O)(=O)[O-])cc5F)c5nc(c(-c6c(F)cc(S(=O)(=O)[O-])cc6F)c6ccc3[nH]6)C=C5)C=C4)cc1)=C2
REMARK SMILES IDX 25 1 24 2 23 3 22 4 20 5 21 6 19 8 1 9 2 10 3 11 12 12 4 13
REMARK SMILES IDX 11 14 13 15 10 16 96 17 14 18 5 19 6 20 7 21 8 22 9 23 15 24
REMARK SMILES IDX 16 25 17 26 18 27 26 28 27 29 28 30 29 32 30 33 31 34 95 35
REMARK SMILES IDX 32 36 94 37 33 38 34 39 35 40 88 41 36 42 93 43 87 44 89 45
REMARK SMILES IDX 37 46 92 47 86 48 85 49 38 51 72 52 51 53 71 54 52 55 55 56
REMARK SMILES IDX 70 57 90 58 53 59 54 60 69 62 91 63 56 64 39 65 40 66 49 67
REMARK SMILES IDX 41 68 42 69 48 70 50 71 43 72 44 73 45 74 46 75 47 76 73 77
REMARK SMILES IDX 74 78 83 79 75 80 76 81 82 82 84 83 77 84 78 85 79 86 80 87
REMARK SMILES IDX 81 88 57 89 58 90 67 91 59 92 60 93 66 94 68 95 61 96 62 97
REMARK SMILES IDX 63 98 64 99 65 100
REMARK H PARENT 22 7 27 31 89 50 55 61
REMARK Flexibility Score: inf
ROOT
ATOM      1  C   UNL A   1      35.890  23.214  24.409  1.00  0.00     0.023 C 
ENDROOT
BRANCH   1   2
ATOM      2  C   UNL A   1      34.800  22.385  25.095  1.00  0.00     0.023 C 
BRANCH   2   3
ATOM      3  C   UNL A   1      33.437  22.461  24.413  1.00  0.00     0.116 C 
BRANCH   3   4
ATOM      4  N   UNL A   1      33.551  22.791  23.005  1.00  0.00    -0.352 N 
ATOM      5  C   UNL A   1      33.264  23.851  22.214  1.00  0.00     0.251 C 
ATOM      6  O   UNL A   1      33.524  23.702  21.016  1.00  0.00    -0.270 OA
ATOM      7  H   UNL A   1      33.936  22.047  22.487  1.00  0.00     0.163 HD
BRANCH   5   8
ATOM      8  C   UNL A   1      32.677  25.142  22.682  1.00  0.00     0.067 C 
ATOM      9  C   UNL A   1      29.936  29.418  23.427  1.00  0.00     0.048 C 
ATOM     10  C   UNL A   1      31.271  28.914  23.898  1.00  0.00    -0.005 A 
ATOM     11  C   UNL A   1      32.042  29.675  24.792  1.00  0.00     0.054 A 
ATOM     12  C   UNL A   1      31.768  27.685  23.447  1.00  0.00     0.131 A 
ATOM     13  C   UNL A   1      33.289  29.218  25.224  1.00  0.00     0.130 A 
ATOM     14  C   UNL A   1      33.015  27.220  23.868  1.00  0.00     0.021 A 
ATOM     15  O   UNL A   1      31.010  26.985  22.548  1.00  0.00    -0.475 OA
ATOM     16  C   UNL A   1      33.770  27.990  24.756  1.00  0.00     0.058 A 
ATOM     17  C   UNL A   1      33.521  25.957  23.345  1.00  0.00     0.025 C 
ATOM     18  C   UNL A   1      31.243  25.548  22.502  1.00  0.00     0.314 C 
BRANCH  13  19
ATOM     19  O   UNL A   1      34.133  29.860  26.086  1.00  0.00    -0.406 OA
BRANCH  19  20
ATOM     20  C   UNL A   1      33.843  29.791  27.471  1.00  0.00     0.573 C 
ATOM     21  F   UNL A   1      34.690  28.954  28.108  1.00  0.00    -0.132 F 
ATOM     22  F   UNL A   1      33.900  31.013  28.044  1.00  0.00    -0.132 F 
ATOM     23  F   UNL A   1      32.588  29.315  27.628  1.00  0.00    -0.132 F 
ENDBRANCH  19  20
ENDBRANCH  13  19
BRANCH  18  24
ATOM     24  C   UNL A   1      30.296  24.848  23.495  1.00  0.00     0.429 C 
ATOM     25  F   UNL A   1      29.164  25.577  23.663  1.00  0.00    -0.167 F 
ATOM     26  F   UNL A   1      29.905  23.626  23.066  1.00  0.00    -0.167 F 
ATOM     27  F   UNL A   1      30.851  24.678  24.717  1.00  0.00    -0.167 F 
ENDBRANCH  18  24
ENDBRANCH   5   8
ENDBRANCH   3   4
ENDBRANCH   2   3
ENDBRANCH   1   2
BRANCH   1  28
ATOM     28  C   UNL A   1      37.006  23.718  25.325  1.00  0.00     0.116 C 
BRANCH  28  29
ATOM     29  N   UNL A   1      38.140  22.809  25.419  1.00  0.00    -0.352 N 
ATOM     30  C   UNL A   1      39.334  23.031  26.062  1.00  0.00     0.251 C 
ATOM     31  H   UNL A   1      38.040  21.938  24.972  1.00  0.00     0.163 HD
ATOM     32  O   UNL A   1      40.239  22.205  26.016  1.00  0.00    -0.269 OA
BRANCH  30  33
ATOM     33  C   UNL A   1      39.512  24.310  26.772  1.00  0.00     0.039 A 
ATOM     34  C   UNL A   1      38.972  24.447  28.051  1.00  0.00     0.014 A 
ATOM     35  C   UNL A   1      40.299  25.317  26.207  1.00  0.00     0.014 A 
ATOM     36  C   UNL A   1      39.278  25.581  28.801  1.00  0.00     0.010 A 
ATOM     37  C   UNL A   1      40.634  26.430  26.971  1.00  0.00     0.010 A 
ATOM     38  C   UNL A   1      40.135  26.563  28.276  1.00  0.00    -0.014 A 
BRANCH  38  39
ATOM     39  C   UNL A   1      40.518  27.740  29.088  1.00  0.00     0.031 A 
ATOM     40  C   UNL A   1      41.842  27.758  29.790  1.00  0.00     0.074 A 
ATOM     41  C   UNL A   1      39.656  28.765  29.222  1.00  0.00     0.049 A 
ATOM     42  N   UNL A   1      42.350  28.681  30.564  1.00  0.00    -0.248 NA
ATOM     43  C   UNL A   1      42.703  26.578  29.610  1.00  0.00     0.031 C 
ATOM     44  C   UNL A   1      38.327  28.838  28.610  1.00  0.00     0.029 A 
ATOM     45  N   UNL A   1      39.767  29.941  29.917  1.00  0.00    -0.354 N 
ATOM     46  C   UNL A   1      43.589  28.197  30.961  1.00  0.00     0.074 A 
ATOM     47  C   UNL A   1      43.736  26.878  30.383  1.00  0.00     0.031 C 
ATOM     48  C   UNL A   1      37.756  30.009  28.941  1.00  0.00     0.029 A 
ATOM     49  C   UNL A   1      38.668  30.758  29.800  1.00  0.00     0.049 A 
ATOM     50  H   UNL A   1      40.561  30.179  30.449  1.00  0.00     0.167 HD
ATOM     51  C   UNL A   1      44.532  28.808  31.717  1.00  0.00     0.037 A 
ATOM     52  C   UNL A   1      38.429  31.975  30.324  1.00  0.00     0.037 A 
ATOM     53  C   UNL A   1      44.385  30.123  32.279  1.00  0.00     0.049 A 
ATOM     54  C   UNL A   1      39.483  32.629  31.174  1.00  0.00     0.074 A 
ATOM     55  C   UNL A   1      45.292  30.842  33.037  1.00  0.00     0.029 A 
ATOM     56  N   UNL A   1      43.257  30.918  32.141  1.00  0.00    -0.354 N 
ATOM     57  N   UNL A   1      40.667  32.173  31.509  1.00  0.00    -0.248 NA
ATOM     58  C   UNL A   1      39.172  33.959  31.716  1.00  0.00     0.031 C 
ATOM     59  C   UNL A   1      44.703  32.066  33.375  1.00  0.00     0.029 A 
ATOM     60  C   UNL A   1      43.440  32.118  32.806  1.00  0.00     0.049 A 
ATOM     61  H   UNL A   1      42.446  30.666  31.642  1.00  0.00     0.167 HD
ATOM     62  C   UNL A   1      41.251  33.169  32.283  1.00  0.00     0.074 A 
ATOM     63  C   UNL A   1      40.292  34.252  32.364  1.00  0.00     0.031 C 
ATOM     64  C   UNL A   1      42.473  33.185  32.869  1.00  0.00     0.037 A 
BRANCH  51  65
ATOM     65  C   UNL A   1      45.805  28.054  31.958  1.00  0.00     0.058 A 
ATOM     66  C   UNL A   1      45.949  27.214  33.074  1.00  0.00     0.135 A 
ATOM     67  C   UNL A   1      46.889  28.170  31.077  1.00  0.00     0.135 A 
ATOM     68  F   UNL A   1      44.946  27.087  33.958  1.00  0.00    -0.206 F 
ATOM     69  C   UNL A   1      47.137  26.538  33.325  1.00  0.00     0.059 A 
ATOM     70  C   UNL A   1      48.082  27.486  31.297  1.00  0.00     0.059 A 
ATOM     71  F   UNL A   1      46.803  28.965  29.999  1.00  0.00    -0.206 F 
ATOM     72  C   UNL A   1      48.201  26.686  32.434  1.00  0.00     0.060 A 
BRANCH  72  73
ATOM     73  S   UNL A   1      49.745  25.818  32.781  1.00  0.00     0.124 S 
ATOM     74  O   UNL A   1      49.255  24.612  33.442  1.00  0.00    -0.237 OA
ATOM     75  O   UNL A   1      50.307  25.627  31.449  1.00  0.00    -0.237 OA
ATOM     76  O   UNL A   1      50.472  26.750  33.636  1.00  0.00    -0.744 OA
ENDBRANCH  72  73
ENDBRANCH  51  65
BRANCH  52  77
ATOM     77  C   UNL A   1      37.155  32.672  30.017  1.00  0.00     0.058 A 
ATOM     78  C   UNL A   1      36.001  32.415  30.772  1.00  0.00     0.135 A 
ATOM     79  C   UNL A   1      37.072  33.630  28.996  1.00  0.00     0.135 A 
ATOM     80  F   UNL A   1      36.035  31.503  31.756  1.00  0.00    -0.206 F 
ATOM     81  C   UNL A   1      34.807  33.082  30.525  1.00  0.00     0.059 A 
ATOM     82  C   UNL A   1      35.892  34.321  28.739  1.00  0.00     0.059 A 
ATOM     83  F   UNL A   1      38.154  33.919  28.256  1.00  0.00    -0.206 F 
ATOM     84  C   UNL A   1      34.763  34.037  29.508  1.00  0.00     0.060 A 
BRANCH  84  85
ATOM     85  S   UNL A   1      33.226  34.948  29.242  1.00  0.00     0.124 S 
ATOM     86  O   UNL A   1      32.652  34.952  30.582  1.00  0.00    -0.237 OA
ATOM     87  O   UNL A   1      33.712  36.234  28.751  1.00  0.00    -0.237 OA
ATOM     88  O   UNL A   1      32.523  34.135  28.254  1.00  0.00    -0.744 OA
ENDBRANCH  84  85
ENDBRANCH  52  77
BRANCH  64  89
ATOM     89  C   UNL A   1      42.853  34.415  33.638  1.00  0.00     0.058 A 
ATOM     90  C   UNL A   1      42.684  34.487  35.028  1.00  0.00     0.135 A 
ATOM     91  C   UNL A   1      43.470  35.496  32.989  1.00  0.00     0.135 A 
ATOM     92  F   UNL A   1      42.093  33.480  35.690  1.00  0.00    -0.206 F 
ATOM     93  C   UNL A   1      43.114  35.594  35.752  1.00  0.00     0.059 A 
ATOM     94  C   UNL A   1      43.922  36.606  33.696  1.00  0.00     0.059 A 
ATOM     95  F   UNL A   1      43.659  35.469  31.660  1.00  0.00    -0.206 F 
ATOM     96  C   UNL A   1      43.735  36.646  35.077  1.00  0.00     0.060 A 
BRANCH  96  97
ATOM     97  S   UNL A   1      44.346  38.051  36.036  1.00  0.00     0.124 S 
ATOM     98  O   UNL A   1      45.761  37.721  36.169  1.00  0.00    -0.237 OA
ATOM     99  O   UNL A   1      44.036  39.182  35.168  1.00  0.00    -0.237 OA
ATOM    100  O   UNL A   1      43.565  37.983  37.268  1.00  0.00    -0.744 OA
ENDBRANCH  96  97
ENDBRANCH  64  89
ENDBRANCH  38  39
ENDBRANCH  30  33
ENDBRANCH  28  29
ENDBRANCH   1  28
TORSDOF 17
ENDMDL
