MODEL 1
REMARK VINA RESULT:     -11.9      0.000      0.000
REMARK SMILES COc1ccc(/C=C2\SC(=S)[NH+]=C2NCCCCNC(=O)c2ccc(-c3c4nc(c(-c5c(F)cc(S(=O)(=O)[O-])cc5F)c5ccc([nH]5)c(-c5c(F)cc(S(=O)(=O)[O-])cc5F)c5nc(c(-c6c(F)cc(S(=O)(=O)[O-])cc6F)c6ccc3[nH]6)C=C5)C=C4)cc2)c(C(=O)[O-])c1OC
REMARK SMILES IDX 17 1 16 2 15 3 14 4 7 5 8 6 9 7 13 8 10 9 12 10 11 11 6 14
REMARK SMILES IDX 3 15 4 16 92 17 5 18 88 19 2 20 1 21 93 22 94 23 89 24 90 25
REMARK SMILES IDX 91 26 18 27 19 28 20 29 21 31 22 32 23 33 87 34 24 35 86 36
REMARK SMILES IDX 25 37 26 38 27 39 80 40 28 41 85 42 79 43 81 44 29 45 84 46
REMARK SMILES IDX 78 47 77 48 30 50 64 51 43 52 63 53 44 54 47 55 62 56 82 57
REMARK SMILES IDX 45 58 46 59 61 61 83 62 48 63 31 64 32 65 41 66 33 67 34 68
REMARK SMILES IDX 40 69 42 70 35 71 36 72 37 73 38 74 39 75 65 76 66 77 75 78
REMARK SMILES IDX 67 79 68 80 74 81 76 82 69 83 70 84 71 85 72 86 73 87 49 88
REMARK SMILES IDX 50 89 59 90 51 91 52 92 58 93 60 94 53 95 54 96 55 97 56 98
REMARK SMILES IDX 57 99
REMARK H PARENT 12 12 14 13 19 30 81 49 47 60
REMARK Flexibility Score: inf
ROOT
ATOM      1  C   UNL A   1      34.577  30.191  27.573  1.00  0.00     0.025 C 
ENDROOT
BRANCH   1   2
ATOM      2  C   UNL A   1      33.207  30.833  27.352  1.00  0.00     0.048 C 
BRANCH   2   3
ATOM      3  C   UNL A   1      32.062  29.843  27.137  1.00  0.00     0.234 C 
BRANCH   3   4
ATOM      4  N   UNL A   1      32.568  28.505  26.850  1.00  0.00    -0.273 N 
ATOM      5  C   UNL A   1      33.602  25.662  26.054  1.00  0.00     0.033 C 
ATOM      6  C   UNL A   1      32.701  26.397  25.365  1.00  0.00     0.106 C 
ATOM      7  S   UNL A   1      31.880  25.979  23.899  1.00  0.00    -0.027 SA
ATOM      8  C   UNL A   1      32.241  27.810  25.707  1.00  0.00     0.288 C 
ATOM      9  C   UNL A   1      31.217  27.593  23.734  1.00  0.00     0.230 C 
ATOM     10  N   UNL A   1      31.463  28.386  24.821  1.00  0.00    -0.225 N 
ATOM     11  S   UNL A   1      30.400  28.070  22.354  1.00  0.00    -0.026 S 
ATOM     12  H   UNL A   1      31.095  29.292  24.927  1.00  0.00     0.314 HD
ATOM     13  H   UNL A   1      33.168  28.081  27.504  1.00  0.00     0.305 HD
BRANCH   5  14
ATOM     14  C   UNL A   1      34.167  24.279  25.818  1.00  0.00    -0.011 A 
ATOM     15  C   UNL A   1      35.315  21.717  25.244  1.00  0.00     0.161 A 
ATOM     16  C   UNL A   1      36.037  22.886  25.043  1.00  0.00     0.051 A 
ATOM     17  C   UNL A   1      34.030  21.783  25.793  1.00  0.00     0.170 A 
ATOM     18  C   UNL A   1      35.464  24.130  25.301  1.00  0.00     0.013 A 
ATOM     19  C   UNL A   1      33.444  23.066  26.043  1.00  0.00     0.050 A 
BRANCH  15  20
ATOM     20  O   UNL A   1      35.958  20.533  24.994  1.00  0.00    -0.493 OA
ATOM     21  C   UNL A   1      37.374  20.709  24.872  1.00  0.00     0.278 C 
ENDBRANCH  15  20
BRANCH  17  22
ATOM     22  O   UNL A   1      33.326  20.683  26.228  1.00  0.00    -0.492 OA
ATOM     23  C   UNL A   1      32.761  19.817  25.252  1.00  0.00     0.278 C 
ENDBRANCH  17  22
BRANCH  19  24
ATOM     24  C   UNL A   1      32.050  23.107  26.572  1.00  0.00     0.076 C 
ATOM     25  O   UNL A   1      31.719  23.342  27.717  1.00  0.00    -0.545 OA
ATOM     26  O   UNL A   1      31.128  22.935  25.603  1.00  0.00    -0.545 OA
ENDBRANCH  19  24
ENDBRANCH   5  14
ENDBRANCH   3   4
ENDBRANCH   2   3
ENDBRANCH   1   2
BRANCH   1  27
ATOM     27  C   UNL A   1      35.574  31.031  28.367  1.00  0.00     0.116 C 
BRANCH  27  28
ATOM     28  N   UNL A   1      35.539  30.763  29.795  1.00  0.00    -0.352 N 
ATOM     29  C   UNL A   1      36.532  30.292  30.623  1.00  0.00     0.251 C 
ATOM     30  H   UNL A   1      34.677  30.946  30.236  1.00  0.00     0.163 HD
ATOM     31  O   UNL A   1      36.262  30.007  31.787  1.00  0.00    -0.269 OA
BRANCH  29  32
ATOM     32  C   UNL A   1      37.908  30.090  30.112  1.00  0.00     0.039 A 
ATOM     33  C   UNL A   1      38.961  30.046  31.029  1.00  0.00     0.014 A 
ATOM     34  C   UNL A   1      38.172  29.944  28.746  1.00  0.00     0.014 A 
ATOM     35  C   UNL A   1      40.259  29.782  30.586  1.00  0.00     0.010 A 
ATOM     36  C   UNL A   1      39.454  29.600  28.316  1.00  0.00     0.010 A 
ATOM     37  C   UNL A   1      40.512  29.510  29.231  1.00  0.00    -0.014 A 
BRANCH  37  38
ATOM     38  C   UNL A   1      41.868  29.088  28.784  1.00  0.00     0.031 A 
ATOM     39  C   UNL A   1      43.011  30.067  28.736  1.00  0.00     0.074 A 
ATOM     40  C   UNL A   1      42.060  27.814  28.384  1.00  0.00     0.049 A 
ATOM     41  N   UNL A   1      44.258  29.860  28.394  1.00  0.00    -0.248 NA
ATOM     42  C   UNL A   1      42.714  31.461  29.099  1.00  0.00     0.031 C 
ATOM     43  C   UNL A   1      41.019  26.785  28.321  1.00  0.00     0.029 A 
ATOM     44  N   UNL A   1      43.191  27.164  27.958  1.00  0.00    -0.354 N 
ATOM     45  C   UNL A   1      44.892  31.094  28.498  1.00  0.00     0.074 A 
ATOM     46  C   UNL A   1      43.878  32.054  28.877  1.00  0.00     0.031 C 
ATOM     47  C   UNL A   1      41.568  25.626  27.924  1.00  0.00     0.029 A 
ATOM     48  C   UNL A   1      42.988  25.835  27.663  1.00  0.00     0.049 A 
ATOM     49  H   UNL A   1      44.066  27.607  27.871  1.00  0.00     0.167 HD
ATOM     50  C   UNL A   1      46.203  31.393  28.320  1.00  0.00     0.037 A 
ATOM     51  C   UNL A   1      43.845  24.889  27.231  1.00  0.00     0.037 A 
ATOM     52  C   UNL A   1      47.209  30.429  27.947  1.00  0.00     0.049 A 
ATOM     53  C   UNL A   1      45.292  25.248  27.033  1.00  0.00     0.074 A 
ATOM     54  C   UNL A   1      48.572  30.623  27.797  1.00  0.00     0.029 A 
ATOM     55  N   UNL A   1      46.963  29.095  27.654  1.00  0.00    -0.354 N 
ATOM     56  N   UNL A   1      45.888  26.402  27.216  1.00  0.00    -0.248 NA
ATOM     57  C   UNL A   1      46.184  24.174  26.577  1.00  0.00     0.031 C 
ATOM     58  C   UNL A   1      49.140  29.423  27.356  1.00  0.00     0.029 A 
ATOM     59  C   UNL A   1      48.143  28.462  27.293  1.00  0.00     0.049 A 
ATOM     60  H   UNL A   1      46.081  28.661  27.697  1.00  0.00     0.167 HD
ATOM     61  C   UNL A   1      47.229  26.187  26.918  1.00  0.00     0.074 A 
ATOM     62  C   UNL A   1      47.358  24.788  26.567  1.00  0.00     0.031 C 
ATOM     63  C   UNL A   1      48.260  27.070  26.932  1.00  0.00     0.037 A 
BRANCH  50  64
ATOM     64  C   UNL A   1      46.627  32.825  28.521  1.00  0.00     0.058 A 
ATOM     65  C   UNL A   1      46.631  33.752  27.465  1.00  0.00     0.135 A 
ATOM     66  C   UNL A   1      46.997  33.289  29.795  1.00  0.00     0.135 A 
ATOM     67  F   UNL A   1      46.299  33.364  26.224  1.00  0.00    -0.206 F 
ATOM     68  C   UNL A   1      47.018  35.075  27.656  1.00  0.00     0.059 A 
ATOM     69  C   UNL A   1      47.355  34.617  30.016  1.00  0.00     0.059 A 
ATOM     70  F   UNL A   1      47.009  32.451  30.842  1.00  0.00    -0.206 F 
ATOM     71  C   UNL A   1      47.377  35.498  28.937  1.00  0.00     0.060 A 
BRANCH  71  72
ATOM     72  S   UNL A   1      47.874  37.218  29.166  1.00  0.00     0.124 S 
ATOM     73  O   UNL A   1      49.266  37.066  29.583  1.00  0.00    -0.237 OA
ATOM     74  O   UNL A   1      47.670  37.781  27.835  1.00  0.00    -0.237 OA
ATOM     75  O   UNL A   1      46.961  37.703  30.196  1.00  0.00    -0.744 OA
ENDBRANCH  71  72
ENDBRANCH  50  64
BRANCH  51  76
ATOM     76  C   UNL A   1      43.356  23.506  26.980  1.00  0.00     0.058 A 
ATOM     77  C   UNL A   1      43.147  23.037  25.674  1.00  0.00     0.135 A 
ATOM     78  C   UNL A   1      43.109  22.619  28.039  1.00  0.00     0.135 A 
ATOM     79  F   UNL A   1      43.362  23.849  24.628  1.00  0.00    -0.206 F 
ATOM     80  C   UNL A   1      42.697  21.744  25.427  1.00  0.00     0.059 A 
ATOM     81  C   UNL A   1      42.686  21.312  27.816  1.00  0.00     0.059 A 
ATOM     82  F   UNL A   1      43.309  23.011  29.307  1.00  0.00    -0.206 F 
ATOM     83  C   UNL A   1      42.474  20.887  26.506  1.00  0.00     0.060 A 
BRANCH  83  84
ATOM     84  S   UNL A   1      41.945  19.193  26.172  1.00  0.00     0.124 S 
ATOM     85  O   UNL A   1      42.746  18.860  24.999  1.00  0.00    -0.237 OA
ATOM     86  O   UNL A   1      42.308  18.510  27.409  1.00  0.00    -0.237 OA
ATOM     87  O   UNL A   1      40.510  19.330  25.938  1.00  0.00    -0.744 OA
ENDBRANCH  83  84
ENDBRANCH  51  76
BRANCH  63  88
ATOM     88  C   UNL A   1      49.625  26.541  26.573  1.00  0.00     0.058 A 
ATOM     89  C   UNL A   1      50.062  26.466  25.242  1.00  0.00     0.135 A 
ATOM     90  C   UNL A   1      50.513  26.119  27.576  1.00  0.00     0.135 A 
ATOM     91  F   UNL A   1      49.254  26.851  24.241  1.00  0.00    -0.206 F 
ATOM     92  C   UNL A   1      51.315  25.955  24.914  1.00  0.00     0.059 A 
ATOM     93  C   UNL A   1      51.782  25.637  27.275  1.00  0.00     0.059 A 
ATOM     94  F   UNL A   1      50.152  26.180  28.869  1.00  0.00    -0.206 F 
ATOM     95  C   UNL A   1      52.167  25.540  25.939  1.00  0.00     0.060 A 
BRANCH  95  96
ATOM     96  S   UNL A   1      53.790  24.882  25.501  1.00  0.00     0.124 S 
ATOM     97  O   UNL A   1      54.194  25.784  24.428  1.00  0.00    -0.237 OA
ATOM     98  O   UNL A   1      54.528  25.014  26.753  1.00  0.00    -0.237 OA
ATOM     99  O   UNL A   1      53.502  23.510  25.092  1.00  0.00    -0.744 OA
ENDBRANCH  95  96
ENDBRANCH  63  88
ENDBRANCH  37  38
ENDBRANCH  29  32
ENDBRANCH  27  28
ENDBRANCH   1  27
TORSDOF 17
ENDMDL
MODEL 2
REMARK VINA RESULT:     -11.8      6.470     12.015
REMARK SMILES COc1ccc(/C=C2\SC(=S)[NH+]=C2NCCCCNC(=O)c2ccc(-c3c4nc(c(-c5c(F)cc(S(=O)(=O)[O-])cc5F)c5ccc([nH]5)c(-c5c(F)cc(S(=O)(=O)[O-])cc5F)c5nc(c(-c6c(F)cc(S(=O)(=O)[O-])cc6F)c6ccc3[nH]6)C=C5)C=C4)cc2)c(C(=O)[O-])c1OC
REMARK SMILES IDX 17 1 16 2 15 3 14 4 7 5 8 6 9 7 13 8 10 9 12 10 11 11 6 14
REMARK SMILES IDX 3 15 4 16 92 17 5 18 88 19 2 20 1 21 93 22 94 23 89 24 90 25
REMARK SMILES IDX 91 26 18 27 19 28 20 29 21 31 22 32 23 33 87 34 24 35 86 36
REMARK SMILES IDX 25 37 26 38 27 39 80 40 28 41 85 42 79 43 81 44 29 45 84 46
REMARK SMILES IDX 78 47 77 48 30 50 64 51 43 52 63 53 44 54 47 55 62 56 82 57
REMARK SMILES IDX 45 58 46 59 61 61 83 62 48 63 31 64 32 65 41 66 33 67 34 68
REMARK SMILES IDX 40 69 42 70 35 71 36 72 37 73 38 74 39 75 65 76 66 77 75 78
REMARK SMILES IDX 67 79 68 80 74 81 76 82 69 83 70 84 71 85 72 86 73 87 49 88
REMARK SMILES IDX 50 89 59 90 51 91 52 92 58 93 60 94 53 95 54 96 55 97 56 98
REMARK SMILES IDX 57 99
REMARK H PARENT 12 12 14 13 19 30 81 49 47 60
REMARK Flexibility Score: inf
ROOT
ATOM      1  C   UNL A   1      38.713  23.068  26.319  1.00  0.00     0.025 C 
ENDROOT
BRANCH   1   2
ATOM      2  C   UNL A   1      38.486  21.693  25.687  1.00  0.00     0.048 C 
BRANCH   2   3
ATOM      3  C   UNL A   1      37.473  21.674  24.543  1.00  0.00     0.234 C 
BRANCH   3   4
ATOM      4  N   UNL A   1      36.572  22.819  24.615  1.00  0.00    -0.273 N 
ATOM      5  C   UNL A   1      34.504  25.157  24.830  1.00  0.00     0.033 C 
ATOM      6  C   UNL A   1      34.204  23.844  24.721  1.00  0.00     0.106 C 
ATOM      7  S   UNL A   1      32.638  23.108  24.659  1.00  0.00    -0.027 SA
ATOM      8  C   UNL A   1      35.203  22.692  24.684  1.00  0.00     0.288 C 
ATOM      9  C   UNL A   1      33.317  21.498  24.785  1.00  0.00     0.230 C 
ATOM     10  N   UNL A   1      34.684  21.487  24.715  1.00  0.00    -0.225 N 
ATOM     11  S   UNL A   1      32.349  20.150  24.999  1.00  0.00    -0.026 S 
ATOM     12  H   UNL A   1      35.220  20.662  24.691  1.00  0.00     0.314 HD
ATOM     13  H   UNL A   1      36.961  23.723  24.613  1.00  0.00     0.305 HD
BRANCH   5  14
ATOM     14  C   UNL A   1      33.629  26.388  24.907  1.00  0.00    -0.011 A 
ATOM     15  C   UNL A   1      31.923  28.672  25.199  1.00  0.00     0.161 A 
ATOM     16  C   UNL A   1      32.606  28.146  26.287  1.00  0.00     0.051 A 
ATOM     17  C   UNL A   1      32.117  28.121  23.928  1.00  0.00     0.170 A 
ATOM     18  C   UNL A   1      33.415  27.019  26.143  1.00  0.00     0.013 A 
ATOM     19  C   UNL A   1      32.939  26.956  23.791  1.00  0.00     0.050 A 
BRANCH  15  20
ATOM     20  O   UNL A   1      31.171  29.797  25.416  1.00  0.00    -0.493 OA
ATOM     21  C   UNL A   1      31.839  30.729  26.273  1.00  0.00     0.278 C 
ENDBRANCH  15  20
BRANCH  17  22
ATOM     22  O   UNL A   1      31.661  28.700  22.764  1.00  0.00    -0.492 OA
ATOM     23  C   UNL A   1      30.270  28.624  22.476  1.00  0.00     0.278 C 
ENDBRANCH  17  22
BRANCH  19  24
ATOM     24  C   UNL A   1      33.079  26.353  22.433  1.00  0.00     0.076 C 
ATOM     25  O   UNL A   1      34.013  26.500  21.671  1.00  0.00    -0.545 OA
ATOM     26  O   UNL A   1      32.064  25.517  22.136  1.00  0.00    -0.545 OA
ENDBRANCH  19  24
ENDBRANCH   5  14
ENDBRANCH   3   4
ENDBRANCH   2   3
ENDBRANCH   1   2
BRANCH   1  27
ATOM     27  C   UNL A   1      40.047  23.245  27.038  1.00  0.00     0.116 C 
BRANCH  27  28
ATOM     28  N   UNL A   1      41.105  23.739  26.172  1.00  0.00    -0.352 N 
ATOM     29  C   UNL A   1      41.720  24.969  26.154  1.00  0.00     0.251 C 
ATOM     30  H   UNL A   1      41.427  23.098  25.498  1.00  0.00     0.163 HD
ATOM     31  O   UNL A   1      42.508  25.236  25.250  1.00  0.00    -0.269 OA
BRANCH  29  32
ATOM     32  C   UNL A   1      41.412  25.982  27.191  1.00  0.00     0.039 A 
ATOM     33  C   UNL A   1      40.394  25.710  28.109  1.00  0.00     0.014 A 
ATOM     34  C   UNL A   1      42.109  27.192  27.268  1.00  0.00     0.014 A 
ATOM     35  C   UNL A   1      40.131  26.612  29.143  1.00  0.00     0.010 A 
ATOM     36  C   UNL A   1      41.901  28.051  28.347  1.00  0.00     0.010 A 
ATOM     37  C   UNL A   1      40.912  27.769  29.301  1.00  0.00    -0.014 A 
BRANCH  37  38
ATOM     38  C   UNL A   1      40.725  28.653  30.483  1.00  0.00     0.031 A 
ATOM     39  C   UNL A   1      41.567  28.488  31.720  1.00  0.00     0.074 A 
ATOM     40  C   UNL A   1      39.759  29.596  30.451  1.00  0.00     0.049 A 
ATOM     41  N   UNL A   1      41.549  29.187  32.827  1.00  0.00    -0.248 NA
ATOM     42  C   UNL A   1      42.539  27.385  31.725  1.00  0.00     0.031 C 
ATOM     43  C   UNL A   1      38.833  29.815  29.337  1.00  0.00     0.029 A 
ATOM     44  N   UNL A   1      39.396  30.545  31.373  1.00  0.00    -0.354 N 
ATOM     45  C   UNL A   1      42.503  28.609  33.659  1.00  0.00     0.074 A 
ATOM     46  C   UNL A   1      43.037  27.466  32.951  1.00  0.00     0.031 C 
ATOM     47  C   UNL A   1      38.039  30.858  29.623  1.00  0.00     0.029 A 
ATOM     48  C   UNL A   1      38.367  31.357  30.954  1.00  0.00     0.049 A 
ATOM     49  H   UNL A   1      39.831  30.637  32.252  1.00  0.00     0.167 HD
ATOM     50  C   UNL A   1      42.913  29.010  34.888  1.00  0.00     0.037 A 
ATOM     51  C   UNL A   1      37.754  32.387  31.569  1.00  0.00     0.037 A 
ATOM     52  C   UNL A   1      42.380  30.154  35.585  1.00  0.00     0.049 A 
ATOM     53  C   UNL A   1      38.222  32.808  32.935  1.00  0.00     0.074 A 
ATOM     54  C   UNL A   1      42.769  30.674  36.808  1.00  0.00     0.029 A 
ATOM     55  N   UNL A   1      41.337  30.949  35.130  1.00  0.00    -0.354 N 
ATOM     56  N   UNL A   1      39.181  32.299  33.671  1.00  0.00    -0.248 NA
ATOM     57  C   UNL A   1      37.529  33.947  33.551  1.00  0.00     0.031 C 
ATOM     58  C   UNL A   1      41.923  31.744  37.120  1.00  0.00     0.029 A 
ATOM     59  C   UNL A   1      41.048  31.934  36.063  1.00  0.00     0.049 A 
ATOM     60  H   UNL A   1      40.871  30.831  34.271  1.00  0.00     0.167 HD
ATOM     61  C   UNL A   1      39.221  33.070  34.827  1.00  0.00     0.074 A 
ATOM     62  C   UNL A   1      38.206  34.092  34.681  1.00  0.00     0.031 C 
ATOM     63  C   UNL A   1      40.025  32.941  35.914  1.00  0.00     0.037 A 
BRANCH  50  64
ATOM     64  C   UNL A   1      43.992  28.203  35.563  1.00  0.00     0.058 A 
ATOM     65  C   UNL A   1      45.356  28.472  35.358  1.00  0.00     0.135 A 
ATOM     66  C   UNL A   1      43.661  27.171  36.457  1.00  0.00     0.135 A 
ATOM     67  F   UNL A   1      45.735  29.439  34.506  1.00  0.00    -0.206 F 
ATOM     68  C   UNL A   1      46.350  27.728  35.988  1.00  0.00     0.059 A 
ATOM     69  C   UNL A   1      44.638  26.435  37.123  1.00  0.00     0.059 A 
ATOM     70  F   UNL A   1      42.375  26.869  36.693  1.00  0.00    -0.206 F 
ATOM     71  C   UNL A   1      45.980  26.712  36.870  1.00  0.00     0.060 A 
BRANCH  71  72
ATOM     72  S   UNL A   1      47.282  25.759  37.678  1.00  0.00     0.124 S 
ATOM     73  O   UNL A   1      47.611  24.780  36.645  1.00  0.00    -0.237 OA
ATOM     74  O   UNL A   1      48.298  26.775  37.934  1.00  0.00    -0.237 OA
ATOM     75  O   UNL A   1      46.625  25.220  38.865  1.00  0.00    -0.744 OA
ENDBRANCH  71  72
ENDBRANCH  50  64
BRANCH  51  76
ATOM     76  C   UNL A   1      36.645  33.106  30.884  1.00  0.00     0.058 A 
ATOM     77  C   UNL A   1      36.899  33.985  29.820  1.00  0.00     0.135 A 
ATOM     78  C   UNL A   1      35.308  32.912  31.265  1.00  0.00     0.135 A 
ATOM     79  F   UNL A   1      38.161  34.210  29.423  1.00  0.00    -0.206 F 
ATOM     80  C   UNL A   1      35.870  34.657  29.168  1.00  0.00     0.059 A 
ATOM     81  C   UNL A   1      34.260  33.550  30.609  1.00  0.00     0.059 A 
ATOM     82  F   UNL A   1      35.008  32.070  32.266  1.00  0.00    -0.206 F 
ATOM     83  C   UNL A   1      34.552  34.428  29.567  1.00  0.00     0.060 A 
BRANCH  83  84
ATOM     84  S   UNL A   1      33.220  35.261  28.676  1.00  0.00     0.124 S 
ATOM     85  O   UNL A   1      33.960  36.239  27.887  1.00  0.00    -0.237 OA
ATOM     86  O   UNL A   1      32.618  34.162  27.930  1.00  0.00    -0.237 OA
ATOM     87  O   UNL A   1      32.393  35.810  29.747  1.00  0.00    -0.744 OA
ENDBRANCH  83  84
ENDBRANCH  51  76
BRANCH  63  88
ATOM     88  C   UNL A   1      39.849  33.945  37.024  1.00  0.00     0.058 A 
ATOM     89  C   UNL A   1      40.504  35.186  37.009  1.00  0.00     0.135 A 
ATOM     90  C   UNL A   1      39.000  33.668  38.108  1.00  0.00     0.135 A 
ATOM     91  F   UNL A   1      41.331  35.503  36.000  1.00  0.00    -0.206 F 
ATOM     92  C   UNL A   1      40.356  36.100  38.048  1.00  0.00     0.059 A 
ATOM     93  C   UNL A   1      38.809  34.581  39.140  1.00  0.00     0.059 A 
ATOM     94  F   UNL A   1      38.338  32.501  38.169  1.00  0.00    -0.206 F 
ATOM     95  C   UNL A   1      39.507  35.787  39.111  1.00  0.00     0.060 A 
BRANCH  95  96
ATOM     96  S   UNL A   1      39.321  36.983  40.451  1.00  0.00     0.124 S 
ATOM     97  O   UNL A   1      38.549  36.218  41.423  1.00  0.00    -0.237 OA
ATOM     98  O   UNL A   1      40.708  37.257  40.816  1.00  0.00    -0.237 OA
ATOM     99  O   UNL A   1      38.614  38.093  39.820  1.00  0.00    -0.744 OA
ENDBRANCH  95  96
ENDBRANCH  63  88
ENDBRANCH  37  38
ENDBRANCH  29  32
ENDBRANCH  27  28
ENDBRANCH   1  27
TORSDOF 17
ENDMDL
MODEL 3
REMARK VINA RESULT:     -11.7      6.492     12.048
REMARK SMILES COc1ccc(/C=C2\SC(=S)[NH+]=C2NCCCCNC(=O)c2ccc(-c3c4nc(c(-c5c(F)cc(S(=O)(=O)[O-])cc5F)c5ccc([nH]5)c(-c5c(F)cc(S(=O)(=O)[O-])cc5F)c5nc(c(-c6c(F)cc(S(=O)(=O)[O-])cc6F)c6ccc3[nH]6)C=C5)C=C4)cc2)c(C(=O)[O-])c1OC
REMARK SMILES IDX 17 1 16 2 15 3 14 4 7 5 8 6 9 7 13 8 10 9 12 10 11 11 6 14
REMARK SMILES IDX 3 15 4 16 92 17 5 18 88 19 2 20 1 21 93 22 94 23 89 24 90 25
REMARK SMILES IDX 91 26 18 27 19 28 20 29 21 31 22 32 23 33 87 34 24 35 86 36
REMARK SMILES IDX 25 37 26 38 27 39 80 40 28 41 85 42 79 43 81 44 29 45 84 46
REMARK SMILES IDX 78 47 77 48 30 50 64 51 43 52 63 53 44 54 47 55 62 56 82 57
REMARK SMILES IDX 45 58 46 59 61 61 83 62 48 63 31 64 32 65 41 66 33 67 34 68
REMARK SMILES IDX 40 69 42 70 35 71 36 72 37 73 38 74 39 75 65 76 66 77 75 78
REMARK SMILES IDX 67 79 68 80 74 81 76 82 69 83 70 84 71 85 72 86 73 87 49 88
REMARK SMILES IDX 50 89 59 90 51 91 52 92 58 93 60 94 53 95 54 96 55 97 56 98
REMARK SMILES IDX 57 99
REMARK H PARENT 12 12 14 13 19 30 81 49 47 60
REMARK Flexibility Score: inf
ROOT
ATOM      1  C   UNL A   1      39.984  22.070  26.566  1.00  0.00     0.025 C 
ENDROOT
BRANCH   1   2
ATOM      2  C   UNL A   1      38.539  22.564  26.491  1.00  0.00     0.048 C 
BRANCH   2   3
ATOM      3  C   UNL A   1      37.662  21.828  25.478  1.00  0.00     0.234 C 
BRANCH   3   4
ATOM      4  N   UNL A   1      36.580  22.681  24.998  1.00  0.00    -0.273 N 
ATOM      5  C   UNL A   1      34.137  24.374  24.018  1.00  0.00     0.033 C 
ATOM      6  C   UNL A   1      34.155  23.032  24.184  1.00  0.00     0.106 C 
ATOM      7  S   UNL A   1      32.872  21.904  23.897  1.00  0.00    -0.027 SA
ATOM      8  C   UNL A   1      35.317  22.206  24.725  1.00  0.00     0.288 C 
ATOM      9  C   UNL A   1      33.776  20.591  24.624  1.00  0.00     0.230 C 
ATOM     10  N   UNL A   1      35.064  20.935  24.932  1.00  0.00    -0.225 N 
ATOM     11  S   UNL A   1      33.077  19.100  24.916  1.00  0.00    -0.026 S 
ATOM     12  H   UNL A   1      35.730  20.296  25.273  1.00  0.00     0.314 HD
ATOM     13  H   UNL A   1      36.762  23.639  24.862  1.00  0.00     0.305 HD
BRANCH   5  14
ATOM     14  C   UNL A   1      33.062  25.315  23.527  1.00  0.00    -0.011 A 
ATOM     15  C   UNL A   1      31.134  27.178  22.510  1.00  0.00     0.161 A 
ATOM     16  C   UNL A   1      32.179  26.723  21.715  1.00  0.00     0.051 A 
ATOM     17  C   UNL A   1      30.981  26.673  23.806  1.00  0.00     0.170 A 
ATOM     18  C   UNL A   1      33.127  25.837  22.224  1.00  0.00     0.013 A 
ATOM     19  C   UNL A   1      31.967  25.773  24.325  1.00  0.00     0.050 A 
BRANCH  15  20
ATOM     20  O   UNL A   1      30.228  28.024  21.928  1.00  0.00    -0.493 OA
ATOM     21  C   UNL A   1      30.625  29.395  22.048  1.00  0.00     0.278 C 
ENDBRANCH  15  20
BRANCH  17  22
ATOM     22  O   UNL A   1      29.868  26.893  24.587  1.00  0.00    -0.492 OA
ATOM     23  C   UNL A   1      28.632  26.327  24.170  1.00  0.00     0.278 C 
ENDBRANCH  17  22
BRANCH  19  24
ATOM     24  C   UNL A   1      31.811  25.299  25.731  1.00  0.00     0.076 C 
ATOM     25  O   UNL A   1      32.179  25.878  26.733  1.00  0.00    -0.545 OA
ATOM     26  O   UNL A   1      31.114  24.147  25.810  1.00  0.00    -0.545 OA
ENDBRANCH  19  24
ENDBRANCH   5  14
ENDBRANCH   3   4
ENDBRANCH   2   3
ENDBRANCH   1   2
BRANCH   1  27
ATOM     27  C   UNL A   1      41.007  23.105  27.026  1.00  0.00     0.116 C 
BRANCH  27  28
ATOM     28  N   UNL A   1      41.409  24.021  25.971  1.00  0.00    -0.352 N 
ATOM     29  C   UNL A   1      41.556  25.388  26.007  1.00  0.00     0.251 C 
ATOM     30  H   UNL A   1      41.605  23.600  25.103  1.00  0.00     0.163 HD
ATOM     31  O   UNL A   1      41.779  25.998  24.965  1.00  0.00    -0.269 OA
BRANCH  29  32
ATOM     32  C   UNL A   1      41.408  26.130  27.282  1.00  0.00     0.039 A 
ATOM     33  C   UNL A   1      42.420  27.017  27.659  1.00  0.00     0.014 A 
ATOM     34  C   UNL A   1      40.291  25.963  28.105  1.00  0.00     0.014 A 
ATOM     35  C   UNL A   1      42.276  27.787  28.815  1.00  0.00     0.010 A 
ATOM     36  C   UNL A   1      40.111  26.789  29.215  1.00  0.00     0.010 A 
ATOM     37  C   UNL A   1      41.099  27.715  29.580  1.00  0.00    -0.014 A 
BRANCH  37  38
ATOM     38  C   UNL A   1      40.886  28.638  30.729  1.00  0.00     0.031 A 
ATOM     39  C   UNL A   1      41.716  28.528  31.980  1.00  0.00     0.074 A 
ATOM     40  C   UNL A   1      39.907  29.564  30.654  1.00  0.00     0.049 A 
ATOM     41  N   UNL A   1      41.677  29.264  33.062  1.00  0.00    -0.248 NA
ATOM     42  C   UNL A   1      42.705  27.440  32.033  1.00  0.00     0.031 C 
ATOM     43  C   UNL A   1      38.990  29.731  29.523  1.00  0.00     0.029 A 
ATOM     44  N   UNL A   1      39.520  30.539  31.538  1.00  0.00    -0.354 N 
ATOM     45  C   UNL A   1      42.629  28.730  33.923  1.00  0.00     0.074 A 
ATOM     46  C   UNL A   1      43.187  27.571  33.261  1.00  0.00     0.031 C 
ATOM     47  C   UNL A   1      38.178  30.771  29.765  1.00  0.00     0.029 A 
ATOM     48  C   UNL A   1      38.484  31.320  31.081  1.00  0.00     0.049 A 
ATOM     49  H   UNL A   1      39.944  30.667  32.418  1.00  0.00     0.167 HD
ATOM     50  C   UNL A   1      43.020  29.179  35.142  1.00  0.00     0.037 A 
ATOM     51  C   UNL A   1      37.849  32.362  31.654  1.00  0.00     0.037 A 
ATOM     52  C   UNL A   1      42.463  30.338  35.793  1.00  0.00     0.049 A 
ATOM     53  C   UNL A   1      38.295  32.836  33.009  1.00  0.00     0.074 A 
ATOM     54  C   UNL A   1      42.830  30.906  37.001  1.00  0.00     0.029 A 
ATOM     55  N   UNL A   1      41.413  31.101  35.300  1.00  0.00    -0.354 N 
ATOM     56  N   UNL A   1      39.254  32.368  33.772  1.00  0.00    -0.248 NA
ATOM     57  C   UNL A   1      37.579  33.985  33.578  1.00  0.00     0.031 C 
ATOM     58  C   UNL A   1      41.965  31.973  37.267  1.00  0.00     0.029 A 
ATOM     59  C   UNL A   1      41.099  32.113  36.195  1.00  0.00     0.049 A 
ATOM     60  H   UNL A   1      40.958  30.946  34.441  1.00  0.00     0.167 HD
ATOM     61  C   UNL A   1      39.270  33.178  34.902  1.00  0.00     0.074 A 
ATOM     62  C   UNL A   1      38.242  34.180  34.709  1.00  0.00     0.031 C 
ATOM     63  C   UNL A   1      40.064  33.099  36.001  1.00  0.00     0.037 A 
BRANCH  50  64
ATOM     64  C   UNL A   1      44.103  28.411  35.855  1.00  0.00     0.058 A 
ATOM     65  C   UNL A   1      43.806  27.356  36.735  1.00  0.00     0.135 A 
ATOM     66  C   UNL A   1      45.458  28.707  35.629  1.00  0.00     0.135 A 
ATOM     67  F   UNL A   1      42.530  27.035  36.999  1.00  0.00    -0.206 F 
ATOM     68  C   UNL A   1      44.809  26.645  37.387  1.00  0.00     0.059 A 
ATOM     69  C   UNL A   1      46.479  27.988  36.246  1.00  0.00     0.059 A 
ATOM     70  F   UNL A   1      45.802  29.703  34.798  1.00  0.00    -0.206 F 
ATOM     71  C   UNL A   1      46.143  26.968  37.135  1.00  0.00     0.060 A 
BRANCH  71  72
ATOM     72  S   UNL A   1      47.431  26.036  37.989  1.00  0.00     0.124 S 
ATOM     73  O   UNL A   1      48.383  27.091  38.324  1.00  0.00    -0.237 OA
ATOM     74  O   UNL A   1      46.702  25.460  39.116  1.00  0.00    -0.237 OA
ATOM     75  O   UNL A   1      47.884  25.079  36.985  1.00  0.00    -0.744 OA
ENDBRANCH  71  72
ENDBRANCH  50  64
BRANCH  51  76
ATOM     76  C   UNL A   1      36.737  33.040  30.932  1.00  0.00     0.058 A 
ATOM     77  C   UNL A   1      35.399  32.819  31.292  1.00  0.00     0.135 A 
ATOM     78  C   UNL A   1      36.991  33.936  29.883  1.00  0.00     0.135 A 
ATOM     79  F   UNL A   1      35.103  31.966  32.284  1.00  0.00    -0.206 F 
ATOM     80  C   UNL A   1      34.352  33.452  30.629  1.00  0.00     0.059 A 
ATOM     81  C   UNL A   1      35.963  34.603  29.224  1.00  0.00     0.059 A 
ATOM     82  F   UNL A   1      38.254  34.195  29.510  1.00  0.00    -0.206 F 
ATOM     83  C   UNL A   1      34.645  34.347  29.599  1.00  0.00     0.060 A 
BRANCH  83  84
ATOM     84  S   UNL A   1      33.282  35.206  28.783  1.00  0.00     0.124 S 
ATOM     85  O   UNL A   1      32.683  34.132  28.002  1.00  0.00    -0.237 OA
ATOM     86  O   UNL A   1      32.500  35.684  29.919  1.00  0.00    -0.237 OA
ATOM     87  O   UNL A   1      33.955  36.248  28.013  1.00  0.00    -0.744 OA
ENDBRANCH  83  84
ENDBRANCH  51  76
BRANCH  63  88
ATOM     88  C   UNL A   1      39.861  34.138  37.073  1.00  0.00     0.058 A 
ATOM     89  C   UNL A   1      39.105  33.873  38.226  1.00  0.00     0.135 A 
ATOM     90  C   UNL A   1      40.445  35.410  36.953  1.00  0.00     0.135 A 
ATOM     91  F   UNL A   1      38.519  32.676  38.391  1.00  0.00    -0.206 F 
ATOM     92  C   UNL A   1      38.901  34.844  39.202  1.00  0.00     0.059 A 
ATOM     93  C   UNL A   1      40.284  36.384  37.933  1.00  0.00     0.059 A 
ATOM     94  F   UNL A   1      41.189  35.715  35.877  1.00  0.00    -0.206 F 
ATOM     95  C   UNL A   1      39.494  36.098  39.045  1.00  0.00     0.060 A 
BRANCH  95  96
ATOM     96  S   UNL A   1      39.224  37.347  40.320  1.00  0.00     0.124 S 
ATOM     97  O   UNL A   1      38.431  38.337  39.600  1.00  0.00    -0.237 OA
ATOM     98  O   UNL A   1      38.515  36.592  41.349  1.00  0.00    -0.237 OA
ATOM     99  O   UNL A   1      40.576  37.766  40.678  1.00  0.00    -0.744 OA
ENDBRANCH  95  96
ENDBRANCH  63  88
ENDBRANCH  37  38
ENDBRANCH  29  32
ENDBRANCH  27  28
ENDBRANCH   1  27
TORSDOF 17
ENDMDL
