MODEL 1
REMARK VINA RESULT:     -11.0      0.000      0.000
REMARK SMILES CCC[C@@H]1SC[C@@H](C(=O)NCCCCNC(=O)c2ccc(-c3c4nc(c(-c5c(F)cc(S(=O)(=O)[O-])cc5F)c5ccc([nH]5)c(-c5c(F)cc(S(=O)(=O)[O-])cc5F)c5nc(c(-c6c(F)cc(S(=O)(=O)[O-])cc6F)c6ccc3[nH]6)C=C5)C=C4)cc2)N1C(=O)C1C(C)(C)C1(C)C
REMARK SMILES IDX 13 1 12 2 11 3 10 4 8 5 9 6 7 8 4 9 5 10 84 11 6 12 3 13
REMARK SMILES IDX 2 14 1 15 85 16 86 17 87 18 88 19 91 20 89 21 90 22 92 23
REMARK SMILES IDX 93 24 14 25 15 26 16 27 17 29 18 30 19 31 83 32 20 33 82 34
REMARK SMILES IDX 21 35 22 36 23 37 76 38 24 39 81 40 75 41 77 42 25 43 80 44
REMARK SMILES IDX 74 45 73 46 26 48 60 49 39 50 59 51 40 52 43 53 58 54 78 55
REMARK SMILES IDX 41 56 42 57 57 59 79 60 44 61 27 62 28 63 37 64 29 65 30 66
REMARK SMILES IDX 36 67 38 68 31 69 32 70 33 71 34 72 35 73 61 74 62 75 71 76
REMARK SMILES IDX 63 77 64 78 70 79 72 80 65 81 66 82 67 83 68 84 69 85 45 86
REMARK SMILES IDX 46 87 55 88 47 89 48 90 54 91 56 92 49 93 50 94 51 95 52 96
REMARK SMILES IDX 53 97
REMARK H PARENT 10 7 15 28 77 47 43 58
REMARK Flexibility Score: inf
ROOT
ATOM      1  C   UNL A   1      33.079  28.793  25.817  1.00  0.00     0.023 C 
ENDROOT
BRANCH   1   2
ATOM      2  C   UNL A   1      31.996  27.757  25.533  1.00  0.00     0.023 C 
BRANCH   2   3
ATOM      3  C   UNL A   1      32.508  26.405  25.053  1.00  0.00     0.116 C 
BRANCH   3   4
ATOM      4  N   UNL A   1      33.274  26.517  23.830  1.00  0.00    -0.354 N 
ATOM      5  C   UNL A   1      33.493  25.647  22.803  1.00  0.00     0.243 C 
ATOM      6  O   UNL A   1      33.915  26.155  21.756  1.00  0.00    -0.273 OA
ATOM      7  H   UNL A   1      33.722  27.388  23.718  1.00  0.00     0.163 HD
BRANCH   5   8
ATOM      8  C   UNL A   1      33.059  24.151  22.818  1.00  0.00     0.185 C 
ATOM      9  C   UNL A   1      32.791  22.706  24.824  1.00  0.00     0.144 C 
ATOM     10  S   UNL A   1      31.168  22.672  23.934  1.00  0.00    -0.134 SA
ATOM     11  N   UNL A   1      33.746  23.224  23.778  1.00  0.00    -0.318 N 
ATOM     12  C   UNL A   1      31.539  24.114  22.943  1.00  0.00     0.107 C 
BRANCH   9  13
ATOM     13  C   UNL A   1      32.836  21.378  25.631  1.00  0.00     0.036 C 
BRANCH  13  14
ATOM     14  C   UNL A   1      32.166  20.114  25.054  1.00  0.00    -0.000 C 
ATOM     15  C   UNL A   1      32.784  19.521  23.805  1.00  0.00     0.004 C 
ENDBRANCH  13  14
ENDBRANCH   9  13
BRANCH  11  16
ATOM     16  C   UNL A   1      35.126  23.067  23.419  1.00  0.00     0.228 C 
ATOM     17  O   UNL A   1      35.397  22.879  22.229  1.00  0.00    -0.274 OA
BRANCH  16  18
ATOM     18  C   UNL A   1      36.386  23.072  24.284  1.00  0.00     0.091 C 
ATOM     19  C   UNL A   1      36.457  23.436  25.755  1.00  0.00    -0.017 C 
ATOM     20  C   UNL A   1      36.742  21.922  25.152  1.00  0.00    -0.017 C 
ATOM     21  C   UNL A   1      37.718  24.030  26.413  1.00  0.00     0.012 C 
ATOM     22  C   UNL A   1      35.402  24.506  25.932  1.00  0.00     0.012 C 
ATOM     23  C   UNL A   1      35.922  20.664  24.933  1.00  0.00     0.012 C 
ATOM     24  C   UNL A   1      38.210  21.478  25.271  1.00  0.00     0.012 C 
ENDBRANCH  16  18
ENDBRANCH  11  16
ENDBRANCH   5   8
ENDBRANCH   3   4
ENDBRANCH   2   3
ENDBRANCH   1   2
BRANCH   1  25
ATOM     25  C   UNL A   1      33.541  28.879  27.269  1.00  0.00     0.116 C 
BRANCH  25  26
ATOM     26  N   UNL A   1      33.544  30.230  27.816  1.00  0.00    -0.352 N 
ATOM     27  C   UNL A   1      34.584  30.904  28.418  1.00  0.00     0.251 C 
ATOM     28  H   UNL A   1      32.696  30.724  27.745  1.00  0.00     0.163 HD
ATOM     29  O   UNL A   1      34.406  32.022  28.890  1.00  0.00    -0.269 OA
BRANCH  27  30
ATOM     30  C   UNL A   1      35.901  30.240  28.533  1.00  0.00     0.039 A 
ATOM     31  C   UNL A   1      36.781  30.283  27.449  1.00  0.00     0.014 A 
ATOM     32  C   UNL A   1      36.296  29.657  29.738  1.00  0.00     0.014 A 
ATOM     33  C   UNL A   1      38.095  29.832  27.608  1.00  0.00     0.010 A 
ATOM     34  C   UNL A   1      37.624  29.289  29.920  1.00  0.00     0.010 A 
ATOM     35  C   UNL A   1      38.541  29.383  28.862  1.00  0.00    -0.014 A 
BRANCH  35  36
ATOM     36  C   UNL A   1      39.958  29.003  29.102  1.00  0.00     0.031 A 
ATOM     37  C   UNL A   1      40.917  30.025  29.653  1.00  0.00     0.074 A 
ATOM     38  C   UNL A   1      40.403  27.782  28.741  1.00  0.00     0.049 A 
ATOM     39  N   UNL A   1      42.216  29.956  29.781  1.00  0.00    -0.248 NA
ATOM     40  C   UNL A   1      40.339  31.310  30.083  1.00  0.00     0.031 C 
ATOM     41  C   UNL A   1      39.585  26.716  28.154  1.00  0.00     0.029 A 
ATOM     42  N   UNL A   1      41.661  27.234  28.800  1.00  0.00    -0.354 N 
ATOM     43  C   UNL A   1      42.612  31.191  30.280  1.00  0.00     0.074 A 
ATOM     44  C   UNL A   1      41.424  32.008  30.381  1.00  0.00     0.031 C 
ATOM     45  C   UNL A   1      40.358  25.640  27.929  1.00  0.00     0.029 A 
ATOM     46  C   UNL A   1      41.730  25.948  28.314  1.00  0.00     0.049 A 
ATOM     47  H   UNL A   1      42.442  27.717  29.155  1.00  0.00     0.167 HD
ATOM     48  C   UNL A   1      43.850  31.599  30.647  1.00  0.00     0.037 A 
ATOM     49  C   UNL A   1      42.784  25.117  28.186  1.00  0.00     0.037 A 
ATOM     50  C   UNL A   1      45.022  30.767  30.590  1.00  0.00     0.049 A 
ATOM     51  C   UNL A   1      44.147  25.588  28.621  1.00  0.00     0.074 A 
ATOM     52  C   UNL A   1      46.317  31.076  30.967  1.00  0.00     0.029 A 
ATOM     53  N   UNL A   1      45.037  29.454  30.146  1.00  0.00    -0.354 N 
ATOM     54  N   UNL A   1      44.497  26.754  29.111  1.00  0.00    -0.248 NA
ATOM     55  C   UNL A   1      45.256  24.633  28.490  1.00  0.00     0.031 C 
ATOM     56  C   UNL A   1      47.119  29.953  30.737  1.00  0.00     0.029 A 
ATOM     57  C   UNL A   1      46.316  28.936  30.247  1.00  0.00     0.049 A 
ATOM     58  H   UNL A   1      44.253  28.962  29.808  1.00  0.00     0.167 HD
ATOM     59  C   UNL A   1      45.857  26.657  29.382  1.00  0.00     0.074 A 
ATOM     60  C   UNL A   1      46.266  25.321  29.003  1.00  0.00     0.031 C 
ATOM     61  C   UNL A   1      46.692  27.590  29.899  1.00  0.00     0.037 A 
BRANCH  48  62
ATOM     62  C   UNL A   1      43.993  33.000  31.169  1.00  0.00     0.058 A 
ATOM     63  C   UNL A   1      43.859  33.285  32.538  1.00  0.00     0.135 A 
ATOM     64  C   UNL A   1      44.303  34.062  30.305  1.00  0.00     0.135 A 
ATOM     65  F   UNL A   1      43.545  32.309  33.403  1.00  0.00    -0.206 F 
ATOM     66  C   UNL A   1      44.002  34.578  33.028  1.00  0.00     0.059 A 
ATOM     67  C   UNL A   1      44.476  35.360  30.777  1.00  0.00     0.059 A 
ATOM     68  F   UNL A   1      44.439  33.844  28.987  1.00  0.00    -0.206 F 
ATOM     69  C   UNL A   1      44.310  35.609  32.139  1.00  0.00     0.060 A 
BRANCH  69  70
ATOM     70  S   UNL A   1      44.504  37.280  32.794  1.00  0.00     0.124 S 
ATOM     71  O   UNL A   1      45.785  37.175  33.485  1.00  0.00    -0.237 OA
ATOM     72  O   UNL A   1      44.503  38.093  31.582  1.00  0.00    -0.237 OA
ATOM     73  O   UNL A   1      43.338  37.444  33.655  1.00  0.00    -0.744 OA
ENDBRANCH  69  70
ENDBRANCH  48  62
BRANCH  49  74
ATOM     74  C   UNL A   1      42.599  23.743  27.647  1.00  0.00     0.058 A 
ATOM     75  C   UNL A   1      42.424  22.652  28.512  1.00  0.00     0.135 A 
ATOM     76  C   UNL A   1      42.616  23.487  26.268  1.00  0.00     0.135 A 
ATOM     77  F   UNL A   1      42.404  22.847  29.840  1.00  0.00    -0.206 F 
ATOM     78  C   UNL A   1      42.303  21.353  28.033  1.00  0.00     0.059 A 
ATOM     79  C   UNL A   1      42.474  22.198  25.763  1.00  0.00     0.059 A 
ATOM     80  F   UNL A   1      42.761  24.498  25.398  1.00  0.00    -0.206 F 
ATOM     81  C   UNL A   1      42.335  21.134  26.655  1.00  0.00     0.060 A 
BRANCH  81  82
ATOM     82  S   UNL A   1      42.160  19.446  26.039  1.00  0.00     0.124 S 
ATOM     83  O   UNL A   1      42.684  18.671  27.157  1.00  0.00    -0.237 OA
ATOM     84  O   UNL A   1      40.722  19.346  25.810  1.00  0.00    -0.237 OA
ATOM     85  O   UNL A   1      42.981  19.446  24.830  1.00  0.00    -0.744 OA
ENDBRANCH  81  82
ENDBRANCH  49  74
BRANCH  61  86
ATOM     86  C   UNL A   1      48.117  27.187  30.149  1.00  0.00     0.058 A 
ATOM     87  C   UNL A   1      49.117  27.379  29.185  1.00  0.00     0.135 A 
ATOM     88  C   UNL A   1      48.494  26.672  31.399  1.00  0.00     0.135 A 
ATOM     89  F   UNL A   1      48.805  27.863  27.973  1.00  0.00    -0.206 F 
ATOM     90  C   UNL A   1      50.446  27.064  29.450  1.00  0.00     0.059 A 
ATOM     91  C   UNL A   1      49.819  26.370  31.692  1.00  0.00     0.059 A 
ATOM     92  F   UNL A   1      47.573  26.478  32.357  1.00  0.00    -0.206 F 
ATOM     93  C   UNL A   1      50.788  26.563  30.709  1.00  0.00     0.060 A 
BRANCH  93  94
ATOM     94  S   UNL A   1      52.523  26.213  31.060  1.00  0.00     0.124 S 
ATOM     95  O   UNL A   1      52.428  24.944  31.774  1.00  0.00    -0.237 OA
ATOM     96  O   UNL A   1      53.108  26.148  29.724  1.00  0.00    -0.237 OA
ATOM     97  O   UNL A   1      52.943  27.357  31.865  1.00  0.00    -0.744 OA
ENDBRANCH  93  94
ENDBRANCH  61  86
ENDBRANCH  35  36
ENDBRANCH  27  30
ENDBRANCH  25  26
ENDBRANCH   1  25
TORSDOF 18
ENDMDL
MODEL 2
REMARK VINA RESULT:     -10.9      4.740     10.385
REMARK SMILES CCC[C@@H]1SC[C@@H](C(=O)NCCCCNC(=O)c2ccc(-c3c4nc(c(-c5c(F)cc(S(=O)(=O)[O-])cc5F)c5ccc([nH]5)c(-c5c(F)cc(S(=O)(=O)[O-])cc5F)c5nc(c(-c6c(F)cc(S(=O)(=O)[O-])cc6F)c6ccc3[nH]6)C=C5)C=C4)cc2)N1C(=O)C1C(C)(C)C1(C)C
REMARK SMILES IDX 13 1 12 2 11 3 10 4 8 5 9 6 7 8 4 9 5 10 84 11 6 12 3 13
REMARK SMILES IDX 2 14 1 15 85 16 86 17 87 18 88 19 91 20 89 21 90 22 92 23
REMARK SMILES IDX 93 24 14 25 15 26 16 27 17 29 18 30 19 31 83 32 20 33 82 34
REMARK SMILES IDX 21 35 22 36 23 37 76 38 24 39 81 40 75 41 77 42 25 43 80 44
REMARK SMILES IDX 74 45 73 46 26 48 60 49 39 50 59 51 40 52 43 53 58 54 78 55
REMARK SMILES IDX 41 56 42 57 57 59 79 60 44 61 27 62 28 63 37 64 29 65 30 66
REMARK SMILES IDX 36 67 38 68 31 69 32 70 33 71 34 72 35 73 61 74 62 75 71 76
REMARK SMILES IDX 63 77 64 78 70 79 72 80 65 81 66 82 67 83 68 84 69 85 45 86
REMARK SMILES IDX 46 87 55 88 47 89 48 90 54 91 56 92 49 93 50 94 51 95 52 96
REMARK SMILES IDX 53 97
REMARK H PARENT 10 7 15 28 77 47 43 58
REMARK Flexibility Score: inf
ROOT
ATOM      1  C   UNL A   1      38.083  23.641  26.016  1.00  0.00     0.023 C 
ENDROOT
BRANCH   1   2
ATOM      2  C   UNL A   1      37.580  22.445  25.214  1.00  0.00     0.023 C 
BRANCH   2   3
ATOM      3  C   UNL A   1      36.066  22.287  25.175  1.00  0.00     0.116 C 
BRANCH   3   4
ATOM      4  N   UNL A   1      35.494  22.199  26.502  1.00  0.00    -0.354 N 
ATOM      5  C   UNL A   1      34.215  22.010  26.937  1.00  0.00     0.243 C 
ATOM      6  O   UNL A   1      34.103  21.653  28.117  1.00  0.00    -0.273 OA
ATOM      7  H   UNL A   1      36.153  22.294  27.228  1.00  0.00     0.163 HD
BRANCH   5   8
ATOM      8  C   UNL A   1      32.965  22.019  26.008  1.00  0.00     0.185 C 
ATOM      9  C   UNL A   1      32.701  23.299  23.892  1.00  0.00     0.144 C 
ATOM     10  S   UNL A   1      32.411  21.521  23.468  1.00  0.00    -0.134 SA
ATOM     11  N   UNL A   1      32.550  23.324  25.393  1.00  0.00    -0.318 N 
ATOM     12  C   UNL A   1      33.150  20.910  24.977  1.00  0.00     0.107 C 
BRANCH   9  13
ATOM     13  C   UNL A   1      31.928  24.103  22.808  1.00  0.00     0.036 C 
BRANCH  13  14
ATOM     14  C   UNL A   1      32.579  25.352  22.180  1.00  0.00    -0.000 C 
ATOM     15  C   UNL A   1      31.658  26.318  21.465  1.00  0.00     0.004 C 
ENDBRANCH  13  14
ENDBRANCH   9  13
BRANCH  11  16
ATOM     16  C   UNL A   1      32.098  24.232  26.407  1.00  0.00     0.228 C 
ATOM     17  O   UNL A   1      31.311  23.806  27.257  1.00  0.00    -0.274 OA
BRANCH  16  18
ATOM     18  C   UNL A   1      32.413  25.711  26.630  1.00  0.00     0.091 C 
ATOM     19  C   UNL A   1      33.329  26.567  25.776  1.00  0.00    -0.017 C 
ATOM     20  C   UNL A   1      31.693  26.783  25.896  1.00  0.00    -0.017 C 
ATOM     21  C   UNL A   1      34.102  27.780  26.330  1.00  0.00     0.012 C 
ATOM     22  C   UNL A   1      34.409  25.616  25.308  1.00  0.00     0.012 C 
ATOM     23  C   UNL A   1      30.474  26.329  25.115  1.00  0.00     0.012 C 
ATOM     24  C   UNL A   1      31.295  28.076  26.627  1.00  0.00     0.012 C 
ENDBRANCH  16  18
ENDBRANCH  11  16
ENDBRANCH   5   8
ENDBRANCH   3   4
ENDBRANCH   2   3
ENDBRANCH   1   2
BRANCH   1  25
ATOM     25  C   UNL A   1      39.310  23.381  26.884  1.00  0.00     0.116 C 
BRANCH  25  26
ATOM     26  N   UNL A   1      40.580  23.619  26.210  1.00  0.00    -0.352 N 
ATOM     27  C   UNL A   1      41.417  24.708  26.324  1.00  0.00     0.251 C 
ATOM     28  H   UNL A   1      40.879  22.911  25.594  1.00  0.00     0.163 HD
ATOM     29  O   UNL A   1      42.426  24.788  25.631  1.00  0.00    -0.269 OA
BRANCH  27  30
ATOM     30  C   UNL A   1      41.053  25.799  27.254  1.00  0.00     0.039 A 
ATOM     31  C   UNL A   1      40.170  25.533  28.303  1.00  0.00     0.014 A 
ATOM     32  C   UNL A   1      41.655  27.054  27.141  1.00  0.00     0.014 A 
ATOM     33  C   UNL A   1      39.970  26.495  29.297  1.00  0.00     0.010 A 
ATOM     34  C   UNL A   1      41.521  27.975  28.173  1.00  0.00     0.010 A 
ATOM     35  C   UNL A   1      40.687  27.702  29.268  1.00  0.00    -0.014 A 
BRANCH  35  36
ATOM     36  C   UNL A   1      40.589  28.701  30.365  1.00  0.00     0.031 A 
ATOM     37  C   UNL A   1      41.490  28.577  31.565  1.00  0.00     0.074 A 
ATOM     38  C   UNL A   1      39.637  29.657  30.328  1.00  0.00     0.049 A 
ATOM     39  N   UNL A   1      41.458  29.233  32.695  1.00  0.00    -0.248 NA
ATOM     40  C   UNL A   1      42.543  27.550  31.497  1.00  0.00     0.031 C 
ATOM     41  C   UNL A   1      38.672  29.857  29.243  1.00  0.00     0.029 A 
ATOM     42  N   UNL A   1      39.313  30.632  31.239  1.00  0.00    -0.354 N 
ATOM     43  C   UNL A   1      42.465  28.683  33.479  1.00  0.00     0.074 A 
ATOM     44  C   UNL A   1      43.055  27.606  32.717  1.00  0.00     0.031 C 
ATOM     45  C   UNL A   1      37.882  30.902  29.542  1.00  0.00     0.029 A 
ATOM     46  C   UNL A   1      38.252  31.421  30.854  1.00  0.00     0.049 A 
ATOM     47  H   UNL A   1      39.793  30.756  32.089  1.00  0.00     0.167 HD
ATOM     48  C   UNL A   1      42.880  29.060  34.712  1.00  0.00     0.037 A 
ATOM     49  C   UNL A   1      37.644  32.440  31.492  1.00  0.00     0.037 A 
ATOM     50  C   UNL A   1      42.322  30.164  35.447  1.00  0.00     0.049 A 
ATOM     51  C   UNL A   1      38.139  32.854  32.853  1.00  0.00     0.074 A 
ATOM     52  C   UNL A   1      42.694  30.646  36.689  1.00  0.00     0.029 A 
ATOM     53  N   UNL A   1      41.290  30.971  34.995  1.00  0.00    -0.354 N 
ATOM     54  N   UNL A   1      39.108  32.335  33.569  1.00  0.00    -0.248 NA
ATOM     55  C   UNL A   1      37.461  33.991  33.492  1.00  0.00     0.031 C 
ATOM     56  C   UNL A   1      41.873  31.737  36.997  1.00  0.00     0.029 A 
ATOM     57  C   UNL A   1      41.015  31.953  35.931  1.00  0.00     0.049 A 
ATOM     58  H   UNL A   1      40.820  30.862  34.136  1.00  0.00     0.167 HD
ATOM     59  C   UNL A   1      39.181  33.106  34.723  1.00  0.00     0.074 A 
ATOM     60  C   UNL A   1      38.161  34.127  34.611  1.00  0.00     0.031 C 
ATOM     61  C   UNL A   1      40.019  32.982  35.780  1.00  0.00     0.037 A 
BRANCH  48  62
ATOM     62  C   UNL A   1      44.011  28.289  35.330  1.00  0.00     0.058 A 
ATOM     63  C   UNL A   1      45.348  28.663  35.121  1.00  0.00     0.135 A 
ATOM     64  C   UNL A   1      43.760  27.190  36.167  1.00  0.00     0.135 A 
ATOM     65  F   UNL A   1      45.644  29.694  34.315  1.00  0.00    -0.206 F 
ATOM     66  C   UNL A   1      46.398  27.959  35.700  1.00  0.00     0.059 A 
ATOM     67  C   UNL A   1      44.794  26.487  36.777  1.00  0.00     0.059 A 
ATOM     68  F   UNL A   1      42.499  26.789  36.396  1.00  0.00    -0.206 F 
ATOM     69  C   UNL A   1      46.111  26.872  36.526  1.00  0.00     0.060 A 
BRANCH  69  70
ATOM     70  S   UNL A   1      47.485  25.977  37.280  1.00  0.00     0.124 S 
ATOM     71  O   UNL A   1      48.614  26.839  36.942  1.00  0.00    -0.237 OA
ATOM     72  O   UNL A   1      47.108  25.951  38.689  1.00  0.00    -0.237 OA
ATOM     73  O   UNL A   1      47.459  24.684  36.604  1.00  0.00    -0.744 OA
ENDBRANCH  69  70
ENDBRANCH  48  62
BRANCH  49  74
ATOM     74  C   UNL A   1      36.515  33.165  30.849  1.00  0.00     0.058 A 
ATOM     75  C   UNL A   1      36.752  34.088  29.819  1.00  0.00     0.135 A 
ATOM     76  C   UNL A   1      35.189  32.972  31.261  1.00  0.00     0.135 A 
ATOM     77  F   UNL A   1      38.005  34.311  29.394  1.00  0.00    -0.206 F 
ATOM     78  C   UNL A   1      35.719  34.817  29.241  1.00  0.00     0.059 A 
ATOM     79  C   UNL A   1      34.135  33.672  30.682  1.00  0.00     0.059 A 
ATOM     80  F   UNL A   1      34.907  32.086  32.228  1.00  0.00    -0.206 F 
ATOM     81  C   UNL A   1      34.412  34.606  29.683  1.00  0.00     0.060 A 
BRANCH  81  82
ATOM     82  S   UNL A   1      33.073  35.543  28.915  1.00  0.00     0.124 S 
ATOM     83  O   UNL A   1      32.376  36.069  30.084  1.00  0.00    -0.237 OA
ATOM     84  O   UNL A   1      33.799  36.520  28.111  1.00  0.00    -0.237 OA
ATOM     85  O   UNL A   1      32.351  34.527  28.153  1.00  0.00    -0.744 OA
ENDBRANCH  81  82
ENDBRANCH  49  74
BRANCH  61  86
ATOM     86  C   UNL A   1      39.917  34.007  36.873  1.00  0.00     0.058 A 
ATOM     87  C   UNL A   1      40.612  35.223  36.809  1.00  0.00     0.135 A 
ATOM     88  C   UNL A   1      39.054  33.797  37.958  1.00  0.00     0.135 A 
ATOM     89  F   UNL A   1      41.455  35.468  35.794  1.00  0.00    -0.206 F 
ATOM     90  C   UNL A   1      40.461  36.195  37.793  1.00  0.00     0.059 A 
ATOM     91  C   UNL A   1      38.871  34.762  38.942  1.00  0.00     0.059 A 
ATOM     92  F   UNL A   1      38.360  32.651  38.058  1.00  0.00    -0.206 F 
ATOM     93  C   UNL A   1      39.584  35.957  38.854  1.00  0.00     0.060 A 
BRANCH  93  94
ATOM     94  S   UNL A   1      39.352  37.248  40.093  1.00  0.00     0.124 S 
ATOM     95  O   UNL A   1      40.721  37.709  40.298  1.00  0.00    -0.237 OA
ATOM     96  O   UNL A   1      38.463  38.183  39.410  1.00  0.00    -0.237 OA
ATOM     97  O   UNL A   1      38.754  36.533  41.218  1.00  0.00    -0.744 OA
ENDBRANCH  93  94
ENDBRANCH  61  86
ENDBRANCH  35  36
ENDBRANCH  27  30
ENDBRANCH  25  26
ENDBRANCH   1  25
TORSDOF 18
ENDMDL
MODEL 3
REMARK VINA RESULT:     -10.9      2.989      9.307
REMARK SMILES CCC[C@@H]1SC[C@@H](C(=O)NCCCCNC(=O)c2ccc(-c3c4nc(c(-c5c(F)cc(S(=O)(=O)[O-])cc5F)c5ccc([nH]5)c(-c5c(F)cc(S(=O)(=O)[O-])cc5F)c5nc(c(-c6c(F)cc(S(=O)(=O)[O-])cc6F)c6ccc3[nH]6)C=C5)C=C4)cc2)N1C(=O)C1C(C)(C)C1(C)C
REMARK SMILES IDX 13 1 12 2 11 3 10 4 8 5 9 6 7 8 4 9 5 10 84 11 6 12 3 13
REMARK SMILES IDX 2 14 1 15 85 16 86 17 87 18 88 19 91 20 89 21 90 22 92 23
REMARK SMILES IDX 93 24 14 25 15 26 16 27 17 29 18 30 19 31 83 32 20 33 82 34
REMARK SMILES IDX 21 35 22 36 23 37 76 38 24 39 81 40 75 41 77 42 25 43 80 44
REMARK SMILES IDX 74 45 73 46 26 48 60 49 39 50 59 51 40 52 43 53 58 54 78 55
REMARK SMILES IDX 41 56 42 57 57 59 79 60 44 61 27 62 28 63 37 64 29 65 30 66
REMARK SMILES IDX 36 67 38 68 31 69 32 70 33 71 34 72 35 73 61 74 62 75 71 76
REMARK SMILES IDX 63 77 64 78 70 79 72 80 65 81 66 82 67 83 68 84 69 85 45 86
REMARK SMILES IDX 46 87 55 88 47 89 48 90 54 91 56 92 49 93 50 94 51 95 52 96
REMARK SMILES IDX 53 97
REMARK H PARENT 10 7 15 28 77 47 43 58
REMARK Flexibility Score: inf
ROOT
ATOM      1  C   UNL A   1      36.204  22.840  24.091  1.00  0.00     0.023 C 
ENDROOT
BRANCH   1   2
ATOM      2  C   UNL A   1      35.599  21.514  24.543  1.00  0.00     0.023 C 
BRANCH   2   3
ATOM      3  C   UNL A   1      34.094  21.539  24.777  1.00  0.00     0.116 C 
BRANCH   3   4
ATOM      4  N   UNL A   1      33.762  21.888  26.142  1.00  0.00    -0.354 N 
ATOM      5  C   UNL A   1      32.871  22.776  26.669  1.00  0.00     0.243 C 
ATOM      6  O   UNL A   1      32.591  22.601  27.862  1.00  0.00    -0.273 OA
ATOM      7  H   UNL A   1      34.278  21.389  26.818  1.00  0.00     0.163 HD
BRANCH   5   8
ATOM      8  C   UNL A   1      32.072  23.815  25.829  1.00  0.00     0.185 C 
ATOM      9  C   UNL A   1      32.563  24.528  23.498  1.00  0.00     0.144 C 
ATOM     10  S   UNL A   1      30.821  23.902  23.498  1.00  0.00    -0.134 SA
ATOM     11  N   UNL A   1      32.843  24.767  24.961  1.00  0.00    -0.318 N 
ATOM     12  C   UNL A   1      30.992  23.057  25.064  1.00  0.00     0.107 C 
BRANCH   9  13
ATOM     13  C   UNL A   1      32.634  25.522  22.304  1.00  0.00     0.036 C 
BRANCH  13  14
ATOM     14  C   UNL A   1      31.339  26.177  21.782  1.00  0.00    -0.000 C 
ATOM     15  C   UNL A   1      30.991  27.543  22.335  1.00  0.00     0.004 C 
ENDBRANCH  13  14
ENDBRANCH   9  13
BRANCH  11  16
ATOM     16  C   UNL A   1      33.620  25.661  25.768  1.00  0.00     0.228 C 
ATOM     17  O   UNL A   1      34.745  25.294  26.123  1.00  0.00    -0.274 OA
BRANCH  16  18
ATOM     18  C   UNL A   1      33.290  27.050  26.315  1.00  0.00     0.091 C 
ATOM     19  C   UNL A   1      33.075  28.305  25.489  1.00  0.00    -0.017 C 
ATOM     20  C   UNL A   1      31.895  27.555  26.374  1.00  0.00    -0.017 C 
ATOM     21  C   UNL A   1      33.369  29.721  26.024  1.00  0.00     0.012 C 
ATOM     22  C   UNL A   1      34.010  28.148  24.310  1.00  0.00     0.012 C 
ATOM     23  C   UNL A   1      30.818  26.522  26.098  1.00  0.00     0.012 C 
ATOM     24  C   UNL A   1      31.427  28.369  27.592  1.00  0.00     0.012 C 
ENDBRANCH  16  18
ENDBRANCH  11  16
ENDBRANCH   5   8
ENDBRANCH   3   4
ENDBRANCH   2   3
ENDBRANCH   1   2
BRANCH   1  25
ATOM     25  C   UNL A   1      37.239  23.445  25.034  1.00  0.00     0.116 C 
BRANCH  25  26
ATOM     26  N   UNL A   1      38.389  22.586  25.288  1.00  0.00    -0.352 N 
ATOM     27  C   UNL A   1      39.512  22.862  26.038  1.00  0.00     0.251 C 
ATOM     28  H   UNL A   1      38.360  21.695  24.871  1.00  0.00     0.163 HD
ATOM     29  O   UNL A   1      40.430  22.052  26.099  1.00  0.00    -0.269 OA
BRANCH  27  30
ATOM     30  C   UNL A   1      39.615  24.170  26.723  1.00  0.00     0.039 A 
ATOM     31  C   UNL A   1      39.049  24.320  27.991  1.00  0.00     0.014 A 
ATOM     32  C   UNL A   1      40.347  25.212  26.149  1.00  0.00     0.014 A 
ATOM     33  C   UNL A   1      39.304  25.480  28.727  1.00  0.00     0.010 A 
ATOM     34  C   UNL A   1      40.670  26.326  26.915  1.00  0.00     0.010 A 
ATOM     35  C   UNL A   1      40.162  26.469  28.216  1.00  0.00    -0.014 A 
BRANCH  35  36
ATOM     36  C   UNL A   1      40.551  27.662  29.013  1.00  0.00     0.031 A 
ATOM     37  C   UNL A   1      41.858  27.663  29.759  1.00  0.00     0.074 A 
ATOM     38  C   UNL A   1      39.696  28.697  29.143  1.00  0.00     0.049 A 
ATOM     39  N   UNL A   1      42.310  28.521  30.636  1.00  0.00    -0.248 NA
ATOM     40  C   UNL A   1      42.761  26.526  29.512  1.00  0.00     0.031 C 
ATOM     41  C   UNL A   1      38.378  28.799  28.508  1.00  0.00     0.029 A 
ATOM     42  N   UNL A   1      39.800  29.859  29.868  1.00  0.00    -0.354 N 
ATOM     43  C   UNL A   1      43.533  28.016  31.063  1.00  0.00     0.074 A 
ATOM     44  C   UNL A   1      43.728  26.752  30.389  1.00  0.00     0.031 C 
ATOM     45  C   UNL A   1      37.810  29.967  28.854  1.00  0.00     0.029 A 
ATOM     46  C   UNL A   1      38.699  30.678  29.766  1.00  0.00     0.049 A 
ATOM     47  H   UNL A   1      40.589  30.084  30.412  1.00  0.00     0.167 HD
ATOM     48  C   UNL A   1      44.425  28.569  31.917  1.00  0.00     0.037 A 
ATOM     49  C   UNL A   1      38.434  31.864  30.350  1.00  0.00     0.037 A 
ATOM     50  C   UNL A   1      44.249  29.849  32.549  1.00  0.00     0.049 A 
ATOM     51  C   UNL A   1      39.454  32.468  31.280  1.00  0.00     0.074 A 
ATOM     52  C   UNL A   1      45.110  30.512  33.407  1.00  0.00     0.029 A 
ATOM     53  N   UNL A   1      43.147  30.671  32.373  1.00  0.00    -0.354 N 
ATOM     54  N   UNL A   1      40.615  31.984  31.653  1.00  0.00    -0.248 NA
ATOM     55  C   UNL A   1      39.130  33.777  31.865  1.00  0.00     0.031 C 
ATOM     56  C   UNL A   1      44.519  31.729  33.762  1.00  0.00     0.029 A 
ATOM     57  C   UNL A   1      43.307  31.837  33.100  1.00  0.00     0.049 A 
ATOM     58  H   UNL A   1      42.365  30.456  31.814  1.00  0.00     0.167 HD
ATOM     59  C   UNL A   1      41.175  32.947  32.485  1.00  0.00     0.074 A 
ATOM     60  C   UNL A   1      40.229  34.040  32.560  1.00  0.00     0.031 C 
ATOM     61  C   UNL A   1      42.367  32.928  33.128  1.00  0.00     0.037 A 
BRANCH  48  62
ATOM     62  C   UNL A   1      45.687  27.802  32.196  1.00  0.00     0.058 A 
ATOM     63  C   UNL A   1      45.771  26.902  33.270  1.00  0.00     0.135 A 
ATOM     64  C   UNL A   1      46.810  27.938  31.364  1.00  0.00     0.135 A 
ATOM     65  F   UNL A   1      44.732  26.748  34.105  1.00  0.00    -0.206 F 
ATOM     66  C   UNL A   1      46.932  26.181  33.525  1.00  0.00     0.059 A 
ATOM     67  C   UNL A   1      47.974  27.209  31.585  1.00  0.00     0.059 A 
ATOM     68  F   UNL A   1      46.783  28.789  30.325  1.00  0.00    -0.206 F 
ATOM     69  C   UNL A   1      48.028  26.342  32.677  1.00  0.00     0.060 A 
BRANCH  69  70
ATOM     70  S   UNL A   1      49.525  25.390  33.015  1.00  0.00     0.124 S 
ATOM     71  O   UNL A   1      48.976  24.213  33.682  1.00  0.00    -0.237 OA
ATOM     72  O   UNL A   1      50.063  25.167  31.678  1.00  0.00    -0.237 OA
ATOM     73  O   UNL A   1      50.310  26.283  33.862  1.00  0.00    -0.744 OA
ENDBRANCH  69  70
ENDBRANCH  48  62
BRANCH  49  74
ATOM     74  C   UNL A   1      37.164  32.581  30.058  1.00  0.00     0.058 A 
ATOM     75  C   UNL A   1      37.122  33.600  29.095  1.00  0.00     0.135 A 
ATOM     76  C   UNL A   1      35.978  32.283  30.745  1.00  0.00     0.135 A 
ATOM     77  F   UNL A   1      38.232  33.924  28.414  1.00  0.00    -0.206 F 
ATOM     78  C   UNL A   1      35.959  34.320  28.843  1.00  0.00     0.059 A 
ATOM     79  C   UNL A   1      34.796  32.973  30.496  1.00  0.00     0.059 A 
ATOM     80  F   UNL A   1      35.961  31.303  31.662  1.00  0.00    -0.206 F 
ATOM     81  C   UNL A   1      34.801  34.002  29.554  1.00  0.00     0.060 A 
BRANCH  81  82
ATOM     82  S   UNL A   1      33.289  34.930  29.211  1.00  0.00     0.124 S 
ATOM     83  O   UNL A   1      32.661  34.961  30.526  1.00  0.00    -0.237 OA
ATOM     84  O   UNL A   1      33.810  36.201  28.721  1.00  0.00    -0.237 OA
ATOM     85  O   UNL A   1      32.616  34.108  28.208  1.00  0.00    -0.744 OA
ENDBRANCH  81  82
ENDBRANCH  49  74
BRANCH  61  86
ATOM     86  C   UNL A   1      42.751  34.147  33.917  1.00  0.00     0.058 A 
ATOM     87  C   UNL A   1      42.515  34.236  35.297  1.00  0.00     0.135 A 
ATOM     88  C   UNL A   1      43.432  35.204  33.295  1.00  0.00     0.135 A 
ATOM     89  F   UNL A   1      41.861  33.254  35.936  1.00  0.00    -0.206 F 
ATOM     90  C   UNL A   1      42.933  35.341  36.032  1.00  0.00     0.059 A 
ATOM     91  C   UNL A   1      43.878  36.308  34.013  1.00  0.00     0.059 A 
ATOM     92  F   UNL A   1      43.690  35.159  31.977  1.00  0.00    -0.206 F 
ATOM     93  C   UNL A   1      43.618  36.370  35.382  1.00  0.00     0.060 A 
BRANCH  93  94
ATOM     94  S   UNL A   1      44.207  37.770  36.356  1.00  0.00     0.124 S 
ATOM     95  O   UNL A   1      43.984  38.882  35.438  1.00  0.00    -0.237 OA
ATOM     96  O   UNL A   1      43.336  37.728  37.526  1.00  0.00    -0.237 OA
ATOM     97  O   UNL A   1      45.606  37.439  36.613  1.00  0.00    -0.744 OA
ENDBRANCH  93  94
ENDBRANCH  61  86
ENDBRANCH  35  36
ENDBRANCH  27  30
ENDBRANCH  25  26
ENDBRANCH   1  25
TORSDOF 18
ENDMDL
