MODEL 1
REMARK VINA RESULT:     -12.0      0.000      0.000
REMARK SMILES N#Cc1ccccc1NC(=O)C[N@H+]1CCCC[C@H]1C(=O)NCCCCNC(=O)c1ccc(-c2c3nc(c(-c4c(F)cc(S(=O)(=O)[O-])cc4F)c4ccc([nH]4)c(-c4c(F)cc(S(=O)(=O)[O-])cc4F)c4nc(c(-c5c(F)cc(S(=O)(=O)[O-])cc5F)c5ccc2[nH]5)C=C4)C=C3)cc1
REMARK SMILES IDX 23 1 22 2 21 3 19 4 20 5 18 7 13 8 14 9 15 11 17 12 16 13
REMARK SMILES IDX 12 14 10 15 9 16 11 18 8 19 3 20 4 21 5 22 7 23 6 24 2 25
REMARK SMILES IDX 1 26 24 27 25 28 26 29 27 30 28 32 29 33 30 34 94 35 31 36
REMARK SMILES IDX 93 37 32 38 33 39 34 40 87 41 35 42 92 43 86 44 88 45 36 46
REMARK SMILES IDX 91 47 85 48 84 49 37 51 71 52 50 53 70 54 51 55 54 56 69 57
REMARK SMILES IDX 89 58 52 59 53 60 68 62 90 63 55 64 38 65 39 66 48 67 40 68
REMARK SMILES IDX 41 69 47 70 49 71 42 72 43 73 44 74 45 75 46 76 72 77 73 78
REMARK SMILES IDX 82 79 74 80 75 81 81 82 83 83 76 84 77 85 78 86 79 87 80 88
REMARK SMILES IDX 56 89 57 90 66 91 58 92 59 93 65 94 67 95 60 96 61 97 62 98
REMARK SMILES IDX 63 99 64 100
REMARK H PARENT 21 6 13 10 9 17 26 31 88 50 54 61
REMARK Flexibility Score: inf
ROOT
ATOM      1  C   UNL A   1      38.330  22.115  25.585  1.00  0.00     0.023 C 
ENDROOT
BRANCH   1   2
ATOM      2  C   UNL A   1      37.340  23.242  25.868  1.00  0.00     0.116 C 
BRANCH   2   3
ATOM      3  N   UNL A   1      36.532  23.439  24.692  1.00  0.00    -0.351 N 
ATOM      4  C   UNL A   1      35.309  22.932  24.394  1.00  0.00     0.278 C 
ATOM      5  O   UNL A   1      35.035  22.901  23.193  1.00  0.00    -0.268 OA
ATOM      6  H   UNL A   1      36.924  24.027  24.005  1.00  0.00     0.163 HD
BRANCH   4   7
ATOM      7  C   UNL A   1      34.323  22.530  25.526  1.00  0.00     0.274 C 
ATOM      8  N   UNL A   1      32.910  22.758  25.158  1.00  0.00    -0.317 N 
ATOM      9  C   UNL A   1      32.453  21.909  24.050  1.00  0.00     0.263 C 
ATOM     10  H   UNL A   1      32.421  22.429  25.990  1.00  0.00     0.349 HD
ATOM     11  C   UNL A   1      32.752  20.415  24.287  1.00  0.00     0.062 C 
ATOM     12  C   UNL A   1      34.458  21.067  25.965  1.00  0.00     0.076 C 
ATOM     13  C   UNL A   1      34.155  20.136  24.808  1.00  0.00     0.012 C 
BRANCH   8  14
ATOM     14  C   UNL A   1      32.417  24.154  25.117  1.00  0.00     0.364 C 
BRANCH  14  15
ATOM     15  C   UNL A   1      31.497  24.663  26.235  1.00  0.00     0.279 C 
ATOM     16  N   UNL A   1      30.775  25.831  26.175  1.00  0.00    -0.320 N 
ATOM     17  H   UNL A   1      30.212  25.984  26.968  1.00  0.00     0.170 HD
ATOM     18  O   UNL A   1      31.390  24.004  27.280  1.00  0.00    -0.268 OA
BRANCH  16  19
ATOM     19  C   UNL A   1      30.670  26.861  25.210  1.00  0.00     0.059 A 
ATOM     20  C   UNL A   1      31.387  28.065  25.389  1.00  0.00     0.076 A 
ATOM     21  C   UNL A   1      31.105  29.183  24.582  1.00  0.00     0.021 A 
ATOM     22  C   UNL A   1      30.138  29.109  23.585  1.00  0.00     0.002 A 
ATOM     23  C   UNL A   1      29.821  26.769  24.104  1.00  0.00     0.027 A 
ATOM     24  C   UNL A   1      29.524  27.892  23.323  1.00  0.00     0.002 A 
BRANCH  20  25
ATOM     25  C   UNL A   1      32.302  28.261  26.473  1.00  0.00     0.101 C 
ATOM     26  N   UNL A   1      32.999  28.440  27.388  1.00  0.00    -0.192 NA
ENDBRANCH  20  25
ENDBRANCH  16  19
ENDBRANCH  14  15
ENDBRANCH   8  14
ENDBRANCH   4   7
ENDBRANCH   2   3
ENDBRANCH   1   2
BRANCH   1  27
ATOM     27  C   UNL A   1      39.555  22.166  26.510  1.00  0.00     0.023 C 
BRANCH  27  28
ATOM     28  C   UNL A   1      39.960  23.577  26.920  1.00  0.00     0.116 C 
BRANCH  28  29
ATOM     29  N   UNL A   1      40.966  24.119  26.019  1.00  0.00    -0.352 N 
ATOM     30  C   UNL A   1      41.466  25.394  25.976  1.00  0.00     0.251 C 
ATOM     31  H   UNL A   1      41.332  23.490  25.355  1.00  0.00     0.163 HD
ATOM     32  O   UNL A   1      42.108  25.771  25.003  1.00  0.00    -0.269 OA
BRANCH  30  33
ATOM     33  C   UNL A   1      41.212  26.292  27.116  1.00  0.00     0.039 A 
ATOM     34  C   UNL A   1      40.318  25.893  28.108  1.00  0.00     0.014 A 
ATOM     35  C   UNL A   1      41.881  27.517  27.206  1.00  0.00     0.014 A 
ATOM     36  C   UNL A   1      40.110  26.722  29.208  1.00  0.00     0.010 A 
ATOM     37  C   UNL A   1      41.747  28.291  28.349  1.00  0.00     0.010 A 
ATOM     38  C   UNL A   1      40.836  27.918  29.347  1.00  0.00    -0.014 A 
BRANCH  38  39
ATOM     39  C   UNL A   1      40.620  28.807  30.514  1.00  0.00     0.031 A 
ATOM     40  C   UNL A   1      41.487  28.665  31.737  1.00  0.00     0.074 A 
ATOM     41  C   UNL A   1      39.633  29.723  30.479  1.00  0.00     0.049 A 
ATOM     42  N   UNL A   1      41.471  29.358  32.845  1.00  0.00    -0.248 NA
ATOM     43  C   UNL A   1      42.489  27.585  31.725  1.00  0.00     0.031 C 
ATOM     44  C   UNL A   1      38.701  29.920  29.366  1.00  0.00     0.029 A 
ATOM     45  N   UNL A   1      39.254  30.666  31.400  1.00  0.00    -0.354 N 
ATOM     46  C   UNL A   1      42.444  28.793  33.662  1.00  0.00     0.074 A 
ATOM     47  C   UNL A   1      42.986  27.658  32.949  1.00  0.00     0.031 C 
ATOM     48  C   UNL A   1      37.892  30.952  29.648  1.00  0.00     0.029 A 
ATOM     49  C   UNL A   1      38.215  31.461  30.977  1.00  0.00     0.049 A 
ATOM     50  H   UNL A   1      39.685  30.764  32.279  1.00  0.00     0.167 HD
ATOM     51  C   UNL A   1      42.867  29.199  34.882  1.00  0.00     0.037 A 
ATOM     52  C   UNL A   1      37.595  32.485  31.594  1.00  0.00     0.037 A 
ATOM     53  C   UNL A   1      42.323  30.337  35.576  1.00  0.00     0.049 A 
ATOM     54  C   UNL A   1      38.067  32.902  32.962  1.00  0.00     0.074 A 
ATOM     55  C   UNL A   1      42.716  30.871  36.789  1.00  0.00     0.029 A 
ATOM     56  N   UNL A   1      41.260  31.108  35.125  1.00  0.00    -0.354 N 
ATOM     57  N   UNL A   1      39.044  32.410  33.686  1.00  0.00    -0.248 NA
ATOM     58  C   UNL A   1      37.357  34.023  33.591  1.00  0.00     0.031 C 
ATOM     59  C   UNL A   1      41.844  31.917  37.108  1.00  0.00     0.029 A 
ATOM     60  C   UNL A   1      40.960  32.091  36.054  1.00  0.00     0.049 A 
ATOM     61  H   UNL A   1      40.790  30.976  34.270  1.00  0.00     0.167 HD
ATOM     62  C   UNL A   1      39.093  33.187  34.839  1.00  0.00     0.074 A 
ATOM     63  C   UNL A   1      38.054  34.188  34.707  1.00  0.00     0.031 C 
ATOM     64  C   UNL A   1      39.925  33.085  35.907  1.00  0.00     0.037 A 
BRANCH  51  65
ATOM     65  C   UNL A   1      43.951  28.394  35.551  1.00  0.00     0.058 A 
ATOM     66  C   UNL A   1      45.316  28.662  35.343  1.00  0.00     0.135 A 
ATOM     67  C   UNL A   1      43.621  27.349  36.429  1.00  0.00     0.135 A 
ATOM     68  F   UNL A   1      45.695  29.637  34.503  1.00  0.00    -0.206 F 
ATOM     69  C   UNL A   1      46.309  27.897  35.947  1.00  0.00     0.059 A 
ATOM     70  C   UNL A   1      44.597  26.597  37.075  1.00  0.00     0.059 A 
ATOM     71  F   UNL A   1      42.335  27.047  36.668  1.00  0.00    -0.206 F 
ATOM     72  C   UNL A   1      45.940  26.866  36.812  1.00  0.00     0.060 A 
BRANCH  72  73
ATOM     73  S   UNL A   1      47.241  25.881  37.582  1.00  0.00     0.124 S 
ATOM     74  O   UNL A   1      47.507  26.646  38.796  1.00  0.00    -0.237 OA
ATOM     75  O   UNL A   1      46.581  24.594  37.777  1.00  0.00    -0.237 OA
ATOM     76  O   UNL A   1      48.311  25.891  36.589  1.00  0.00    -0.744 OA
ENDBRANCH  72  73
ENDBRANCH  51  65
BRANCH  52  77
ATOM     77  C   UNL A   1      36.491  33.212  30.910  1.00  0.00     0.058 A 
ATOM     78  C   UNL A   1      36.754  34.076  29.837  1.00  0.00     0.135 A 
ATOM     79  C   UNL A   1      35.153  33.055  31.308  1.00  0.00     0.135 A 
ATOM     80  F   UNL A   1      38.015  34.265  29.420  1.00  0.00    -0.206 F 
ATOM     81  C   UNL A   1      35.736  34.775  29.195  1.00  0.00     0.059 A 
ATOM     82  C   UNL A   1      34.115  33.717  30.661  1.00  0.00     0.059 A 
ATOM     83  F   UNL A   1      34.844  32.228  32.319  1.00  0.00    -0.206 F 
ATOM     84  C   UNL A   1      34.417  34.585  29.613  1.00  0.00     0.060 A 
BRANCH  84  85
ATOM     85  S   UNL A   1      33.102  35.463  28.742  1.00  0.00     0.124 S 
ATOM     86  O   UNL A   1      32.353  36.046  29.849  1.00  0.00    -0.237 OA
ATOM     87  O   UNL A   1      33.858  36.401  27.917  1.00  0.00    -0.237 OA
ATOM     88  O   UNL A   1      32.419  34.402  28.007  1.00  0.00    -0.744 OA
ENDBRANCH  84  85
ENDBRANCH  52  77
BRANCH  64  89
ATOM     89  C   UNL A   1      39.784  34.118  36.995  1.00  0.00     0.058 A 
ATOM     90  C   UNL A   1      39.023  33.887  38.153  1.00  0.00     0.135 A 
ATOM     91  C   UNL A   1      40.453  35.349  36.888  1.00  0.00     0.135 A 
ATOM     92  F   UNL A   1      38.359  32.730  38.307  1.00  0.00    -0.206 F 
ATOM     93  C   UNL A   1      38.895  34.856  39.143  1.00  0.00     0.059 A 
ATOM     94  C   UNL A   1      40.374  36.315  37.886  1.00  0.00     0.059 A 
ATOM     95  F   UNL A   1      41.208  35.619  35.811  1.00  0.00    -0.206 F 
ATOM     96  C   UNL A   1      39.576  36.066  39.000  1.00  0.00     0.060 A 
BRANCH  96  97
ATOM     97  S   UNL A   1      39.413  37.308  40.300  1.00  0.00     0.124 S 
ATOM     98  O   UNL A   1      38.656  36.578  41.312  1.00  0.00    -0.237 OA
ATOM     99  O   UNL A   1      40.805  37.594  40.632  1.00  0.00    -0.237 OA
ATOM    100  O   UNL A   1      38.694  38.396  39.644  1.00  0.00    -0.744 OA
ENDBRANCH  96  97
ENDBRANCH  64  89
ENDBRANCH  38  39
ENDBRANCH  30  33
ENDBRANCH  28  29
ENDBRANCH  27  28
ENDBRANCH   1  27
TORSDOF 18
ENDMDL
MODEL 2
REMARK VINA RESULT:     -11.8      6.115      8.347
REMARK SMILES N#Cc1ccccc1NC(=O)C[N@H+]1CCCC[C@H]1C(=O)NCCCCNC(=O)c1ccc(-c2c3nc(c(-c4c(F)cc(S(=O)(=O)[O-])cc4F)c4ccc([nH]4)c(-c4c(F)cc(S(=O)(=O)[O-])cc4F)c4nc(c(-c5c(F)cc(S(=O)(=O)[O-])cc5F)c5ccc2[nH]5)C=C4)C=C3)cc1
REMARK SMILES IDX 23 1 22 2 21 3 19 4 20 5 18 7 13 8 14 9 15 11 17 12 16 13
REMARK SMILES IDX 12 14 10 15 9 16 11 18 8 19 3 20 4 21 5 22 7 23 6 24 2 25
REMARK SMILES IDX 1 26 24 27 25 28 26 29 27 30 28 32 29 33 30 34 94 35 31 36
REMARK SMILES IDX 93 37 32 38 33 39 34 40 87 41 35 42 92 43 86 44 88 45 36 46
REMARK SMILES IDX 91 47 85 48 84 49 37 51 71 52 50 53 70 54 51 55 54 56 69 57
REMARK SMILES IDX 89 58 52 59 53 60 68 62 90 63 55 64 38 65 39 66 48 67 40 68
REMARK SMILES IDX 41 69 47 70 49 71 42 72 43 73 44 74 45 75 46 76 72 77 73 78
REMARK SMILES IDX 82 79 74 80 75 81 81 82 83 83 76 84 77 85 78 86 79 87 80 88
REMARK SMILES IDX 56 89 57 90 66 91 58 92 59 93 65 94 67 95 60 96 61 97 62 98
REMARK SMILES IDX 63 99 64 100
REMARK H PARENT 21 6 13 10 9 17 26 31 88 50 54 61
REMARK Flexibility Score: inf
ROOT
ATOM      1  C   UNL A   1      37.255  21.142  24.673  1.00  0.00     0.023 C 
ENDROOT
BRANCH   1   2
ATOM      2  C   UNL A   1      35.958  21.319  25.457  1.00  0.00     0.116 C 
BRANCH   2   3
ATOM      3  N   UNL A   1      34.853  21.160  24.547  1.00  0.00    -0.351 N 
ATOM      4  C   UNL A   1      33.671  21.824  24.505  1.00  0.00     0.278 C 
ATOM      5  O   UNL A   1      32.758  21.230  23.928  1.00  0.00    -0.268 OA
ATOM      6  H   UNL A   1      34.974  20.470  23.854  1.00  0.00     0.163 HD
BRANCH   4   7
ATOM      7  C   UNL A   1      33.555  23.269  25.068  1.00  0.00     0.274 C 
ATOM      8  N   UNL A   1      32.273  23.914  24.716  1.00  0.00    -0.317 N 
ATOM      9  C   UNL A   1      31.106  23.263  25.326  1.00  0.00     0.263 C 
ATOM     10  H   UNL A   1      32.364  24.822  25.172  1.00  0.00     0.349 HD
ATOM     11  C   UNL A   1      31.261  23.080  26.850  1.00  0.00     0.062 C 
ATOM     12  C   UNL A   1      33.712  23.348  26.590  1.00  0.00     0.076 C 
ATOM     13  C   UNL A   1      32.622  22.551  27.279  1.00  0.00     0.012 C 
BRANCH   8  14
ATOM     14  C   UNL A   1      32.077  24.359  23.317  1.00  0.00     0.364 C 
BRANCH  14  15
ATOM     15  C   UNL A   1      33.065  25.356  22.696  1.00  0.00     0.279 C 
ATOM     16  N   UNL A   1      33.349  26.595  23.217  1.00  0.00    -0.320 N 
ATOM     17  H   UNL A   1      34.032  27.086  22.706  1.00  0.00     0.170 HD
ATOM     18  O   UNL A   1      33.650  25.054  21.645  1.00  0.00    -0.268 OA
BRANCH  16  19
ATOM     19  C   UNL A   1      32.865  27.313  24.337  1.00  0.00     0.059 A 
ATOM     20  C   UNL A   1      31.744  28.161  24.195  1.00  0.00     0.076 A 
ATOM     21  C   UNL A   1      31.405  29.064  25.220  1.00  0.00     0.021 A 
ATOM     22  C   UNL A   1      32.154  29.116  26.392  1.00  0.00     0.002 A 
ATOM     23  C   UNL A   1      33.500  27.277  25.581  1.00  0.00     0.027 A 
ATOM     24  C   UNL A   1      33.177  28.197  26.586  1.00  0.00     0.002 A 
BRANCH  20  25
ATOM     25  C   UNL A   1      31.004  28.259  22.972  1.00  0.00     0.101 C 
ATOM     26  N   UNL A   1      30.361  28.300  22.003  1.00  0.00    -0.192 NA
ENDBRANCH  20  25
ENDBRANCH  16  19
ENDBRANCH  14  15
ENDBRANCH   8  14
ENDBRANCH   4   7
ENDBRANCH   2   3
ENDBRANCH   1   2
BRANCH   1  27
ATOM     27  C   UNL A   1      38.142  20.031  25.253  1.00  0.00     0.023 C 
BRANCH  27  28
ATOM     28  C   UNL A   1      39.382  20.544  25.973  1.00  0.00     0.116 C 
BRANCH  28  29
ATOM     29  N   UNL A   1      40.395  19.505  26.086  1.00  0.00    -0.352 N 
ATOM     30  C   UNL A   1      41.755  19.651  26.155  1.00  0.00     0.251 C 
ATOM     31  H   UNL A   1      40.059  18.580  26.117  1.00  0.00     0.163 HD
ATOM     32  O   UNL A   1      42.488  18.684  25.983  1.00  0.00    -0.269 OA
BRANCH  30  33
ATOM     33  C   UNL A   1      42.310  20.987  26.433  1.00  0.00     0.039 A 
ATOM     34  C   UNL A   1      42.558  21.854  25.370  1.00  0.00     0.014 A 
ATOM     35  C   UNL A   1      42.560  21.382  27.752  1.00  0.00     0.014 A 
ATOM     36  C   UNL A   1      43.040  23.134  25.636  1.00  0.00     0.010 A 
ATOM     37  C   UNL A   1      42.945  22.688  28.017  1.00  0.00     0.010 A 
ATOM     38  C   UNL A   1      43.220  23.567  26.961  1.00  0.00    -0.014 A 
BRANCH  38  39
ATOM     39  C   UNL A   1      43.734  24.927  27.253  1.00  0.00     0.031 A 
ATOM     40  C   UNL A   1      45.189  25.244  27.029  1.00  0.00     0.074 A 
ATOM     41  C   UNL A   1      42.898  25.865  27.737  1.00  0.00     0.049 A 
ATOM     42  N   UNL A   1      45.824  26.373  27.201  1.00  0.00    -0.248 NA
ATOM     43  C   UNL A   1      46.052  24.139  26.575  1.00  0.00     0.031 C 
ATOM     44  C   UNL A   1      41.479  25.660  28.038  1.00  0.00     0.029 A 
ATOM     45  N   UNL A   1      43.116  27.181  28.055  1.00  0.00    -0.354 N 
ATOM     46  C   UNL A   1      47.155  26.113  26.892  1.00  0.00     0.074 A 
ATOM     47  C   UNL A   1      47.248  24.703  26.585  1.00  0.00     0.031 C 
ATOM     48  C   UNL A   1      40.944  26.820  28.447  1.00  0.00     0.029 A 
ATOM     49  C   UNL A   1      41.988  27.839  28.484  1.00  0.00     0.049 A 
ATOM     50  H   UNL A   1      43.998  27.614  27.983  1.00  0.00     0.167 HD
ATOM     51  C   UNL A   1      48.197  26.975  26.841  1.00  0.00     0.037 A 
ATOM     52  C   UNL A   1      41.816  29.121  28.861  1.00  0.00     0.037 A 
ATOM     53  C   UNL A   1      48.086  28.378  27.140  1.00  0.00     0.049 A 
ATOM     54  C   UNL A   1      42.997  30.054  28.819  1.00  0.00     0.074 A 
ATOM     55  C   UNL A   1      49.064  29.353  27.064  1.00  0.00     0.029 A 
ATOM     56  N   UNL A   1      46.931  29.005  27.587  1.00  0.00    -0.354 N 
ATOM     57  N   UNL A   1      44.231  29.812  28.444  1.00  0.00    -0.248 NA
ATOM     58  C   UNL A   1      42.757  31.440  29.242  1.00  0.00     0.031 C 
ATOM     59  C   UNL A   1      48.522  30.552  27.536  1.00  0.00     0.029 A 
ATOM     60  C   UNL A   1      47.182  30.347  27.826  1.00  0.00     0.049 A 
ATOM     61  H   UNL A   1      46.061  28.562  27.714  1.00  0.00     0.167 HD
ATOM     62  C   UNL A   1      44.905  31.024  28.548  1.00  0.00     0.074 A 
ATOM     63  C   UNL A   1      43.937  31.998  29.008  1.00  0.00     0.031 C 
ATOM     64  C   UNL A   1      46.205  31.307  28.280  1.00  0.00     0.037 A 
BRANCH  51  65
ATOM     65  C   UNL A   1      49.548  26.419  26.470  1.00  0.00     0.058 A 
ATOM     66  C   UNL A   1      50.395  25.820  27.418  1.00  0.00     0.135 A 
ATOM     67  C   UNL A   1      49.996  26.470  25.139  1.00  0.00     0.135 A 
ATOM     68  F   UNL A   1      50.030  25.754  28.708  1.00  0.00    -0.206 F 
ATOM     69  C   UNL A   1      51.650  25.331  27.069  1.00  0.00     0.059 A 
ATOM     70  C   UNL A   1      51.231  25.953  24.761  1.00  0.00     0.059 A 
ATOM     71  F   UNL A   1      49.231  27.030  24.189  1.00  0.00    -0.206 F 
ATOM     72  C   UNL A   1      52.060  25.402  25.737  1.00  0.00     0.060 A 
BRANCH  72  73
ATOM     73  S   UNL A   1      53.694  24.769  25.303  1.00  0.00     0.124 S 
ATOM     74  O   UNL A   1      53.395  23.373  25.001  1.00  0.00    -0.237 OA
ATOM     75  O   UNL A   1      54.055  25.602  24.160  1.00  0.00    -0.237 OA
ATOM     76  O   UNL A   1      54.479  24.994  26.513  1.00  0.00    -0.744 OA
ENDBRANCH  72  73
ENDBRANCH  51  65
BRANCH  52  77
ATOM     77  C   UNL A   1      40.471  29.605  29.272  1.00  0.00     0.058 A 
ATOM     78  C   UNL A   1      39.459  29.815  28.322  1.00  0.00     0.135 A 
ATOM     79  C   UNL A   1      40.164  29.863  30.618  1.00  0.00     0.135 A 
ATOM     80  F   UNL A   1      39.702  29.588  27.022  1.00  0.00    -0.206 F 
ATOM     81  C   UNL A   1      38.200  30.282  28.686  1.00  0.00     0.059 A 
ATOM     82  C   UNL A   1      38.902  30.299  31.010  1.00  0.00     0.059 A 
ATOM     83  F   UNL A   1      41.089  29.664  31.569  1.00  0.00    -0.206 F 
ATOM     84  C   UNL A   1      37.930  30.517  30.035  1.00  0.00     0.060 A 
BRANCH  84  85
ATOM     85  S   UNL A   1      36.277  31.079  30.498  1.00  0.00     0.124 S 
ATOM     86  O   UNL A   1      36.537  32.454  30.906  1.00  0.00    -0.237 OA
ATOM     87  O   UNL A   1      35.539  30.910  29.250  1.00  0.00    -0.237 OA
ATOM     88  O   UNL A   1      35.899  30.163  31.570  1.00  0.00    -0.744 OA
ENDBRANCH  84  85
ENDBRANCH  52  77
BRANCH  64  89
ATOM     89  C   UNL A   1      46.646  32.741  28.425  1.00  0.00     0.058 A 
ATOM     90  C   UNL A   1      46.567  33.660  27.367  1.00  0.00     0.135 A 
ATOM     91  C   UNL A   1      47.125  33.208  29.661  1.00  0.00     0.135 A 
ATOM     92  F   UNL A   1      46.120  33.269  26.162  1.00  0.00    -0.206 F 
ATOM     93  C   UNL A   1      46.987  34.978  27.516  1.00  0.00     0.059 A 
ATOM     94  C   UNL A   1      47.511  34.532  29.844  1.00  0.00     0.059 A 
ATOM     95  F   UNL A   1      47.208  32.379  30.713  1.00  0.00    -0.206 F 
ATOM     96  C   UNL A   1      47.457  35.404  28.759  1.00  0.00     0.060 A 
BRANCH  96  97
ATOM     97  S   UNL A   1      47.985  37.120  28.942  1.00  0.00     0.124 S 
ATOM     98  O   UNL A   1      46.833  37.714  29.611  1.00  0.00    -0.237 OA
ATOM     99  O   UNL A   1      49.192  36.989  29.752  1.00  0.00    -0.237 OA
ATOM    100  O   UNL A   1      48.205  37.557  27.566  1.00  0.00    -0.744 OA
ENDBRANCH  96  97
ENDBRANCH  64  89
ENDBRANCH  38  39
ENDBRANCH  30  33
ENDBRANCH  28  29
ENDBRANCH  27  28
ENDBRANCH   1  27
TORSDOF 18
ENDMDL
MODEL 3
REMARK VINA RESULT:     -11.8      6.364     12.005
REMARK SMILES N#Cc1ccccc1NC(=O)C[N@H+]1CCCC[C@H]1C(=O)NCCCCNC(=O)c1ccc(-c2c3nc(c(-c4c(F)cc(S(=O)(=O)[O-])cc4F)c4ccc([nH]4)c(-c4c(F)cc(S(=O)(=O)[O-])cc4F)c4nc(c(-c5c(F)cc(S(=O)(=O)[O-])cc5F)c5ccc2[nH]5)C=C4)C=C3)cc1
REMARK SMILES IDX 23 1 22 2 21 3 19 4 20 5 18 7 13 8 14 9 15 11 17 12 16 13
REMARK SMILES IDX 12 14 10 15 9 16 11 18 8 19 3 20 4 21 5 22 7 23 6 24 2 25
REMARK SMILES IDX 1 26 24 27 25 28 26 29 27 30 28 32 29 33 30 34 94 35 31 36
REMARK SMILES IDX 93 37 32 38 33 39 34 40 87 41 35 42 92 43 86 44 88 45 36 46
REMARK SMILES IDX 91 47 85 48 84 49 37 51 71 52 50 53 70 54 51 55 54 56 69 57
REMARK SMILES IDX 89 58 52 59 53 60 68 62 90 63 55 64 38 65 39 66 48 67 40 68
REMARK SMILES IDX 41 69 47 70 49 71 42 72 43 73 44 74 45 75 46 76 72 77 73 78
REMARK SMILES IDX 82 79 74 80 75 81 81 82 83 83 76 84 77 85 78 86 79 87 80 88
REMARK SMILES IDX 56 89 57 90 66 91 58 92 59 93 65 94 67 95 60 96 61 97 62 98
REMARK SMILES IDX 63 99 64 100
REMARK H PARENT 21 6 13 10 9 17 26 31 88 50 54 61
REMARK Flexibility Score: inf
ROOT
ATOM      1  C   UNL A   1      34.781  30.469  27.809  1.00  0.00     0.023 C 
ENDROOT
BRANCH   1   2
ATOM      2  C   UNL A   1      33.527  30.250  26.966  1.00  0.00     0.116 C 
BRANCH   2   3
ATOM      3  N   UNL A   1      32.697  29.280  27.633  1.00  0.00    -0.351 N 
ATOM      4  C   UNL A   1      32.063  28.195  27.123  1.00  0.00     0.278 C 
ATOM      5  O   UNL A   1      31.104  27.792  27.783  1.00  0.00    -0.268 OA
ATOM      6  H   UNL A   1      32.573  29.426  28.599  1.00  0.00     0.163 HD
BRANCH   4   7
ATOM      7  C   UNL A   1      32.607  27.487  25.850  1.00  0.00     0.274 C 
ATOM      8  N   UNL A   1      31.884  26.235  25.543  1.00  0.00    -0.317 N 
ATOM      9  C   UNL A   1      30.476  26.450  25.184  1.00  0.00     0.263 C 
ATOM     10  H   UNL A   1      32.351  25.928  24.691  1.00  0.00     0.349 HD
ATOM     11  C   UNL A   1      30.303  27.503  24.072  1.00  0.00     0.062 C 
ATOM     12  C   UNL A   1      32.568  28.366  24.596  1.00  0.00     0.076 C 
ATOM     13  C   UNL A   1      31.141  28.759  24.267  1.00  0.00     0.012 C 
BRANCH   8  14
ATOM     14  C   UNL A   1      32.135  25.056  26.402  1.00  0.00     0.364 C 
BRANCH  14  15
ATOM     15  C   UNL A   1      31.957  23.646  25.822  1.00  0.00     0.279 C 
ATOM     16  N   UNL A   1      32.976  22.888  25.298  1.00  0.00    -0.320 N 
ATOM     17  H   UNL A   1      32.685  21.995  25.001  1.00  0.00     0.170 HD
ATOM     18  O   UNL A   1      30.826  23.138  25.799  1.00  0.00    -0.268 OA
BRANCH  16  19
ATOM     19  C   UNL A   1      34.357  23.122  25.094  1.00  0.00     0.059 A 
ATOM     20  C   UNL A   1      34.854  23.287  23.782  1.00  0.00     0.076 A 
ATOM     21  C   UNL A   1      36.241  23.271  23.544  1.00  0.00     0.021 A 
ATOM     22  C   UNL A   1      37.137  23.117  24.597  1.00  0.00     0.002 A 
ATOM     23  C   UNL A   1      35.279  23.128  26.144  1.00  0.00     0.027 A 
ATOM     24  C   UNL A   1      36.656  23.083  25.899  1.00  0.00     0.002 A 
BRANCH  20  25
ATOM     25  C   UNL A   1      33.998  23.321  22.634  1.00  0.00     0.101 C 
ATOM     26  N   UNL A   1      33.260  23.379  21.735  1.00  0.00    -0.192 NA
ENDBRANCH  20  25
ENDBRANCH  16  19
ENDBRANCH  14  15
ENDBRANCH   8  14
ENDBRANCH   4   7
ENDBRANCH   2   3
ENDBRANCH   1   2
BRANCH   1  27
ATOM     27  C   UNL A   1      35.132  31.956  27.960  1.00  0.00     0.023 C 
BRANCH  27  28
ATOM     28  C   UNL A   1      36.296  32.221  28.907  1.00  0.00     0.116 C 
BRANCH  28  29
ATOM     29  N   UNL A   1      36.025  31.693  30.236  1.00  0.00    -0.352 N 
ATOM     30  C   UNL A   1      36.678  30.687  30.897  1.00  0.00     0.251 C 
ATOM     31  H   UNL A   1      35.278  32.113  30.721  1.00  0.00     0.163 HD
ATOM     32  O   UNL A   1      36.177  30.177  31.892  1.00  0.00    -0.269 OA
BRANCH  30  33
ATOM     33  C   UNL A   1      37.983  30.233  30.384  1.00  0.00     0.039 A 
ATOM     34  C   UNL A   1      38.166  30.113  29.007  1.00  0.00     0.014 A 
ATOM     35  C   UNL A   1      39.026  29.952  31.272  1.00  0.00     0.014 A 
ATOM     36  C   UNL A   1      39.413  29.728  28.519  1.00  0.00     0.010 A 
ATOM     37  C   UNL A   1      40.291  29.665  30.778  1.00  0.00     0.010 A 
ATOM     38  C   UNL A   1      40.489  29.519  29.399  1.00  0.00    -0.014 A 
BRANCH  38  39
ATOM     39  C   UNL A   1      41.819  29.106  28.888  1.00  0.00     0.031 A 
ATOM     40  C   UNL A   1      42.946  30.103  28.836  1.00  0.00     0.074 A 
ATOM     41  C   UNL A   1      42.002  27.845  28.453  1.00  0.00     0.049 A 
ATOM     42  N   UNL A   1      44.182  29.932  28.446  1.00  0.00    -0.248 NA
ATOM     43  C   UNL A   1      42.639  31.482  29.254  1.00  0.00     0.031 C 
ATOM     44  C   UNL A   1      40.970  26.805  28.413  1.00  0.00     0.029 A 
ATOM     45  N   UNL A   1      43.122  27.218  27.969  1.00  0.00    -0.354 N 
ATOM     46  C   UNL A   1      44.792  31.176  28.559  1.00  0.00     0.074 A 
ATOM     47  C   UNL A   1      43.774  32.108  28.989  1.00  0.00     0.031 C 
ATOM     48  C   UNL A   1      41.518  25.659  27.979  1.00  0.00     0.029 A 
ATOM     49  C   UNL A   1      42.924  25.892  27.667  1.00  0.00     0.049 A 
ATOM     50  H   UNL A   1      43.986  27.675  27.851  1.00  0.00     0.167 HD
ATOM     51  C   UNL A   1      46.088  31.507  28.349  1.00  0.00     0.037 A 
ATOM     52  C   UNL A   1      43.782  24.968  27.192  1.00  0.00     0.037 A 
ATOM     53  C   UNL A   1      47.092  30.565  27.928  1.00  0.00     0.049 A 
ATOM     54  C   UNL A   1      45.213  25.367  26.943  1.00  0.00     0.074 A 
ATOM     55  C   UNL A   1      48.446  30.779  27.742  1.00  0.00     0.029 A 
ATOM     56  N   UNL A   1      46.851  29.235  27.615  1.00  0.00    -0.354 N 
ATOM     57  N   UNL A   1      45.794  26.527  27.134  1.00  0.00    -0.248 NA
ATOM     58  C   UNL A   1      46.107  24.324  26.425  1.00  0.00     0.031 C 
ATOM     59  C   UNL A   1      49.009  29.600  27.244  1.00  0.00     0.029 A 
ATOM     60  C   UNL A   1      48.025  28.625  27.201  1.00  0.00     0.049 A 
ATOM     61  H   UNL A   1      45.975  28.790  27.679  1.00  0.00     0.167 HD
ATOM     62  C   UNL A   1      47.131  26.344  26.796  1.00  0.00     0.074 A 
ATOM     63  C   UNL A   1      47.272  24.957  26.403  1.00  0.00     0.031 C 
ATOM     64  C   UNL A   1      48.151  27.240  26.816  1.00  0.00     0.037 A 
BRANCH  51  65
ATOM     65  C   UNL A   1      46.485  32.947  28.548  1.00  0.00     0.058 A 
ATOM     66  C   UNL A   1      47.010  33.415  29.765  1.00  0.00     0.135 A 
ATOM     67  C   UNL A   1      46.353  33.871  27.499  1.00  0.00     0.135 A 
ATOM     68  F   UNL A   1      47.145  32.584  30.810  1.00  0.00    -0.206 F 
ATOM     69  C   UNL A   1      47.351  34.752  29.945  1.00  0.00     0.059 A 
ATOM     70  C   UNL A   1      46.724  35.204  27.645  1.00  0.00     0.059 A 
ATOM     71  F   UNL A   1      45.858  33.483  26.314  1.00  0.00    -0.206 F 
ATOM     72  C   UNL A   1      47.204  35.640  28.879  1.00  0.00     0.060 A 
BRANCH  72  73
ATOM     73  S   UNL A   1      47.646  37.371  29.134  1.00  0.00     0.124 S 
ATOM     74  O   UNL A   1      48.795  37.513  28.245  1.00  0.00    -0.237 OA
ATOM     75  O   UNL A   1      46.432  38.065  28.715  1.00  0.00    -0.237 OA
ATOM     76  O   UNL A   1      47.945  37.442  30.560  1.00  0.00    -0.744 OA
ENDBRANCH  72  73
ENDBRANCH  51  65
BRANCH  52  77
ATOM     77  C   UNL A   1      43.324  23.572  26.960  1.00  0.00     0.058 A 
ATOM     78  C   UNL A   1      43.061  23.105  25.663  1.00  0.00     0.135 A 
ATOM     79  C   UNL A   1      43.146  22.673  28.024  1.00  0.00     0.135 A 
ATOM     80  F   UNL A   1      43.211  23.925  24.612  1.00  0.00    -0.206 F 
ATOM     81  C   UNL A   1      42.618  21.807  25.429  1.00  0.00     0.059 A 
ATOM     82  C   UNL A   1      42.735  21.360  27.813  1.00  0.00     0.059 A 
ATOM     83  F   UNL A   1      43.399  23.061  29.284  1.00  0.00    -0.206 F 
ATOM     84  C   UNL A   1      42.463  20.940  26.512  1.00  0.00     0.060 A 
BRANCH  84  85
ATOM     85  S   UNL A   1      41.931  19.245  26.189  1.00  0.00     0.124 S 
ATOM     86  O   UNL A   1      40.503  19.425  25.948  1.00  0.00    -0.237 OA
ATOM     87  O   UNL A   1      42.736  18.891  25.024  1.00  0.00    -0.237 OA
ATOM     88  O   UNL A   1      42.279  18.543  27.421  1.00  0.00    -0.744 OA
ENDBRANCH  84  85
ENDBRANCH  52  77
BRANCH  64  89
ATOM     89  C   UNL A   1      49.523  26.734  26.454  1.00  0.00     0.058 A 
ATOM     90  C   UNL A   1      50.364  26.112  27.390  1.00  0.00     0.135 A 
ATOM     91  C   UNL A   1      49.988  26.847  25.132  1.00  0.00     0.135 A 
ATOM     92  F   UNL A   1      49.974  25.979  28.668  1.00  0.00    -0.206 F 
ATOM     93  C   UNL A   1      51.633  25.660  27.040  1.00  0.00     0.059 A 
ATOM     94  C   UNL A   1      51.236  26.365  24.751  1.00  0.00     0.059 A 
ATOM     95  F   UNL A   1      49.221  27.419  24.190  1.00  0.00    -0.206 F 
ATOM     96  C   UNL A   1      52.058  25.790  25.717  1.00  0.00     0.060 A 
BRANCH  96  97
ATOM     97  S   UNL A   1      53.701  25.187  25.274  1.00  0.00     0.124 S 
ATOM     98  O   UNL A   1      53.511  23.741  25.341  1.00  0.00    -0.237 OA
ATOM     99  O   UNL A   1      53.885  25.741  23.936  1.00  0.00    -0.237 OA
ATOM    100  O   UNL A   1      54.562  25.754  26.307  1.00  0.00    -0.744 OA
ENDBRANCH  96  97
ENDBRANCH  64  89
ENDBRANCH  38  39
ENDBRANCH  30  33
ENDBRANCH  28  29
ENDBRANCH  27  28
ENDBRANCH   1  27
TORSDOF 18
ENDMDL
