MODEL 1
REMARK VINA RESULT:     -11.6      0.000      0.000
REMARK SMILES CC1(C)CCCC[C@@]1(C(=O)NCCCCNC(=O)c1ccc(-c2c3nc(c(-c4c(F)cc(S(=O)(=O)[O-])cc4F)c4ccc([nH]4)c(-c4c(F)cc(S(=O)(=O)[O-])cc4F)c4nc(c(-c5c(F)cc(S(=O)(=O)[O-])cc5F)c5ccc2[nH]5)C=C4)C=C3)cc1)[NH+]1CC[NH2+]CC1
REMARK SMILES IDX 14 1 13 2 12 3 11 4 9 5 10 6 8 8 1 9 2 10 3 11 4 12 5 13
REMARK SMILES IDX 7 14 6 15 85 16 86 17 90 18 87 20 89 21 88 22 15 25 16 26
REMARK SMILES IDX 17 27 18 29 19 30 20 31 84 32 21 33 83 34 22 35 23 36 24 37
REMARK SMILES IDX 77 38 25 39 82 40 76 41 78 42 26 43 81 44 75 45 74 46 27 48
REMARK SMILES IDX 61 49 40 50 60 51 41 52 44 53 59 54 79 55 42 56 43 57 58 59
REMARK SMILES IDX 80 60 45 61 28 62 29 63 38 64 30 65 31 66 37 67 39 68 32 69
REMARK SMILES IDX 33 70 34 71 35 72 36 73 62 74 63 75 72 76 64 77 65 78 71 79
REMARK SMILES IDX 73 80 66 81 67 82 68 83 69 84 70 85 46 86 47 87 56 88 48 89
REMARK SMILES IDX 49 90 55 91 57 92 50 93 51 94 52 95 53 96 54 97
REMARK H PARENT 11 7 85 19 88 23 88 24 16 28 78 47 44 58
REMARK Flexibility Score: inf
ROOT
ATOM      1  C   UNL A   1      31.932  28.243  27.184  1.00  0.00     0.023 C 
ENDROOT
BRANCH   1   2
ATOM      2  C   UNL A   1      31.848  26.760  26.864  1.00  0.00     0.023 C 
BRANCH   2   3
ATOM      3  C   UNL A   1      30.720  26.342  25.917  1.00  0.00     0.116 C 
BRANCH   3   4
ATOM      4  N   UNL A   1      30.585  24.906  25.795  1.00  0.00    -0.351 N 
ATOM      5  C   UNL A   1      31.279  23.880  25.252  1.00  0.00     0.281 C 
ATOM      6  O   UNL A   1      30.647  22.808  25.372  1.00  0.00    -0.268 OA
ATOM      7  H   UNL A   1      29.760  24.589  26.228  1.00  0.00     0.163 HD
BRANCH   5   8
ATOM      8  C   UNL A   1      32.770  23.833  24.569  1.00  0.00     0.182 C 
ATOM      9  C   UNL A   1      34.876  22.256  23.849  1.00  0.00     0.018 C 
ATOM     10  C   UNL A   1      33.335  22.390  24.132  1.00  0.00     0.029 C 
ATOM     11  C   UNL A   1      32.696  21.921  22.797  1.00  0.00     0.018 C 
ATOM     12  C   UNL A   1      33.115  21.427  25.333  1.00  0.00     0.013 C 
ATOM     13  C   UNL A   1      33.870  21.877  26.592  1.00  0.00     0.001 C 
ATOM     14  C   UNL A   1      33.678  24.317  25.762  1.00  0.00     0.080 C 
ATOM     15  C   UNL A   1      33.637  23.343  26.957  1.00  0.00     0.007 C 
BRANCH   8  16
ATOM     16  N   UNL A   1      32.772  24.810  23.400  1.00  0.00    -0.313 N 
ATOM     17  C   UNL A   1      33.542  26.052  23.592  1.00  0.00     0.325 C 
ATOM     18  C   UNL A   1      31.431  25.198  22.884  1.00  0.00     0.325 C 
ATOM     19  H   UNL A   1      33.247  24.229  22.708  1.00  0.00     0.349 HD
ATOM     20  C   UNL A   1      33.647  26.879  22.292  1.00  0.00     0.322 C 
ATOM     21  C   UNL A   1      31.489  26.127  21.640  1.00  0.00     0.322 C 
ATOM     22  N   UNL A   1      32.333  27.322  21.812  1.00  0.00    -0.337 N 
ATOM     23  H   UNL A   1      32.434  27.806  20.920  1.00  0.00     0.346 HD
ATOM     24  H   UNL A   1      31.909  27.965  22.480  1.00  0.00     0.346 HD
ENDBRANCH   8  16
ENDBRANCH   5   8
ENDBRANCH   3   4
ENDBRANCH   2   3
ENDBRANCH   1   2
BRANCH   1  25
ATOM     25  C   UNL A   1      33.338  28.811  27.329  1.00  0.00     0.116 C 
BRANCH  25  26
ATOM     26  N   UNL A   1      33.390  30.189  27.804  1.00  0.00    -0.352 N 
ATOM     27  C   UNL A   1      34.470  30.873  28.320  1.00  0.00     0.251 C 
ATOM     28  H   UNL A   1      32.548  30.694  27.750  1.00  0.00     0.163 HD
ATOM     29  O   UNL A   1      34.353  32.026  28.713  1.00  0.00    -0.269 OA
BRANCH  27  30
ATOM     30  C   UNL A   1      35.756  30.158  28.443  1.00  0.00     0.039 A 
ATOM     31  C   UNL A   1      36.622  30.138  27.348  1.00  0.00     0.014 A 
ATOM     32  C   UNL A   1      36.153  29.640  29.678  1.00  0.00     0.014 A 
ATOM     33  C   UNL A   1      37.933  29.693  27.524  1.00  0.00     0.010 A 
ATOM     34  C   UNL A   1      37.481  29.289  29.870  1.00  0.00     0.010 A 
ATOM     35  C   UNL A   1      38.389  29.323  28.800  1.00  0.00    -0.014 A 
BRANCH  35  36
ATOM     36  C   UNL A   1      39.813  28.983  29.049  1.00  0.00     0.031 A 
ATOM     37  C   UNL A   1      40.741  30.026  29.605  1.00  0.00     0.074 A 
ATOM     38  C   UNL A   1      40.288  27.774  28.686  1.00  0.00     0.049 A 
ATOM     39  N   UNL A   1      42.035  29.970  29.780  1.00  0.00    -0.248 NA
ATOM     40  C   UNL A   1      40.141  31.318  29.972  1.00  0.00     0.031 C 
ATOM     41  C   UNL A   1      39.502  26.700  28.070  1.00  0.00     0.029 A 
ATOM     42  N   UNL A   1      41.552  27.248  28.769  1.00  0.00    -0.354 N 
ATOM     43  C   UNL A   1      42.407  31.224  30.246  1.00  0.00     0.074 A 
ATOM     44  C   UNL A   1      41.210  32.037  30.277  1.00  0.00     0.031 C 
ATOM     45  C   UNL A   1      40.296  25.638  27.858  1.00  0.00     0.029 A 
ATOM     46  C   UNL A   1      41.652  25.963  28.288  1.00  0.00     0.049 A 
ATOM     47  H   UNL A   1      42.318  27.744  29.139  1.00  0.00     0.167 HD
ATOM     48  C   UNL A   1      43.629  31.654  30.641  1.00  0.00     0.037 A 
ATOM     49  C   UNL A   1      42.716  25.141  28.204  1.00  0.00     0.037 A 
ATOM     50  C   UNL A   1      44.803  30.825  30.661  1.00  0.00     0.049 A 
ATOM     51  C   UNL A   1      44.053  25.621  28.699  1.00  0.00     0.074 A 
ATOM     52  C   UNL A   1      46.074  31.142  31.111  1.00  0.00     0.029 A 
ATOM     53  N   UNL A   1      44.849  29.509  30.224  1.00  0.00    -0.354 N 
ATOM     54  N   UNL A   1      44.374  26.794  29.192  1.00  0.00    -0.248 NA
ATOM     55  C   UNL A   1      45.169  24.668  28.634  1.00  0.00     0.031 C 
ATOM     56  C   UNL A   1      46.893  30.023  30.925  1.00  0.00     0.029 A 
ATOM     57  C   UNL A   1      46.125  29.000  30.390  1.00  0.00     0.049 A 
ATOM     58  H   UNL A   1      44.087  29.012  29.851  1.00  0.00     0.167 HD
ATOM     59  C   UNL A   1      45.722  26.711  29.520  1.00  0.00     0.074 A 
ATOM     60  C   UNL A   1      46.154  25.371  29.176  1.00  0.00     0.031 C 
ATOM     61  C   UNL A   1      46.530  27.658  30.055  1.00  0.00     0.037 A 
BRANCH  48  62
ATOM     62  C   UNL A   1      43.743  33.080  31.099  1.00  0.00     0.058 A 
ATOM     63  C   UNL A   1      44.152  34.101  30.224  1.00  0.00     0.135 A 
ATOM     64  C   UNL A   1      43.437  33.434  32.422  1.00  0.00     0.135 A 
ATOM     65  F   UNL A   1      44.476  33.812  28.954  1.00  0.00    -0.206 F 
ATOM     66  C   UNL A   1      44.287  35.415  30.655  1.00  0.00     0.059 A 
ATOM     67  C   UNL A   1      43.538  34.749  32.867  1.00  0.00     0.059 A 
ATOM     68  F   UNL A   1      43.043  32.497  33.298  1.00  0.00    -0.206 F 
ATOM     69  C   UNL A   1      43.983  35.729  31.980  1.00  0.00     0.060 A 
BRANCH  69  70
ATOM     70  S   UNL A   1      44.170  37.438  32.528  1.00  0.00     0.124 S 
ATOM     71  O   UNL A   1      45.586  37.476  32.880  1.00  0.00    -0.237 OA
ATOM     72  O   UNL A   1      43.794  38.194  31.338  1.00  0.00    -0.237 OA
ATOM     73  O   UNL A   1      43.240  37.538  33.649  1.00  0.00    -0.744 OA
ENDBRANCH  69  70
ENDBRANCH  48  62
BRANCH  49  74
ATOM     74  C   UNL A   1      42.553  23.765  27.664  1.00  0.00     0.058 A 
ATOM     75  C   UNL A   1      42.370  22.675  28.528  1.00  0.00     0.135 A 
ATOM     76  C   UNL A   1      42.562  23.513  26.285  1.00  0.00     0.135 A 
ATOM     77  F   UNL A   1      42.361  22.867  29.856  1.00  0.00    -0.206 F 
ATOM     78  C   UNL A   1      42.217  21.380  28.045  1.00  0.00     0.059 A 
ATOM     79  C   UNL A   1      42.390  22.228  25.776  1.00  0.00     0.059 A 
ATOM     80  F   UNL A   1      42.715  24.525  25.417  1.00  0.00    -0.206 F 
ATOM     81  C   UNL A   1      42.226  21.166  26.665  1.00  0.00     0.060 A 
BRANCH  81  82
ATOM     82  S   UNL A   1      41.974  19.488  26.045  1.00  0.00     0.124 S 
ATOM     83  O   UNL A   1      40.546  19.497  25.750  1.00  0.00    -0.237 OA
ATOM     84  O   UNL A   1      42.864  19.450  24.889  1.00  0.00    -0.237 OA
ATOM     85  O   UNL A   1      42.385  18.653  27.169  1.00  0.00    -0.744 OA
ENDBRANCH  81  82
ENDBRANCH  49  74
BRANCH  61  86
ATOM     86  C   UNL A   1      47.952  27.273  30.339  1.00  0.00     0.058 A 
ATOM     87  C   UNL A   1      48.971  27.483  29.399  1.00  0.00     0.135 A 
ATOM     88  C   UNL A   1      48.308  26.745  31.590  1.00  0.00     0.135 A 
ATOM     89  F   UNL A   1      48.679  27.979  28.186  1.00  0.00    -0.206 F 
ATOM     90  C   UNL A   1      50.295  27.168  29.683  1.00  0.00     0.059 A 
ATOM     91  C   UNL A   1      49.628  26.443  31.904  1.00  0.00     0.059 A 
ATOM     92  F   UNL A   1      47.369  26.535  32.527  1.00  0.00    -0.206 F 
ATOM     93  C   UNL A   1      50.615  26.650  30.940  1.00  0.00     0.060 A 
BRANCH  93  94
ATOM     94  S   UNL A   1      52.342  26.286  31.316  1.00  0.00     0.124 S 
ATOM     95  O   UNL A   1      52.927  26.228  29.981  1.00  0.00    -0.237 OA
ATOM     96  O   UNL A   1      52.735  27.431  32.131  1.00  0.00    -0.237 OA
ATOM     97  O   UNL A   1      52.272  25.014  32.029  1.00  0.00    -0.744 OA
ENDBRANCH  93  94
ENDBRANCH  61  86
ENDBRANCH  35  36
ENDBRANCH  27  30
ENDBRANCH  25  26
ENDBRANCH   1  25
TORSDOF 15
ENDMDL
MODEL 2
REMARK VINA RESULT:     -11.6      3.014      4.151
REMARK SMILES CC1(C)CCCC[C@@]1(C(=O)NCCCCNC(=O)c1ccc(-c2c3nc(c(-c4c(F)cc(S(=O)(=O)[O-])cc4F)c4ccc([nH]4)c(-c4c(F)cc(S(=O)(=O)[O-])cc4F)c4nc(c(-c5c(F)cc(S(=O)(=O)[O-])cc5F)c5ccc2[nH]5)C=C4)C=C3)cc1)[NH+]1CC[NH2+]CC1
REMARK SMILES IDX 14 1 13 2 12 3 11 4 9 5 10 6 8 8 1 9 2 10 3 11 4 12 5 13
REMARK SMILES IDX 7 14 6 15 85 16 86 17 90 18 87 20 89 21 88 22 15 25 16 26
REMARK SMILES IDX 17 27 18 29 19 30 20 31 84 32 21 33 83 34 22 35 23 36 24 37
REMARK SMILES IDX 77 38 25 39 82 40 76 41 78 42 26 43 81 44 75 45 74 46 27 48
REMARK SMILES IDX 61 49 40 50 60 51 41 52 44 53 59 54 79 55 42 56 43 57 58 59
REMARK SMILES IDX 80 60 45 61 28 62 29 63 38 64 30 65 31 66 37 67 39 68 32 69
REMARK SMILES IDX 33 70 34 71 35 72 36 73 62 74 63 75 72 76 64 77 65 78 71 79
REMARK SMILES IDX 73 80 66 81 67 82 68 83 69 84 70 85 46 86 47 87 56 88 48 89
REMARK SMILES IDX 49 90 55 91 57 92 50 93 51 94 52 95 53 96 54 97
REMARK H PARENT 11 7 85 19 88 23 88 24 16 28 78 47 44 58
REMARK Flexibility Score: inf
ROOT
ATOM      1  C   UNL A   1      35.320  31.527  27.626  1.00  0.00     0.023 C 
ENDROOT
BRANCH   1   2
ATOM      2  C   UNL A   1      34.744  30.121  27.610  1.00  0.00     0.023 C 
BRANCH   2   3
ATOM      3  C   UNL A   1      33.430  29.944  26.844  1.00  0.00     0.116 C 
BRANCH   3   4
ATOM      4  N   UNL A   1      33.625  29.716  25.429  1.00  0.00    -0.351 N 
ATOM      5  C   UNL A   1      33.179  28.855  24.486  1.00  0.00     0.281 C 
ATOM      6  O   UNL A   1      33.750  29.063  23.393  1.00  0.00    -0.268 OA
ATOM      7  H   UNL A   1      34.255  30.367  25.047  1.00  0.00     0.163 HD
BRANCH   5   8
ATOM      8  C   UNL A   1      32.016  27.699  24.549  1.00  0.00     0.182 C 
ATOM      9  C   UNL A   1      31.089  25.495  25.862  1.00  0.00     0.018 C 
ATOM     10  C   UNL A   1      31.903  26.840  25.906  1.00  0.00     0.029 C 
ATOM     11  C   UNL A   1      31.179  27.646  27.018  1.00  0.00     0.018 C 
ATOM     12  C   UNL A   1      33.339  26.369  26.273  1.00  0.00     0.013 C 
ATOM     13  C   UNL A   1      33.957  25.475  25.189  1.00  0.00     0.001 C 
ATOM     14  C   UNL A   1      32.506  26.698  23.436  1.00  0.00     0.080 C 
ATOM     15  C   UNL A   1      33.868  26.064  23.781  1.00  0.00     0.007 C 
BRANCH   8  16
ATOM     16  N   UNL A   1      30.690  28.361  24.196  1.00  0.00    -0.313 N 
ATOM     17  C   UNL A   1      29.931  27.749  23.091  1.00  0.00     0.325 C 
ATOM     18  C   UNL A   1      30.753  29.824  23.929  1.00  0.00     0.325 C 
ATOM     19  H   UNL A   1      30.192  28.196  25.071  1.00  0.00     0.349 HD
ATOM     20  C   UNL A   1      28.522  28.363  22.941  1.00  0.00     0.322 C 
ATOM     21  C   UNL A   1      29.364  30.467  23.658  1.00  0.00     0.322 C 
ATOM     22  N   UNL A   1      28.575  29.792  22.613  1.00  0.00    -0.337 N 
ATOM     23  H   UNL A   1      27.632  30.178  22.587  1.00  0.00     0.346 HD
ATOM     24  H   UNL A   1      29.004  29.931  21.698  1.00  0.00     0.346 HD
ENDBRANCH   8  16
ENDBRANCH   5   8
ENDBRANCH   3   4
ENDBRANCH   2   3
ENDBRANCH   1   2
BRANCH   1  25
ATOM     25  C   UNL A   1      35.972  31.960  28.933  1.00  0.00     0.116 C 
BRANCH  25  26
ATOM     26  N   UNL A   1      35.738  31.059  30.055  1.00  0.00    -0.352 N 
ATOM     27  C   UNL A   1      36.640  30.225  30.682  1.00  0.00     0.251 C 
ATOM     28  H   UNL A   1      34.821  31.043  30.410  1.00  0.00     0.163 HD
ATOM     29  O   UNL A   1      36.287  29.494  31.597  1.00  0.00    -0.269 OA
BRANCH  27  30
ATOM     30  C   UNL A   1      38.028  30.193  30.179  1.00  0.00     0.039 A 
ATOM     31  C   UNL A   1      39.077  30.252  31.097  1.00  0.00     0.014 A 
ATOM     32  C   UNL A   1      38.274  29.962  28.824  1.00  0.00     0.014 A 
ATOM     33  C   UNL A   1      40.375  29.969  30.668  1.00  0.00     0.010 A 
ATOM     34  C   UNL A   1      39.549  29.590  28.421  1.00  0.00     0.010 A 
ATOM     35  C   UNL A   1      40.611  29.577  29.340  1.00  0.00    -0.014 A 
BRANCH  35  36
ATOM     36  C   UNL A   1      41.953  29.132  28.886  1.00  0.00     0.031 A 
ATOM     37  C   UNL A   1      43.073  30.129  28.785  1.00  0.00     0.074 A 
ATOM     38  C   UNL A   1      42.135  27.860  28.476  1.00  0.00     0.049 A 
ATOM     39  N   UNL A   1      44.277  29.971  28.300  1.00  0.00    -0.248 NA
ATOM     40  C   UNL A   1      42.789  31.495  29.252  1.00  0.00     0.031 C 
ATOM     41  C   UNL A   1      41.106  26.815  28.458  1.00  0.00     0.029 A 
ATOM     42  N   UNL A   1      43.249  27.231  27.980  1.00  0.00    -0.354 N 
ATOM     43  C   UNL A   1      44.879  31.220  28.374  1.00  0.00     0.074 A 
ATOM     44  C   UNL A   1      43.892  32.137  28.902  1.00  0.00     0.031 C 
ATOM     45  C   UNL A   1      41.645  25.673  28.003  1.00  0.00     0.029 A 
ATOM     46  C   UNL A   1      43.045  25.908  27.663  1.00  0.00     0.049 A 
ATOM     47  H   UNL A   1      44.115  27.685  27.861  1.00  0.00     0.167 HD
ATOM     48  C   UNL A   1      46.149  31.569  28.058  1.00  0.00     0.037 A 
ATOM     49  C   UNL A   1      43.891  24.990  27.156  1.00  0.00     0.037 A 
ATOM     50  C   UNL A   1      47.142  30.642  27.587  1.00  0.00     0.049 A 
ATOM     51  C   UNL A   1      45.312  25.386  26.864  1.00  0.00     0.074 A 
ATOM     52  C   UNL A   1      48.477  30.879  27.308  1.00  0.00     0.029 A 
ATOM     53  N   UNL A   1      46.912  29.297  27.338  1.00  0.00    -0.354 N 
ATOM     54  N   UNL A   1      45.881  26.561  26.995  1.00  0.00    -0.248 NA
ATOM     55  C   UNL A   1      46.207  24.336  26.363  1.00  0.00     0.031 C 
ATOM     56  C   UNL A   1      49.049  29.680  26.869  1.00  0.00     0.029 A 
ATOM     57  C   UNL A   1      48.079  28.691  26.906  1.00  0.00     0.049 A 
ATOM     58  H   UNL A   1      46.048  28.842  27.453  1.00  0.00     0.167 HD
ATOM     59  C   UNL A   1      47.207  26.384  26.618  1.00  0.00     0.074 A 
ATOM     60  C   UNL A   1      47.357  24.988  26.260  1.00  0.00     0.031 C 
ATOM     61  C   UNL A   1      48.210  27.296  26.570  1.00  0.00     0.037 A 
BRANCH  48  62
ATOM     62  C   UNL A   1      46.532  33.011  28.233  1.00  0.00     0.058 A 
ATOM     63  C   UNL A   1      46.391  33.939  27.188  1.00  0.00     0.135 A 
ATOM     64  C   UNL A   1      47.038  33.474  29.457  1.00  0.00     0.135 A 
ATOM     65  F   UNL A   1      45.929  33.544  25.990  1.00  0.00    -0.206 F 
ATOM     66  C   UNL A   1      46.772  35.267  27.339  1.00  0.00     0.059 A 
ATOM     67  C   UNL A   1      47.401  34.805  29.639  1.00  0.00     0.059 A 
ATOM     68  F   UNL A   1      47.194  32.628  30.488  1.00  0.00    -0.206 F 
ATOM     69  C   UNL A   1      47.282  35.690  28.568  1.00  0.00     0.060 A 
BRANCH  69  70
ATOM     70  S   UNL A   1      47.781  37.414  28.748  1.00  0.00     0.124 S 
ATOM     71  O   UNL A   1      47.396  37.684  30.130  1.00  0.00    -0.237 OA
ATOM     72  O   UNL A   1      49.217  37.356  28.492  1.00  0.00    -0.237 OA
ATOM     73  O   UNL A   1      46.994  38.103  27.730  1.00  0.00    -0.744 OA
ENDBRANCH  69  70
ENDBRANCH  48  62
BRANCH  49  74
ATOM     74  C   UNL A   1      43.427  23.596  26.929  1.00  0.00     0.058 A 
ATOM     75  C   UNL A   1      43.287  22.705  28.004  1.00  0.00     0.135 A 
ATOM     76  C   UNL A   1      43.103  23.130  25.647  1.00  0.00     0.135 A 
ATOM     77  F   UNL A   1      43.590  23.104  29.248  1.00  0.00    -0.206 F 
ATOM     78  C   UNL A   1      42.856  21.396  27.815  1.00  0.00     0.059 A 
ATOM     79  C   UNL A   1      42.649  21.831  25.434  1.00  0.00     0.059 A 
ATOM     80  F   UNL A   1      43.203  23.950  24.589  1.00  0.00    -0.206 F 
ATOM     81  C   UNL A   1      42.537  20.968  26.524  1.00  0.00     0.060 A 
BRANCH  81  82
ATOM     82  S   UNL A   1      41.928  19.283  26.294  1.00  0.00     0.124 S 
ATOM     83  O   UNL A   1      42.367  18.642  27.527  1.00  0.00    -0.237 OA
ATOM     84  O   UNL A   1      40.490  19.492  26.159  1.00  0.00    -0.237 OA
ATOM     85  O   UNL A   1      42.606  18.848  25.077  1.00  0.00    -0.744 OA
ENDBRANCH  81  82
ENDBRANCH  49  74
BRANCH  61  86
ATOM     86  C   UNL A   1      49.566  26.808  26.152  1.00  0.00     0.058 A 
ATOM     87  C   UNL A   1      50.011  26.922  24.827  1.00  0.00     0.135 A 
ATOM     88  C   UNL A   1      50.453  26.278  27.103  1.00  0.00     0.135 A 
ATOM     89  F   UNL A   1      49.196  27.416  23.882  1.00  0.00    -0.206 F 
ATOM     90  C   UNL A   1      51.286  26.512  24.453  1.00  0.00     0.059 A 
ATOM     91  C   UNL A   1      51.740  25.882  26.755  1.00  0.00     0.059 A 
ATOM     92  F   UNL A   1      50.076  26.158  28.386  1.00  0.00    -0.206 F 
ATOM     93  C   UNL A   1      52.145  25.995  25.425  1.00  0.00     0.060 A 
BRANCH  93  94
ATOM     94  S   UNL A   1      53.813  25.508  24.940  1.00  0.00     0.124 S 
ATOM     95  O   UNL A   1      54.594  25.947  26.092  1.00  0.00    -0.237 OA
ATOM     96  O   UNL A   1      53.684  24.063  24.775  1.00  0.00    -0.237 OA
ATOM     97  O   UNL A   1      54.038  26.254  23.706  1.00  0.00    -0.744 OA
ENDBRANCH  93  94
ENDBRANCH  61  86
ENDBRANCH  35  36
ENDBRANCH  27  30
ENDBRANCH  25  26
ENDBRANCH   1  25
TORSDOF 15
ENDMDL
MODEL 3
REMARK VINA RESULT:     -11.5      2.434      3.329
REMARK SMILES CC1(C)CCCC[C@@]1(C(=O)NCCCCNC(=O)c1ccc(-c2c3nc(c(-c4c(F)cc(S(=O)(=O)[O-])cc4F)c4ccc([nH]4)c(-c4c(F)cc(S(=O)(=O)[O-])cc4F)c4nc(c(-c5c(F)cc(S(=O)(=O)[O-])cc5F)c5ccc2[nH]5)C=C4)C=C3)cc1)[NH+]1CC[NH2+]CC1
REMARK SMILES IDX 14 1 13 2 12 3 11 4 9 5 10 6 8 8 1 9 2 10 3 11 4 12 5 13
REMARK SMILES IDX 7 14 6 15 85 16 86 17 90 18 87 20 89 21 88 22 15 25 16 26
REMARK SMILES IDX 17 27 18 29 19 30 20 31 84 32 21 33 83 34 22 35 23 36 24 37
REMARK SMILES IDX 77 38 25 39 82 40 76 41 78 42 26 43 81 44 75 45 74 46 27 48
REMARK SMILES IDX 61 49 40 50 60 51 41 52 44 53 59 54 79 55 42 56 43 57 58 59
REMARK SMILES IDX 80 60 45 61 28 62 29 63 38 64 30 65 31 66 37 67 39 68 32 69
REMARK SMILES IDX 33 70 34 71 35 72 36 73 62 74 63 75 72 76 64 77 65 78 71 79
REMARK SMILES IDX 73 80 66 81 67 82 68 83 69 84 70 85 46 86 47 87 56 88 48 89
REMARK SMILES IDX 49 90 55 91 57 92 50 93 51 94 52 95 53 96 54 97
REMARK H PARENT 11 7 85 19 88 23 88 24 16 28 78 47 44 58
REMARK Flexibility Score: inf
ROOT
ATOM      1  C   UNL A   1      33.748  30.384  27.071  1.00  0.00     0.023 C 
ENDROOT
BRANCH   1   2
ATOM      2  C   UNL A   1      32.589  29.406  27.184  1.00  0.00     0.023 C 
BRANCH   2   3
ATOM      3  C   UNL A   1      32.965  27.922  27.195  1.00  0.00     0.116 C 
BRANCH   3   4
ATOM      4  N   UNL A   1      31.829  27.048  26.996  1.00  0.00    -0.351 N 
ATOM      5  C   UNL A   1      31.416  26.139  26.084  1.00  0.00     0.281 C 
ATOM      6  O   UNL A   1      30.275  25.716  26.368  1.00  0.00    -0.268 OA
ATOM      7  H   UNL A   1      31.176  27.141  27.727  1.00  0.00     0.163 HD
BRANCH   5   8
ATOM      8  C   UNL A   1      32.183  25.497  24.782  1.00  0.00     0.182 C 
ATOM      9  C   UNL A   1      32.509  23.289  23.214  1.00  0.00     0.018 C 
ATOM     10  C   UNL A   1      31.593  24.124  24.183  1.00  0.00     0.029 C 
ATOM     11  C   UNL A   1      30.329  24.388  23.323  1.00  0.00     0.018 C 
ATOM     12  C   UNL A   1      31.377  23.155  25.380  1.00  0.00     0.013 C 
ATOM     13  C   UNL A   1      32.684  22.835  26.119  1.00  0.00     0.001 C 
ATOM     14  C   UNL A   1      33.592  25.142  25.391  1.00  0.00     0.080 C 
ATOM     15  C   UNL A   1      33.495  24.074  26.499  1.00  0.00     0.007 C 
BRANCH   8  16
ATOM     16  N   UNL A   1      32.264  26.582  23.716  1.00  0.00    -0.313 N 
ATOM     17  C   UNL A   1      33.577  27.232  23.548  1.00  0.00     0.325 C 
ATOM     18  C   UNL A   1      31.247  27.663  23.819  1.00  0.00     0.325 C 
ATOM     19  H   UNL A   1      32.070  26.010  22.893  1.00  0.00     0.349 HD
ATOM     20  C   UNL A   1      33.610  28.168  22.320  1.00  0.00     0.322 C 
ATOM     21  C   UNL A   1      31.319  28.697  22.661  1.00  0.00     0.322 C 
ATOM     22  N   UNL A   1      32.656  29.275  22.443  1.00  0.00    -0.337 N 
ATOM     23  H   UNL A   1      32.658  29.832  21.589  1.00  0.00     0.346 HD
ATOM     24  H   UNL A   1      32.913  29.881  23.223  1.00  0.00     0.346 HD
ENDBRANCH   8  16
ENDBRANCH   5   8
ENDBRANCH   3   4
ENDBRANCH   2   3
ENDBRANCH   1   2
BRANCH   1  25
ATOM     25  C   UNL A   1      35.009  30.007  27.836  1.00  0.00     0.116 C 
BRANCH  25  26
ATOM     26  N   UNL A   1      35.131  30.632  29.149  1.00  0.00    -0.352 N 
ATOM     27  C   UNL A   1      36.218  30.628  29.997  1.00  0.00     0.251 C 
ATOM     28  H   UNL A   1      34.338  31.118  29.469  1.00  0.00     0.163 HD
ATOM     29  O   UNL A   1      36.162  31.172  31.092  1.00  0.00    -0.269 OA
BRANCH  27  30
ATOM     30  C   UNL A   1      37.431  29.899  29.576  1.00  0.00     0.039 A 
ATOM     31  C   UNL A   1      37.879  30.038  28.262  1.00  0.00     0.014 A 
ATOM     32  C   UNL A   1      38.189  29.201  30.520  1.00  0.00     0.014 A 
ATOM     33  C   UNL A   1      39.147  29.567  27.920  1.00  0.00     0.010 A 
ATOM     34  C   UNL A   1      39.485  28.819  30.200  1.00  0.00     0.010 A 
ATOM     35  C   UNL A   1      39.982  29.009  28.901  1.00  0.00    -0.014 A 
BRANCH  35  36
ATOM     36  C   UNL A   1      41.387  28.631  28.604  1.00  0.00     0.031 A 
ATOM     37  C   UNL A   1      42.460  29.684  28.610  1.00  0.00     0.074 A 
ATOM     38  C   UNL A   1      41.678  27.366  28.236  1.00  0.00     0.049 A 
ATOM     39  N   UNL A   1      43.716  29.584  28.262  1.00  0.00    -0.248 NA
ATOM     40  C   UNL A   1      42.056  31.038  29.021  1.00  0.00     0.031 C 
ATOM     41  C   UNL A   1      40.712  26.269  28.123  1.00  0.00     0.029 A 
ATOM     42  N   UNL A   1      42.870  26.792  27.874  1.00  0.00    -0.354 N 
ATOM     43  C   UNL A   1      44.242  30.864  28.381  1.00  0.00     0.074 A 
ATOM     44  C   UNL A   1      43.157  31.733  28.783  1.00  0.00     0.031 C 
ATOM     45  C   UNL A   1      41.355  25.152  27.746  1.00  0.00     0.029 A 
ATOM     46  C   UNL A   1      42.770  25.457  27.557  1.00  0.00     0.049 A 
ATOM     47  H   UNL A   1      43.720  27.289  27.844  1.00  0.00     0.167 HD
ATOM     48  C   UNL A   1      45.519  31.276  28.200  1.00  0.00     0.037 A 
ATOM     49  C   UNL A   1      43.712  24.579  27.160  1.00  0.00     0.037 A 
ATOM     50  C   UNL A   1      46.604  30.398  27.855  1.00  0.00     0.049 A 
ATOM     51  C   UNL A   1      45.135  25.047  27.019  1.00  0.00     0.074 A 
ATOM     52  C   UNL A   1      47.948  30.702  27.719  1.00  0.00     0.029 A 
ATOM     53  N   UNL A   1      46.471  29.041  27.603  1.00  0.00    -0.354 N 
ATOM     54  N   UNL A   1      45.625  26.251  27.193  1.00  0.00    -0.248 NA
ATOM     55  C   UNL A   1      46.132  24.039  26.634  1.00  0.00     0.031 C 
ATOM     56  C   UNL A   1      48.625  29.530  27.364  1.00  0.00     0.029 A 
ATOM     57  C   UNL A   1      47.708  28.492  27.310  1.00  0.00     0.049 A 
ATOM     58  H   UNL A   1      45.624  28.542  27.630  1.00  0.00     0.167 HD
ATOM     59  C   UNL A   1      46.992  26.140  26.965  1.00  0.00     0.074 A 
ATOM     60  C   UNL A   1      47.251  24.750  26.648  1.00  0.00     0.031 C 
ATOM     61  C   UNL A   1      47.946  27.102  27.012  1.00  0.00     0.037 A 
BRANCH  48  62
ATOM     62  C   UNL A   1      45.806  32.738  28.393  1.00  0.00     0.058 A 
ATOM     63  C   UNL A   1      46.144  33.258  29.653  1.00  0.00     0.135 A 
ATOM     64  C   UNL A   1      45.750  33.628  27.310  1.00  0.00     0.135 A 
ATOM     65  F   UNL A   1      46.191  32.453  30.727  1.00  0.00    -0.206 F 
ATOM     66  C   UNL A   1      46.381  34.615  29.839  1.00  0.00     0.059 A 
ATOM     67  C   UNL A   1      46.011  34.986  27.468  1.00  0.00     0.059 A 
ATOM     68  F   UNL A   1      45.431  33.183  26.084  1.00  0.00    -0.206 F 
ATOM     69  C   UNL A   1      46.306  35.473  28.741  1.00  0.00     0.060 A 
BRANCH  69  70
ATOM     70  S   UNL A   1      46.609  37.233  28.997  1.00  0.00     0.124 S 
ATOM     71  O   UNL A   1      48.003  37.351  28.583  1.00  0.00    -0.237 OA
ATOM     72  O   UNL A   1      45.630  37.854  28.110  1.00  0.00    -0.237 OA
ATOM     73  O   UNL A   1      46.358  37.415  30.424  1.00  0.00    -0.744 OA
ENDBRANCH  69  70
ENDBRANCH  48  62
BRANCH  49  74
ATOM     74  C   UNL A   1      43.348  23.160  26.906  1.00  0.00     0.058 A 
ATOM     75  C   UNL A   1      43.316  22.652  25.599  1.00  0.00     0.135 A 
ATOM     76  C   UNL A   1      43.041  22.284  27.957  1.00  0.00     0.135 A 
ATOM     77  F   UNL A   1      43.597  23.455  24.562  1.00  0.00    -0.206 F 
ATOM     78  C   UNL A   1      42.977  21.329  25.339  1.00  0.00     0.059 A 
ATOM     79  C   UNL A   1      42.718  20.949  27.724  1.00  0.00     0.059 A 
ATOM     80  F   UNL A   1      43.075  22.717  29.226  1.00  0.00    -0.206 F 
ATOM     81  C   UNL A   1      42.680  20.483  26.410  1.00  0.00     0.060 A 
BRANCH  81  82
ATOM     82  S   UNL A   1      42.292  18.752  26.068  1.00  0.00     0.124 S 
ATOM     83  O   UNL A   1      40.888  18.836  25.688  1.00  0.00    -0.237 OA
ATOM     84  O   UNL A   1      43.227  18.434  24.992  1.00  0.00    -0.237 OA
ATOM     85  O   UNL A   1      42.567  18.092  27.340  1.00  0.00    -0.744 OA
ENDBRANCH  81  82
ENDBRANCH  49  74
BRANCH  61  86
ATOM     86  C   UNL A   1      49.363  26.682  26.753  1.00  0.00     0.058 A 
ATOM     87  C   UNL A   1      50.212  26.279  27.794  1.00  0.00     0.135 A 
ATOM     88  C   UNL A   1      49.856  26.624  25.440  1.00  0.00     0.135 A 
ATOM     89  F   UNL A   1      49.787  26.324  29.067  1.00  0.00    -0.206 F 
ATOM     90  C   UNL A   1      51.509  25.846  27.544  1.00  0.00     0.059 A 
ATOM     91  C   UNL A   1      51.142  26.174  25.165  1.00  0.00     0.059 A 
ATOM     92  F   UNL A   1      49.078  26.991  24.408  1.00  0.00    -0.206 F 
ATOM     93  C   UNL A   1      51.965  25.794  26.226  1.00  0.00     0.060 A 
BRANCH  93  94
ATOM     94  S   UNL A   1      53.635  25.188  25.907  1.00  0.00     0.124 S 
ATOM     95  O   UNL A   1      54.117  26.156  24.927  1.00  0.00    -0.237 OA
ATOM     96  O   UNL A   1      54.254  25.261  27.227  1.00  0.00    -0.237 OA
ATOM     97  O   UNL A   1      53.413  23.837  25.401  1.00  0.00    -0.744 OA
ENDBRANCH  93  94
ENDBRANCH  61  86
ENDBRANCH  35  36
ENDBRANCH  27  30
ENDBRANCH  25  26
ENDBRANCH   1  25
TORSDOF 15
ENDMDL
