MODEL 1
REMARK VINA RESULT:     -11.7      0.000      0.000
REMARK SMILES C[C@@H]1CCC[C@H](S[C@@H]2CCC[C@]([NH2+]C3CC3)(C(=O)NCCCCNC(=O)c3ccc(-c4c5nc(c(-c6c(F)cc(S(=O)(=O)[O-])cc6F)c6ccc([nH]6)c(-c6c(F)cc(S(=O)(=O)[O-])cc6F)c6nc(c(-c7c(F)cc(S(=O)(=O)[O-])cc7F)c7ccc4[nH]7)C=C6)C=C5)cc3)C2)C1
REMARK SMILES IDX 22 1 21 2 20 3 19 4 17 5 18 6 12 8 8 9 9 10 93 11 10 12
REMARK SMILES IDX 11 13 7 14 6 15 1 16 2 17 3 18 94 19 4 20 5 21 13 22 14 25
REMARK SMILES IDX 15 26 16 27 23 28 24 29 25 30 26 32 27 33 28 34 92 35 29 36
REMARK SMILES IDX 91 37 30 38 31 39 32 40 85 41 33 42 90 43 84 44 86 45 34 46
REMARK SMILES IDX 89 47 83 48 82 49 35 51 69 52 48 53 68 54 49 55 52 56 67 57
REMARK SMILES IDX 87 58 50 59 51 60 66 62 88 63 53 64 36 65 37 66 46 67 38 68
REMARK SMILES IDX 39 69 45 70 47 71 40 72 41 73 42 74 43 75 44 76 70 77 71 78
REMARK SMILES IDX 80 79 72 80 73 81 79 82 81 83 74 84 75 85 76 86 77 87 78 88
REMARK SMILES IDX 54 89 55 90 64 91 56 92 57 93 63 94 65 95 58 96 59 97 60 98
REMARK SMILES IDX 61 99 62 100
REMARK H PARENT 19 7 13 23 13 24 24 31 86 50 52 61
REMARK Flexibility Score: inf
ROOT
ATOM      1  C   UNL A   1      35.333  32.219  27.749  1.00  0.00     0.023 C 
ENDROOT
BRANCH   1   2
ATOM      2  C   UNL A   1      34.643  30.858  27.732  1.00  0.00     0.023 C 
BRANCH   2   3
ATOM      3  C   UNL A   1      33.210  30.865  27.208  1.00  0.00     0.116 C 
BRANCH   3   4
ATOM      4  N   UNL A   1      32.448  29.689  27.583  1.00  0.00    -0.351 N 
ATOM      5  C   UNL A   1      31.951  28.639  26.862  1.00  0.00     0.281 C 
ATOM      6  O   UNL A   1      31.393  27.757  27.523  1.00  0.00    -0.268 OA
ATOM      7  H   UNL A   1      32.249  29.638  28.546  1.00  0.00     0.163 HD
BRANCH   5   8
ATOM      8  C   UNL A   1      32.103  28.535  25.309  1.00  0.00     0.176 C 
ATOM      9  C   UNL A   1      32.045  26.807  23.351  1.00  0.00     0.053 C 
ATOM     10  C   UNL A   1      33.506  27.076  22.995  1.00  0.00     0.015 C 
ATOM     11  C   UNL A   1      31.649  27.145  24.785  1.00  0.00     0.093 C 
ATOM     12  C   UNL A   1      33.969  28.431  23.518  1.00  0.00     0.008 C 
ATOM     13  C   UNL A   1      33.626  28.623  24.991  1.00  0.00     0.079 C 
BRANCH   9  14
ATOM     14  S   UNL A   1      31.413  25.166  22.761  1.00  0.00    -0.155 SA
BRANCH  14  15
ATOM     15  C   UNL A   1      32.300  23.765  23.593  1.00  0.00     0.047 C 
ATOM     16  C   UNL A   1      30.274  24.089  26.460  1.00  0.00     0.007 C 
ATOM     17  C   UNL A   1      31.522  23.302  26.046  1.00  0.00    -0.013 C 
ATOM     18  C   UNL A   1      32.865  23.889  26.531  1.00  0.00     0.003 C 
ATOM     19  C   UNL A   1      31.458  22.925  24.564  1.00  0.00     0.017 C 
ATOM     20  C   UNL A   1      33.848  24.455  25.503  1.00  0.00     0.001 C 
ATOM     21  C   UNL A   1      33.727  23.900  24.098  1.00  0.00     0.014 C 
ENDBRANCH  14  15
ENDBRANCH   9  14
BRANCH   8  22
ATOM     22  N   UNL A   1      31.330  29.612  24.648  1.00  0.00    -0.331 N 
ATOM     23  H   UNL A   1      31.994  30.125  24.067  1.00  0.00     0.347 HD
ATOM     24  H   UNL A   1      30.898  30.085  25.441  1.00  0.00     0.347 HD
BRANCH  22  25
ATOM     25  C   UNL A   1      30.166  29.322  23.786  1.00  0.00     0.183 C 
ATOM     26  C   UNL A   1      29.147  30.290  23.253  1.00  0.00     0.071 C 
ATOM     27  C   UNL A   1      30.156  29.700  22.325  1.00  0.00     0.071 C 
ENDBRANCH  22  25
ENDBRANCH   8  22
ENDBRANCH   5   8
ENDBRANCH   3   4
ENDBRANCH   2   3
ENDBRANCH   1   2
BRANCH   1  28
ATOM     28  C   UNL A   1      36.408  32.380  28.816  1.00  0.00     0.116 C 
BRANCH  28  29
ATOM     29  N   UNL A   1      36.010  31.847  30.113  1.00  0.00    -0.352 N 
ATOM     30  C   UNL A   1      36.587  30.851  30.861  1.00  0.00     0.251 C 
ATOM     31  H   UNL A   1      35.210  32.263  30.509  1.00  0.00     0.163 HD
ATOM     32  O   UNL A   1      36.047  30.462  31.888  1.00  0.00    -0.269 OA
BRANCH  30  33
ATOM     33  C   UNL A   1      37.841  30.235  30.388  1.00  0.00     0.039 A 
ATOM     34  C   UNL A   1      38.032  30.078  29.014  1.00  0.00     0.014 A 
ATOM     35  C   UNL A   1      38.838  29.867  31.293  1.00  0.00     0.014 A 
ATOM     36  C   UNL A   1      39.262  29.618  28.543  1.00  0.00     0.010 A 
ATOM     37  C   UNL A   1      40.088  29.485  30.818  1.00  0.00     0.010 A 
ATOM     38  C   UNL A   1      40.312  29.359  29.440  1.00  0.00    -0.014 A 
BRANCH  38  39
ATOM     39  C   UNL A   1      41.653  28.952  28.955  1.00  0.00     0.031 A 
ATOM     40  C   UNL A   1      42.748  29.976  28.837  1.00  0.00     0.074 A 
ATOM     41  C   UNL A   1      41.864  27.677  28.568  1.00  0.00     0.049 A 
ATOM     42  N   UNL A   1      43.955  29.842  28.351  1.00  0.00    -0.248 NA
ATOM     43  C   UNL A   1      42.436  31.340  29.298  1.00  0.00     0.031 C 
ATOM     44  C   UNL A   1      40.863  26.607  28.588  1.00  0.00     0.029 A 
ATOM     45  N   UNL A   1      42.987  27.067  28.068  1.00  0.00    -0.354 N 
ATOM     46  C   UNL A   1      44.543  31.097  28.448  1.00  0.00     0.074 A 
ATOM     47  C   UNL A   1      43.541  31.996  28.976  1.00  0.00     0.031 C 
ATOM     48  C   UNL A   1      41.421  25.472  28.136  1.00  0.00     0.029 A 
ATOM     49  C   UNL A   1      42.804  25.739  27.760  1.00  0.00     0.049 A 
ATOM     50  H   UNL A   1      43.843  27.536  27.941  1.00  0.00     0.167 HD
ATOM     51  C   UNL A   1      45.813  31.460  28.156  1.00  0.00     0.037 A 
ATOM     52  C   UNL A   1      43.654  24.842  27.222  1.00  0.00     0.037 A 
ATOM     53  C   UNL A   1      46.812  30.554  27.653  1.00  0.00     0.049 A 
ATOM     54  C   UNL A   1      45.060  25.275  26.899  1.00  0.00     0.074 A 
ATOM     55  C   UNL A   1      48.136  30.817  27.348  1.00  0.00     0.029 A 
ATOM     56  N   UNL A   1      46.600  29.209  27.390  1.00  0.00    -0.354 N 
ATOM     57  N   UNL A   1      45.613  26.457  27.043  1.00  0.00    -0.248 NA
ATOM     58  C   UNL A   1      45.963  24.253  26.352  1.00  0.00     0.031 C 
ATOM     59  C   UNL A   1      48.718  29.637  26.873  1.00  0.00     0.029 A 
ATOM     60  C   UNL A   1      47.767  28.630  26.924  1.00  0.00     0.049 A 
ATOM     61  H   UNL A   1      45.746  28.736  27.517  1.00  0.00     0.167 HD
ATOM     62  C   UNL A   1      46.934  26.311  26.631  1.00  0.00     0.074 A 
ATOM     63  C   UNL A   1      47.101  24.924  26.250  1.00  0.00     0.031 C 
ATOM     64  C   UNL A   1      47.919  27.241  26.571  1.00  0.00     0.037 A 
BRANCH  51  65
ATOM     65  C   UNL A   1      46.207  32.889  28.403  1.00  0.00     0.058 A 
ATOM     66  C   UNL A   1      46.735  33.295  29.639  1.00  0.00     0.135 A 
ATOM     67  C   UNL A   1      46.112  33.850  27.384  1.00  0.00     0.135 A 
ATOM     68  F   UNL A   1      46.829  32.422  30.654  1.00  0.00    -0.206 F 
ATOM     69  C   UNL A   1      47.142  34.605  29.861  1.00  0.00     0.059 A 
ATOM     70  C   UNL A   1      46.538  35.161  27.575  1.00  0.00     0.059 A 
ATOM     71  F   UNL A   1      45.608  33.517  26.185  1.00  0.00    -0.206 F 
ATOM     72  C   UNL A   1      47.045  35.530  28.821  1.00  0.00     0.060 A 
BRANCH  72  73
ATOM     73  S   UNL A   1      47.613  37.218  29.118  1.00  0.00     0.124 S 
ATOM     74  O   UNL A   1      46.837  37.964  28.131  1.00  0.00    -0.237 OA
ATOM     75  O   UNL A   1      47.239  37.432  30.512  1.00  0.00    -0.237 OA
ATOM     76  O   UNL A   1      49.048  37.145  28.860  1.00  0.00    -0.744 OA
ENDBRANCH  72  73
ENDBRANCH  51  65
BRANCH  52  77
ATOM     77  C   UNL A   1      43.211  23.447  26.954  1.00  0.00     0.058 A 
ATOM     78  C   UNL A   1      43.063  22.520  27.996  1.00  0.00     0.135 A 
ATOM     79  C   UNL A   1      42.956  23.005  25.646  1.00  0.00     0.135 A 
ATOM     80  F   UNL A   1      43.296  22.893  29.265  1.00  0.00    -0.206 F 
ATOM     81  C   UNL A   1      42.720  21.194  27.751  1.00  0.00     0.059 A 
ATOM     82  C   UNL A   1      42.582  21.692  25.378  1.00  0.00     0.059 A 
ATOM     83  F   UNL A   1      43.060  23.856  24.615  1.00  0.00    -0.206 F 
ATOM     84  C   UNL A   1      42.488  20.788  26.436  1.00  0.00     0.060 A 
BRANCH  84  85
ATOM     85  S   UNL A   1      42.043  19.066  26.124  1.00  0.00     0.124 S 
ATOM     86  O   UNL A   1      42.323  18.453  27.417  1.00  0.00    -0.237 OA
ATOM     87  O   UNL A   1      40.633  19.172  25.759  1.00  0.00    -0.237 OA
ATOM     88  O   UNL A   1      42.937  18.682  25.035  1.00  0.00    -0.744 OA
ENDBRANCH  84  85
ENDBRANCH  52  77
BRANCH  64  89
ATOM     89  C   UNL A   1      49.277  26.781  26.121  1.00  0.00     0.058 A 
ATOM     90  C   UNL A   1      49.699  26.917  24.790  1.00  0.00     0.135 A 
ATOM     91  C   UNL A   1      50.187  26.248  27.049  1.00  0.00     0.135 A 
ATOM     92  F   UNL A   1      48.865  27.416  23.864  1.00  0.00    -0.206 F 
ATOM     93  C   UNL A   1      50.969  26.517  24.388  1.00  0.00     0.059 A 
ATOM     94  C   UNL A   1      51.471  25.868  26.675  1.00  0.00     0.059 A 
ATOM     95  F   UNL A   1      49.835  26.108  28.337  1.00  0.00    -0.206 F 
ATOM     96  C   UNL A   1      51.849  25.996  25.338  1.00  0.00     0.060 A 
BRANCH  96  97
ATOM     97  S   UNL A   1      53.506  25.514  24.810  1.00  0.00     0.124 S 
ATOM     98  O   UNL A   1      54.342  26.325  25.689  1.00  0.00    -0.237 OA
ATOM     99  O   UNL A   1      53.514  24.079  25.075  1.00  0.00    -0.237 OA
ATOM    100  O   UNL A   1      53.534  25.884  23.398  1.00  0.00    -0.744 OA
ENDBRANCH  96  97
ENDBRANCH  64  89
ENDBRANCH  38  39
ENDBRANCH  30  33
ENDBRANCH  28  29
ENDBRANCH   1  28
TORSDOF 18
ENDMDL
MODEL 2
REMARK VINA RESULT:     -11.7      5.037      6.623
REMARK SMILES C[C@@H]1CCC[C@H](S[C@@H]2CCC[C@]([NH2+]C3CC3)(C(=O)NCCCCNC(=O)c3ccc(-c4c5nc(c(-c6c(F)cc(S(=O)(=O)[O-])cc6F)c6ccc([nH]6)c(-c6c(F)cc(S(=O)(=O)[O-])cc6F)c6nc(c(-c7c(F)cc(S(=O)(=O)[O-])cc7F)c7ccc4[nH]7)C=C6)C=C5)cc3)C2)C1
REMARK SMILES IDX 22 1 21 2 20 3 19 4 17 5 18 6 12 8 8 9 9 10 93 11 10 12
REMARK SMILES IDX 11 13 7 14 6 15 1 16 2 17 3 18 94 19 4 20 5 21 13 22 14 25
REMARK SMILES IDX 15 26 16 27 23 28 24 29 25 30 26 32 27 33 28 34 92 35 29 36
REMARK SMILES IDX 91 37 30 38 31 39 32 40 85 41 33 42 90 43 84 44 86 45 34 46
REMARK SMILES IDX 89 47 83 48 82 49 35 51 69 52 48 53 68 54 49 55 52 56 67 57
REMARK SMILES IDX 87 58 50 59 51 60 66 62 88 63 53 64 36 65 37 66 46 67 38 68
REMARK SMILES IDX 39 69 45 70 47 71 40 72 41 73 42 74 43 75 44 76 70 77 71 78
REMARK SMILES IDX 80 79 72 80 73 81 79 82 81 83 74 84 75 85 76 86 77 87 78 88
REMARK SMILES IDX 54 89 55 90 64 91 56 92 57 93 63 94 65 95 58 96 59 97 60 98
REMARK SMILES IDX 61 99 62 100
REMARK H PARENT 19 7 13 23 13 24 24 31 86 50 52 61
REMARK Flexibility Score: inf
ROOT
ATOM      1  C   UNL A   1      33.268  27.787  26.982  1.00  0.00     0.023 C 
ENDROOT
BRANCH   1   2
ATOM      2  C   UNL A   1      31.742  27.776  26.983  1.00  0.00     0.023 C 
BRANCH   2   3
ATOM      3  C   UNL A   1      31.102  26.746  26.058  1.00  0.00     0.116 C 
BRANCH   3   4
ATOM      4  N   UNL A   1      30.818  25.479  26.706  1.00  0.00    -0.351 N 
ATOM      5  C   UNL A   1      31.344  24.225  26.559  1.00  0.00     0.281 C 
ATOM      6  O   UNL A   1      30.906  23.370  27.335  1.00  0.00    -0.268 OA
ATOM      7  H   UNL A   1      30.106  25.533  27.384  1.00  0.00     0.163 HD
BRANCH   5   8
ATOM      8  C   UNL A   1      32.452  23.894  25.506  1.00  0.00     0.176 C 
ATOM      9  C   UNL A   1      34.179  22.045  24.856  1.00  0.00     0.053 C 
ATOM     10  C   UNL A   1      35.360  22.984  25.093  1.00  0.00     0.015 C 
ATOM     11  C   UNL A   1      32.896  22.408  25.597  1.00  0.00     0.093 C 
ATOM     12  C   UNL A   1      34.935  24.447  25.023  1.00  0.00     0.008 C 
ATOM     13  C   UNL A   1      33.712  24.728  25.889  1.00  0.00     0.079 C 
BRANCH   9  14
ATOM     14  S   UNL A   1      34.616  20.245  24.941  1.00  0.00    -0.155 SA
BRANCH  14  15
ATOM     15  C   UNL A   1      33.102  19.179  24.814  1.00  0.00     0.047 C 
ATOM     16  C   UNL A   1      35.030  16.261  25.260  1.00  0.00     0.007 C 
ATOM     17  C   UNL A   1      33.582  16.610  24.898  1.00  0.00    -0.013 C 
ATOM     18  C   UNL A   1      33.244  16.547  23.394  1.00  0.00     0.003 C 
ATOM     19  C   UNL A   1      33.132  17.878  25.629  1.00  0.00     0.017 C 
ATOM     20  C   UNL A   1      32.909  17.841  22.647  1.00  0.00     0.001 C 
ATOM     21  C   UNL A   1      32.369  18.973  23.498  1.00  0.00     0.014 C 
ENDBRANCH  14  15
ENDBRANCH   9  14
BRANCH   8  22
ATOM     22  N   UNL A   1      31.969  24.205  24.142  1.00  0.00    -0.331 N 
ATOM     23  H   UNL A   1      30.967  24.381  24.226  1.00  0.00     0.347 HD
ATOM     24  H   UNL A   1      32.285  23.393  23.612  1.00  0.00     0.347 HD
BRANCH  22  25
ATOM     25  C   UNL A   1      32.521  25.325  23.353  1.00  0.00     0.183 C 
ATOM     26  C   UNL A   1      33.111  25.282  21.971  1.00  0.00     0.071 C 
ATOM     27  C   UNL A   1      31.770  25.904  22.178  1.00  0.00     0.071 C 
ENDBRANCH  22  25
ENDBRANCH   8  22
ENDBRANCH   5   8
ENDBRANCH   3   4
ENDBRANCH   2   3
ENDBRANCH   1   2
BRANCH   1  28
ATOM     28  C   UNL A   1      33.902  28.810  26.048  1.00  0.00     0.116 C 
BRANCH  28  29
ATOM     29  N   UNL A   1      33.709  30.185  26.491  1.00  0.00    -0.352 N 
ATOM     30  C   UNL A   1      34.444  30.925  27.385  1.00  0.00     0.251 C 
ATOM     31  H   UNL A   1      32.940  30.650  26.090  1.00  0.00     0.163 HD
ATOM     32  O   UNL A   1      34.067  32.040  27.715  1.00  0.00    -0.269 OA
BRANCH  30  33
ATOM     33  C   UNL A   1      35.666  30.338  27.965  1.00  0.00     0.039 A 
ATOM     34  C   UNL A   1      36.873  30.495  27.282  1.00  0.00     0.014 A 
ATOM     35  C   UNL A   1      35.625  29.685  29.199  1.00  0.00     0.014 A 
ATOM     36  C   UNL A   1      38.058  30.061  27.877  1.00  0.00     0.010 A 
ATOM     37  C   UNL A   1      36.813  29.325  29.824  1.00  0.00     0.010 A 
ATOM     38  C   UNL A   1      38.040  29.512  29.171  1.00  0.00    -0.014 A 
BRANCH  38  39
ATOM     39  C   UNL A   1      39.296  29.121  29.857  1.00  0.00     0.031 A 
ATOM     40  C   UNL A   1      39.758  29.890  31.064  1.00  0.00     0.074 A 
ATOM     41  C   UNL A   1      40.045  28.117  29.358  1.00  0.00     0.049 A 
ATOM     42  N   UNL A   1      40.866  29.767  31.746  1.00  0.00    -0.248 NA
ATOM     43  C   UNL A   1      38.870  30.961  31.551  1.00  0.00     0.031 C 
ATOM     44  C   UNL A   1      39.725  27.332  28.162  1.00  0.00     0.029 A 
ATOM     45  N   UNL A   1      41.238  27.591  29.786  1.00  0.00    -0.354 N 
ATOM     46  C   UNL A   1      40.810  30.739  32.738  1.00  0.00     0.074 A 
ATOM     47  C   UNL A   1      39.591  31.488  32.530  1.00  0.00     0.031 C 
ATOM     48  C   UNL A   1      40.689  26.419  27.962  1.00  0.00     0.029 A 
ATOM     49  C   UNL A   1      41.712  26.575  28.990  1.00  0.00     0.049 A 
ATOM     50  H   UNL A   1      41.711  27.913  30.587  1.00  0.00     0.167 HD
ATOM     51  C   UNL A   1      41.677  30.964  33.752  1.00  0.00     0.037 A 
ATOM     52  C   UNL A   1      42.850  25.858  29.073  1.00  0.00     0.037 A 
ATOM     53  C   UNL A   1      42.878  30.199  33.967  1.00  0.00     0.049 A 
ATOM     54  C   UNL A   1      43.803  26.135  30.207  1.00  0.00     0.074 A 
ATOM     55  C   UNL A   1      43.812  30.330  34.978  1.00  0.00     0.029 A 
ATOM     56  N   UNL A   1      43.303  29.152  33.162  1.00  0.00    -0.354 N 
ATOM     57  N   UNL A   1      43.708  27.027  31.164  1.00  0.00    -0.248 NA
ATOM     58  C   UNL A   1      45.011  25.302  30.280  1.00  0.00     0.031 C 
ATOM     59  C   UNL A   1      44.819  29.383  34.769  1.00  0.00     0.029 A 
ATOM     60  C   UNL A   1      44.489  28.633  33.653  1.00  0.00     0.049 A 
ATOM     61  H   UNL A   1      42.832  28.827  32.361  1.00  0.00     0.167 HD
ATOM     62  C   UNL A   1      44.828  26.842  31.968  1.00  0.00     0.074 A 
ATOM     63  C   UNL A   1      45.576  25.743  31.395  1.00  0.00     0.031 C 
ATOM     64  C   UNL A   1      45.206  27.522  33.079  1.00  0.00     0.037 A 
BRANCH  51  65
ATOM     65  C   UNL A   1      41.347  32.059  34.725  1.00  0.00     0.058 A 
ATOM     66  C   UNL A   1      41.809  33.371  34.529  1.00  0.00     0.135 A 
ATOM     67  C   UNL A   1      40.517  31.817  35.831  1.00  0.00     0.135 A 
ATOM     68  F   UNL A   1      42.623  33.654  33.499  1.00  0.00    -0.206 F 
ATOM     69  C   UNL A   1      41.472  34.400  35.400  1.00  0.00     0.059 A 
ATOM     70  C   UNL A   1      40.144  32.836  36.702  1.00  0.00     0.059 A 
ATOM     71  F   UNL A   1      40.053  30.580  36.069  1.00  0.00    -0.206 F 
ATOM     72  C   UNL A   1      40.634  34.123  36.481  1.00  0.00     0.060 A 
BRANCH  72  73
ATOM     73  S   UNL A   1      40.179  35.481  37.582  1.00  0.00     0.124 S 
ATOM     74  O   UNL A   1      39.059  34.897  38.315  1.00  0.00    -0.237 OA
ATOM     75  O   UNL A   1      41.402  35.684  38.349  1.00  0.00    -0.237 OA
ATOM     76  O   UNL A   1      39.830  36.561  36.664  1.00  0.00    -0.744 OA
ENDBRANCH  72  73
ENDBRANCH  51  65
BRANCH  52  77
ATOM     77  C   UNL A   1      43.159  24.810  28.063  1.00  0.00     0.058 A 
ATOM     78  C   UNL A   1      42.818  23.467  28.282  1.00  0.00     0.135 A 
ATOM     79  C   UNL A   1      43.830  25.126  26.871  1.00  0.00     0.135 A 
ATOM     80  F   UNL A   1      42.176  23.114  29.407  1.00  0.00    -0.206 F 
ATOM     81  C   UNL A   1      43.166  22.468  27.379  1.00  0.00     0.059 A 
ATOM     82  C   UNL A   1      44.163  24.149  25.938  1.00  0.00     0.059 A 
ATOM     83  F   UNL A   1      44.160  26.398  26.600  1.00  0.00    -0.206 F 
ATOM     84  C   UNL A   1      43.845  22.820  26.211  1.00  0.00     0.060 A 
BRANCH  84  85
ATOM     85  S   UNL A   1      44.294  21.518  25.043  1.00  0.00     0.124 S 
ATOM     86  O   UNL A   1      45.586  21.088  25.566  1.00  0.00    -0.237 OA
ATOM     87  O   UNL A   1      43.194  20.571  25.198  1.00  0.00    -0.237 OA
ATOM     88  O   UNL A   1      44.331  22.218  23.762  1.00  0.00    -0.744 OA
ENDBRANCH  84  85
ENDBRANCH  52  77
BRANCH  64  89
ATOM     89  C   UNL A   1      46.458  27.068  33.775  1.00  0.00     0.058 A 
ATOM     90  C   UNL A   1      46.432  26.076  34.768  1.00  0.00     0.135 A 
ATOM     91  C   UNL A   1      47.706  27.595  33.403  1.00  0.00     0.135 A 
ATOM     92  F   UNL A   1      45.264  25.545  35.162  1.00  0.00    -0.206 F 
ATOM     93  C   UNL A   1      47.599  25.640  35.386  1.00  0.00     0.059 A 
ATOM     94  C   UNL A   1      48.888  27.153  33.988  1.00  0.00     0.059 A 
ATOM     95  F   UNL A   1      47.785  28.537  32.451  1.00  0.00    -0.206 F 
ATOM     96  C   UNL A   1      48.822  26.182  34.988  1.00  0.00     0.060 A 
BRANCH  96  97
ATOM     97  S   UNL A   1      50.332  25.580  35.773  1.00  0.00     0.124 S 
ATOM     98  O   UNL A   1      51.042  24.999  34.639  1.00  0.00    -0.237 OA
ATOM     99  O   UNL A   1      50.907  26.804  36.322  1.00  0.00    -0.237 OA
ATOM    100  O   UNL A   1      49.843  24.627  36.765  1.00  0.00    -0.744 OA
ENDBRANCH  96  97
ENDBRANCH  64  89
ENDBRANCH  38  39
ENDBRANCH  30  33
ENDBRANCH  28  29
ENDBRANCH   1  28
TORSDOF 18
ENDMDL
MODEL 3
REMARK VINA RESULT:     -10.9      1.320      3.662
REMARK SMILES C[C@@H]1CCC[C@H](S[C@@H]2CCC[C@]([NH2+]C3CC3)(C(=O)NCCCCNC(=O)c3ccc(-c4c5nc(c(-c6c(F)cc(S(=O)(=O)[O-])cc6F)c6ccc([nH]6)c(-c6c(F)cc(S(=O)(=O)[O-])cc6F)c6nc(c(-c7c(F)cc(S(=O)(=O)[O-])cc7F)c7ccc4[nH]7)C=C6)C=C5)cc3)C2)C1
REMARK SMILES IDX 22 1 21 2 20 3 19 4 17 5 18 6 12 8 8 9 9 10 93 11 10 12
REMARK SMILES IDX 11 13 7 14 6 15 1 16 2 17 3 18 94 19 4 20 5 21 13 22 14 25
REMARK SMILES IDX 15 26 16 27 23 28 24 29 25 30 26 32 27 33 28 34 92 35 29 36
REMARK SMILES IDX 91 37 30 38 31 39 32 40 85 41 33 42 90 43 84 44 86 45 34 46
REMARK SMILES IDX 89 47 83 48 82 49 35 51 69 52 48 53 68 54 49 55 52 56 67 57
REMARK SMILES IDX 87 58 50 59 51 60 66 62 88 63 53 64 36 65 37 66 46 67 38 68
REMARK SMILES IDX 39 69 45 70 47 71 40 72 41 73 42 74 43 75 44 76 70 77 71 78
REMARK SMILES IDX 80 79 72 80 73 81 79 82 81 83 74 84 75 85 76 86 77 87 78 88
REMARK SMILES IDX 54 89 55 90 64 91 56 92 57 93 63 94 65 95 58 96 59 97 60 98
REMARK SMILES IDX 61 99 62 100
REMARK H PARENT 19 7 13 23 13 24 24 31 86 50 52 61
REMARK Flexibility Score: inf
ROOT
ATOM      1  C   UNL A   1      34.406  29.618  26.883  1.00  0.00     0.023 C 
ENDROOT
BRANCH   1   2
ATOM      2  C   UNL A   1      33.011  29.312  27.419  1.00  0.00     0.023 C 
BRANCH   2   3
ATOM      3  C   UNL A   1      32.441  27.958  27.006  1.00  0.00     0.116 C 
BRANCH   3   4
ATOM      4  N   UNL A   1      33.435  27.047  26.472  1.00  0.00    -0.351 N 
ATOM      5  C   UNL A   1      33.473  26.277  25.343  1.00  0.00     0.281 C 
ATOM      6  O   UNL A   1      34.525  25.656  25.159  1.00  0.00    -0.268 OA
ATOM      7  H   UNL A   1      34.240  26.967  27.034  1.00  0.00     0.163 HD
BRANCH   5   8
ATOM      8  C   UNL A   1      32.285  26.207  24.329  1.00  0.00     0.176 C 
ATOM      9  C   UNL A   1      30.635  27.728  22.992  1.00  0.00     0.053 C 
ATOM     10  C   UNL A   1      29.422  27.146  23.716  1.00  0.00     0.015 C 
ATOM     11  C   UNL A   1      31.961  27.606  23.736  1.00  0.00     0.093 C 
ATOM     12  C   UNL A   1      29.731  25.780  24.317  1.00  0.00     0.008 C 
ATOM     13  C   UNL A   1      31.018  25.794  25.136  1.00  0.00     0.079 C 
BRANCH   9  14
ATOM     14  S   UNL A   1      30.340  29.401  22.246  1.00  0.00    -0.155 SA
BRANCH  14  15
ATOM     15  C   UNL A   1      28.988  30.306  23.140  1.00  0.00     0.047 C 
ATOM     16  C   UNL A   1      28.031  31.953  20.173  1.00  0.00     0.007 C 
ATOM     17  C   UNL A   1      27.687  32.028  21.664  1.00  0.00    -0.013 C 
ATOM     18  C   UNL A   1      28.390  33.157  22.448  1.00  0.00     0.003 C 
ATOM     19  C   UNL A   1      27.744  30.639  22.305  1.00  0.00     0.017 C 
ATOM     20  C   UNL A   1      29.426  32.793  23.515  1.00  0.00     0.001 C 
ATOM     21  C   UNL A   1      29.282  31.418  24.134  1.00  0.00     0.014 C 
ENDBRANCH  14  15
ENDBRANCH   9  14
BRANCH   8  22
ATOM     22  N   UNL A   1      32.595  25.248  23.244  1.00  0.00    -0.331 N 
ATOM     23  H   UNL A   1      33.505  25.522  22.871  1.00  0.00     0.347 HD
ATOM     24  H   UNL A   1      31.772  25.324  22.648  1.00  0.00     0.347 HD
BRANCH  22  25
ATOM     25  C   UNL A   1      32.670  23.793  23.486  1.00  0.00     0.183 C 
ATOM     26  C   UNL A   1      31.700  22.731  23.047  1.00  0.00     0.071 C 
ATOM     27  C   UNL A   1      33.033  22.830  22.381  1.00  0.00     0.071 C 
ENDBRANCH  22  25
ENDBRANCH   8  22
ENDBRANCH   5   8
ENDBRANCH   3   4
ENDBRANCH   2   3
ENDBRANCH   1   2
BRANCH   1  28
ATOM     28  C   UNL A   1      35.546  29.312  27.848  1.00  0.00     0.116 C 
BRANCH  28  29
ATOM     29  N   UNL A   1      35.385  29.958  29.144  1.00  0.00    -0.352 N 
ATOM     30  C   UNL A   1      36.339  30.313  30.066  1.00  0.00     0.251 C 
ATOM     31  H   UNL A   1      34.457  30.172  29.394  1.00  0.00     0.163 HD
ATOM     32  O   UNL A   1      36.005  30.756  31.156  1.00  0.00    -0.269 OA
BRANCH  30  33
ATOM     33  C   UNL A   1      37.763  30.114  29.736  1.00  0.00     0.039 A 
ATOM     34  C   UNL A   1      38.631  29.688  30.742  1.00  0.00     0.014 A 
ATOM     35  C   UNL A   1      38.221  30.296  28.429  1.00  0.00     0.014 A 
ATOM     36  C   UNL A   1      39.950  29.371  30.420  1.00  0.00     0.010 A 
ATOM     37  C   UNL A   1      39.513  29.904  28.095  1.00  0.00     0.010 A 
ATOM     38  C   UNL A   1      40.388  29.436  29.086  1.00  0.00    -0.014 A 
BRANCH  38  39
ATOM     39  C   UNL A   1      41.761  29.022  28.707  1.00  0.00     0.031 A 
ATOM     40  C   UNL A   1      42.860  30.047  28.644  1.00  0.00     0.074 A 
ATOM     41  C   UNL A   1      42.001  27.740  28.366  1.00  0.00     0.049 A 
ATOM     42  N   UNL A   1      44.098  29.907  28.249  1.00  0.00    -0.248 NA
ATOM     43  C   UNL A   1      42.512  31.421  29.050  1.00  0.00     0.031 C 
ATOM     44  C   UNL A   1      41.004  26.667  28.339  1.00  0.00     0.029 A 
ATOM     45  N   UNL A   1      43.158  27.122  27.962  1.00  0.00    -0.354 N 
ATOM     46  C   UNL A   1      44.675  31.166  28.359  1.00  0.00     0.074 A 
ATOM     47  C   UNL A   1      43.637  32.073  28.792  1.00  0.00     0.031 C 
ATOM     48  C   UNL A   1      41.594  25.524  27.955  1.00  0.00     0.029 A 
ATOM     49  C   UNL A   1      43.001  25.787  27.672  1.00  0.00     0.049 A 
ATOM     50  H   UNL A   1      44.020  27.591  27.885  1.00  0.00     0.167 HD
ATOM     51  C   UNL A   1      45.962  31.526  28.149  1.00  0.00     0.037 A 
ATOM     52  C   UNL A   1      43.889  24.882  27.217  1.00  0.00     0.037 A 
ATOM     53  C   UNL A   1      46.997  30.613  27.739  1.00  0.00     0.049 A 
ATOM     54  C   UNL A   1      45.313  25.311  26.985  1.00  0.00     0.074 A 
ATOM     55  C   UNL A   1      48.338  30.873  27.524  1.00  0.00     0.029 A 
ATOM     56  N   UNL A   1      46.806  29.261  27.494  1.00  0.00    -0.354 N 
ATOM     57  N   UNL A   1      45.852  26.498  27.140  1.00  0.00    -0.248 NA
ATOM     58  C   UNL A   1      46.255  24.281  26.527  1.00  0.00     0.031 C 
ATOM     59  C   UNL A   1      48.954  29.685  27.118  1.00  0.00     0.029 A 
ATOM     60  C   UNL A   1      48.005  28.676  27.125  1.00  0.00     0.049 A 
ATOM     61  H   UNL A   1      45.946  28.789  27.570  1.00  0.00     0.167 HD
ATOM     62  C   UNL A   1      47.199  26.348  26.827  1.00  0.00     0.074 A 
ATOM     63  C   UNL A   1      47.396  24.954  26.491  1.00  0.00     0.031 C 
ATOM     64  C   UNL A   1      48.184  27.280  26.816  1.00  0.00     0.037 A 
BRANCH  51  65
ATOM     65  C   UNL A   1      46.334  32.962  28.391  1.00  0.00     0.058 A 
ATOM     66  C   UNL A   1      46.253  33.917  27.365  1.00  0.00     0.135 A 
ATOM     67  C   UNL A   1      46.720  33.403  29.667  1.00  0.00     0.135 A 
ATOM     68  F   UNL A   1      45.909  33.546  26.121  1.00  0.00    -0.206 F 
ATOM     69  C   UNL A   1      46.552  35.255  27.590  1.00  0.00     0.059 A 
ATOM     70  C   UNL A   1      46.999  34.743  29.922  1.00  0.00     0.059 A 
ATOM     71  F   UNL A   1      46.820  32.531  30.682  1.00  0.00    -0.206 F 
ATOM     72  C   UNL A   1      46.920  35.660  28.874  1.00  0.00     0.060 A 
BRANCH  72  73
ATOM     73  S   UNL A   1      47.270  37.409  29.155  1.00  0.00     0.124 S 
ATOM     74  O   UNL A   1      48.700  37.469  28.864  1.00  0.00    -0.237 OA
ATOM     75  O   UNL A   1      46.398  38.061  28.184  1.00  0.00    -0.237 OA
ATOM     76  O   UNL A   1      46.908  37.608  30.555  1.00  0.00    -0.744 OA
ENDBRANCH  72  73
ENDBRANCH  51  65
BRANCH  52  77
ATOM     77  C   UNL A   1      43.468  23.478  26.950  1.00  0.00     0.058 A 
ATOM     78  C   UNL A   1      43.271  23.017  25.641  1.00  0.00     0.135 A 
ATOM     79  C   UNL A   1      43.224  22.582  28.003  1.00  0.00     0.135 A 
ATOM     80  F   UNL A   1      43.489  23.836  24.600  1.00  0.00    -0.206 F 
ATOM     81  C   UNL A   1      42.807  21.730  25.382  1.00  0.00     0.059 A 
ATOM     82  C   UNL A   1      42.790  21.282  27.769  1.00  0.00     0.059 A 
ATOM     83  F   UNL A   1      43.419  22.965  29.273  1.00  0.00    -0.206 F 
ATOM     84  C   UNL A   1      42.563  20.872  26.455  1.00  0.00     0.060 A 
BRANCH  84  85
ATOM     85  S   UNL A   1      41.962  19.204  26.113  1.00  0.00     0.124 S 
ATOM     86  O   UNL A   1      42.343  18.499  27.331  1.00  0.00    -0.237 OA
ATOM     87  O   UNL A   1      40.532  19.424  25.921  1.00  0.00    -0.237 OA
ATOM     88  O   UNL A   1      42.696  18.826  24.907  1.00  0.00    -0.744 OA
ENDBRANCH  84  85
ENDBRANCH  52  77
BRANCH  64  89
ATOM     89  C   UNL A   1      49.572  26.815  26.475  1.00  0.00     0.058 A 
ATOM     90  C   UNL A   1      50.386  26.169  27.418  1.00  0.00     0.135 A 
ATOM     91  C   UNL A   1      50.070  26.970  25.171  1.00  0.00     0.135 A 
ATOM     92  F   UNL A   1      49.958  26.002  28.679  1.00  0.00    -0.206 F 
ATOM     93  C   UNL A   1      51.658  25.715  27.086  1.00  0.00     0.059 A 
ATOM     94  C   UNL A   1      51.327  26.498  24.809  1.00  0.00     0.059 A 
ATOM     95  F   UNL A   1      49.325  27.571  24.229  1.00  0.00    -0.206 F 
ATOM     96  C   UNL A   1      52.119  25.881  25.779  1.00  0.00     0.060 A 
BRANCH  96  97
ATOM     97  S   UNL A   1      53.757  25.255  25.353  1.00  0.00     0.124 S 
ATOM     98  O   UNL A   1      53.611  23.831  25.638  1.00  0.00    -0.237 OA
ATOM     99  O   UNL A   1      53.870  25.609  23.941  1.00  0.00    -0.237 OA
ATOM    100  O   UNL A   1      54.646  25.988  26.249  1.00  0.00    -0.744 OA
ENDBRANCH  96  97
ENDBRANCH  64  89
ENDBRANCH  38  39
ENDBRANCH  30  33
ENDBRANCH  28  29
ENDBRANCH   1  28
TORSDOF 18
ENDMDL
