MODEL 1
REMARK VINA RESULT:     -10.8      0.000      0.000
REMARK SMILES N#Cc1cc([N+](=O)[O-])cnc1Oc1csc(C(=O)NCCCCNC(=O)c2ccc(-c3c4nc(c(-c5c(F)cc(S(=O)(=O)[O-])cc5F)c5ccc([nH]5)c(-c5c(F)cc(S(=O)(=O)[O-])cc5F)c5nc(c(-c6c(F)cc(S(=O)(=O)[O-])cc6F)c6ccc3[nH]6)C=C5)C=C4)cc2)c1
REMARK SMILES IDX 21 1 20 2 19 3 17 4 18 5 16 7 13 8 14 9 93 10 15 11 12 12
REMARK SMILES IDX 11 13 3 14 4 15 5 16 10 17 9 18 2 19 1 20 6 21 7 22 8 23
REMARK SMILES IDX 22 24 23 25 24 26 25 27 26 29 27 30 28 31 92 32 29 33 91 34
REMARK SMILES IDX 30 35 31 36 32 37 85 38 33 39 90 40 84 41 86 42 34 43 89 44
REMARK SMILES IDX 83 45 82 46 35 48 69 49 48 50 68 51 49 52 52 53 67 54 87 55
REMARK SMILES IDX 50 56 51 57 66 59 88 60 53 61 36 62 37 63 46 64 38 65 39 66
REMARK SMILES IDX 45 67 47 68 40 69 41 70 42 71 43 72 44 73 70 74 71 75 80 76
REMARK SMILES IDX 72 77 73 78 79 79 81 80 74 81 75 82 76 83 77 84 78 85 54 86
REMARK SMILES IDX 55 87 64 88 56 89 57 90 63 91 65 92 58 93 59 94 60 95 61 96
REMARK SMILES IDX 62 97
REMARK H PARENT 19 6 24 28 86 47 52 58
REMARK Flexibility Score: inf
ROOT
ATOM      1  C   UNL A   1      40.652  20.601  26.428  1.00  0.00     0.023 C 
ENDROOT
BRANCH   1   2
ATOM      2  C   UNL A   1      41.830  19.965  27.164  1.00  0.00     0.116 C 
BRANCH   2   3
ATOM      3  N   UNL A   1      42.491  18.987  26.324  1.00  0.00    -0.351 N 
ATOM      4  C   UNL A   1      43.590  19.069  25.504  1.00  0.00     0.261 C 
ATOM      5  O   UNL A   1      43.952  18.004  24.999  1.00  0.00    -0.268 OA
ATOM      6  H   UNL A   1      42.073  18.096  26.345  1.00  0.00     0.163 HD
BRANCH   4   7
ATOM      7  C   UNL A   1      44.282  20.333  25.288  1.00  0.00     0.096 A 
ATOM      8  C   UNL A   1      44.904  22.573  25.116  1.00  0.00     0.141 A 
ATOM      9  C   UNL A   1      46.106  21.967  24.845  1.00  0.00     0.112 A 
ATOM     10  C   UNL A   1      43.853  21.647  25.342  1.00  0.00     0.072 A 
ATOM     11  S   UNL A   1      45.952  20.266  24.843  1.00  0.00    -0.135 S 
BRANCH   8  12
ATOM     12  O   UNL A   1      44.778  23.904  25.246  1.00  0.00    -0.437 OA
BRANCH  12  13
ATOM     13  C   UNL A   1      45.267  24.632  26.295  1.00  0.00     0.237 A 
ATOM     14  C   UNL A   1      46.061  25.780  26.246  1.00  0.00     0.121 A 
ATOM     15  C   UNL A   1      46.557  26.297  27.455  1.00  0.00     0.112 A 
ATOM     16  C   UNL A   1      46.223  25.679  28.658  1.00  0.00     0.289 A 
ATOM     17  N   UNL A   1      44.915  24.056  27.480  1.00  0.00    -0.213 NA
ATOM     18  C   UNL A   1      45.383  24.586  28.634  1.00  0.00     0.200 A 
BRANCH  14  19
ATOM     19  C   UNL A   1      46.414  26.483  25.053  1.00  0.00     0.105 C 
ATOM     20  N   UNL A   1      46.753  27.093  24.124  1.00  0.00    -0.192 NA
ENDBRANCH  14  19
BRANCH  16  21
ATOM     21  N   UNL A   1      46.771  26.147  29.921  1.00  0.00     0.064 N 
ATOM     22  O   UNL A   1      47.974  25.953  30.135  1.00  0.00    -0.258 OA
ATOM     23  O   UNL A   1      45.999  26.727  30.696  1.00  0.00    -0.258 OA
ENDBRANCH  16  21
ENDBRANCH  12  13
ENDBRANCH   8  12
ENDBRANCH   4   7
ENDBRANCH   2   3
ENDBRANCH   1   2
BRANCH   1  24
ATOM     24  C   UNL A   1      40.106  21.854  27.120  1.00  0.00     0.023 C 
BRANCH  24  25
ATOM     25  C   UNL A   1      41.146  22.937  27.392  1.00  0.00     0.116 C 
BRANCH  25  26
ATOM     26  N   UNL A   1      41.400  23.784  26.234  1.00  0.00    -0.352 N 
ATOM     27  C   UNL A   1      41.470  25.155  26.181  1.00  0.00     0.251 C 
ATOM     28  H   UNL A   1      41.541  23.314  25.381  1.00  0.00     0.163 HD
ATOM     29  O   UNL A   1      41.546  25.732  25.102  1.00  0.00    -0.269 OA
BRANCH  27  30
ATOM     30  C   UNL A   1      41.413  25.918  27.443  1.00  0.00     0.039 A 
ATOM     31  C   UNL A   1      42.486  26.741  27.785  1.00  0.00     0.014 A 
ATOM     32  C   UNL A   1      40.264  25.877  28.239  1.00  0.00     0.014 A 
ATOM     33  C   UNL A   1      42.375  27.585  28.891  1.00  0.00     0.010 A 
ATOM     34  C   UNL A   1      40.122  26.781  29.285  1.00  0.00     0.010 A 
ATOM     35  C   UNL A   1      41.174  27.648  29.620  1.00  0.00    -0.014 A 
BRANCH  35  36
ATOM     36  C   UNL A   1      40.994  28.634  30.715  1.00  0.00     0.031 A 
ATOM     37  C   UNL A   1      41.808  28.528  31.974  1.00  0.00     0.074 A 
ATOM     38  C   UNL A   1      40.046  29.587  30.601  1.00  0.00     0.049 A 
ATOM     39  N   UNL A   1      41.753  29.261  33.057  1.00  0.00    -0.248 NA
ATOM     40  C   UNL A   1      42.797  27.440  32.035  1.00  0.00     0.031 C 
ATOM     41  C   UNL A   1      39.153  29.754  29.452  1.00  0.00     0.029 A 
ATOM     42  N   UNL A   1      39.664  30.583  31.464  1.00  0.00    -0.354 N 
ATOM     43  C   UNL A   1      42.691  28.720  33.927  1.00  0.00     0.074 A 
ATOM     44  C   UNL A   1      43.252  27.558  33.272  1.00  0.00     0.031 C 
ATOM     45  C   UNL A   1      38.343  30.801  29.673  1.00  0.00     0.029 A 
ATOM     46  C   UNL A   1      38.620  31.348  30.998  1.00  0.00     0.049 A 
ATOM     47  H   UNL A   1      40.097  30.737  32.335  1.00  0.00     0.167 HD
ATOM     48  C   UNL A   1      43.066  29.165  35.151  1.00  0.00     0.037 A 
ATOM     49  C   UNL A   1      37.945  32.358  31.578  1.00  0.00     0.037 A 
ATOM     50  C   UNL A   1      42.494  30.321  35.793  1.00  0.00     0.049 A 
ATOM     51  C   UNL A   1      38.354  32.820  32.949  1.00  0.00     0.074 A 
ATOM     52  C   UNL A   1      42.838  30.886  37.008  1.00  0.00     0.029 A 
ATOM     53  N   UNL A   1      41.445  31.076  35.286  1.00  0.00    -0.354 N 
ATOM     54  N   UNL A   1      39.303  32.351  33.726  1.00  0.00    -0.248 NA
ATOM     55  C   UNL A   1      37.612  33.950  33.523  1.00  0.00     0.031 C 
ATOM     56  C   UNL A   1      41.951  31.935  37.269  1.00  0.00     0.029 A 
ATOM     57  C   UNL A   1      41.103  32.077  36.182  1.00  0.00     0.049 A 
ATOM     58  H   UNL A   1      41.008  30.922  34.417  1.00  0.00     0.167 HD
ATOM     59  C   UNL A   1      39.283  33.140  34.871  1.00  0.00     0.074 A 
ATOM     60  C   UNL A   1      38.242  34.129  34.675  1.00  0.00     0.031 C 
ATOM     61  C   UNL A   1      40.059  33.054  35.980  1.00  0.00     0.037 A 
BRANCH  48  62
ATOM     62  C   UNL A   1      44.130  28.384  35.879  1.00  0.00     0.058 A 
ATOM     63  C   UNL A   1      43.813  27.340  36.763  1.00  0.00     0.135 A 
ATOM     64  C   UNL A   1      45.490  28.676  35.679  1.00  0.00     0.135 A 
ATOM     65  F   UNL A   1      42.531  27.020  37.002  1.00  0.00    -0.206 F 
ATOM     66  C   UNL A   1      44.799  26.648  37.459  1.00  0.00     0.059 A 
ATOM     67  C   UNL A   1      46.495  27.972  36.335  1.00  0.00     0.059 A 
ATOM     68  F   UNL A   1      45.855  29.661  34.844  1.00  0.00    -0.206 F 
ATOM     69  C   UNL A   1      46.138  26.973  37.239  1.00  0.00     0.060 A 
BRANCH  69  70
ATOM     70  S   UNL A   1      47.403  26.080  38.166  1.00  0.00     0.124 S 
ATOM     71  O   UNL A   1      46.896  26.190  39.531  1.00  0.00    -0.237 OA
ATOM     72  O   UNL A   1      47.338  24.747  37.573  1.00  0.00    -0.237 OA
ATOM     73  O   UNL A   1      48.624  26.829  37.888  1.00  0.00    -0.744 OA
ENDBRANCH  69  70
ENDBRANCH  48  62
BRANCH  49  74
ATOM     74  C   UNL A   1      36.805  32.991  30.857  1.00  0.00     0.058 A 
ATOM     75  C   UNL A   1      35.476  32.739  31.225  1.00  0.00     0.135 A 
ATOM     76  C   UNL A   1      37.030  33.895  29.807  1.00  0.00     0.135 A 
ATOM     77  F   UNL A   1      35.206  31.876  32.216  1.00  0.00    -0.206 F 
ATOM     78  C   UNL A   1      34.411  33.355  30.575  1.00  0.00     0.059 A 
ATOM     79  C   UNL A   1      35.984  34.549  29.163  1.00  0.00     0.059 A 
ATOM     80  F   UNL A   1      38.285  34.184  29.424  1.00  0.00    -0.206 F 
ATOM     81  C   UNL A   1      34.676  34.267  29.552  1.00  0.00     0.060 A 
BRANCH  81  82
ATOM     82  S   UNL A   1      33.289  35.118  28.769  1.00  0.00     0.124 S 
ATOM     83  O   UNL A   1      33.969  36.183  28.040  1.00  0.00    -0.237 OA
ATOM     84  O   UNL A   1      32.704  34.058  27.955  1.00  0.00    -0.237 OA
ATOM     85  O   UNL A   1      32.476  35.549  29.902  1.00  0.00    -0.744 OA
ENDBRANCH  81  82
ENDBRANCH  49  74
BRANCH  61  86
ATOM     86  C   UNL A   1      39.835  34.071  37.069  1.00  0.00     0.058 A 
ATOM     87  C   UNL A   1      38.985  33.818  38.158  1.00  0.00     0.135 A 
ATOM     88  C   UNL A   1      40.531  35.292  37.054  1.00  0.00     0.135 A 
ATOM     89  F   UNL A   1      38.289  32.673  38.222  1.00  0.00    -0.206 F 
ATOM     90  C   UNL A   1      38.818  34.747  39.180  1.00  0.00     0.059 A 
ATOM     91  C   UNL A   1      40.406  36.219  38.083  1.00  0.00     0.059 A 
ATOM     92  F   UNL A   1      41.363  35.583  36.041  1.00  0.00    -0.206 F 
ATOM     93  C   UNL A   1      39.539  35.942  39.138  1.00  0.00     0.060 A 
BRANCH  93  94
ATOM     94  S   UNL A   1      39.345  37.116  40.495  1.00  0.00     0.124 S 
ATOM     95  O   UNL A   1      40.734  37.391  40.850  1.00  0.00    -0.237 OA
ATOM     96  O   UNL A   1      38.625  38.213  39.856  1.00  0.00    -0.237 OA
ATOM     97  O   UNL A   1      38.581  36.366  41.488  1.00  0.00    -0.744 OA
ENDBRANCH  93  94
ENDBRANCH  61  86
ENDBRANCH  35  36
ENDBRANCH  27  30
ENDBRANCH  25  26
ENDBRANCH  24  25
ENDBRANCH   1  24
TORSDOF 18
ENDMDL
MODEL 2
REMARK VINA RESULT:     -10.7      4.279      6.683
REMARK SMILES N#Cc1cc([N+](=O)[O-])cnc1Oc1csc(C(=O)NCCCCNC(=O)c2ccc(-c3c4nc(c(-c5c(F)cc(S(=O)(=O)[O-])cc5F)c5ccc([nH]5)c(-c5c(F)cc(S(=O)(=O)[O-])cc5F)c5nc(c(-c6c(F)cc(S(=O)(=O)[O-])cc6F)c6ccc3[nH]6)C=C5)C=C4)cc2)c1
REMARK SMILES IDX 21 1 20 2 19 3 17 4 18 5 16 7 13 8 14 9 93 10 15 11 12 12
REMARK SMILES IDX 11 13 3 14 4 15 5 16 10 17 9 18 2 19 1 20 6 21 7 22 8 23
REMARK SMILES IDX 22 24 23 25 24 26 25 27 26 29 27 30 28 31 92 32 29 33 91 34
REMARK SMILES IDX 30 35 31 36 32 37 85 38 33 39 90 40 84 41 86 42 34 43 89 44
REMARK SMILES IDX 83 45 82 46 35 48 69 49 48 50 68 51 49 52 52 53 67 54 87 55
REMARK SMILES IDX 50 56 51 57 66 59 88 60 53 61 36 62 37 63 46 64 38 65 39 66
REMARK SMILES IDX 45 67 47 68 40 69 41 70 42 71 43 72 44 73 70 74 71 75 80 76
REMARK SMILES IDX 72 77 73 78 79 79 81 80 74 81 75 82 76 83 77 84 78 85 54 86
REMARK SMILES IDX 55 87 64 88 56 89 57 90 63 91 65 92 58 93 59 94 60 95 61 96
REMARK SMILES IDX 62 97
REMARK H PARENT 19 6 24 28 86 47 52 58
REMARK Flexibility Score: inf
ROOT
ATOM      1  C   UNL A   1      36.585  22.362  25.582  1.00  0.00     0.023 C 
ENDROOT
BRANCH   1   2
ATOM      2  C   UNL A   1      35.318  22.497  26.425  1.00  0.00     0.116 C 
BRANCH   2   3
ATOM      3  N   UNL A   1      34.508  21.299  26.328  1.00  0.00    -0.351 N 
ATOM      4  C   UNL A   1      33.267  21.068  25.787  1.00  0.00     0.261 C 
ATOM      5  O   UNL A   1      32.905  19.889  25.785  1.00  0.00    -0.268 OA
ATOM      6  H   UNL A   1      34.927  20.502  26.726  1.00  0.00     0.163 HD
BRANCH   4   7
ATOM      7  C   UNL A   1      32.469  22.151  25.231  1.00  0.00     0.096 A 
ATOM      8  C   UNL A   1      31.100  24.005  24.879  1.00  0.00     0.141 A 
ATOM      9  C   UNL A   1      31.489  23.744  23.589  1.00  0.00     0.112 A 
ATOM     10  C   UNL A   1      31.632  23.084  25.817  1.00  0.00     0.072 A 
ATOM     11  S   UNL A   1      32.487  22.360  23.514  1.00  0.00    -0.135 S 
BRANCH   8  12
ATOM     12  O   UNL A   1      30.370  25.084  25.211  1.00  0.00    -0.437 OA
BRANCH  12  13
ATOM     13  C   UNL A   1      30.889  26.322  25.472  1.00  0.00     0.237 A 
ATOM     14  C   UNL A   1      31.181  27.338  24.560  1.00  0.00     0.121 A 
ATOM     15  C   UNL A   1      31.829  28.492  25.035  1.00  0.00     0.112 A 
ATOM     16  C   UNL A   1      32.131  28.603  26.392  1.00  0.00     0.289 A 
ATOM     17  N   UNL A   1      31.155  26.456  26.803  1.00  0.00    -0.213 NA
ATOM     18  C   UNL A   1      31.756  27.586  27.243  1.00  0.00     0.200 A 
BRANCH  14  19
ATOM     19  C   UNL A   1      30.869  27.305  23.167  1.00  0.00     0.105 C 
ATOM     20  N   UNL A   1      30.679  27.235  22.022  1.00  0.00    -0.192 NA
ENDBRANCH  14  19
BRANCH  16  21
ATOM     21  N   UNL A   1      32.859  29.751  26.907  1.00  0.00     0.064 N 
ATOM     22  O   UNL A   1      33.908  29.538  27.527  1.00  0.00    -0.258 OA
ATOM     23  O   UNL A   1      32.390  30.873  26.675  1.00  0.00    -0.258 OA
ENDBRANCH  16  21
ENDBRANCH  12  13
ENDBRANCH   8  12
ENDBRANCH   4   7
ENDBRANCH   2   3
ENDBRANCH   1   2
BRANCH   1  24
ATOM     24  C   UNL A   1      37.288  23.697  25.320  1.00  0.00     0.023 C 
BRANCH  24  25
ATOM     25  C   UNL A   1      38.147  24.204  26.474  1.00  0.00     0.116 C 
BRANCH  25  26
ATOM     26  N   UNL A   1      39.562  23.896  26.307  1.00  0.00    -0.352 N 
ATOM     27  C   UNL A   1      40.647  24.593  26.782  1.00  0.00     0.251 C 
ATOM     28  H   UNL A   1      39.767  23.085  25.787  1.00  0.00     0.163 HD
ATOM     29  O   UNL A   1      41.781  24.289  26.433  1.00  0.00    -0.269 OA
BRANCH  27  30
ATOM     30  C   UNL A   1      40.415  25.736  27.688  1.00  0.00     0.039 A 
ATOM     31  C   UNL A   1      39.449  25.620  28.688  1.00  0.00     0.014 A 
ATOM     32  C   UNL A   1      41.209  26.882  27.592  1.00  0.00     0.014 A 
ATOM     33  C   UNL A   1      39.334  26.629  29.645  1.00  0.00     0.010 A 
ATOM     34  C   UNL A   1      41.152  27.841  28.596  1.00  0.00     0.010 A 
ATOM     35  C   UNL A   1      40.216  27.723  29.636  1.00  0.00    -0.014 A 
BRANCH  35  36
ATOM     36  C   UNL A   1      40.193  28.736  30.722  1.00  0.00     0.031 A 
ATOM     37  C   UNL A   1      41.064  28.568  31.936  1.00  0.00     0.074 A 
ATOM     38  C   UNL A   1      39.334  29.773  30.644  1.00  0.00     0.049 A 
ATOM     39  N   UNL A   1      41.140  29.316  33.006  1.00  0.00    -0.248 NA
ATOM     40  C   UNL A   1      41.946  27.391  31.962  1.00  0.00     0.031 C 
ATOM     41  C   UNL A   1      38.397  30.010  29.542  1.00  0.00     0.029 A 
ATOM     42  N   UNL A   1      39.098  30.812  31.508  1.00  0.00    -0.354 N 
ATOM     43  C   UNL A   1      42.070  28.700  33.833  1.00  0.00     0.074 A 
ATOM     44  C   UNL A   1      42.481  27.481  33.170  1.00  0.00     0.031 C 
ATOM     45  C   UNL A   1      37.705  31.133  29.789  1.00  0.00     0.029 A 
ATOM     46  C   UNL A   1      38.106  31.667  31.086  1.00  0.00     0.049 A 
ATOM     47  H   UNL A   1      39.592  30.935  32.350  1.00  0.00     0.167 HD
ATOM     48  C   UNL A   1      42.554  29.123  35.026  1.00  0.00     0.037 A 
ATOM     49  C   UNL A   1      37.564  32.745  31.684  1.00  0.00     0.037 A 
ATOM     50  C   UNL A   1      42.132  30.336  35.678  1.00  0.00     0.049 A 
ATOM     51  C   UNL A   1      38.093  33.183  33.022  1.00  0.00     0.074 A 
ATOM     52  C   UNL A   1      42.597  30.881  36.861  1.00  0.00     0.029 A 
ATOM     53  N   UNL A   1      41.132  31.181  35.216  1.00  0.00    -0.354 N 
ATOM     54  N   UNL A   1      39.035  32.635  33.754  1.00  0.00    -0.248 NA
ATOM     55  C   UNL A   1      37.494  34.385  33.615  1.00  0.00     0.031 C 
ATOM     56  C   UNL A   1      41.829  32.013  37.152  1.00  0.00     0.029 A 
ATOM     57  C   UNL A   1      40.938  32.222  36.111  1.00  0.00     0.049 A 
ATOM     58  H   UNL A   1      40.634  31.059  34.375  1.00  0.00     0.167 HD
ATOM     59  C   UNL A   1      39.156  33.437  34.883  1.00  0.00     0.074 A 
ATOM     60  C   UNL A   1      38.204  34.518  34.728  1.00  0.00     0.031 C 
ATOM     61  C   UNL A   1      39.982  33.292  35.950  1.00  0.00     0.037 A 
BRANCH  48  62
ATOM     62  C   UNL A   1      43.579  28.253  35.708  1.00  0.00     0.058 A 
ATOM     63  C   UNL A   1      43.216  27.256  36.628  1.00  0.00     0.135 A 
ATOM     64  C   UNL A   1      44.947  28.409  35.426  1.00  0.00     0.135 A 
ATOM     65  F   UNL A   1      41.925  27.064  36.945  1.00  0.00    -0.206 F 
ATOM     66  C   UNL A   1      44.170  26.482  37.281  1.00  0.00     0.059 A 
ATOM     67  C   UNL A   1      45.917  27.621  36.038  1.00  0.00     0.059 A 
ATOM     68  F   UNL A   1      45.356  29.343  34.554  1.00  0.00    -0.206 F 
ATOM     69  C   UNL A   1      45.519  26.674  36.980  1.00  0.00     0.060 A 
BRANCH  69  70
ATOM     70  S   UNL A   1      46.744  25.676  37.852  1.00  0.00     0.124 S 
ATOM     71  O   UNL A   1      45.915  24.601  38.389  1.00  0.00    -0.237 OA
ATOM     72  O   UNL A   1      47.656  25.295  36.777  1.00  0.00    -0.237 OA
ATOM     73  O   UNL A   1      47.294  26.597  38.841  1.00  0.00    -0.744 OA
ENDBRANCH  69  70
ENDBRANCH  48  62
BRANCH  49  74
ATOM     74  C   UNL A   1      36.450  33.474  31.017  1.00  0.00     0.058 A 
ATOM     75  C   UNL A   1      36.665  34.241  29.863  1.00  0.00     0.135 A 
ATOM     76  C   UNL A   1      35.136  33.383  31.503  1.00  0.00     0.135 A 
ATOM     77  F   UNL A   1      37.904  34.368  29.363  1.00  0.00    -0.206 F 
ATOM     78  C   UNL A   1      35.620  34.895  29.218  1.00  0.00     0.059 A 
ATOM     79  C   UNL A   1      34.069  34.000  30.858  1.00  0.00     0.059 A 
ATOM     80  F   UNL A   1      34.872  32.648  32.596  1.00  0.00    -0.206 F 
ATOM     81  C   UNL A   1      34.324  34.760  29.718  1.00  0.00     0.060 A 
BRANCH  81  82
ATOM     82  S   UNL A   1      32.965  35.550  28.827  1.00  0.00     0.124 S 
ATOM     83  O   UNL A   1      32.137  36.037  29.924  1.00  0.00    -0.237 OA
ATOM     84  O   UNL A   1      33.664  36.570  28.052  1.00  0.00    -0.237 OA
ATOM     85  O   UNL A   1      32.397  34.458  28.043  1.00  0.00    -0.744 OA
ENDBRANCH  81  82
ENDBRANCH  49  74
BRANCH  61  86
ATOM     86  C   UNL A   1      39.917  34.339  37.031  1.00  0.00     0.058 A 
ATOM     87  C   UNL A   1      40.676  35.520  36.968  1.00  0.00     0.135 A 
ATOM     88  C   UNL A   1      39.036  34.187  38.114  1.00  0.00     0.135 A 
ATOM     89  F   UNL A   1      41.540  35.715  35.960  1.00  0.00    -0.206 F 
ATOM     90  C   UNL A   1      40.578  36.500  37.950  1.00  0.00     0.059 A 
ATOM     91  C   UNL A   1      38.894  35.170  39.087  1.00  0.00     0.059 A 
ATOM     92  F   UNL A   1      38.280  33.082  38.221  1.00  0.00    -0.206 F 
ATOM     93  C   UNL A   1      39.677  36.320  39.003  1.00  0.00     0.060 A 
BRANCH  93  94
ATOM     94  S   UNL A   1      39.529  37.622  40.244  1.00  0.00     0.124 S 
ATOM     95  O   UNL A   1      40.785  38.343  40.068  1.00  0.00    -0.237 OA
ATOM     96  O   UNL A   1      38.326  38.328  39.810  1.00  0.00    -0.237 OA
ATOM     97  O   UNL A   1      39.398  36.885  41.497  1.00  0.00    -0.744 OA
ENDBRANCH  93  94
ENDBRANCH  61  86
ENDBRANCH  35  36
ENDBRANCH  27  30
ENDBRANCH  25  26
ENDBRANCH  24  25
ENDBRANCH   1  24
TORSDOF 18
ENDMDL
MODEL 3
REMARK VINA RESULT:     -10.7      4.033      6.195
REMARK SMILES N#Cc1cc([N+](=O)[O-])cnc1Oc1csc(C(=O)NCCCCNC(=O)c2ccc(-c3c4nc(c(-c5c(F)cc(S(=O)(=O)[O-])cc5F)c5ccc([nH]5)c(-c5c(F)cc(S(=O)(=O)[O-])cc5F)c5nc(c(-c6c(F)cc(S(=O)(=O)[O-])cc6F)c6ccc3[nH]6)C=C5)C=C4)cc2)c1
REMARK SMILES IDX 21 1 20 2 19 3 17 4 18 5 16 7 13 8 14 9 93 10 15 11 12 12
REMARK SMILES IDX 11 13 3 14 4 15 5 16 10 17 9 18 2 19 1 20 6 21 7 22 8 23
REMARK SMILES IDX 22 24 23 25 24 26 25 27 26 29 27 30 28 31 92 32 29 33 91 34
REMARK SMILES IDX 30 35 31 36 32 37 85 38 33 39 90 40 84 41 86 42 34 43 89 44
REMARK SMILES IDX 83 45 82 46 35 48 69 49 48 50 68 51 49 52 52 53 67 54 87 55
REMARK SMILES IDX 50 56 51 57 66 59 88 60 53 61 36 62 37 63 46 64 38 65 39 66
REMARK SMILES IDX 45 67 47 68 40 69 41 70 42 71 43 72 44 73 70 74 71 75 80 76
REMARK SMILES IDX 72 77 73 78 79 79 81 80 74 81 75 82 76 83 77 84 78 85 54 86
REMARK SMILES IDX 55 87 64 88 56 89 57 90 63 91 65 92 58 93 59 94 60 95 61 96
REMARK SMILES IDX 62 97
REMARK H PARENT 19 6 24 28 86 47 52 58
REMARK Flexibility Score: inf
ROOT
ATOM      1  C   UNL A   1      38.189  23.749  26.174  1.00  0.00     0.023 C 
ENDROOT
BRANCH   1   2
ATOM      2  C   UNL A   1      36.879  23.104  25.723  1.00  0.00     0.116 C 
BRANCH   2   3
ATOM      3  N   UNL A   1      37.045  21.675  25.551  1.00  0.00    -0.351 N 
ATOM      4  C   UNL A   1      36.192  20.697  25.100  1.00  0.00     0.261 C 
ATOM      5  O   UNL A   1      36.693  19.575  24.983  1.00  0.00    -0.268 OA
ATOM      6  H   UNL A   1      37.936  21.344  25.805  1.00  0.00     0.163 HD
BRANCH   4   7
ATOM      7  C   UNL A   1      34.808  20.995  24.761  1.00  0.00     0.096 A 
ATOM      8  C   UNL A   1      32.810  21.951  24.033  1.00  0.00     0.141 A 
ATOM      9  C   UNL A   1      32.368  20.696  24.368  1.00  0.00     0.112 A 
ATOM     10  C   UNL A   1      34.195  22.138  24.281  1.00  0.00     0.072 A 
ATOM     11  S   UNL A   1      33.636  19.747  25.008  1.00  0.00    -0.135 S 
BRANCH   8  12
ATOM     12  O   UNL A   1      32.020  22.864  23.442  1.00  0.00    -0.437 OA
BRANCH  12  13
ATOM     13  C   UNL A   1      32.179  24.217  23.555  1.00  0.00     0.237 A 
ATOM     14  C   UNL A   1      31.901  25.023  24.661  1.00  0.00     0.121 A 
ATOM     15  C   UNL A   1      32.022  26.416  24.516  1.00  0.00     0.112 A 
ATOM     16  C   UNL A   1      32.441  26.948  23.298  1.00  0.00     0.289 A 
ATOM     17  N   UNL A   1      32.623  24.745  22.379  1.00  0.00    -0.213 NA
ATOM     18  C   UNL A   1      32.758  26.087  22.269  1.00  0.00     0.200 A 
BRANCH  14  19
ATOM     19  C   UNL A   1      31.501  24.544  25.946  1.00  0.00     0.105 C 
ATOM     20  N   UNL A   1      31.245  24.176  27.018  1.00  0.00    -0.192 NA
ENDBRANCH  14  19
BRANCH  16  21
ATOM     21  N   UNL A   1      32.514  28.386  23.091  1.00  0.00     0.064 N 
ATOM     22  O   UNL A   1      31.462  28.986  22.839  1.00  0.00    -0.258 OA
ATOM     23  O   UNL A   1      33.625  28.920  23.201  1.00  0.00    -0.258 OA
ENDBRANCH  16  21
ENDBRANCH  12  13
ENDBRANCH   8  12
ENDBRANCH   4   7
ENDBRANCH   2   3
ENDBRANCH   1   2
BRANCH   1  24
ATOM     24  C   UNL A   1      39.275  22.733  26.539  1.00  0.00     0.023 C 
BRANCH  24  25
ATOM     25  C   UNL A   1      40.603  23.345  26.973  1.00  0.00     0.116 C 
BRANCH  25  26
ATOM     26  N   UNL A   1      41.239  24.126  25.920  1.00  0.00    -0.352 N 
ATOM     27  C   UNL A   1      41.650  25.437  25.962  1.00  0.00     0.251 C 
ATOM     28  H   UNL A   1      41.396  23.655  25.070  1.00  0.00     0.163 HD
ATOM     29  O   UNL A   1      42.037  25.999  24.943  1.00  0.00    -0.269 OA
BRANCH  27  30
ATOM     30  C   UNL A   1      41.579  26.163  27.245  1.00  0.00     0.039 A 
ATOM     31  C   UNL A   1      42.593  27.066  27.569  1.00  0.00     0.014 A 
ATOM     32  C   UNL A   1      40.471  26.005  28.083  1.00  0.00     0.014 A 
ATOM     33  C   UNL A   1      42.455  27.870  28.700  1.00  0.00     0.010 A 
ATOM     34  C   UNL A   1      40.296  26.869  29.157  1.00  0.00     0.010 A 
ATOM     35  C   UNL A   1      41.284  27.814  29.475  1.00  0.00    -0.014 A 
BRANCH  35  36
ATOM     36  C   UNL A   1      41.065  28.755  30.603  1.00  0.00     0.031 A 
ATOM     37  C   UNL A   1      41.859  28.618  31.871  1.00  0.00     0.074 A 
ATOM     38  C   UNL A   1      40.101  29.693  30.507  1.00  0.00     0.049 A 
ATOM     39  N   UNL A   1      41.771  29.308  32.979  1.00  0.00    -0.248 NA
ATOM     40  C   UNL A   1      42.867  27.547  31.910  1.00  0.00     0.031 C 
ATOM     41  C   UNL A   1      39.225  29.887  29.348  1.00  0.00     0.029 A 
ATOM     42  N   UNL A   1      39.685  30.649  31.398  1.00  0.00    -0.354 N 
ATOM     43  C   UNL A   1      42.704  28.754  33.846  1.00  0.00     0.074 A 
ATOM     44  C   UNL A   1      43.299  27.628  33.159  1.00  0.00     0.031 C 
ATOM     45  C   UNL A   1      38.391  30.909  29.593  1.00  0.00     0.029 A 
ATOM     46  C   UNL A   1      38.634  31.411  30.942  1.00  0.00     0.049 A 
ATOM     47  H   UNL A   1      40.099  30.779  32.282  1.00  0.00     0.167 HD
ATOM     48  C   UNL A   1      43.048  29.160  35.092  1.00  0.00     0.037 A 
ATOM     49  C   UNL A   1      37.929  32.387  31.546  1.00  0.00     0.037 A 
ATOM     50  C   UNL A   1      42.443  30.280  35.766  1.00  0.00     0.049 A 
ATOM     51  C   UNL A   1      38.306  32.804  32.941  1.00  0.00     0.074 A 
ATOM     52  C   UNL A   1      42.755  30.806  37.006  1.00  0.00     0.029 A 
ATOM     53  N   UNL A   1      41.389  31.033  35.268  1.00  0.00    -0.354 N 
ATOM     54  N   UNL A   1      39.249  32.325  33.717  1.00  0.00    -0.248 NA
ATOM     55  C   UNL A   1      37.531  33.898  33.542  1.00  0.00     0.031 C 
ATOM     56  C   UNL A   1      41.843  31.827  37.290  1.00  0.00     0.029 A 
ATOM     57  C   UNL A   1      41.011  31.993  36.194  1.00  0.00     0.049 A 
ATOM     58  H   UNL A   1      40.970  30.904  34.386  1.00  0.00     0.167 HD
ATOM     59  C   UNL A   1      39.194  33.070  34.889  1.00  0.00     0.074 A 
ATOM     60  C   UNL A   1      38.138  34.046  34.711  1.00  0.00     0.031 C 
ATOM     61  C   UNL A   1      39.953  32.958  36.009  1.00  0.00     0.037 A 
BRANCH  48  62
ATOM     62  C   UNL A   1      44.115  28.373  35.810  1.00  0.00     0.058 A 
ATOM     63  C   UNL A   1      43.807  27.259  36.608  1.00  0.00     0.135 A 
ATOM     64  C   UNL A   1      45.468  28.729  35.686  1.00  0.00     0.135 A 
ATOM     65  F   UNL A   1      42.531  26.874  36.773  1.00  0.00    -0.206 F 
ATOM     66  C   UNL A   1      44.793  26.560  37.297  1.00  0.00     0.059 A 
ATOM     67  C   UNL A   1      46.476  28.021  36.335  1.00  0.00     0.059 A 
ATOM     68  F   UNL A   1      45.825  29.782  34.934  1.00  0.00    -0.206 F 
ATOM     69  C   UNL A   1      46.125  26.950  37.155  1.00  0.00     0.060 A 
BRANCH  69  70
ATOM     70  S   UNL A   1      47.388  26.045  38.072  1.00  0.00     0.124 S 
ATOM     71  O   UNL A   1      48.107  27.133  38.729  1.00  0.00    -0.237 OA
ATOM     72  O   UNL A   1      46.586  25.197  38.949  1.00  0.00    -0.237 OA
ATOM     73  O   UNL A   1      48.130  25.343  37.030  1.00  0.00    -0.744 OA
ENDBRANCH  69  70
ENDBRANCH  48  62
BRANCH  49  74
ATOM     74  C   UNL A   1      36.790  33.024  30.829  1.00  0.00     0.058 A 
ATOM     75  C   UNL A   1      35.462  32.672  31.106  1.00  0.00     0.135 A 
ATOM     76  C   UNL A   1      37.013  34.031  29.875  1.00  0.00     0.135 A 
ATOM     77  F   UNL A   1      35.195  31.710  32.002  1.00  0.00    -0.206 F 
ATOM     78  C   UNL A   1      34.394  33.291  30.461  1.00  0.00     0.059 A 
ATOM     79  C   UNL A   1      35.962  34.687  29.241  1.00  0.00     0.059 A 
ATOM     80  F   UNL A   1      38.265  34.417  29.583  1.00  0.00    -0.206 F 
ATOM     81  C   UNL A   1      34.655  34.304  29.538  1.00  0.00     0.060 A 
BRANCH  81  82
ATOM     82  S   UNL A   1      33.260  35.152  28.765  1.00  0.00     0.124 S 
ATOM     83  O   UNL A   1      33.931  36.230  28.046  1.00  0.00    -0.237 OA
ATOM     84  O   UNL A   1      32.682  34.096  27.941  1.00  0.00    -0.237 OA
ATOM     85  O   UNL A   1      32.445  35.565  29.904  1.00  0.00    -0.744 OA
ENDBRANCH  81  82
ENDBRANCH  49  74
BRANCH  61  86
ATOM     86  C   UNL A   1      39.690  33.929  37.130  1.00  0.00     0.058 A 
ATOM     87  C   UNL A   1      38.905  33.585  38.243  1.00  0.00     0.135 A 
ATOM     88  C   UNL A   1      40.284  35.202  37.120  1.00  0.00     0.135 A 
ATOM     89  F   UNL A   1      38.306  32.386  38.303  1.00  0.00    -0.206 F 
ATOM     90  C   UNL A   1      38.703  34.474  39.293  1.00  0.00     0.059 A 
ATOM     91  C   UNL A   1      40.126  36.093  38.176  1.00  0.00     0.059 A 
ATOM     92  F   UNL A   1      41.051  35.582  36.085  1.00  0.00    -0.206 F 
ATOM     93  C   UNL A   1      39.325  35.724  39.254  1.00  0.00     0.060 A 
BRANCH  93  94
ATOM     94  S   UNL A   1      39.090  36.849  40.647  1.00  0.00     0.124 S 
ATOM     95  O   UNL A   1      38.319  37.924  40.032  1.00  0.00    -0.237 OA
ATOM     96  O   UNL A   1      38.366  36.014  41.601  1.00  0.00    -0.237 OA
ATOM     97  O   UNL A   1      40.453  37.198  41.036  1.00  0.00    -0.744 OA
ENDBRANCH  93  94
ENDBRANCH  61  86
ENDBRANCH  35  36
ENDBRANCH  27  30
ENDBRANCH  25  26
ENDBRANCH  24  25
ENDBRANCH   1  24
TORSDOF 18
ENDMDL
