MODEL 1
REMARK VINA RESULT:     -10.3      0.000      0.000
REMARK SMILES CCNC(=O)C[NH2+][C@@H](C)[C@@H](C)C(=O)NCCCCNC(=O)c1ccc(-c2c3nc(c(-c4c(F)cc(S(=O)(=O)[O-])cc4F)c4ccc([nH]4)c(-c4c(F)cc(S(=O)(=O)[O-])cc4F)c4nc(c(-c5c(F)cc(S(=O)(=O)[O-])cc5F)c5ccc2[nH]5)C=C4)C=C3)cc1
REMARK SMILES IDX 15 1 14 2 12 3 13 4 10 6 11 7 8 8 9 9 7 10 6 13 4 14 3 15
REMARK SMILES IDX 5 17 2 18 1 19 16 20 17 21 18 22 19 23 20 24 21 26 22 27
REMARK SMILES IDX 23 28 87 29 24 30 86 31 25 32 26 33 27 34 80 35 28 36 85 37
REMARK SMILES IDX 79 38 81 39 29 40 84 41 78 42 77 43 30 45 64 46 43 47 63 48
REMARK SMILES IDX 44 49 47 50 62 51 82 52 45 53 46 54 61 56 83 57 48 58 31 59
REMARK SMILES IDX 32 60 41 61 33 62 34 63 40 64 42 65 35 66 36 67 37 68 38 69
REMARK SMILES IDX 39 70 65 71 66 72 75 73 67 74 68 75 74 76 76 77 69 78 70 79
REMARK SMILES IDX 71 80 72 81 73 82 49 83 50 84 59 85 51 86 52 87 58 88 60 89
REMARK SMILES IDX 53 90 54 91 55 92 56 93 57 94
REMARK H PARENT 14 5 7 11 7 12 3 16 19 25 81 44 47 55
REMARK Flexibility Score: inf
ROOT
ATOM      1  C   UNL A   1      37.760  21.797  25.380  1.00  0.00     0.116 C 
ENDROOT
BRANCH   1   2
ATOM      2  N   UNL A   1      36.598  21.507  26.199  1.00  0.00    -0.356 N 
ATOM      3  C   UNL A   1      35.314  21.949  26.135  1.00  0.00     0.228 C 
ATOM      4  O   UNL A   1      34.527  21.525  26.986  1.00  0.00    -0.275 OA
ATOM      5  H   UNL A   1      36.771  20.874  26.933  1.00  0.00     0.163 HD
BRANCH   3   6
ATOM      6  C   UNL A   1      34.823  22.919  25.060  1.00  0.00     0.133 C 
ATOM      7  C   UNL A   1      34.855  24.356  25.591  1.00  0.00     0.024 C 
BRANCH   6   8
ATOM      8  C   UNL A   1      33.488  22.470  24.417  1.00  0.00     0.191 C 
ATOM      9  C   UNL A   1      33.152  23.359  23.209  1.00  0.00     0.076 C 
BRANCH   8  10
ATOM     10  N   UNL A   1      32.397  22.488  25.409  1.00  0.00    -0.336 N 
ATOM     11  H   UNL A   1      32.005  21.549  25.483  1.00  0.00     0.346 HD
ATOM     12  H   UNL A   1      32.789  22.798  26.299  1.00  0.00     0.346 HD
BRANCH  10  13
ATOM     13  C   UNL A   1      31.321  23.425  25.039  1.00  0.00     0.362 C 
BRANCH  13  14
ATOM     14  C   UNL A   1      30.631  23.962  26.295  1.00  0.00     0.275 C 
ATOM     15  N   UNL A   1      29.942  25.141  26.233  1.00  0.00    -0.351 N 
ATOM     16  H   UNL A   1      29.611  25.488  27.093  1.00  0.00     0.163 HD
ATOM     17  O   UNL A   1      30.701  23.369  27.373  1.00  0.00    -0.269 OA
BRANCH  15  18
ATOM     18  C   UNL A   1      29.633  25.944  25.066  1.00  0.00     0.112 C 
ATOM     19  C   UNL A   1      30.697  27.003  24.847  1.00  0.00     0.027 C 
ENDBRANCH  15  18
ENDBRANCH  13  14
ENDBRANCH  10  13
ENDBRANCH   8  10
ENDBRANCH   6   8
ENDBRANCH   3   6
ENDBRANCH   1   2
BRANCH   1  20
ATOM     20  C   UNL A   1      38.731  22.752  26.073  1.00  0.00     0.023 C 
BRANCH  20  21
ATOM     21  C   UNL A   1      39.820  22.077  26.908  1.00  0.00     0.023 C 
BRANCH  21  22
ATOM     22  C   UNL A   1      41.025  22.949  27.243  1.00  0.00     0.116 C 
BRANCH  22  23
ATOM     23  N   UNL A   1      41.495  23.739  26.114  1.00  0.00    -0.352 N 
ATOM     24  C   UNL A   1      41.745  25.089  26.053  1.00  0.00     0.251 C 
ATOM     25  H   UNL A   1      41.655  23.239  25.281  1.00  0.00     0.163 HD
ATOM     26  O   UNL A   1      42.039  25.610  24.980  1.00  0.00    -0.269 OA
BRANCH  24  27
ATOM     27  C   UNL A   1      41.618  25.912  27.274  1.00  0.00     0.039 A 
ATOM     28  C   UNL A   1      42.657  26.782  27.612  1.00  0.00     0.014 A 
ATOM     29  C   UNL A   1      40.465  25.850  28.063  1.00  0.00     0.014 A 
ATOM     30  C   UNL A   1      42.508  27.646  28.699  1.00  0.00     0.010 A 
ATOM     31  C   UNL A   1      40.292  26.758  29.104  1.00  0.00     0.010 A 
ATOM     32  C   UNL A   1      41.308  27.669  29.429  1.00  0.00    -0.014 A 
BRANCH  32  33
ATOM     33  C   UNL A   1      41.092  28.643  30.529  1.00  0.00     0.031 A 
ATOM     34  C   UNL A   1      41.906  28.546  31.790  1.00  0.00     0.074 A 
ATOM     35  C   UNL A   1      40.118  29.569  30.419  1.00  0.00     0.049 A 
ATOM     36  N   UNL A   1      41.798  29.235  32.896  1.00  0.00    -0.248 NA
ATOM     37  C   UNL A   1      42.963  27.523  31.821  1.00  0.00     0.031 C 
ATOM     38  C   UNL A   1      39.227  29.731  29.266  1.00  0.00     0.029 A 
ATOM     39  N   UNL A   1      39.701  30.540  31.295  1.00  0.00    -0.354 N 
ATOM     40  C   UNL A   1      42.764  28.726  33.756  1.00  0.00     0.074 A 
ATOM     41  C   UNL A   1      43.413  27.635  33.063  1.00  0.00     0.031 C 
ATOM     42  C   UNL A   1      38.378  30.744  29.505  1.00  0.00     0.029 A 
ATOM     43  C   UNL A   1      38.639  31.283  30.835  1.00  0.00     0.049 A 
ATOM     44  H   UNL A   1      40.124  30.691  32.172  1.00  0.00     0.167 HD
ATOM     45  C   UNL A   1      43.099  29.148  34.998  1.00  0.00     0.037 A 
ATOM     46  C   UNL A   1      37.947  32.278  31.424  1.00  0.00     0.037 A 
ATOM     47  C   UNL A   1      42.469  30.251  35.675  1.00  0.00     0.049 A 
ATOM     48  C   UNL A   1      38.345  32.733  32.802  1.00  0.00     0.074 A 
ATOM     49  C   UNL A   1      42.758  30.773  36.923  1.00  0.00     0.029 A 
ATOM     50  N   UNL A   1      41.429  31.007  35.156  1.00  0.00    -0.354 N 
ATOM     51  N   UNL A   1      39.292  32.267  33.582  1.00  0.00    -0.248 NA
ATOM     52  C   UNL A   1      37.590  33.854  33.379  1.00  0.00     0.031 C 
ATOM     53  C   UNL A   1      41.875  31.831  37.170  1.00  0.00     0.029 A 
ATOM     54  C   UNL A   1      41.063  31.991  36.060  1.00  0.00     0.049 A 
ATOM     55  H   UNL A   1      41.012  30.866  34.275  1.00  0.00     0.167 HD
ATOM     56  C   UNL A   1      39.261  33.053  34.727  1.00  0.00     0.074 A 
ATOM     57  C   UNL A   1      38.213  34.034  34.534  1.00  0.00     0.031 C 
ATOM     58  C   UNL A   1      40.029  32.970  35.841  1.00  0.00     0.037 A 
BRANCH  45  59
ATOM     59  C   UNL A   1      44.218  28.431  35.699  1.00  0.00     0.058 A 
ATOM     60  C   UNL A   1      45.555  28.831  35.537  1.00  0.00     0.135 A 
ATOM     61  C   UNL A   1      43.954  27.370  36.580  1.00  0.00     0.135 A 
ATOM     62  F   UNL A   1      45.864  29.828  34.693  1.00  0.00    -0.206 F 
ATOM     63  C   UNL A   1      46.591  28.195  36.210  1.00  0.00     0.059 A 
ATOM     64  C   UNL A   1      44.974  26.734  37.284  1.00  0.00     0.059 A 
ATOM     65  F   UNL A   1      42.695  26.946  36.769  1.00  0.00    -0.206 F 
ATOM     66  C   UNL A   1      46.290  27.148  37.084  1.00  0.00     0.060 A 
BRANCH  66  67
ATOM     67  S   UNL A   1      47.646  26.350  37.967  1.00  0.00     0.124 S 
ATOM     68  O   UNL A   1      48.568  27.466  38.154  1.00  0.00    -0.237 OA
ATOM     69  O   UNL A   1      46.990  25.863  39.176  1.00  0.00    -0.237 OA
ATOM     70  O   UNL A   1      48.094  25.315  37.041  1.00  0.00    -0.744 OA
ENDBRANCH  66  67
ENDBRANCH  45  59
BRANCH  46  71
ATOM     71  C   UNL A   1      36.808  32.920  30.715  1.00  0.00     0.058 A 
ATOM     72  C   UNL A   1      37.026  33.880  29.716  1.00  0.00     0.135 A 
ATOM     73  C   UNL A   1      35.480  32.600  31.034  1.00  0.00     0.135 A 
ATOM     74  F   UNL A   1      38.278  34.222  29.378  1.00  0.00    -0.206 F 
ATOM     75  C   UNL A   1      35.969  34.526  29.082  1.00  0.00     0.059 A 
ATOM     76  C   UNL A   1      34.406  33.213  30.397  1.00  0.00     0.059 A 
ATOM     77  F   UNL A   1      35.217  31.672  31.969  1.00  0.00    -0.206 F 
ATOM     78  C   UNL A   1      34.662  34.188  29.434  1.00  0.00     0.060 A 
BRANCH  78  79
ATOM     79  S   UNL A   1      33.294  35.016  28.593  1.00  0.00     0.124 S 
ATOM     80  O   UNL A   1      34.003  35.995  27.778  1.00  0.00    -0.237 OA
ATOM     81  O   UNL A   1      32.665  33.918  27.870  1.00  0.00    -0.237 OA
ATOM     82  O   UNL A   1      32.507  35.562  29.696  1.00  0.00    -0.744 OA
ENDBRANCH  78  79
ENDBRANCH  46  71
BRANCH  58  83
ATOM     83  C   UNL A   1      39.796  33.990  36.919  1.00  0.00     0.058 A 
ATOM     84  C   UNL A   1      39.039  33.692  38.063  1.00  0.00     0.135 A 
ATOM     85  C   UNL A   1      40.381  35.263  36.831  1.00  0.00     0.135 A 
ATOM     86  F   UNL A   1      38.453  32.491  38.191  1.00  0.00    -0.206 F 
ATOM     87  C   UNL A   1      38.852  34.629  39.073  1.00  0.00     0.059 A 
ATOM     88  C   UNL A   1      40.228  36.207  37.841  1.00  0.00     0.059 A 
ATOM     89  F   UNL A   1      41.124  35.593  35.762  1.00  0.00    -0.206 F 
ATOM     90  C   UNL A   1      39.452  35.886  38.953  1.00  0.00     0.060 A 
BRANCH  90  91
ATOM     91  S   UNL A   1      39.232  37.082  40.287  1.00  0.00     0.124 S 
ATOM     92  O   UNL A   1      38.617  38.200  39.581  1.00  0.00    -0.237 OA
ATOM     93  O   UNL A   1      38.365  36.362  41.214  1.00  0.00    -0.237 OA
ATOM     94  O   UNL A   1      40.593  37.311  40.763  1.00  0.00    -0.744 OA
ENDBRANCH  90  91
ENDBRANCH  58  83
ENDBRANCH  32  33
ENDBRANCH  24  27
ENDBRANCH  22  23
ENDBRANCH  21  22
ENDBRANCH  20  21
ENDBRANCH   1  20
TORSDOF 19
ENDMDL
MODEL 2
REMARK VINA RESULT:     -10.3      5.047     10.575
REMARK SMILES CCNC(=O)C[NH2+][C@@H](C)[C@@H](C)C(=O)NCCCCNC(=O)c1ccc(-c2c3nc(c(-c4c(F)cc(S(=O)(=O)[O-])cc4F)c4ccc([nH]4)c(-c4c(F)cc(S(=O)(=O)[O-])cc4F)c4nc(c(-c5c(F)cc(S(=O)(=O)[O-])cc5F)c5ccc2[nH]5)C=C4)C=C3)cc1
REMARK SMILES IDX 15 1 14 2 12 3 13 4 10 6 11 7 8 8 9 9 7 10 6 13 4 14 3 15
REMARK SMILES IDX 5 17 2 18 1 19 16 20 17 21 18 22 19 23 20 24 21 26 22 27
REMARK SMILES IDX 23 28 87 29 24 30 86 31 25 32 26 33 27 34 80 35 28 36 85 37
REMARK SMILES IDX 79 38 81 39 29 40 84 41 78 42 77 43 30 45 64 46 43 47 63 48
REMARK SMILES IDX 44 49 47 50 62 51 82 52 45 53 46 54 61 56 83 57 48 58 31 59
REMARK SMILES IDX 32 60 41 61 33 62 34 63 40 64 42 65 35 66 36 67 37 68 38 69
REMARK SMILES IDX 39 70 65 71 66 72 75 73 67 74 68 75 74 76 76 77 69 78 70 79
REMARK SMILES IDX 71 80 72 81 73 82 49 83 50 84 59 85 51 86 52 87 58 88 60 89
REMARK SMILES IDX 53 90 54 91 55 92 56 93 57 94
REMARK H PARENT 14 5 7 11 7 12 3 16 19 25 81 44 47 55
REMARK Flexibility Score: inf
ROOT
ATOM      1  C   UNL A   1      34.007  26.174  24.871  1.00  0.00     0.116 C 
ENDROOT
BRANCH   1   2
ATOM      2  N   UNL A   1      33.765  25.311  23.730  1.00  0.00    -0.356 N 
ATOM      3  C   UNL A   1      34.408  24.200  23.283  1.00  0.00     0.228 C 
ATOM      4  O   UNL A   1      33.970  23.666  22.260  1.00  0.00    -0.275 OA
ATOM      5  H   UNL A   1      32.994  25.580  23.179  1.00  0.00     0.163 HD
BRANCH   3   6
ATOM      6  C   UNL A   1      35.617  23.597  24.000  1.00  0.00     0.133 C 
ATOM      7  C   UNL A   1      36.517  22.871  22.996  1.00  0.00     0.024 C 
BRANCH   6   8
ATOM      8  C   UNL A   1      35.219  22.783  25.256  1.00  0.00     0.191 C 
ATOM      9  C   UNL A   1      36.215  23.043  26.397  1.00  0.00     0.076 C 
BRANCH   8  10
ATOM     10  N   UNL A   1      35.135  21.344  24.943  1.00  0.00    -0.336 N 
ATOM     11  H   UNL A   1      35.012  21.234  23.936  1.00  0.00     0.346 HD
ATOM     12  H   UNL A   1      35.998  20.903  25.262  1.00  0.00     0.346 HD
BRANCH  10  13
ATOM     13  C   UNL A   1      34.011  20.687  25.633  1.00  0.00     0.362 C 
BRANCH  13  14
ATOM     14  C   UNL A   1      32.959  20.234  24.618  1.00  0.00     0.275 C 
ATOM     15  N   UNL A   1      32.501  18.946  24.652  1.00  0.00    -0.351 N 
ATOM     16  H   UNL A   1      31.907  18.684  23.912  1.00  0.00     0.163 HD
ATOM     17  O   UNL A   1      32.528  20.996  23.752  1.00  0.00    -0.269 OA
BRANCH  15  18
ATOM     18  C   UNL A   1      32.774  17.917  25.637  1.00  0.00     0.112 C 
ATOM     19  C   UNL A   1      32.676  16.538  25.013  1.00  0.00     0.027 C 
ENDBRANCH  15  18
ENDBRANCH  13  14
ENDBRANCH  10  13
ENDBRANCH   8  10
ENDBRANCH   6   8
ENDBRANCH   3   6
ENDBRANCH   1   2
BRANCH   1  20
ATOM     20  C   UNL A   1      33.716  27.641  24.558  1.00  0.00     0.023 C 
BRANCH  20  21
ATOM     21  C   UNL A   1      32.938  28.392  25.639  1.00  0.00     0.023 C 
BRANCH  21  22
ATOM     22  C   UNL A   1      33.659  28.555  26.973  1.00  0.00     0.116 C 
BRANCH  22  23
ATOM     23  N   UNL A   1      33.536  29.892  27.534  1.00  0.00    -0.352 N 
ATOM     24  C   UNL A   1      34.466  30.621  28.235  1.00  0.00     0.251 C 
ATOM     25  H   UNL A   1      32.668  30.335  27.391  1.00  0.00     0.163 HD
ATOM     26  O   UNL A   1      34.154  31.701  28.728  1.00  0.00    -0.269 OA
BRANCH  24  27
ATOM     27  C   UNL A   1      35.828  30.078  28.425  1.00  0.00     0.039 A 
ATOM     28  C   UNL A   1      36.719  30.100  27.349  1.00  0.00     0.014 A 
ATOM     29  C   UNL A   1      36.235  29.581  29.666  1.00  0.00     0.014 A 
ATOM     30  C   UNL A   1      38.041  29.694  27.539  1.00  0.00     0.010 A 
ATOM     31  C   UNL A   1      37.569  29.241  29.870  1.00  0.00     0.010 A 
ATOM     32  C   UNL A   1      38.487  29.299  28.811  1.00  0.00    -0.014 A 
BRANCH  32  33
ATOM     33  C   UNL A   1      39.910  28.953  29.057  1.00  0.00     0.031 A 
ATOM     34  C   UNL A   1      40.856  29.994  29.589  1.00  0.00     0.074 A 
ATOM     35  C   UNL A   1      40.363  27.725  28.737  1.00  0.00     0.049 A 
ATOM     36  N   UNL A   1      42.148  29.917  29.774  1.00  0.00    -0.248 NA
ATOM     37  C   UNL A   1      40.278  31.304  29.934  1.00  0.00     0.031 C 
ATOM     38  C   UNL A   1      39.554  26.644  28.166  1.00  0.00     0.029 A 
ATOM     39  N   UNL A   1      41.620  27.180  28.831  1.00  0.00    -0.354 N 
ATOM     40  C   UNL A   1      42.539  31.164  30.249  1.00  0.00     0.074 A 
ATOM     41  C   UNL A   1      41.356  31.996  30.272  1.00  0.00     0.031 C 
ATOM     42  C   UNL A   1      40.333  25.567  27.970  1.00  0.00     0.029 A 
ATOM     43  C   UNL A   1      41.700  25.887  28.368  1.00  0.00     0.049 A 
ATOM     44  H   UNL A   1      42.392  27.670  29.196  1.00  0.00     0.167 HD
ATOM     45  C   UNL A   1      43.765  31.569  30.654  1.00  0.00     0.037 A 
ATOM     46  C   UNL A   1      42.757  25.058  28.265  1.00  0.00     0.037 A 
ATOM     47  C   UNL A   1      44.935  30.731  30.654  1.00  0.00     0.049 A 
ATOM     48  C   UNL A   1      44.108  25.531  28.731  1.00  0.00     0.074 A 
ATOM     49  C   UNL A   1      46.217  31.041  31.074  1.00  0.00     0.029 A 
ATOM     50  N   UNL A   1      44.964  29.414  30.222  1.00  0.00    -0.354 N 
ATOM     51  N   UNL A   1      44.448  26.701  29.218  1.00  0.00    -0.248 NA
ATOM     52  C   UNL A   1      45.217  24.571  28.644  1.00  0.00     0.031 C 
ATOM     53  C   UNL A   1      47.028  29.918  30.872  1.00  0.00     0.029 A 
ATOM     54  C   UNL A   1      46.242  28.898  30.363  1.00  0.00     0.049 A 
ATOM     55  H   UNL A   1      44.191  28.918  29.868  1.00  0.00     0.167 HD
ATOM     56  C   UNL A   1      45.802  26.608  29.517  1.00  0.00     0.074 A 
ATOM     57  C   UNL A   1      46.217  25.264  29.171  1.00  0.00     0.031 C 
ATOM     58  C   UNL A   1      46.630  27.551  30.030  1.00  0.00     0.037 A 
BRANCH  45  59
ATOM     59  C   UNL A   1      43.902  32.978  31.160  1.00  0.00     0.058 A 
ATOM     60  C   UNL A   1      44.223  34.036  30.293  1.00  0.00     0.135 A 
ATOM     61  C   UNL A   1      43.662  33.286  32.508  1.00  0.00     0.135 A 
ATOM     62  F   UNL A   1      44.480  33.793  28.998  1.00  0.00    -0.206 F 
ATOM     63  C   UNL A   1      44.317  35.346  30.748  1.00  0.00     0.059 A 
ATOM     64  C   UNL A   1      43.726  34.594  32.981  1.00  0.00     0.059 A 
ATOM     65  F   UNL A   1      43.355  32.312  33.379  1.00  0.00    -0.206 F 
ATOM     66  C   UNL A   1      44.064  35.615  32.095  1.00  0.00     0.060 A 
BRANCH  66  67
ATOM     67  S   UNL A   1      44.167  37.326  32.662  1.00  0.00     0.124 S 
ATOM     68  O   UNL A   1      43.907  38.057  31.426  1.00  0.00    -0.237 OA
ATOM     69  O   UNL A   1      43.110  37.386  33.667  1.00  0.00    -0.237 OA
ATOM     70  O   UNL A   1      45.527  37.432  33.179  1.00  0.00    -0.744 OA
ENDBRANCH  66  67
ENDBRANCH  45  59
BRANCH  46  71
ATOM     71  C   UNL A   1      42.586  23.691  27.704  1.00  0.00     0.058 A 
ATOM     72  C   UNL A   1      42.421  22.580  28.544  1.00  0.00     0.135 A 
ATOM     73  C   UNL A   1      42.603  23.467  26.319  1.00  0.00     0.135 A 
ATOM     74  F   UNL A   1      42.401  22.743  29.876  1.00  0.00    -0.206 F 
ATOM     75  C   UNL A   1      42.312  21.290  28.034  1.00  0.00     0.059 A 
ATOM     76  C   UNL A   1      42.471  22.190  25.784  1.00  0.00     0.059 A 
ATOM     77  F   UNL A   1      42.738  24.500  25.472  1.00  0.00    -0.206 F 
ATOM     78  C   UNL A   1      42.343  21.106  26.651  1.00  0.00     0.060 A 
BRANCH  78  79
ATOM     79  S   UNL A   1      42.182  19.431  25.994  1.00  0.00     0.124 S 
ATOM     80  O   UNL A   1      43.011  19.506  24.797  1.00  0.00    -0.237 OA
ATOM     81  O   UNL A   1      42.708  18.618  27.086  1.00  0.00    -0.237 OA
ATOM     82  O   UNL A   1      40.746  19.301  25.762  1.00  0.00    -0.744 OA
ENDBRANCH  78  79
ENDBRANCH  46  71
BRANCH  58  83
ATOM     83  C   UNL A   1      48.056  27.153  30.287  1.00  0.00     0.058 A 
ATOM     84  C   UNL A   1      49.074  27.423  29.361  1.00  0.00     0.135 A 
ATOM     85  C   UNL A   1      48.413  26.541  31.500  1.00  0.00     0.135 A 
ATOM     86  F   UNL A   1      48.782  28.000  28.185  1.00  0.00    -0.206 F 
ATOM     87  C   UNL A   1      50.397  27.080  29.618  1.00  0.00     0.059 A 
ATOM     88  C   UNL A   1      49.734  26.213  31.788  1.00  0.00     0.059 A 
ATOM     89  F   UNL A   1      47.478  26.272  32.423  1.00  0.00    -0.206 F 
ATOM     90  C   UNL A   1      50.718  26.475  30.836  1.00  0.00     0.060 A 
BRANCH  90  91
ATOM     91  S   UNL A   1      52.444  26.068  31.173  1.00  0.00     0.124 S 
ATOM     92  O   UNL A   1      52.317  24.774  31.835  1.00  0.00    -0.237 OA
ATOM     93  O   UNL A   1      53.028  26.042  29.836  1.00  0.00    -0.237 OA
ATOM     94  O   UNL A   1      52.891  27.167  32.024  1.00  0.00    -0.744 OA
ENDBRANCH  90  91
ENDBRANCH  58  83
ENDBRANCH  32  33
ENDBRANCH  24  27
ENDBRANCH  22  23
ENDBRANCH  21  22
ENDBRANCH  20  21
ENDBRANCH   1  20
TORSDOF 19
ENDMDL
MODEL 3
REMARK VINA RESULT:     -10.2      3.352      4.467
REMARK SMILES CCNC(=O)C[NH2+][C@@H](C)[C@@H](C)C(=O)NCCCCNC(=O)c1ccc(-c2c3nc(c(-c4c(F)cc(S(=O)(=O)[O-])cc4F)c4ccc([nH]4)c(-c4c(F)cc(S(=O)(=O)[O-])cc4F)c4nc(c(-c5c(F)cc(S(=O)(=O)[O-])cc5F)c5ccc2[nH]5)C=C4)C=C3)cc1
REMARK SMILES IDX 15 1 14 2 12 3 13 4 10 6 11 7 8 8 9 9 7 10 6 13 4 14 3 15
REMARK SMILES IDX 5 17 2 18 1 19 16 20 17 21 18 22 19 23 20 24 21 26 22 27
REMARK SMILES IDX 23 28 87 29 24 30 86 31 25 32 26 33 27 34 80 35 28 36 85 37
REMARK SMILES IDX 79 38 81 39 29 40 84 41 78 42 77 43 30 45 64 46 43 47 63 48
REMARK SMILES IDX 44 49 47 50 62 51 82 52 45 53 46 54 61 56 83 57 48 58 31 59
REMARK SMILES IDX 32 60 41 61 33 62 34 63 40 64 42 65 35 66 36 67 37 68 38 69
REMARK SMILES IDX 39 70 65 71 66 72 75 73 67 74 68 75 74 76 76 77 69 78 70 79
REMARK SMILES IDX 71 80 72 81 73 82 49 83 50 84 59 85 51 86 52 87 58 88 60 89
REMARK SMILES IDX 53 90 54 91 55 92 56 93 57 94
REMARK H PARENT 14 5 7 11 7 12 3 16 19 25 81 44 47 55
REMARK Flexibility Score: inf
ROOT
ATOM      1  C   UNL A   1      34.138  24.557  24.438  1.00  0.00     0.116 C 
ENDROOT
BRANCH   1   2
ATOM      2  N   UNL A   1      34.020  25.900  24.974  1.00  0.00    -0.356 N 
ATOM      3  C   UNL A   1      33.730  27.089  24.380  1.00  0.00     0.228 C 
ATOM      4  O   UNL A   1      33.704  28.089  25.103  1.00  0.00    -0.275 OA
ATOM      5  H   UNL A   1      34.178  25.962  25.944  1.00  0.00     0.163 HD
BRANCH   3   6
ATOM      6  C   UNL A   1      33.429  27.218  22.887  1.00  0.00     0.133 C 
ATOM      7  C   UNL A   1      34.009  28.527  22.344  1.00  0.00     0.024 C 
BRANCH   6   8
ATOM      8  C   UNL A   1      31.939  26.955  22.555  1.00  0.00     0.191 C 
ATOM      9  C   UNL A   1      31.817  25.871  21.472  1.00  0.00     0.076 C 
BRANCH   8  10
ATOM     10  N   UNL A   1      31.267  28.201  22.138  1.00  0.00    -0.336 N 
ATOM     11  H   UNL A   1      31.931  28.972  22.215  1.00  0.00     0.346 HD
ATOM     12  H   UNL A   1      30.950  28.078  21.175  1.00  0.00     0.346 HD
BRANCH  10  13
ATOM     13  C   UNL A   1      30.087  28.504  22.967  1.00  0.00     0.362 C 
BRANCH  13  14
ATOM     14  C   UNL A   1      30.415  29.612  23.970  1.00  0.00     0.275 C 
ATOM     15  N   UNL A   1      29.880  30.857  23.797  1.00  0.00    -0.351 N 
ATOM     16  H   UNL A   1      30.210  31.553  24.410  1.00  0.00     0.163 HD
ATOM     17  O   UNL A   1      31.172  29.416  24.922  1.00  0.00    -0.269 OA
BRANCH  15  18
ATOM     18  C   UNL A   1      28.889  31.286  22.829  1.00  0.00     0.112 C 
ATOM     19  C   UNL A   1      27.539  31.481  23.494  1.00  0.00     0.027 C 
ENDBRANCH  15  18
ENDBRANCH  13  14
ENDBRANCH  10  13
ENDBRANCH   8  10
ENDBRANCH   6   8
ENDBRANCH   3   6
ENDBRANCH   1   2
BRANCH   1  20
ATOM     20  C   UNL A   1      34.407  23.521  25.529  1.00  0.00     0.023 C 
BRANCH  20  21
ATOM     21  C   UNL A   1      35.808  23.573  26.140  1.00  0.00     0.023 C 
BRANCH  21  22
ATOM     22  C   UNL A   1      36.954  23.701  25.142  1.00  0.00     0.116 C 
BRANCH  22  23
ATOM     23  N   UNL A   1      38.028  22.746  25.374  1.00  0.00    -0.352 N 
ATOM     24  C   UNL A   1      39.202  22.922  26.065  1.00  0.00     0.251 C 
ATOM     25  H   UNL A   1      37.894  21.852  24.984  1.00  0.00     0.163 HD
ATOM     26  O   UNL A   1      40.049  22.032  26.072  1.00  0.00    -0.269 OA
BRANCH  24  27
ATOM     27  C   UNL A   1      39.456  24.201  26.761  1.00  0.00     0.039 A 
ATOM     28  C   UNL A   1      38.987  24.362  28.067  1.00  0.00     0.014 A 
ATOM     29  C   UNL A   1      40.181  25.223  26.142  1.00  0.00     0.014 A 
ATOM     30  C   UNL A   1      39.311  25.518  28.779  1.00  0.00     0.010 A 
ATOM     31  C   UNL A   1      40.559  26.343  26.876  1.00  0.00     0.010 A 
ATOM     32  C   UNL A   1      40.134  26.500  28.203  1.00  0.00    -0.014 A 
BRANCH  32  33
ATOM     33  C   UNL A   1      40.569  27.693  28.974  1.00  0.00     0.031 A 
ATOM     34  C   UNL A   1      41.888  27.683  29.696  1.00  0.00     0.074 A 
ATOM     35  C   UNL A   1      39.745  28.755  29.080  1.00  0.00     0.049 A 
ATOM     36  N   UNL A   1      42.396  28.581  30.499  1.00  0.00    -0.248 NA
ATOM     37  C   UNL A   1      42.737  26.494  29.511  1.00  0.00     0.031 C 
ATOM     38  C   UNL A   1      38.418  28.865  28.468  1.00  0.00     0.029 A 
ATOM     39  N   UNL A   1      39.896  29.942  29.753  1.00  0.00    -0.354 N 
ATOM     40  C   UNL A   1      43.617  28.066  30.920  1.00  0.00     0.074 A 
ATOM     41  C   UNL A   1      43.748  26.753  30.327  1.00  0.00     0.031 C 
ATOM     42  C   UNL A   1      37.883  30.055  28.788  1.00  0.00     0.029 A 
ATOM     43  C   UNL A   1      38.809  30.779  29.651  1.00  0.00     0.049 A 
ATOM     44  H   UNL A   1      40.707  30.173  30.262  1.00  0.00     0.167 HD
ATOM     45  C   UNL A   1      44.554  28.646  31.707  1.00  0.00     0.037 A 
ATOM     46  C   UNL A   1      38.580  31.987  30.202  1.00  0.00     0.037 A 
ATOM     47  C   UNL A   1      44.431  29.963  32.274  1.00  0.00     0.049 A 
ATOM     48  C   UNL A   1      39.642  32.613  31.065  1.00  0.00     0.074 A 
ATOM     49  C   UNL A   1      45.340  30.650  33.059  1.00  0.00     0.029 A 
ATOM     50  N   UNL A   1      43.336  30.797  32.108  1.00  0.00    -0.354 N 
ATOM     51  N   UNL A   1      40.810  32.128  31.416  1.00  0.00    -0.248 NA
ATOM     52  C   UNL A   1      39.363  33.953  31.600  1.00  0.00     0.031 C 
ATOM     53  C   UNL A   1      44.783  31.891  33.390  1.00  0.00     0.029 A 
ATOM     54  C   UNL A   1      43.544  31.991  32.779  1.00  0.00     0.049 A 
ATOM     55  H   UNL A   1      42.529  30.573  31.590  1.00  0.00     0.167 HD
ATOM     56  C   UNL A   1      41.412  33.112  32.191  1.00  0.00     0.074 A 
ATOM     57  C   UNL A   1      40.488  34.226  32.246  1.00  0.00     0.031 C 
ATOM     58  C   UNL A   1      42.620  33.096  32.805  1.00  0.00     0.037 A 
BRANCH  45  59
ATOM     59  C   UNL A   1      45.812  27.870  31.980  1.00  0.00     0.058 A 
ATOM     60  C   UNL A   1      45.855  26.877  32.972  1.00  0.00     0.135 A 
ATOM     61  C   UNL A   1      46.968  28.080  31.213  1.00  0.00     0.135 A 
ATOM     62  F   UNL A   1      44.782  26.649  33.747  1.00  0.00    -0.206 F 
ATOM     63  C   UNL A   1      47.005  26.133  33.206  1.00  0.00     0.059 A 
ATOM     64  C   UNL A   1      48.124  27.329  31.413  1.00  0.00     0.059 A 
ATOM     65  F   UNL A   1      46.982  29.019  30.253  1.00  0.00    -0.206 F 
ATOM     66  C   UNL A   1      48.134  26.364  32.419  1.00  0.00     0.060 A 
BRANCH  66  67
ATOM     67  S   UNL A   1      49.611  25.371  32.721  1.00  0.00     0.124 S 
ATOM     68  O   UNL A   1      50.551  26.384  33.193  1.00  0.00    -0.237 OA
ATOM     69  O   UNL A   1      49.148  24.420  33.727  1.00  0.00    -0.237 OA
ATOM     70  O   UNL A   1      49.910  24.799  31.412  1.00  0.00    -0.744 OA
ENDBRANCH  66  67
ENDBRANCH  45  59
BRANCH  46  71
ATOM     71  C   UNL A   1      37.296  32.694  29.951  1.00  0.00     0.058 A 
ATOM     72  C   UNL A   1      36.132  32.353  30.656  1.00  0.00     0.135 A 
ATOM     73  C   UNL A   1      37.202  33.713  28.991  1.00  0.00     0.135 A 
ATOM     74  F   UNL A   1      36.170  31.383  31.582  1.00  0.00    -0.206 F 
ATOM     75  C   UNL A   1      34.913  32.971  30.395  1.00  0.00     0.059 A 
ATOM     76  C   UNL A   1      36.001  34.363  28.729  1.00  0.00     0.059 A 
ATOM     77  F   UNL A   1      38.292  34.091  28.303  1.00  0.00    -0.206 F 
ATOM     78  C   UNL A   1      34.858  33.972  29.425  1.00  0.00     0.060 A 
BRANCH  78  79
ATOM     79  S   UNL A   1      33.276  34.784  29.104  1.00  0.00     0.124 S 
ATOM     80  O   UNL A   1      32.639  33.834  28.200  1.00  0.00    -0.237 OA
ATOM     81  O   UNL A   1      32.701  34.881  30.441  1.00  0.00    -0.237 OA
ATOM     82  O   UNL A   1      33.671  36.058  28.507  1.00  0.00    -0.744 OA
ENDBRANCH  78  79
ENDBRANCH  46  71
BRANCH  58  83
ATOM     83  C   UNL A   1      43.032  34.331  33.553  1.00  0.00     0.058 A 
ATOM     84  C   UNL A   1      42.646  34.549  34.885  1.00  0.00     0.135 A 
ATOM     85  C   UNL A   1      43.868  35.282  32.946  1.00  0.00     0.135 A 
ATOM     86  F   UNL A   1      41.843  33.672  35.507  1.00  0.00    -0.206 F 
ATOM     87  C   UNL A   1      43.056  35.680  35.583  1.00  0.00     0.059 A 
ATOM     88  C   UNL A   1      44.311  36.408  33.633  1.00  0.00     0.059 A 
ATOM     89  F   UNL A   1      44.274  35.114  31.678  1.00  0.00    -0.206 F 
ATOM     90  C   UNL A   1      43.891  36.604  34.948  1.00  0.00     0.060 A 
BRANCH  90  91
ATOM     91  S   UNL A   1      44.446  38.050  35.876  1.00  0.00     0.124 S 
ATOM     92  O   UNL A   1      43.978  37.733  37.221  1.00  0.00    -0.237 OA
ATOM     93  O   UNL A   1      45.892  38.010  35.682  1.00  0.00    -0.237 OA
ATOM     94  O   UNL A   1      43.762  39.158  35.217  1.00  0.00    -0.744 OA
ENDBRANCH  90  91
ENDBRANCH  58  83
ENDBRANCH  32  33
ENDBRANCH  24  27
ENDBRANCH  22  23
ENDBRANCH  21  22
ENDBRANCH  20  21
ENDBRANCH   1  20
TORSDOF 19
ENDMDL
