MODEL 1
REMARK VINA RESULT:     -11.5      0.000      0.000
REMARK SMILES CC(C)CS(=O)(=O)Cc1c(C(=O)NCCCCNC(=O)c2ccc(-c3c4nc(c(-c5c(F)cc(S(=O)(=O)[O-])cc5F)c5ccc([nH]5)c(-c5c(F)cc(S(=O)(=O)[O-])cc5F)c5nc(c(-c6c(F)cc(S(=O)(=O)[O-])cc6F)c6ccc3[nH]6)C=C5)C=C4)cc2)oc2ccccc12
REMARK SMILES IDX 15 1 14 2 13 3 11 4 12 5 10 7 9 8 93 9 87 10 88 11 92 12
REMARK SMILES IDX 89 13 91 14 90 15 8 16 5 17 6 18 7 19 4 20 2 21 1 22 3 23
REMARK SMILES IDX 16 24 17 25 18 26 19 27 20 29 21 30 22 31 86 32 23 33 85 34
REMARK SMILES IDX 24 35 25 36 26 37 79 38 27 39 84 40 78 41 80 42 28 43 83 44
REMARK SMILES IDX 77 45 76 46 29 48 63 49 42 50 62 51 43 52 46 53 61 54 81 55
REMARK SMILES IDX 44 56 45 57 60 59 82 60 47 61 30 62 31 63 40 64 32 65 33 66
REMARK SMILES IDX 39 67 41 68 34 69 35 70 36 71 37 72 38 73 64 74 65 75 74 76
REMARK SMILES IDX 66 77 67 78 73 79 75 80 68 81 69 82 70 83 71 84 72 85 48 86
REMARK SMILES IDX 49 87 58 88 50 89 51 90 57 91 59 92 52 93 53 94 54 95 55 96
REMARK SMILES IDX 56 97
REMARK H PARENT 13 6 18 28 80 47 46 58
REMARK Flexibility Score: inf
ROOT
ATOM      1  C   UNL A   1      31.778  30.508  26.538  1.00  0.00     0.023 C 
ENDROOT
BRANCH   1   2
ATOM      2  C   UNL A   1      33.214  30.058  26.270  1.00  0.00     0.116 C 
BRANCH   2   3
ATOM      3  N   UNL A   1      33.357  29.743  24.861  1.00  0.00    -0.349 N 
ATOM      4  C   UNL A   1      33.477  28.545  24.206  1.00  0.00     0.287 C 
ATOM      5  O   UNL A   1      33.888  28.605  23.053  1.00  0.00    -0.266 OA
ATOM      6  H   UNL A   1      33.370  30.530  24.270  1.00  0.00     0.163 HD
BRANCH   4   7
ATOM      7  C   UNL A   1      33.002  27.309  24.798  1.00  0.00     0.196 A 
ATOM      8  C   UNL A   1      31.716  26.836  25.077  1.00  0.00     0.027 A 
ATOM      9  C   UNL A   1      31.918  25.510  25.626  1.00  0.00     0.025 A 
ATOM     10  O   UNL A   1      33.929  26.373  25.165  1.00  0.00    -0.451 OA
ATOM     11  C   UNL A   1      33.283  25.300  25.669  1.00  0.00     0.135 A 
ATOM     12  C   UNL A   1      31.077  24.472  26.079  1.00  0.00     0.012 A 
ATOM     13  C   UNL A   1      33.894  24.145  26.155  1.00  0.00     0.048 A 
ATOM     14  C   UNL A   1      31.655  23.290  26.564  1.00  0.00     0.001 A 
ATOM     15  C   UNL A   1      33.042  23.133  26.607  1.00  0.00     0.004 A 
BRANCH   8  16
ATOM     16  C   UNL A   1      30.327  27.379  24.880  1.00  0.00     0.177 C 
BRANCH  16  17
ATOM     17  S   UNL A   1      29.580  27.878  23.340  1.00  0.00     0.154 S 
ATOM     18  O   UNL A   1      28.233  27.323  23.350  1.00  0.00    -0.228 OA
ATOM     19  O   UNL A   1      30.468  27.467  22.268  1.00  0.00    -0.228 OA
BRANCH  17  20
ATOM     20  C   UNL A   1      29.412  29.662  23.299  1.00  0.00     0.140 C 
BRANCH  20  21
ATOM     21  C   UNL A   1      28.047  30.202  22.867  1.00  0.00    -0.002 C 
ATOM     22  C   UNL A   1      27.723  31.537  23.535  1.00  0.00     0.008 C 
ATOM     23  C   UNL A   1      28.050  30.382  21.344  1.00  0.00     0.008 C 
ENDBRANCH  20  21
ENDBRANCH  17  20
ENDBRANCH  16  17
ENDBRANCH   8  16
ENDBRANCH   4   7
ENDBRANCH   2   3
ENDBRANCH   1   2
BRANCH   1  24
ATOM     24  C   UNL A   1      31.632  32.027  26.715  1.00  0.00     0.023 C 
BRANCH  24  25
ATOM     25  C   UNL A   1      32.800  32.709  27.423  1.00  0.00     0.116 C 
BRANCH  25  26
ATOM     26  N   UNL A   1      32.513  34.097  27.744  1.00  0.00    -0.352 N 
ATOM     27  C   UNL A   1      33.069  34.887  28.719  1.00  0.00     0.251 C 
ATOM     28  H   UNL A   1      31.826  34.529  27.186  1.00  0.00     0.163 HD
ATOM     29  O   UNL A   1      32.584  35.988  28.966  1.00  0.00    -0.269 OA
BRANCH  27  30
ATOM     30  C   UNL A   1      34.235  34.396  29.480  1.00  0.00     0.039 A 
ATOM     31  C   UNL A   1      34.022  33.776  30.713  1.00  0.00     0.014 A 
ATOM     32  C   UNL A   1      35.531  34.548  28.977  1.00  0.00     0.014 A 
ATOM     33  C   UNL A   1      35.108  33.261  31.422  1.00  0.00     0.010 A 
ATOM     34  C   UNL A   1      36.606  33.988  29.660  1.00  0.00     0.010 A 
ATOM     35  C   UNL A   1      36.405  33.342  30.889  1.00  0.00    -0.014 A 
BRANCH  35  36
ATOM     36  C   UNL A   1      37.564  32.755  31.606  1.00  0.00     0.031 A 
ATOM     37  C   UNL A   1      38.257  31.542  31.052  1.00  0.00     0.074 A 
ATOM     38  C   UNL A   1      37.947  33.277  32.787  1.00  0.00     0.049 A 
ATOM     39  N   UNL A   1      39.236  30.845  31.565  1.00  0.00    -0.248 NA
ATOM     40  C   UNL A   1      37.768  31.032  29.760  1.00  0.00     0.031 C 
ATOM     41  C   UNL A   1      37.321  34.423  33.449  1.00  0.00     0.029 A 
ATOM     42  N   UNL A   1      38.949  32.903  33.647  1.00  0.00    -0.354 N 
ATOM     43  C   UNL A   1      39.472  29.807  30.672  1.00  0.00     0.074 A 
ATOM     44  C   UNL A   1      38.503  29.941  29.605  1.00  0.00     0.031 C 
ATOM     45  C   UNL A   1      37.963  34.670  34.603  1.00  0.00     0.029 A 
ATOM     46  C   UNL A   1      39.024  33.682  34.777  1.00  0.00     0.049 A 
ATOM     47  H   UNL A   1      39.556  32.149  33.471  1.00  0.00     0.167 HD
ATOM     48  C   UNL A   1      40.421  28.842  30.727  1.00  0.00     0.037 A 
ATOM     49  C   UNL A   1      39.852  33.605  35.836  1.00  0.00     0.037 A 
ATOM     50  C   UNL A   1      41.400  28.732  31.775  1.00  0.00     0.049 A 
ATOM     51  C   UNL A   1      40.906  32.534  35.869  1.00  0.00     0.074 A 
ATOM     52  C   UNL A   1      42.441  27.827  31.890  1.00  0.00     0.029 A 
ATOM     53  N   UNL A   1      41.461  29.555  32.891  1.00  0.00    -0.354 N 
ATOM     54  N   UNL A   1      41.151  31.593  34.987  1.00  0.00    -0.248 NA
ATOM     55  C   UNL A   1      41.800  32.515  37.034  1.00  0.00     0.031 C 
ATOM     56  C   UNL A   1      43.114  28.085  33.091  1.00  0.00     0.029 A 
ATOM     57  C   UNL A   1      42.512  29.171  33.706  1.00  0.00     0.049 A 
ATOM     58  H   UNL A   1      40.847  30.301  33.075  1.00  0.00     0.167 HD
ATOM     59  C   UNL A   1      42.239  30.883  35.482  1.00  0.00     0.074 A 
ATOM     60  C   UNL A   1      42.611  31.510  36.734  1.00  0.00     0.031 C 
ATOM     61  C   UNL A   1      42.870  29.809  34.949  1.00  0.00     0.037 A 
BRANCH  48  62
ATOM     62  C   UNL A   1      40.443  27.832  29.615  1.00  0.00     0.058 A 
ATOM     63  C   UNL A   1      41.379  27.911  28.570  1.00  0.00     0.135 A 
ATOM     64  C   UNL A   1      39.534  26.763  29.599  1.00  0.00     0.135 A 
ATOM     65  F   UNL A   1      42.261  28.922  28.529  1.00  0.00    -0.206 F 
ATOM     66  C   UNL A   1      41.389  26.988  27.531  1.00  0.00     0.059 A 
ATOM     67  C   UNL A   1      39.541  25.813  28.582  1.00  0.00     0.059 A 
ATOM     68  F   UNL A   1      38.618  26.639  30.573  1.00  0.00    -0.206 F 
ATOM     69  C   UNL A   1      40.462  25.944  27.543  1.00  0.00     0.060 A 
BRANCH  69  70
ATOM     70  S   UNL A   1      40.477  24.758  26.181  1.00  0.00     0.124 S 
ATOM     71  O   UNL A   1      41.058  25.559  25.107  1.00  0.00    -0.237 OA
ATOM     72  O   UNL A   1      41.324  23.691  26.703  1.00  0.00    -0.237 OA
ATOM     73  O   UNL A   1      39.069  24.413  26.017  1.00  0.00    -0.744 OA
ENDBRANCH  69  70
ENDBRANCH  48  62
BRANCH  49  74
ATOM     74  C   UNL A   1      39.732  34.591  36.942  1.00  0.00     0.058 A 
ATOM     75  C   UNL A   1      40.488  35.771  36.936  1.00  0.00     0.135 A 
ATOM     76  C   UNL A   1      38.845  34.384  38.010  1.00  0.00     0.135 A 
ATOM     77  F   UNL A   1      41.353  36.008  35.939  1.00  0.00    -0.206 F 
ATOM     78  C   UNL A   1      40.381  36.709  37.957  1.00  0.00     0.059 A 
ATOM     79  C   UNL A   1      38.704  35.318  39.032  1.00  0.00     0.059 A 
ATOM     80  F   UNL A   1      38.086  33.278  38.050  1.00  0.00    -0.206 F 
ATOM     81  C   UNL A   1      39.484  36.475  39.000  1.00  0.00     0.060 A 
BRANCH  81  82
ATOM     82  S   UNL A   1      39.308  37.726  40.291  1.00  0.00     0.124 S 
ATOM     83  O   UNL A   1      38.117  38.440  39.846  1.00  0.00    -0.237 OA
ATOM     84  O   UNL A   1      39.152  36.910  41.491  1.00  0.00    -0.237 OA
ATOM     85  O   UNL A   1      40.560  38.469  40.208  1.00  0.00    -0.744 OA
ENDBRANCH  81  82
ENDBRANCH  49  74
BRANCH  61  86
ATOM     86  C   UNL A   1      44.043  29.256  35.705  1.00  0.00     0.058 A 
ATOM     87  C   UNL A   1      45.332  29.786  35.548  1.00  0.00     0.135 A 
ATOM     88  C   UNL A   1      43.867  28.216  36.632  1.00  0.00     0.135 A 
ATOM     89  F   UNL A   1      45.554  30.776  34.668  1.00  0.00    -0.206 F 
ATOM     90  C   UNL A   1      46.412  29.293  36.273  1.00  0.00     0.059 A 
ATOM     91  C   UNL A   1      44.929  27.722  37.383  1.00  0.00     0.059 A 
ATOM     92  F   UNL A   1      42.651  27.681  36.825  1.00  0.00    -0.206 F 
ATOM     93  C   UNL A   1      46.201  28.260  37.188  1.00  0.00     0.060 A 
BRANCH  93  94
ATOM     94  S   UNL A   1      47.602  27.650  38.150  1.00  0.00     0.124 S 
ATOM     95  O   UNL A   1      47.835  26.348  37.535  1.00  0.00    -0.237 OA
ATOM     96  O   UNL A   1      48.622  28.662  37.897  1.00  0.00    -0.237 OA
ATOM     97  O   UNL A   1      47.086  27.619  39.515  1.00  0.00    -0.744 OA
ENDBRANCH  93  94
ENDBRANCH  61  86
ENDBRANCH  35  36
ENDBRANCH  27  30
ENDBRANCH  25  26
ENDBRANCH  24  25
ENDBRANCH   1  24
TORSDOF 18
ENDMDL
MODEL 2
REMARK VINA RESULT:     -11.5      0.516      8.140
REMARK SMILES CC(C)CS(=O)(=O)Cc1c(C(=O)NCCCCNC(=O)c2ccc(-c3c4nc(c(-c5c(F)cc(S(=O)(=O)[O-])cc5F)c5ccc([nH]5)c(-c5c(F)cc(S(=O)(=O)[O-])cc5F)c5nc(c(-c6c(F)cc(S(=O)(=O)[O-])cc6F)c6ccc3[nH]6)C=C5)C=C4)cc2)oc2ccccc12
REMARK SMILES IDX 15 1 14 2 13 3 11 4 12 5 10 7 9 8 93 9 87 10 88 11 92 12
REMARK SMILES IDX 89 13 91 14 90 15 8 16 5 17 6 18 7 19 4 20 2 21 1 22 3 23
REMARK SMILES IDX 16 24 17 25 18 26 19 27 20 29 21 30 22 31 86 32 23 33 85 34
REMARK SMILES IDX 24 35 25 36 26 37 79 38 27 39 84 40 78 41 80 42 28 43 83 44
REMARK SMILES IDX 77 45 76 46 29 48 63 49 42 50 62 51 43 52 46 53 61 54 81 55
REMARK SMILES IDX 44 56 45 57 60 59 82 60 47 61 30 62 31 63 40 64 32 65 33 66
REMARK SMILES IDX 39 67 41 68 34 69 35 70 36 71 37 72 38 73 64 74 65 75 74 76
REMARK SMILES IDX 66 77 67 78 73 79 75 80 68 81 69 82 70 83 71 84 72 85 48 86
REMARK SMILES IDX 49 87 58 88 50 89 51 90 57 91 59 92 52 93 53 94 54 95 55 96
REMARK SMILES IDX 56 97
REMARK H PARENT 13 6 18 28 80 47 46 58
REMARK Flexibility Score: inf
ROOT
ATOM      1  C   UNL A   1      31.779  30.528  26.430  1.00  0.00     0.023 C 
ENDROOT
BRANCH   1   2
ATOM      2  C   UNL A   1      33.198  30.032  26.160  1.00  0.00     0.116 C 
BRANCH   2   3
ATOM      3  N   UNL A   1      33.331  29.717  24.750  1.00  0.00    -0.349 N 
ATOM      4  C   UNL A   1      33.495  28.522  24.098  1.00  0.00     0.287 C 
ATOM      5  O   UNL A   1      33.883  28.595  22.938  1.00  0.00    -0.266 OA
ATOM      6  H   UNL A   1      33.296  30.500  24.155  1.00  0.00     0.163 HD
BRANCH   4   7
ATOM      7  C   UNL A   1      33.090  27.268  24.704  1.00  0.00     0.196 A 
ATOM      8  C   UNL A   1      31.833  26.704  24.941  1.00  0.00     0.027 A 
ATOM      9  C   UNL A   1      32.110  25.412  25.535  1.00  0.00     0.025 A 
ATOM     10  O   UNL A   1      34.068  26.416  25.137  1.00  0.00    -0.451 OA
ATOM     11  C   UNL A   1      33.484  25.309  25.644  1.00  0.00     0.135 A 
ATOM     12  C   UNL A   1      31.331  24.324  25.981  1.00  0.00     0.012 A 
ATOM     13  C   UNL A   1      34.159  24.218  26.188  1.00  0.00     0.048 A 
ATOM     14  C   UNL A   1      31.976  23.202  26.525  1.00  0.00     0.001 A 
ATOM     15  C   UNL A   1      33.367  23.155  26.632  1.00  0.00     0.004 A 
BRANCH   8  16
ATOM     16  C   UNL A   1      30.417  27.132  24.669  1.00  0.00     0.177 C 
BRANCH  16  17
ATOM     17  S   UNL A   1      29.796  27.900  23.184  1.00  0.00     0.154 S 
ATOM     18  O   UNL A   1      28.364  27.630  23.162  1.00  0.00    -0.228 OA
ATOM     19  O   UNL A   1      30.589  27.410  22.072  1.00  0.00    -0.228 OA
BRANCH  17  20
ATOM     20  C   UNL A   1      29.992  29.678  23.294  1.00  0.00     0.140 C 
BRANCH  20  21
ATOM     21  C   UNL A   1      28.739  30.514  23.027  1.00  0.00    -0.002 C 
ATOM     22  C   UNL A   1      28.774  31.850  23.766  1.00  0.00     0.008 C 
ATOM     23  C   UNL A   1      28.632  30.769  21.518  1.00  0.00     0.008 C 
ENDBRANCH  20  21
ENDBRANCH  17  20
ENDBRANCH  16  17
ENDBRANCH   8  16
ENDBRANCH   4   7
ENDBRANCH   2   3
ENDBRANCH   1   2
BRANCH   1  24
ATOM     24  C   UNL A   1      31.688  32.045  26.654  1.00  0.00     0.023 C 
BRANCH  24  25
ATOM     25  C   UNL A   1      32.892  32.665  27.359  1.00  0.00     0.116 C 
BRANCH  25  26
ATOM     26  N   UNL A   1      32.660  34.052  27.725  1.00  0.00    -0.352 N 
ATOM     27  C   UNL A   1      33.231  34.782  28.736  1.00  0.00     0.251 C 
ATOM     28  H   UNL A   1      32.002  34.533  27.172  1.00  0.00     0.163 HD
ATOM     29  O   UNL A   1      32.791  35.894  29.014  1.00  0.00    -0.269 OA
BRANCH  27  30
ATOM     30  C   UNL A   1      34.362  34.214  29.497  1.00  0.00     0.039 A 
ATOM     31  C   UNL A   1      34.100  33.550  30.698  1.00  0.00     0.014 A 
ATOM     32  C   UNL A   1      35.673  34.339  29.027  1.00  0.00     0.014 A 
ATOM     33  C   UNL A   1      35.151  32.964  31.404  1.00  0.00     0.010 A 
ATOM     34  C   UNL A   1      36.712  33.709  29.705  1.00  0.00     0.010 A 
ATOM     35  C   UNL A   1      36.461  33.018  30.900  1.00  0.00    -0.014 A 
BRANCH  35  36
ATOM     36  C   UNL A   1      37.581  32.356  31.613  1.00  0.00     0.031 A 
ATOM     37  C   UNL A   1      38.047  32.885  32.941  1.00  0.00     0.074 A 
ATOM     38  C   UNL A   1      38.218  31.320  31.032  1.00  0.00     0.049 A 
ATOM     39  N   UNL A   1      39.050  32.490  33.680  1.00  0.00    -0.248 NA
ATOM     40  C   UNL A   1      37.300  34.024  33.499  1.00  0.00     0.031 C 
ATOM     41  C   UNL A   1      37.887  30.749  29.726  1.00  0.00     0.029 A 
ATOM     42  N   UNL A   1      39.285  30.573  31.462  1.00  0.00    -0.354 N 
ATOM     43  C   UNL A   1      39.067  33.339  34.780  1.00  0.00     0.074 A 
ATOM     44  C   UNL A   1      38.000  34.298  34.590  1.00  0.00     0.031 C 
ATOM     45  C   UNL A   1      38.723  29.730  29.467  1.00  0.00     0.029 A 
ATOM     46  C   UNL A   1      39.667  29.596  30.574  1.00  0.00     0.049 A 
ATOM     47  H   UNL A   1      39.734  30.721  32.325  1.00  0.00     0.167 HD
ATOM     48  C   UNL A   1      39.886  33.310  35.859  1.00  0.00     0.037 A 
ATOM     49  C   UNL A   1      40.666  28.697  30.641  1.00  0.00     0.037 A 
ATOM     50  C   UNL A   1      40.926  32.335  36.057  1.00  0.00     0.049 A 
ATOM     51  C   UNL A   1      41.553  28.674  31.855  1.00  0.00     0.074 A 
ATOM     52  C   UNL A   1      41.769  32.183  37.144  1.00  0.00     0.029 A 
ATOM     53  N   UNL A   1      41.266  31.345  35.146  1.00  0.00    -0.354 N 
ATOM     54  N   UNL A   1      41.519  29.449  32.913  1.00  0.00    -0.248 NA
ATOM     55  C   UNL A   1      42.609  27.654  31.888  1.00  0.00     0.031 C 
ATOM     56  C   UNL A   1      42.638  31.118  36.878  1.00  0.00     0.029 A 
ATOM     57  C   UNL A   1      42.314  30.587  35.640  1.00  0.00     0.049 A 
ATOM     58  H   UNL A   1      40.827  31.203  34.277  1.00  0.00     0.167 HD
ATOM     59  C   UNL A   1      42.536  28.998  33.747  1.00  0.00     0.074 A 
ATOM     60  C   UNL A   1      43.159  27.875  33.074  1.00  0.00     0.031 C 
ATOM     61  C   UNL A   1      42.920  29.471  34.957  1.00  0.00     0.037 A 
BRANCH  48  62
ATOM     62  C   UNL A   1      39.681  34.364  36.910  1.00  0.00     0.058 A 
ATOM     63  C   UNL A   1      40.219  35.653  36.771  1.00  0.00     0.135 A 
ATOM     64  C   UNL A   1      38.924  34.090  38.061  1.00  0.00     0.135 A 
ATOM     65  F   UNL A   1      40.963  35.963  35.698  1.00  0.00    -0.206 F 
ATOM     66  C   UNL A   1      40.045  36.623  37.752  1.00  0.00     0.059 A 
ATOM     67  C   UNL A   1      38.716  35.054  39.044  1.00  0.00     0.059 A 
ATOM     68  F   UNL A   1      38.387  32.873  38.244  1.00  0.00    -0.206 F 
ATOM     69  C   UNL A   1      39.296  36.312  38.888  1.00  0.00     0.060 A 
BRANCH  69  70
ATOM     70  S   UNL A   1      39.087  37.577  40.160  1.00  0.00     0.124 S 
ATOM     71  O   UNL A   1      38.561  36.787  41.269  1.00  0.00    -0.237 OA
ATOM     72  O   UNL A   1      40.445  38.081  40.330  1.00  0.00    -0.237 OA
ATOM     73  O   UNL A   1      38.146  38.514  39.554  1.00  0.00    -0.744 OA
ENDBRANCH  69  70
ENDBRANCH  48  62
BRANCH  49  74
ATOM     74  C   UNL A   1      40.864  27.726  29.533  1.00  0.00     0.058 A 
ATOM     75  C   UNL A   1      41.926  27.874  28.631  1.00  0.00     0.135 A 
ATOM     76  C   UNL A   1      40.012  26.622  29.370  1.00  0.00     0.135 A 
ATOM     77  F   UNL A   1      42.762  28.917  28.744  1.00  0.00    -0.206 F 
ATOM     78  C   UNL A   1      42.133  26.970  27.595  1.00  0.00     0.059 A 
ATOM     79  C   UNL A   1      40.211  25.692  28.355  1.00  0.00     0.059 A 
ATOM     80  F   UNL A   1      38.992  26.428  30.220  1.00  0.00    -0.206 F 
ATOM     81  C   UNL A   1      41.270  25.880  27.466  1.00  0.00     0.060 A 
BRANCH  81  82
ATOM     82  S   UNL A   1      41.581  24.678  26.154  1.00  0.00     0.124 S 
ATOM     83  O   UNL A   1      40.354  23.891  26.182  1.00  0.00    -0.237 OA
ATOM     84  O   UNL A   1      41.763  25.535  24.987  1.00  0.00    -0.237 OA
ATOM     85  O   UNL A   1      42.785  23.990  26.610  1.00  0.00    -0.744 OA
ENDBRANCH  81  82
ENDBRANCH  49  74
BRANCH  61  86
ATOM     86  C   UNL A   1      44.052  28.763  35.644  1.00  0.00     0.058 A 
ATOM     87  C   UNL A   1      45.385  29.151  35.449  1.00  0.00     0.135 A 
ATOM     88  C   UNL A   1      43.796  27.716  36.544  1.00  0.00     0.135 A 
ATOM     89  F   UNL A   1      45.683  30.141  34.592  1.00  0.00    -0.206 F 
ATOM     90  C   UNL A   1      46.431  28.514  36.109  1.00  0.00     0.059 A 
ATOM     91  C   UNL A   1      44.824  27.080  37.232  1.00  0.00     0.059 A 
ATOM     92  F   UNL A   1      42.535  27.313  36.773  1.00  0.00    -0.206 F 
ATOM     93  C   UNL A   1      46.140  27.479  36.999  1.00  0.00     0.060 A 
BRANCH  93  94
ATOM     94  S   UNL A   1      47.500  26.681  37.881  1.00  0.00     0.124 S 
ATOM     95  O   UNL A   1      48.506  27.738  37.883  1.00  0.00    -0.237 OA
ATOM     96  O   UNL A   1      46.900  26.375  39.175  1.00  0.00    -0.237 OA
ATOM     97  O   UNL A   1      47.807  25.521  37.050  1.00  0.00    -0.744 OA
ENDBRANCH  93  94
ENDBRANCH  61  86
ENDBRANCH  35  36
ENDBRANCH  27  30
ENDBRANCH  25  26
ENDBRANCH  24  25
ENDBRANCH   1  24
TORSDOF 18
ENDMDL
MODEL 3
REMARK VINA RESULT:     -11.3      6.171     10.827
REMARK SMILES CC(C)CS(=O)(=O)Cc1c(C(=O)NCCCCNC(=O)c2ccc(-c3c4nc(c(-c5c(F)cc(S(=O)(=O)[O-])cc5F)c5ccc([nH]5)c(-c5c(F)cc(S(=O)(=O)[O-])cc5F)c5nc(c(-c6c(F)cc(S(=O)(=O)[O-])cc6F)c6ccc3[nH]6)C=C5)C=C4)cc2)oc2ccccc12
REMARK SMILES IDX 15 1 14 2 13 3 11 4 12 5 10 7 9 8 93 9 87 10 88 11 92 12
REMARK SMILES IDX 89 13 91 14 90 15 8 16 5 17 6 18 7 19 4 20 2 21 1 22 3 23
REMARK SMILES IDX 16 24 17 25 18 26 19 27 20 29 21 30 22 31 86 32 23 33 85 34
REMARK SMILES IDX 24 35 25 36 26 37 79 38 27 39 84 40 78 41 80 42 28 43 83 44
REMARK SMILES IDX 77 45 76 46 29 48 63 49 42 50 62 51 43 52 46 53 61 54 81 55
REMARK SMILES IDX 44 56 45 57 60 59 82 60 47 61 30 62 31 63 40 64 32 65 33 66
REMARK SMILES IDX 39 67 41 68 34 69 35 70 36 71 37 72 38 73 64 74 65 75 74 76
REMARK SMILES IDX 66 77 67 78 73 79 75 80 68 81 69 82 70 83 71 84 72 85 48 86
REMARK SMILES IDX 49 87 58 88 50 89 51 90 57 91 59 92 52 93 53 94 54 95 55 96
REMARK SMILES IDX 56 97
REMARK H PARENT 13 6 18 28 80 47 46 58
REMARK Flexibility Score: inf
ROOT
ATOM      1  C   UNL A   1      34.428  29.975  27.294  1.00  0.00     0.023 C 
ENDROOT
BRANCH   1   2
ATOM      2  C   UNL A   1      33.157  29.732  26.483  1.00  0.00     0.116 C 
BRANCH   2   3
ATOM      3  N   UNL A   1      33.507  29.591  25.082  1.00  0.00    -0.349 N 
ATOM      4  C   UNL A   1      33.728  28.480  24.308  1.00  0.00     0.287 C 
ATOM      5  O   UNL A   1      34.304  28.677  23.245  1.00  0.00    -0.266 OA
ATOM      6  H   UNL A   1      33.603  30.444  24.601  1.00  0.00     0.163 HD
BRANCH   4   7
ATOM      7  C   UNL A   1      33.178  27.188  24.666  1.00  0.00     0.196 A 
ATOM      8  C   UNL A   1      31.864  26.749  24.860  1.00  0.00     0.027 A 
ATOM      9  C   UNL A   1      31.984  25.335  25.156  1.00  0.00     0.025 A 
ATOM     10  O   UNL A   1      34.045  26.147  24.853  1.00  0.00    -0.451 OA
ATOM     11  C   UNL A   1      33.334  25.040  25.155  1.00  0.00     0.135 A 
ATOM     12  C   UNL A   1      31.080  24.284  25.416  1.00  0.00     0.012 A 
ATOM     13  C   UNL A   1      33.873  23.782  25.419  1.00  0.00     0.048 A 
ATOM     14  C   UNL A   1      31.585  23.000  25.675  1.00  0.00     0.001 A 
ATOM     15  C   UNL A   1      32.960  22.757  25.683  1.00  0.00     0.004 A 
BRANCH   8  16
ATOM     16  C   UNL A   1      30.511  27.399  24.771  1.00  0.00     0.177 C 
BRANCH  16  17
ATOM     17  S   UNL A   1      29.704  27.996  23.297  1.00  0.00     0.154 S 
ATOM     18  O   UNL A   1      28.361  27.430  23.318  1.00  0.00    -0.228 OA
ATOM     19  O   UNL A   1      30.553  27.667  22.168  1.00  0.00    -0.228 OA
BRANCH  17  20
ATOM     20  C   UNL A   1      29.522  29.776  23.385  1.00  0.00     0.140 C 
BRANCH  20  21
ATOM     21  C   UNL A   1      28.166  30.340  22.956  1.00  0.00    -0.002 C 
ATOM     22  C   UNL A   1      27.954  31.766  23.460  1.00  0.00     0.008 C 
ATOM     23  C   UNL A   1      28.090  30.323  21.425  1.00  0.00     0.008 C 
ENDBRANCH  20  21
ENDBRANCH  17  20
ENDBRANCH  16  17
ENDBRANCH   8  16
ENDBRANCH   4   7
ENDBRANCH   2   3
ENDBRANCH   1   2
BRANCH   1  24
ATOM     24  C   UNL A   1      34.667  31.454  27.638  1.00  0.00     0.023 C 
BRANCH  24  25
ATOM     25  C   UNL A   1      35.865  31.718  28.545  1.00  0.00     0.116 C 
BRANCH  25  26
ATOM     26  N   UNL A   1      35.648  31.232  29.898  1.00  0.00    -0.352 N 
ATOM     27  C   UNL A   1      36.463  30.444  30.669  1.00  0.00     0.251 C 
ATOM     28  H   UNL A   1      34.799  31.505  30.316  1.00  0.00     0.163 HD
ATOM     29  O   UNL A   1      36.046  29.981  31.727  1.00  0.00    -0.269 OA
BRANCH  27  30
ATOM     30  C   UNL A   1      37.833  30.139  30.209  1.00  0.00     0.039 A 
ATOM     31  C   UNL A   1      38.844  29.982  31.161  1.00  0.00     0.014 A 
ATOM     32  C   UNL A   1      38.115  30.011  28.846  1.00  0.00     0.014 A 
ATOM     33  C   UNL A   1      40.133  29.646  30.746  1.00  0.00     0.010 A 
ATOM     34  C   UNL A   1      39.388  29.624  28.438  1.00  0.00     0.010 A 
ATOM     35  C   UNL A   1      40.409  29.440  29.384  1.00  0.00    -0.014 A 
BRANCH  35  36
ATOM     36  C   UNL A   1      41.761  29.031  28.932  1.00  0.00     0.031 A 
ATOM     37  C   UNL A   1      42.868  30.044  28.854  1.00  0.00     0.074 A 
ATOM     38  C   UNL A   1      41.972  27.762  28.531  1.00  0.00     0.049 A 
ATOM     39  N   UNL A   1      44.092  29.899  28.418  1.00  0.00    -0.248 NA
ATOM     40  C   UNL A   1      42.549  31.409  29.304  1.00  0.00     0.031 C 
ATOM     41  C   UNL A   1      40.963  26.701  28.516  1.00  0.00     0.029 A 
ATOM     42  N   UNL A   1      43.102  27.154  28.047  1.00  0.00    -0.354 N 
ATOM     43  C   UNL A   1      44.684  31.152  28.525  1.00  0.00     0.074 A 
ATOM     44  C   UNL A   1      43.671  32.055  29.026  1.00  0.00     0.031 C 
ATOM     45  C   UNL A   1      41.524  25.568  28.062  1.00  0.00     0.029 A 
ATOM     46  C   UNL A   1      42.921  25.829  27.726  1.00  0.00     0.049 A 
ATOM     47  H   UNL A   1      43.962  27.621  27.940  1.00  0.00     0.167 HD
ATOM     48  C   UNL A   1      45.961  31.510  28.247  1.00  0.00     0.037 A 
ATOM     49  C   UNL A   1      43.781  24.929  27.214  1.00  0.00     0.037 A 
ATOM     50  C   UNL A   1      46.971  30.600  27.777  1.00  0.00     0.049 A 
ATOM     51  C   UNL A   1      45.197  25.347  26.927  1.00  0.00     0.074 A 
ATOM     52  C   UNL A   1      48.308  30.852  27.526  1.00  0.00     0.029 A 
ATOM     53  N   UNL A   1      46.756  29.259  27.488  1.00  0.00    -0.354 N 
ATOM     54  N   UNL A   1      45.756  26.524  27.087  1.00  0.00    -0.248 NA
ATOM     55  C   UNL A   1      46.100  24.318  26.397  1.00  0.00     0.031 C 
ATOM     56  C   UNL A   1      48.895  29.670  27.057  1.00  0.00     0.029 A 
ATOM     57  C   UNL A   1      47.931  28.675  27.047  1.00  0.00     0.049 A 
ATOM     58  H   UNL A   1      45.894  28.793  27.582  1.00  0.00     0.167 HD
ATOM     59  C   UNL A   1      47.081  26.370  26.695  1.00  0.00     0.074 A 
ATOM     60  C   UNL A   1      47.242  24.985  26.301  1.00  0.00     0.031 C 
ATOM     61  C   UNL A   1      48.073  27.293  26.663  1.00  0.00     0.037 A 
BRANCH  48  62
ATOM     62  C   UNL A   1      46.333  32.951  28.453  1.00  0.00     0.058 A 
ATOM     63  C   UNL A   1      46.811  33.417  29.688  1.00  0.00     0.135 A 
ATOM     64  C   UNL A   1      46.228  33.875  27.401  1.00  0.00     0.135 A 
ATOM     65  F   UNL A   1      46.916  32.579  30.732  1.00  0.00    -0.206 F 
ATOM     66  C   UNL A   1      47.138  34.754  29.884  1.00  0.00     0.059 A 
ATOM     67  C   UNL A   1      46.573  35.213  27.567  1.00  0.00     0.059 A 
ATOM     68  F   UNL A   1      45.777  33.483  26.199  1.00  0.00    -0.206 F 
ATOM     69  C   UNL A   1      47.011  35.646  28.819  1.00  0.00     0.060 A 
BRANCH  69  70
ATOM     70  S   UNL A   1      47.428  37.382  29.089  1.00  0.00     0.124 S 
ATOM     71  O   UNL A   1      47.898  37.354  30.471  1.00  0.00    -0.237 OA
ATOM     72  O   UNL A   1      48.451  37.622  28.077  1.00  0.00    -0.237 OA
ATOM     73  O   UNL A   1      46.160  38.073  28.870  1.00  0.00    -0.744 OA
ENDBRANCH  69  70
ENDBRANCH  48  62
BRANCH  49  74
ATOM     74  C   UNL A   1      43.332  23.535  26.964  1.00  0.00     0.058 A 
ATOM     75  C   UNL A   1      43.057  23.093  25.663  1.00  0.00     0.135 A 
ATOM     76  C   UNL A   1      43.192  22.615  28.015  1.00  0.00     0.135 A 
ATOM     77  F   UNL A   1      43.172  23.939  24.629  1.00  0.00    -0.206 F 
ATOM     78  C   UNL A   1      42.646  21.788  25.409  1.00  0.00     0.059 A 
ATOM     79  C   UNL A   1      42.802  21.299  27.784  1.00  0.00     0.059 A 
ATOM     80  F   UNL A   1      43.461  22.987  29.275  1.00  0.00    -0.206 F 
ATOM     81  C   UNL A   1      42.523  20.898  26.477  1.00  0.00     0.060 A 
BRANCH  81  82
ATOM     82  S   UNL A   1      42.045  19.191  26.132  1.00  0.00     0.124 S 
ATOM     83  O   UNL A   1      42.881  18.880  24.979  1.00  0.00    -0.237 OA
ATOM     84  O   UNL A   1      42.397  18.515  27.377  1.00  0.00    -0.237 OA
ATOM     85  O   UNL A   1      40.614  19.292  25.868  1.00  0.00    -0.744 OA
ENDBRANCH  81  82
ENDBRANCH  49  74
BRANCH  61  86
ATOM     86  C   UNL A   1      49.427  26.830  26.207  1.00  0.00     0.058 A 
ATOM     87  C   UNL A   1      49.842  26.979  24.876  1.00  0.00     0.135 A 
ATOM     88  C   UNL A   1      50.335  26.276  27.122  1.00  0.00     0.135 A 
ATOM     89  F   UNL A   1      49.007  27.497  23.961  1.00  0.00    -0.206 F 
ATOM     90  C   UNL A   1      51.109  26.578  24.462  1.00  0.00     0.059 A 
ATOM     91  C   UNL A   1      51.614  25.888  26.735  1.00  0.00     0.059 A 
ATOM     92  F   UNL A   1      49.989  26.120  28.410  1.00  0.00    -0.206 F 
ATOM     93  C   UNL A   1      51.987  26.033  25.399  1.00  0.00     0.060 A 
BRANCH  93  94
ATOM     94  S   UNL A   1      53.642  25.549  24.861  1.00  0.00     0.124 S 
ATOM     95  O   UNL A   1      54.483  26.310  25.778  1.00  0.00    -0.237 OA
ATOM     96  O   UNL A   1      53.629  24.104  25.065  1.00  0.00    -0.237 OA
ATOM     97  O   UNL A   1      53.683  25.977  23.466  1.00  0.00    -0.744 OA
ENDBRANCH  93  94
ENDBRANCH  61  86
ENDBRANCH  35  36
ENDBRANCH  27  30
ENDBRANCH  25  26
ENDBRANCH  24  25
ENDBRANCH   1  24
TORSDOF 18
ENDMDL
