MODEL 1
REMARK VINA RESULT:     -10.9      0.000      0.000
REMARK SMILES CCn1cnc(S(=O)(=O)N[C@H](Cc2cnc[nH]2)C(=O)NCCCCNC(=O)c2ccc(-c3c4nc(c(-c5c(F)cc(S(=O)(=O)[O-])cc5F)c5ccc([nH]5)c(-c5c(F)cc(S(=O)(=O)[O-])cc5F)c5nc(c(-c6c(F)cc(S(=O)(=O)[O-])cc6F)c6ccc3[nH]6)C=C5)C=C4)cc2)c1
REMARK SMILES IDX 22 1 21 2 20 3 18 4 19 5 11 7 10 8 7 10 8 11 9 12 6 13 3 14
REMARK SMILES IDX 4 15 94 16 5 17 2 18 1 19 12 20 13 21 14 22 17 23 15 24
REMARK SMILES IDX 16 25 23 27 24 28 25 29 26 30 27 32 28 33 29 34 93 35 30 36
REMARK SMILES IDX 92 37 31 38 32 39 33 40 86 41 34 42 91 43 85 44 87 45 35 46
REMARK SMILES IDX 90 47 84 48 83 49 36 51 70 52 49 53 69 54 50 55 53 56 68 57
REMARK SMILES IDX 88 58 51 59 52 60 67 62 89 63 54 64 37 65 38 66 47 67 39 68
REMARK SMILES IDX 40 69 46 70 48 71 41 72 42 73 43 74 44 75 45 76 71 77 72 78
REMARK SMILES IDX 81 79 73 80 74 81 80 82 82 83 75 84 76 85 77 86 78 87 79 88
REMARK SMILES IDX 55 89 56 90 65 91 57 92 58 93 64 94 66 95 59 96 60 97 61 98
REMARK SMILES IDX 62 99 63 100
REMARK H PARENT 20 6 10 9 17 26 25 31 87 50 53 61
REMARK Flexibility Score: inf
ROOT
ATOM      1  C   UNL A   1      31.491  27.656  25.983  1.00  0.00     0.023 C 
ENDROOT
BRANCH   1   2
ATOM      2  C   UNL A   1      31.670  26.242  25.445  1.00  0.00     0.116 C 
BRANCH   2   3
ATOM      3  N   UNL A   1      31.456  25.258  26.482  1.00  0.00    -0.355 N 
ATOM      4  C   UNL A   1      32.192  24.164  26.803  1.00  0.00     0.238 C 
ATOM      5  O   UNL A   1      31.826  23.470  27.756  1.00  0.00    -0.273 OA
ATOM      6  H   UNL A   1      30.658  25.403  27.039  1.00  0.00     0.163 HD
BRANCH   4   7
ATOM      7  C   UNL A   1      33.429  23.762  26.006  1.00  0.00     0.165 C 
BRANCH   7   8
ATOM      8  N   UNL A   1      33.252  23.389  24.571  1.00  0.00    -0.197 NA
ATOM      9  H   UNL A   1      33.129  24.258  24.053  1.00  0.00     0.142 HD
BRANCH   8  10
ATOM     10  S   UNL A   1      31.974  22.360  24.119  1.00  0.00     0.260 S 
ATOM     11  O   UNL A   1      31.797  22.548  22.697  1.00  0.00    -0.205 OA
ATOM     12  O   UNL A   1      30.912  22.657  25.055  1.00  0.00    -0.205 OA
BRANCH  10  13
ATOM     13  C   UNL A   1      32.327  20.678  24.356  1.00  0.00     0.188 A 
ATOM     14  N   UNL A   1      32.787  18.566  24.057  1.00  0.00    -0.336 N 
ATOM     15  C   UNL A   1      32.683  18.832  25.392  1.00  0.00     0.201 A 
ATOM     16  C   UNL A   1      32.608  19.742  23.380  1.00  0.00     0.129 A 
ATOM     17  N   UNL A   1      32.401  20.095  25.609  1.00  0.00    -0.224 NA
BRANCH  14  18
ATOM     18  C   UNL A   1      33.087  17.286  23.449  1.00  0.00     0.120 C 
ATOM     19  C   UNL A   1      33.250  16.140  24.434  1.00  0.00     0.027 C 
ENDBRANCH  14  18
ENDBRANCH  10  13
ENDBRANCH   8  10
ENDBRANCH   7   8
BRANCH   7  20
ATOM     20  C   UNL A   1      34.333  22.764  26.787  1.00  0.00     0.085 C 
BRANCH  20  21
ATOM     21  C   UNL A   1      35.499  22.180  26.047  1.00  0.00     0.037 A 
ATOM     22  C   UNL A   1      36.726  22.705  25.696  1.00  0.00     0.134 A 
ATOM     23  N   UNL A   1      35.517  20.902  25.536  1.00  0.00    -0.348 N 
ATOM     24  N   UNL A   1      37.515  21.749  25.113  1.00  0.00    -0.245 NA
ATOM     25  C   UNL A   1      36.772  20.668  25.054  1.00  0.00     0.196 A 
ATOM     26  H   UNL A   1      34.761  20.271  25.521  1.00  0.00     0.167 HD
ENDBRANCH  20  21
ENDBRANCH   7  20
ENDBRANCH   4   7
ENDBRANCH   2   3
ENDBRANCH   1   2
BRANCH   1  27
ATOM     27  C   UNL A   1      32.178  27.887  27.326  1.00  0.00     0.023 C 
BRANCH  27  28
ATOM     28  C   UNL A   1      33.522  28.604  27.234  1.00  0.00     0.116 C 
BRANCH  28  29
ATOM     29  N   UNL A   1      33.451  30.001  27.644  1.00  0.00    -0.352 N 
ATOM     30  C   UNL A   1      34.426  30.754  28.254  1.00  0.00     0.251 C 
ATOM     31  H   UNL A   1      32.601  30.462  27.463  1.00  0.00     0.163 HD
ATOM     32  O   UNL A   1      34.186  31.883  28.666  1.00  0.00    -0.269 OA
BRANCH  30  33
ATOM     33  C   UNL A   1      35.761  30.153  28.435  1.00  0.00     0.039 A 
ATOM     34  C   UNL A   1      36.654  30.155  27.364  1.00  0.00     0.014 A 
ATOM     35  C   UNL A   1      36.148  29.681  29.693  1.00  0.00     0.014 A 
ATOM     36  C   UNL A   1      37.972  29.750  27.576  1.00  0.00     0.010 A 
ATOM     37  C   UNL A   1      37.479  29.355  29.919  1.00  0.00     0.010 A 
ATOM     38  C   UNL A   1      38.405  29.390  28.864  1.00  0.00    -0.014 A 
BRANCH  38  39
ATOM     39  C   UNL A   1      39.826  29.059  29.134  1.00  0.00     0.031 A 
ATOM     40  C   UNL A   1      40.744  30.102  29.707  1.00  0.00     0.074 A 
ATOM     41  C   UNL A   1      40.303  27.844  28.793  1.00  0.00     0.049 A 
ATOM     42  N   UNL A   1      42.027  30.030  29.947  1.00  0.00    -0.248 NA
ATOM     43  C   UNL A   1      40.146  31.410  30.027  1.00  0.00     0.031 C 
ATOM     44  C   UNL A   1      39.522  26.769  28.177  1.00  0.00     0.029 A 
ATOM     45  N   UNL A   1      41.563  27.312  28.907  1.00  0.00    -0.354 N 
ATOM     46  C   UNL A   1      42.392  31.281  30.431  1.00  0.00     0.074 A 
ATOM     47  C   UNL A   1      41.207  32.110  30.397  1.00  0.00     0.031 C 
ATOM     48  C   UNL A   1      40.313  25.701  27.989  1.00  0.00     0.029 A 
ATOM     49  C   UNL A   1      41.665  26.025  28.434  1.00  0.00     0.049 A 
ATOM     50  H   UNL A   1      42.324  27.806  29.291  1.00  0.00     0.167 HD
ATOM     51  C   UNL A   1      43.599  31.693  30.885  1.00  0.00     0.037 A 
ATOM     52  C   UNL A   1      42.729  25.202  28.358  1.00  0.00     0.037 A 
ATOM     53  C   UNL A   1      44.767  30.853  30.937  1.00  0.00     0.049 A 
ATOM     54  C   UNL A   1      44.060  25.682  28.870  1.00  0.00     0.074 A 
ATOM     55  C   UNL A   1      46.022  31.155  31.435  1.00  0.00     0.029 A 
ATOM     56  N   UNL A   1      44.824  29.547  30.469  1.00  0.00    -0.354 N 
ATOM     57  N   UNL A   1      44.372  26.846  29.390  1.00  0.00    -0.248 NA
ATOM     58  C   UNL A   1      45.183  24.738  28.793  1.00  0.00     0.031 C 
ATOM     59  C   UNL A   1      46.851  30.048  31.228  1.00  0.00     0.029 A 
ATOM     60  C   UNL A   1      46.100  29.037  30.648  1.00  0.00     0.049 A 
ATOM     61  H   UNL A   1      44.071  29.056  30.070  1.00  0.00     0.167 HD
ATOM     62  C   UNL A   1      45.719  26.764  29.725  1.00  0.00     0.074 A 
ATOM     63  C   UNL A   1      46.159  25.433  29.362  1.00  0.00     0.031 C 
ATOM     64  C   UNL A   1      46.519  27.706  30.285  1.00  0.00     0.037 A 
BRANCH  51  65
ATOM     65  C   UNL A   1      43.714  33.112  31.369  1.00  0.00     0.058 A 
ATOM     66  C   UNL A   1      44.041  34.164  30.497  1.00  0.00     0.135 A 
ATOM     67  C   UNL A   1      43.462  33.433  32.713  1.00  0.00     0.135 A 
ATOM     68  F   UNL A   1      44.307  33.913  29.205  1.00  0.00    -0.206 F 
ATOM     69  C   UNL A   1      44.142  35.476  30.945  1.00  0.00     0.059 A 
ATOM     70  C   UNL A   1      43.529  34.743  33.177  1.00  0.00     0.059 A 
ATOM     71  F   UNL A   1      43.147  32.467  33.590  1.00  0.00    -0.206 F 
ATOM     72  C   UNL A   1      43.884  35.757  32.288  1.00  0.00     0.060 A 
BRANCH  72  73
ATOM     73  S   UNL A   1      44.008  37.467  32.849  1.00  0.00     0.124 S 
ATOM     74  O   UNL A   1      43.850  38.198  31.596  1.00  0.00    -0.237 OA
ATOM     75  O   UNL A   1      42.895  37.570  33.788  1.00  0.00    -0.237 OA
ATOM     76  O   UNL A   1      45.337  37.532  33.450  1.00  0.00    -0.744 OA
ENDBRANCH  72  73
ENDBRANCH  51  65
BRANCH  52  77
ATOM     77  C   UNL A   1      42.574  23.833  27.796  1.00  0.00     0.058 A 
ATOM     78  C   UNL A   1      42.547  23.619  26.411  1.00  0.00     0.135 A 
ATOM     79  C   UNL A   1      42.464  22.710  28.632  1.00  0.00     0.135 A 
ATOM     80  F   UNL A   1      42.643  24.661  25.570  1.00  0.00    -0.206 F 
ATOM     81  C   UNL A   1      42.400  22.346  25.871  1.00  0.00     0.059 A 
ATOM     82  C   UNL A   1      42.342  21.423  28.116  1.00  0.00     0.059 A 
ATOM     83  F   UNL A   1      42.501  22.857  29.966  1.00  0.00    -0.206 F 
ATOM     84  C   UNL A   1      42.300  21.252  26.733  1.00  0.00     0.060 A 
BRANCH  84  85
ATOM     85  S   UNL A   1      42.157  19.599  26.022  1.00  0.00     0.124 S 
ATOM     86  O   UNL A   1      42.542  18.759  27.150  1.00  0.00    -0.237 OA
ATOM     87  O   UNL A   1      40.749  19.551  25.640  1.00  0.00    -0.237 OA
ATOM     88  O   UNL A   1      43.099  19.630  24.907  1.00  0.00    -0.744 OA
ENDBRANCH  84  85
ENDBRANCH  52  77
BRANCH  64  89
ATOM     89  C   UNL A   1      47.945  27.321  30.572  1.00  0.00     0.058 A 
ATOM     90  C   UNL A   1      48.293  26.564  31.701  1.00  0.00     0.135 A 
ATOM     91  C   UNL A   1      48.967  27.672  29.675  1.00  0.00     0.135 A 
ATOM     92  F   UNL A   1      47.354  26.209  32.593  1.00  0.00    -0.206 F 
ATOM     93  C   UNL A   1      49.610  26.187  31.943  1.00  0.00     0.059 A 
ATOM     94  C   UNL A   1      50.286  27.281  29.883  1.00  0.00     0.059 A 
ATOM     95  F   UNL A   1      48.686  28.387  28.574  1.00  0.00    -0.206 F 
ATOM     96  C   UNL A   1      50.599  26.548  31.027  1.00  0.00     0.060 A 
BRANCH  96  97
ATOM     97  S   UNL A   1      52.298  26.023  31.337  1.00  0.00     0.124 S 
ATOM     98  O   UNL A   1      52.787  27.098  32.194  1.00  0.00    -0.237 OA
ATOM     99  O   UNL A   1      52.112  24.729  31.986  1.00  0.00    -0.237 OA
ATOM    100  O   UNL A   1      52.887  25.969  30.002  1.00  0.00    -0.744 OA
ENDBRANCH  96  97
ENDBRANCH  64  89
ENDBRANCH  38  39
ENDBRANCH  30  33
ENDBRANCH  28  29
ENDBRANCH  27  28
ENDBRANCH   1  27
TORSDOF 20
ENDMDL
MODEL 2
REMARK VINA RESULT:     -10.7      2.907      3.944
REMARK SMILES CCn1cnc(S(=O)(=O)N[C@H](Cc2cnc[nH]2)C(=O)NCCCCNC(=O)c2ccc(-c3c4nc(c(-c5c(F)cc(S(=O)(=O)[O-])cc5F)c5ccc([nH]5)c(-c5c(F)cc(S(=O)(=O)[O-])cc5F)c5nc(c(-c6c(F)cc(S(=O)(=O)[O-])cc6F)c6ccc3[nH]6)C=C5)C=C4)cc2)c1
REMARK SMILES IDX 22 1 21 2 20 3 18 4 19 5 11 7 10 8 7 10 8 11 9 12 6 13 3 14
REMARK SMILES IDX 4 15 94 16 5 17 2 18 1 19 12 20 13 21 14 22 17 23 15 24
REMARK SMILES IDX 16 25 23 27 24 28 25 29 26 30 27 32 28 33 29 34 93 35 30 36
REMARK SMILES IDX 92 37 31 38 32 39 33 40 86 41 34 42 91 43 85 44 87 45 35 46
REMARK SMILES IDX 90 47 84 48 83 49 36 51 70 52 49 53 69 54 50 55 53 56 68 57
REMARK SMILES IDX 88 58 51 59 52 60 67 62 89 63 54 64 37 65 38 66 47 67 39 68
REMARK SMILES IDX 40 69 46 70 48 71 41 72 42 73 43 74 44 75 45 76 71 77 72 78
REMARK SMILES IDX 81 79 73 80 74 81 80 82 82 83 75 84 76 85 77 86 78 87 79 88
REMARK SMILES IDX 55 89 56 90 65 91 57 92 58 93 64 94 66 95 59 96 60 97 61 98
REMARK SMILES IDX 62 99 63 100
REMARK H PARENT 20 6 10 9 17 26 25 31 87 50 53 61
REMARK Flexibility Score: inf
ROOT
ATOM      1  C   UNL A   1      31.356  27.339  26.440  1.00  0.00     0.023 C 
ENDROOT
BRANCH   1   2
ATOM      2  C   UNL A   1      31.998  25.958  26.433  1.00  0.00     0.116 C 
BRANCH   2   3
ATOM      3  N   UNL A   1      31.091  24.959  26.954  1.00  0.00    -0.355 N 
ATOM      4  C   UNL A   1      30.818  23.713  26.492  1.00  0.00     0.238 C 
ATOM      5  O   UNL A   1      30.015  23.017  27.121  1.00  0.00    -0.273 OA
ATOM      6  H   UNL A   1      30.599  25.222  27.765  1.00  0.00     0.163 HD
BRANCH   4   7
ATOM      7  C   UNL A   1      31.451  23.169  25.216  1.00  0.00     0.165 C 
BRANCH   7   8
ATOM      8  N   UNL A   1      32.935  23.265  25.069  1.00  0.00    -0.197 NA
ATOM      9  H   UNL A   1      33.113  23.789  24.213  1.00  0.00     0.142 HD
BRANCH   8  10
ATOM     10  S   UNL A   1      33.867  21.844  24.980  1.00  0.00     0.260 S 
ATOM     11  O   UNL A   1      33.720  21.358  23.627  1.00  0.00    -0.205 OA
ATOM     12  O   UNL A   1      33.442  21.052  26.114  1.00  0.00    -0.205 OA
BRANCH  10  13
ATOM     13  C   UNL A   1      35.562  22.115  25.229  1.00  0.00     0.188 A 
ATOM     14  N   UNL A   1      37.493  22.951  25.806  1.00  0.00    -0.336 N 
ATOM     15  C   UNL A   1      37.679  21.769  25.148  1.00  0.00     0.201 A 
ATOM     16  C   UNL A   1      36.144  23.167  25.908  1.00  0.00     0.129 A 
ATOM     17  N   UNL A   1      36.536  21.239  24.781  1.00  0.00    -0.224 NA
BRANCH  14  18
ATOM     18  C   UNL A   1      38.522  23.810  26.353  1.00  0.00     0.120 C 
ATOM     19  C   UNL A   1      39.738  23.075  26.896  1.00  0.00     0.027 C 
ENDBRANCH  14  18
ENDBRANCH  10  13
ENDBRANCH   8  10
ENDBRANCH   7   8
BRANCH   7  20
ATOM     20  C   UNL A   1      30.684  23.620  23.939  1.00  0.00     0.085 C 
BRANCH  20  21
ATOM     21  C   UNL A   1      31.425  24.492  22.971  1.00  0.00     0.037 A 
ATOM     22  C   UNL A   1      31.345  25.842  22.695  1.00  0.00     0.134 A 
ATOM     23  N   UNL A   1      32.389  24.025  22.106  1.00  0.00    -0.348 N 
ATOM     24  N   UNL A   1      32.309  26.212  21.796  1.00  0.00    -0.245 NA
ATOM     25  C   UNL A   1      32.939  25.105  21.479  1.00  0.00     0.196 A 
ATOM     26  H   UNL A   1      32.636  23.083  21.964  1.00  0.00     0.167 HD
ENDBRANCH  20  21
ENDBRANCH   7  20
ENDBRANCH   4   7
ENDBRANCH   2   3
ENDBRANCH   1   2
BRANCH   1  27
ATOM     27  C   UNL A   1      31.937  28.275  27.496  1.00  0.00     0.023 C 
BRANCH  27  28
ATOM     28  C   UNL A   1      33.370  28.723  27.225  1.00  0.00     0.116 C 
BRANCH  28  29
ATOM     29  N   UNL A   1      33.496  30.168  27.078  1.00  0.00    -0.352 N 
ATOM     30  C   UNL A   1      34.531  30.974  27.490  1.00  0.00     0.251 C 
ATOM     31  H   UNL A   1      32.748  30.623  26.628  1.00  0.00     0.163 HD
ATOM     32  O   UNL A   1      34.446  32.194  27.420  1.00  0.00    -0.269 OA
BRANCH  30  33
ATOM     33  C   UNL A   1      35.732  30.332  28.056  1.00  0.00     0.039 A 
ATOM     34  C   UNL A   1      36.933  30.406  27.351  1.00  0.00     0.014 A 
ATOM     35  C   UNL A   1      35.678  29.748  29.324  1.00  0.00     0.014 A 
ATOM     36  C   UNL A   1      38.106  29.957  27.957  1.00  0.00     0.010 A 
ATOM     37  C   UNL A   1      36.859  29.376  29.954  1.00  0.00     0.010 A 
ATOM     38  C   UNL A   1      38.085  29.481  29.279  1.00  0.00    -0.014 A 
BRANCH  38  39
ATOM     39  C   UNL A   1      39.336  29.099  29.980  1.00  0.00     0.031 A 
ATOM     40  C   UNL A   1      39.769  29.852  31.206  1.00  0.00     0.074 A 
ATOM     41  C   UNL A   1      40.115  28.124  29.468  1.00  0.00     0.049 A 
ATOM     42  N   UNL A   1      40.859  29.718  31.915  1.00  0.00    -0.248 NA
ATOM     43  C   UNL A   1      38.871  30.918  31.683  1.00  0.00     0.031 C 
ATOM     44  C   UNL A   1      39.828  27.361  28.251  1.00  0.00     0.029 A 
ATOM     45  N   UNL A   1      41.314  27.615  29.901  1.00  0.00    -0.354 N 
ATOM     46  C   UNL A   1      40.786  30.686  32.909  1.00  0.00     0.074 A 
ATOM     47  C   UNL A   1      39.573  31.439  32.679  1.00  0.00     0.031 C 
ATOM     48  C   UNL A   1      40.808  26.467  28.049  1.00  0.00     0.029 A 
ATOM     49  C   UNL A   1      41.814  26.618  29.096  1.00  0.00     0.049 A 
ATOM     50  H   UNL A   1      41.773  27.933  30.711  1.00  0.00     0.167 HD
ATOM     51  C   UNL A   1      41.640  30.910  33.935  1.00  0.00     0.037 A 
ATOM     52  C   UNL A   1      42.957  25.912  29.187  1.00  0.00     0.037 A 
ATOM     53  C   UNL A   1      42.833  30.141  34.170  1.00  0.00     0.049 A 
ATOM     54  C   UNL A   1      43.890  26.179  30.337  1.00  0.00     0.074 A 
ATOM     55  C   UNL A   1      43.734  30.248  35.215  1.00  0.00     0.029 A 
ATOM     56  N   UNL A   1      43.294  29.124  33.346  1.00  0.00    -0.354 N 
ATOM     57  N   UNL A   1      43.771  27.052  31.310  1.00  0.00    -0.248 NA
ATOM     58  C   UNL A   1      45.110  25.362  30.409  1.00  0.00     0.031 C 
ATOM     59  C   UNL A   1      44.764  29.327  34.999  1.00  0.00     0.029 A 
ATOM     60  C   UNL A   1      44.479  28.609  33.848  1.00  0.00     0.049 A 
ATOM     61  H   UNL A   1      42.847  28.813  32.527  1.00  0.00     0.167 HD
ATOM     62  C   UNL A   1      44.885  26.872  32.122  1.00  0.00     0.074 A 
ATOM     63  C   UNL A   1      45.660  25.798  31.534  1.00  0.00     0.031 C 
ATOM     64  C   UNL A   1      45.234  27.535  33.252  1.00  0.00     0.037 A 
BRANCH  51  65
ATOM     65  C   UNL A   1      41.309  32.030  34.885  1.00  0.00     0.058 A 
ATOM     66  C   UNL A   1      41.823  33.325  34.706  1.00  0.00     0.135 A 
ATOM     67  C   UNL A   1      40.442  31.815  35.969  1.00  0.00     0.135 A 
ATOM     68  F   UNL A   1      42.669  33.582  33.695  1.00  0.00    -0.206 F 
ATOM     69  C   UNL A   1      41.512  34.359  35.581  1.00  0.00     0.059 A 
ATOM     70  C   UNL A   1      40.094  32.843  36.840  1.00  0.00     0.059 A 
ATOM     71  F   UNL A   1      39.923  30.597  36.188  1.00  0.00    -0.206 F 
ATOM     72  C   UNL A   1      40.645  34.108  36.647  1.00  0.00     0.060 A 
BRANCH  72  73
ATOM     73  S   UNL A   1      40.244  35.465  37.767  1.00  0.00     0.124 S 
ATOM     74  O   UNL A   1      41.452  35.540  38.581  1.00  0.00    -0.237 OA
ATOM     75  O   UNL A   1      40.031  36.577  36.845  1.00  0.00    -0.237 OA
ATOM     76  O   UNL A   1      39.049  34.992  38.459  1.00  0.00    -0.744 OA
ENDBRANCH  72  73
ENDBRANCH  51  65
BRANCH  52  77
ATOM     77  C   UNL A   1      43.272  24.869  28.174  1.00  0.00     0.058 A 
ATOM     78  C   UNL A   1      43.920  25.199  26.975  1.00  0.00     0.135 A 
ATOM     79  C   UNL A   1      42.945  23.521  28.389  1.00  0.00     0.135 A 
ATOM     80  F   UNL A   1      44.247  26.475  26.720  1.00  0.00    -0.206 F 
ATOM     81  C   UNL A   1      44.217  24.236  26.016  1.00  0.00     0.059 A 
ATOM     82  C   UNL A   1      43.256  22.535  27.457  1.00  0.00     0.059 A 
ATOM     83  F   UNL A   1      42.340  23.147  29.527  1.00  0.00    -0.206 F 
ATOM     84  C   UNL A   1      43.884  22.904  26.268  1.00  0.00     0.060 A 
BRANCH  84  85
ATOM     85  S   UNL A   1      44.317  21.655  25.039  1.00  0.00     0.124 S 
ATOM     86  O   UNL A   1      43.350  20.604  25.333  1.00  0.00    -0.237 OA
ATOM     87  O   UNL A   1      44.116  22.376  23.785  1.00  0.00    -0.237 OA
ATOM     88  O   UNL A   1      45.707  21.341  25.355  1.00  0.00    -0.744 OA
ENDBRANCH  84  85
ENDBRANCH  52  77
BRANCH  64  89
ATOM     89  C   UNL A   1      46.493  27.097  33.951  1.00  0.00     0.058 A 
ATOM     90  C   UNL A   1      46.487  26.072  34.909  1.00  0.00     0.135 A 
ATOM     91  C   UNL A   1      47.727  27.677  33.617  1.00  0.00     0.135 A 
ATOM     92  F   UNL A   1      45.332  25.490  35.270  1.00  0.00    -0.206 F 
ATOM     93  C   UNL A   1      47.659  25.652  35.529  1.00  0.00     0.059 A 
ATOM     94  C   UNL A   1      48.915  27.252  34.203  1.00  0.00     0.059 A 
ATOM     95  F   UNL A   1      47.790  28.655  32.698  1.00  0.00    -0.206 F 
ATOM     96  C   UNL A   1      48.869  26.247  35.167  1.00  0.00     0.060 A 
BRANCH  96  97
ATOM     97  S   UNL A   1      50.387  25.669  35.955  1.00  0.00     0.124 S 
ATOM     98  O   UNL A   1      50.560  26.653  37.018  1.00  0.00    -0.237 OA
ATOM     99  O   UNL A   1      50.022  24.324  36.389  1.00  0.00    -0.237 OA
ATOM    100  O   UNL A   1      51.373  25.728  34.879  1.00  0.00    -0.744 OA
ENDBRANCH  96  97
ENDBRANCH  64  89
ENDBRANCH  38  39
ENDBRANCH  30  33
ENDBRANCH  28  29
ENDBRANCH  27  28
ENDBRANCH   1  27
TORSDOF 20
ENDMDL
MODEL 3
REMARK VINA RESULT:     -10.6      2.809      4.321
REMARK SMILES CCn1cnc(S(=O)(=O)N[C@H](Cc2cnc[nH]2)C(=O)NCCCCNC(=O)c2ccc(-c3c4nc(c(-c5c(F)cc(S(=O)(=O)[O-])cc5F)c5ccc([nH]5)c(-c5c(F)cc(S(=O)(=O)[O-])cc5F)c5nc(c(-c6c(F)cc(S(=O)(=O)[O-])cc6F)c6ccc3[nH]6)C=C5)C=C4)cc2)c1
REMARK SMILES IDX 22 1 21 2 20 3 18 4 19 5 11 7 10 8 7 10 8 11 9 12 6 13 3 14
REMARK SMILES IDX 4 15 94 16 5 17 2 18 1 19 12 20 13 21 14 22 17 23 15 24
REMARK SMILES IDX 16 25 23 27 24 28 25 29 26 30 27 32 28 33 29 34 93 35 30 36
REMARK SMILES IDX 92 37 31 38 32 39 33 40 86 41 34 42 91 43 85 44 87 45 35 46
REMARK SMILES IDX 90 47 84 48 83 49 36 51 70 52 49 53 69 54 50 55 53 56 68 57
REMARK SMILES IDX 88 58 51 59 52 60 67 62 89 63 54 64 37 65 38 66 47 67 39 68
REMARK SMILES IDX 40 69 46 70 48 71 41 72 42 73 43 74 44 75 45 76 71 77 72 78
REMARK SMILES IDX 81 79 73 80 74 81 80 82 82 83 75 84 76 85 77 86 78 87 79 88
REMARK SMILES IDX 55 89 56 90 65 91 57 92 58 93 64 94 66 95 59 96 60 97 61 98
REMARK SMILES IDX 62 99 63 100
REMARK H PARENT 20 6 10 9 17 26 25 31 87 50 53 61
REMARK Flexibility Score: inf
ROOT
ATOM      1  C   UNL A   1      31.236  27.095  26.514  1.00  0.00     0.023 C 
ENDROOT
BRANCH   1   2
ATOM      2  C   UNL A   1      32.063  25.830  26.329  1.00  0.00     0.116 C 
BRANCH   2   3
ATOM      3  N   UNL A   1      31.237  24.647  26.425  1.00  0.00    -0.355 N 
ATOM      4  C   UNL A   1      31.477  23.385  25.988  1.00  0.00     0.238 C 
ATOM      5  O   UNL A   1      30.626  22.518  26.205  1.00  0.00    -0.273 OA
ATOM      6  H   UNL A   1      30.371  24.777  26.875  1.00  0.00     0.163 HD
BRANCH   4   7
ATOM      7  C   UNL A   1      32.746  23.025  25.222  1.00  0.00     0.165 C 
BRANCH   7   8
ATOM      8  N   UNL A   1      32.663  22.911  23.735  1.00  0.00    -0.197 NA
ATOM      9  H   UNL A   1      33.034  21.995  23.488  1.00  0.00     0.142 HD
BRANCH   8  10
ATOM     10  S   UNL A   1      33.466  24.049  22.757  1.00  0.00     0.260 S 
ATOM     11  O   UNL A   1      33.354  23.558  21.403  1.00  0.00    -0.205 OA
ATOM     12  O   UNL A   1      34.756  24.233  23.386  1.00  0.00    -0.205 OA
BRANCH  10  13
ATOM     13  C   UNL A   1      32.727  25.618  22.778  1.00  0.00     0.188 A 
ATOM     14  N   UNL A   1      31.300  27.270  22.732  1.00  0.00    -0.336 N 
ATOM     15  C   UNL A   1      32.567  27.756  22.884  1.00  0.00     0.201 A 
ATOM     16  C   UNL A   1      31.377  25.902  22.707  1.00  0.00     0.129 A 
ATOM     17  N   UNL A   1      33.453  26.789  22.911  1.00  0.00    -0.224 NA
BRANCH  14  18
ATOM     18  C   UNL A   1      30.077  28.041  22.661  1.00  0.00     0.120 C 
ATOM     19  C   UNL A   1      30.139  29.390  23.359  1.00  0.00     0.027 C 
ENDBRANCH  14  18
ENDBRANCH  10  13
ENDBRANCH   8  10
ENDBRANCH   7   8
BRANCH   7  20
ATOM     20  C   UNL A   1      33.514  21.842  25.880  1.00  0.00     0.085 C 
BRANCH  20  21
ATOM     21  C   UNL A   1      33.034  20.458  25.564  1.00  0.00     0.037 A 
ATOM     22  C   UNL A   1      32.518  19.900  24.411  1.00  0.00     0.134 A 
ATOM     23  N   UNL A   1      33.015  19.428  26.478  1.00  0.00    -0.348 N 
ATOM     24  N   UNL A   1      32.317  18.555  24.570  1.00  0.00    -0.245 NA
ATOM     25  C   UNL A   1      32.649  18.294  25.813  1.00  0.00     0.196 A 
ATOM     26  H   UNL A   1      33.227  19.498  27.436  1.00  0.00     0.167 HD
ENDBRANCH  20  21
ENDBRANCH   7  20
ENDBRANCH   4   7
ENDBRANCH   2   3
ENDBRANCH   1   2
BRANCH   1  27
ATOM     27  C   UNL A   1      31.846  28.081  27.508  1.00  0.00     0.023 C 
BRANCH  27  28
ATOM     28  C   UNL A   1      33.259  28.537  27.160  1.00  0.00     0.116 C 
BRANCH  28  29
ATOM     29  N   UNL A   1      33.369  29.983  27.008  1.00  0.00    -0.352 N 
ATOM     30  C   UNL A   1      34.392  30.802  27.424  1.00  0.00     0.251 C 
ATOM     31  H   UNL A   1      32.619  30.427  26.551  1.00  0.00     0.163 HD
ATOM     32  O   UNL A   1      34.294  32.021  27.349  1.00  0.00    -0.269 OA
BRANCH  30  33
ATOM     33  C   UNL A   1      35.596  30.176  28.000  1.00  0.00     0.039 A 
ATOM     34  C   UNL A   1      36.777  30.173  27.258  1.00  0.00     0.014 A 
ATOM     35  C   UNL A   1      35.570  29.686  29.309  1.00  0.00     0.014 A 
ATOM     36  C   UNL A   1      37.959  29.743  27.860  1.00  0.00     0.010 A 
ATOM     37  C   UNL A   1      36.761  29.335  29.930  1.00  0.00     0.010 A 
ATOM     38  C   UNL A   1      37.968  29.364  29.214  1.00  0.00    -0.014 A 
BRANCH  38  39
ATOM     39  C   UNL A   1      39.232  29.006  29.905  1.00  0.00     0.031 A 
ATOM     40  C   UNL A   1      39.665  29.772  31.123  1.00  0.00     0.074 A 
ATOM     41  C   UNL A   1      40.022  28.041  29.390  1.00  0.00     0.049 A 
ATOM     42  N   UNL A   1      40.763  29.659  31.822  1.00  0.00    -0.248 NA
ATOM     43  C   UNL A   1      38.754  30.826  31.603  1.00  0.00     0.031 C 
ATOM     44  C   UNL A   1      39.735  27.267  28.180  1.00  0.00     0.029 A 
ATOM     45  N   UNL A   1      41.233  27.554  29.814  1.00  0.00    -0.354 N 
ATOM     46  C   UNL A   1      40.684  30.632  32.812  1.00  0.00     0.074 A 
ATOM     47  C   UNL A   1      39.456  31.363  32.589  1.00  0.00     0.031 C 
ATOM     48  C   UNL A   1      40.728  26.388  27.973  1.00  0.00     0.029 A 
ATOM     49  C   UNL A   1      41.741  26.561  29.010  1.00  0.00     0.049 A 
ATOM     50  H   UNL A   1      41.694  27.884  30.618  1.00  0.00     0.167 HD
ATOM     51  C   UNL A   1      41.544  30.875  33.828  1.00  0.00     0.037 A 
ATOM     52  C   UNL A   1      42.896  25.874  29.093  1.00  0.00     0.037 A 
ATOM     53  C   UNL A   1      42.752  30.126  34.056  1.00  0.00     0.049 A 
ATOM     54  C   UNL A   1      43.836  26.162  30.233  1.00  0.00     0.074 A 
ATOM     55  C   UNL A   1      43.661  30.253  35.091  1.00  0.00     0.029 A 
ATOM     56  N   UNL A   1      43.222  29.112  33.233  1.00  0.00    -0.354 N 
ATOM     57  N   UNL A   1      43.712  27.038  31.202  1.00  0.00    -0.248 NA
ATOM     58  C   UNL A   1      45.069  25.366  30.296  1.00  0.00     0.031 C 
ATOM     59  C   UNL A   1      44.703  29.348  34.870  1.00  0.00     0.029 A 
ATOM     60  C   UNL A   1      44.419  28.620  33.725  1.00  0.00     0.049 A 
ATOM     61  H   UNL A   1      42.772  28.791  32.419  1.00  0.00     0.167 HD
ATOM     62  C   UNL A   1      44.837  26.881  32.004  1.00  0.00     0.074 A 
ATOM     63  C   UNL A   1      45.623  25.816  31.414  1.00  0.00     0.031 C 
ATOM     64  C   UNL A   1      45.186  27.555  33.128  1.00  0.00     0.037 A 
BRANCH  51  65
ATOM     65  C   UNL A   1      41.204  31.994  34.775  1.00  0.00     0.058 A 
ATOM     66  C   UNL A   1      40.361  31.793  35.881  1.00  0.00     0.135 A 
ATOM     67  C   UNL A   1      41.753  33.274  34.596  1.00  0.00     0.135 A 
ATOM     68  F   UNL A   1      39.795  30.594  36.091  1.00  0.00    -0.206 F 
ATOM     69  C   UNL A   1      40.052  32.827  36.758  1.00  0.00     0.059 A 
ATOM     70  C   UNL A   1      41.481  34.315  35.479  1.00  0.00     0.059 A 
ATOM     71  F   UNL A   1      42.565  33.522  33.556  1.00  0.00    -0.206 F 
ATOM     72  C   UNL A   1      40.618  34.086  36.549  1.00  0.00     0.060 A 
BRANCH  72  73
ATOM     73  S   UNL A   1      40.215  35.413  37.704  1.00  0.00     0.124 S 
ATOM     74  O   UNL A   1      39.095  34.832  38.437  1.00  0.00    -0.237 OA
ATOM     75  O   UNL A   1      41.458  35.559  38.456  1.00  0.00    -0.237 OA
ATOM     76  O   UNL A   1      39.880  36.534  36.830  1.00  0.00    -0.744 OA
ENDBRANCH  72  73
ENDBRANCH  51  65
BRANCH  52  77
ATOM     77  C   UNL A   1      43.218  24.831  28.082  1.00  0.00     0.058 A 
ATOM     78  C   UNL A   1      43.964  25.142  26.936  1.00  0.00     0.135 A 
ATOM     79  C   UNL A   1      42.801  23.501  28.247  1.00  0.00     0.135 A 
ATOM     80  F   UNL A   1      44.381  26.400  26.729  1.00  0.00    -0.206 F 
ATOM     81  C   UNL A   1      44.270  24.179  25.980  1.00  0.00     0.059 A 
ATOM     82  C   UNL A   1      43.117  22.514  27.318  1.00  0.00     0.059 A 
ATOM     83  F   UNL A   1      42.099  23.145  29.335  1.00  0.00    -0.206 F 
ATOM     84  C   UNL A   1      43.843  22.865  26.181  1.00  0.00     0.060 A 
BRANCH  84  85
ATOM     85  S   UNL A   1      44.286  21.613  24.959  1.00  0.00     0.124 S 
ATOM     86  O   UNL A   1      43.327  20.556  25.259  1.00  0.00    -0.237 OA
ATOM     87  O   UNL A   1      44.079  22.325  23.701  1.00  0.00    -0.237 OA
ATOM     88  O   UNL A   1      45.678  21.311  25.276  1.00  0.00    -0.744 OA
ENDBRANCH  84  85
ENDBRANCH  52  77
BRANCH  64  89
ATOM     89  C   UNL A   1      46.458  27.141  33.816  1.00  0.00     0.058 A 
ATOM     90  C   UNL A   1      47.698  27.704  33.479  1.00  0.00     0.135 A 
ATOM     91  C   UNL A   1      46.425  26.206  34.864  1.00  0.00     0.135 A 
ATOM     92  F   UNL A   1      47.785  28.597  32.480  1.00  0.00    -0.206 F 
ATOM     93  C   UNL A   1      48.865  27.338  34.140  1.00  0.00     0.059 A 
ATOM     94  C   UNL A   1      47.576  25.847  35.559  1.00  0.00     0.059 A 
ATOM     95  F   UNL A   1      45.262  25.644  35.234  1.00  0.00    -0.206 F 
ATOM     96  C   UNL A   1      48.793  26.411  35.181  1.00  0.00     0.060 A 
BRANCH  96  97
ATOM     97  S   UNL A   1      50.311  25.970  36.054  1.00  0.00     0.124 S 
ATOM     98  O   UNL A   1      51.030  25.217  35.033  1.00  0.00    -0.237 OA
ATOM     99  O   UNL A   1      50.869  27.276  36.390  1.00  0.00    -0.237 OA
ATOM    100  O   UNL A   1      49.835  25.188  37.192  1.00  0.00    -0.744 OA
ENDBRANCH  96  97
ENDBRANCH  64  89
ENDBRANCH  38  39
ENDBRANCH  30  33
ENDBRANCH  28  29
ENDBRANCH  27  28
ENDBRANCH   1  27
TORSDOF 20
ENDMDL
