MODEL 1
REMARK VINA RESULT:     -13.1      0.000      0.000
REMARK SMILES C[C@]12CC[C@@H]3[C@@H](CCC4=C/C(=N\OCC(=O)N5CCC[C@@H]5C(=O)NCCCCNC(=O)c5ccc(-c6c7nc(c(-c8c(F)cc(S(=O)(=O)[O-])cc8F)c8ccc([nH]8)c(-c8c(F)cc(S(=O)(=O)[O-])cc8F)c8nc(c(-c9c(F)cc(S(=O)(=O)[O-])cc9F)c9ccc6[nH]9)C=C8)C=C7)cc5)CC[C@@]43C)[C@@H]1CC[C@@H]2O
REMARK SMILES IDX 25 1 24 2 22 3 23 4 21 6 17 7 18 8 19 9 20 10 15 11 16 12
REMARK SMILES IDX 14 13 13 14 12 15 1 16 2 17 3 18 102 19 105 20 4 21 6 22
REMARK SMILES IDX 103 23 104 24 5 25 7 26 100 27 8 28 9 29 99 30 101 31 10 32
REMARK SMILES IDX 98 33 11 34 106 35 26 37 27 38 28 39 29 40 30 41 31 43 32 44
REMARK SMILES IDX 33 45 97 46 34 47 96 48 35 49 36 50 37 51 90 52 38 53 95 54
REMARK SMILES IDX 89 55 91 56 39 57 94 58 88 59 87 60 40 62 74 63 53 64 73 65
REMARK SMILES IDX 54 66 57 67 72 68 92 69 55 70 56 71 71 73 93 74 58 75 41 76
REMARK SMILES IDX 42 77 51 78 43 79 44 80 50 81 52 82 45 83 46 84 47 85 48 86
REMARK SMILES IDX 49 87 75 88 76 89 85 90 77 91 78 92 84 93 86 94 79 95 80 96
REMARK SMILES IDX 81 97 82 98 83 99 59 100 60 101 69 102 61 103 62 104 68 105
REMARK SMILES IDX 70 106 63 107 64 108 65 109 66 110 67 111
REMARK H PARENT 24 5 106 36 29 42 91 61 57 72
REMARK Flexibility Score: inf
ROOT
ATOM      1  C   UNL A   1      36.545  34.626  32.515  1.00  0.00     0.116 C 
ENDROOT
BRANCH   1   2
ATOM      2  N   UNL A   1      37.133  34.168  31.280  1.00  0.00    -0.354 N 
ATOM      3  C   UNL A   1      36.497  33.901  30.104  1.00  0.00     0.242 C 
ATOM      4  O   UNL A   1      37.149  34.103  29.071  1.00  0.00    -0.273 OA
ATOM      5  H   UNL A   1      38.108  34.032  31.287  1.00  0.00     0.163 HD
BRANCH   3   6
ATOM      6  C   UNL A   1      35.048  33.327  30.001  1.00  0.00     0.174 C 
ATOM      7  N   UNL A   1      34.452  33.010  28.697  1.00  0.00    -0.328 N 
ATOM      8  C   UNL A   1      33.764  34.177  28.153  1.00  0.00     0.120 C 
ATOM      9  C   UNL A   1      33.910  35.265  29.203  1.00  0.00     0.024 C 
ATOM     10  C   UNL A   1      34.115  34.459  30.482  1.00  0.00     0.037 C 
BRANCH   7  11
ATOM     11  C   UNL A   1      34.312  31.796  28.060  1.00  0.00     0.264 C 
ATOM     12  O   UNL A   1      35.271  31.011  28.029  1.00  0.00    -0.271 OA
BRANCH  11  13
ATOM     13  C   UNL A   1      32.988  31.340  27.404  1.00  0.00     0.363 C 
BRANCH  13  14
ATOM     14  O   UNL A   1      32.906  30.345  26.401  1.00  0.00    -0.385 OA
BRANCH  14  15
ATOM     15  N   UNL A   1      32.382  29.192  26.986  1.00  0.00    -0.091 NA
ATOM     16  C   UNL A   1      32.691  21.068  23.652  1.00  0.00     0.014 C 
ATOM     17  C   UNL A   1      33.035  22.297  24.540  1.00  0.00    -0.003 C 
ATOM     18  C   UNL A   1      31.742  22.674  25.261  1.00  0.00     0.010 C 
ATOM     19  C   UNL A   1      33.674  23.502  23.798  1.00  0.00     0.001 C 
ATOM     20  C   UNL A   1      34.235  21.998  25.458  1.00  0.00     0.120 C 
ATOM     21  C   UNL A   1      30.794  23.464  24.341  1.00  0.00     0.005 C 
ATOM     22  C   UNL A   1      32.723  24.205  22.838  1.00  0.00    -0.003 C 
ATOM     23  C   UNL A   1      35.005  22.911  23.314  1.00  0.00     0.007 C 
ATOM     24  C   UNL A   1      35.403  21.937  24.456  1.00  0.00     0.032 C 
ATOM     25  C   UNL A   1      31.448  24.654  23.594  1.00  0.00     0.002 C 
ATOM     26  C   UNL A   1      33.297  25.405  22.078  1.00  0.00     0.008 C 
ATOM     27  C   UNL A   1      31.571  25.971  24.473  1.00  0.00    -0.008 C 
ATOM     28  C   UNL A   1      33.607  26.638  22.923  1.00  0.00     0.032 C 
ATOM     29  C   UNL A   1      32.708  26.930  24.099  1.00  0.00    -0.062 C 
ATOM     30  C   UNL A   1      31.778  25.686  25.980  1.00  0.00     0.018 C 
ATOM     31  C   UNL A   1      30.213  26.710  24.286  1.00  0.00     0.016 C 
ATOM     32  C   UNL A   1      33.033  27.977  24.894  1.00  0.00     0.027 C 
ATOM     33  C   UNL A   1      31.755  26.918  26.859  1.00  0.00     0.061 C 
ATOM     34  C   UNL A   1      32.410  28.136  26.239  1.00  0.00     0.080 C 
BRANCH  20  35
ATOM     35  O   UNL A   1      34.087  20.825  26.218  1.00  0.00    -0.393 OA
ATOM     36  H   UNL A   1      33.273  20.368  25.953  1.00  0.00     0.210 HD
ENDBRANCH  20  35
ENDBRANCH  14  15
ENDBRANCH  13  14
ENDBRANCH  11  13
ENDBRANCH   7  11
ENDBRANCH   3   6
ENDBRANCH   1   2
BRANCH   1  37
ATOM     37  C   UNL A   1      37.324  34.271  33.772  1.00  0.00     0.023 C 
BRANCH  37  38
ATOM     38  C   UNL A   1      36.931  32.924  34.379  1.00  0.00     0.023 C 
BRANCH  38  39
ATOM     39  C   UNL A   1      37.478  31.673  33.689  1.00  0.00     0.116 C 
BRANCH  39  40
ATOM     40  N   UNL A   1      36.519  30.964  32.855  1.00  0.00    -0.352 N 
ATOM     41  C   UNL A   1      36.775  30.256  31.699  1.00  0.00     0.251 C 
ATOM     42  H   UNL A   1      35.579  30.993  33.149  1.00  0.00     0.163 HD
ATOM     43  O   UNL A   1      35.867  29.725  31.067  1.00  0.00    -0.269 OA
BRANCH  41  44
ATOM     44  C   UNL A   1      38.166  30.198  31.201  1.00  0.00     0.039 A 
ATOM     45  C   UNL A   1      39.135  29.571  31.987  1.00  0.00     0.014 A 
ATOM     46  C   UNL A   1      38.476  30.646  29.913  1.00  0.00     0.014 A 
ATOM     47  C   UNL A   1      40.393  29.308  31.444  1.00  0.00     0.010 A 
ATOM     48  C   UNL A   1      39.705  30.313  29.350  1.00  0.00     0.010 A 
ATOM     49  C   UNL A   1      40.673  29.628  30.104  1.00  0.00    -0.014 A 
BRANCH  49  50
ATOM     50  C   UNL A   1      41.960  29.229  29.473  1.00  0.00     0.031 A 
ATOM     51  C   UNL A   1      43.077  30.226  29.331  1.00  0.00     0.074 A 
ATOM     52  C   UNL A   1      42.104  27.984  28.973  1.00  0.00     0.049 A 
ATOM     53  N   UNL A   1      44.253  30.076  28.779  1.00  0.00    -0.248 NA
ATOM     54  C   UNL A   1      42.827  31.578  29.854  1.00  0.00     0.031 C 
ATOM     55  C   UNL A   1      41.079  26.938  28.996  1.00  0.00     0.029 A 
ATOM     56  N   UNL A   1      43.169  27.388  28.343  1.00  0.00    -0.354 N 
ATOM     57  C   UNL A   1      44.880  31.313  28.879  1.00  0.00     0.074 A 
ATOM     58  C   UNL A   1      43.928  32.218  29.488  1.00  0.00     0.031 C 
ATOM     59  C   UNL A   1      41.575  25.822  28.440  1.00  0.00     0.029 A 
ATOM     60  C   UNL A   1      42.939  26.079  27.985  1.00  0.00     0.049 A 
ATOM     61  H   UNL A   1      44.018  27.852  28.164  1.00  0.00     0.167 HD
ATOM     62  C   UNL A   1      46.140  31.658  28.525  1.00  0.00     0.037 A 
ATOM     63  C   UNL A   1      43.733  25.187  27.362  1.00  0.00     0.037 A 
ATOM     64  C   UNL A   1      47.090  30.750  27.935  1.00  0.00     0.049 A 
ATOM     65  C   UNL A   1      45.127  25.593  26.966  1.00  0.00     0.074 A 
ATOM     66  C   UNL A   1      48.410  30.988  27.592  1.00  0.00     0.029 A 
ATOM     67  N   UNL A   1      46.821  29.432  27.594  1.00  0.00    -0.354 N 
ATOM     68  N   UNL A   1      45.727  26.747  27.134  1.00  0.00    -0.248 NA
ATOM     69  C   UNL A   1      45.954  24.575  26.303  1.00  0.00     0.031 C 
ATOM     70  C   UNL A   1      48.924  29.829  27.000  1.00  0.00     0.029 A 
ATOM     71  C   UNL A   1      47.942  28.852  27.021  1.00  0.00     0.049 A 
ATOM     72  H   UNL A   1      45.960  28.977  27.737  1.00  0.00     0.167 HD
ATOM     73  C   UNL A   1      47.010  26.587  26.621  1.00  0.00     0.074 A 
ATOM     74  C   UNL A   1      47.102  25.221  26.146  1.00  0.00     0.031 C 
ATOM     75  C   UNL A   1      48.021  27.489  26.553  1.00  0.00     0.037 A 
BRANCH  62  76
ATOM     76  C   UNL A   1      46.557  33.085  28.764  1.00  0.00     0.058 A 
ATOM     77  C   UNL A   1      46.988  33.525  30.027  1.00  0.00     0.135 A 
ATOM     78  C   UNL A   1      46.525  34.024  27.721  1.00  0.00     0.135 A 
ATOM     79  F   UNL A   1      47.026  32.673  31.064  1.00  0.00    -0.206 F 
ATOM     80  C   UNL A   1      47.321  34.856  30.260  1.00  0.00     0.059 A 
ATOM     81  C   UNL A   1      46.885  35.354  27.923  1.00  0.00     0.059 A 
ATOM     82  F   UNL A   1      46.128  33.659  26.493  1.00  0.00    -0.206 F 
ATOM     83  C   UNL A   1      47.260  35.765  29.203  1.00  0.00     0.060 A 
BRANCH  83  84
ATOM     84  S   UNL A   1      47.664  37.493  29.529  1.00  0.00     0.124 S 
ATOM     85  O   UNL A   1      46.364  38.020  29.936  1.00  0.00    -0.237 OA
ATOM     86  O   UNL A   1      48.663  37.387  30.586  1.00  0.00    -0.237 OA
ATOM     87  O   UNL A   1      48.161  37.975  28.244  1.00  0.00    -0.744 OA
ENDBRANCH  83  84
ENDBRANCH  62  76
BRANCH  63  88
ATOM     88  C   UNL A   1      43.239  23.807  27.108  1.00  0.00     0.058 A 
ATOM     89  C   UNL A   1      42.868  23.400  25.817  1.00  0.00     0.135 A 
ATOM     90  C   UNL A   1      43.155  22.858  28.139  1.00  0.00     0.135 A 
ATOM     91  F   UNL A   1      42.920  24.273  24.799  1.00  0.00    -0.206 F 
ATOM     92  C   UNL A   1      42.429  22.106  25.557  1.00  0.00     0.059 A 
ATOM     93  C   UNL A   1      42.743  21.550  27.899  1.00  0.00     0.059 A 
ATOM     94  F   UNL A   1      43.512  23.191  29.390  1.00  0.00    -0.206 F 
ATOM     95  C   UNL A   1      42.377  21.185  26.605  1.00  0.00     0.060 A 
BRANCH  95  96
ATOM     96  S   UNL A   1      41.876  19.489  26.241  1.00  0.00     0.124 S 
ATOM     97  O   UNL A   1      42.294  18.791  27.450  1.00  0.00    -0.237 OA
ATOM     98  O   UNL A   1      40.435  19.629  26.052  1.00  0.00    -0.237 OA
ATOM     99  O   UNL A   1      42.629  19.168  25.032  1.00  0.00    -0.744 OA
ENDBRANCH  95  96
ENDBRANCH  63  88
BRANCH  75 100
ATOM    100  C   UNL A   1      49.329  27.025  25.971  1.00  0.00     0.058 A 
ATOM    101  C   UNL A   1      49.654  27.235  24.623  1.00  0.00     0.135 A 
ATOM    102  C   UNL A   1      50.292  26.413  26.790  1.00  0.00     0.135 A 
ATOM    103  F   UNL A   1      48.766  27.809  23.794  1.00  0.00    -0.206 F 
ATOM    104  C   UNL A   1      50.880  26.835  24.100  1.00  0.00     0.059 A 
ATOM    105  C   UNL A   1      51.535  26.030  26.295  1.00  0.00     0.059 A 
ATOM    106  F   UNL A   1      50.037  26.197  28.090  1.00  0.00    -0.206 F 
ATOM    107  C   UNL A   1      51.816  26.236  24.945  1.00  0.00     0.060 A 
BRANCH 107 108
ATOM    108  S   UNL A   1      53.418  25.756  24.263  1.00  0.00     0.124 S 
ATOM    109  O   UNL A   1      53.548  24.388  24.754  1.00  0.00    -0.237 OA
ATOM    110  O   UNL A   1      53.200  25.898  22.827  1.00  0.00    -0.237 OA
ATOM    111  O   UNL A   1      54.340  26.724  24.850  1.00  0.00    -0.744 OA
ENDBRANCH 107 108
ENDBRANCH  75 100
ENDBRANCH  49  50
ENDBRANCH  41  44
ENDBRANCH  39  40
ENDBRANCH  38  39
ENDBRANCH  37  38
ENDBRANCH   1  37
TORSDOF 19
ENDMDL
MODEL 2
REMARK VINA RESULT:     -13.1      2.669      8.833
REMARK SMILES C[C@]12CC[C@@H]3[C@@H](CCC4=C/C(=N\OCC(=O)N5CCC[C@@H]5C(=O)NCCCCNC(=O)c5ccc(-c6c7nc(c(-c8c(F)cc(S(=O)(=O)[O-])cc8F)c8ccc([nH]8)c(-c8c(F)cc(S(=O)(=O)[O-])cc8F)c8nc(c(-c9c(F)cc(S(=O)(=O)[O-])cc9F)c9ccc6[nH]9)C=C8)C=C7)cc5)CC[C@@]43C)[C@@H]1CC[C@@H]2O
REMARK SMILES IDX 25 1 24 2 22 3 23 4 21 6 17 7 18 8 19 9 20 10 15 11 16 12
REMARK SMILES IDX 14 13 13 14 12 15 1 16 2 17 3 18 102 19 105 20 4 21 6 22
REMARK SMILES IDX 103 23 104 24 5 25 7 26 100 27 8 28 9 29 99 30 101 31 10 32
REMARK SMILES IDX 98 33 11 34 106 35 26 37 27 38 28 39 29 40 30 41 31 43 32 44
REMARK SMILES IDX 33 45 97 46 34 47 96 48 35 49 36 50 37 51 90 52 38 53 95 54
REMARK SMILES IDX 89 55 91 56 39 57 94 58 88 59 87 60 40 62 74 63 53 64 73 65
REMARK SMILES IDX 54 66 57 67 72 68 92 69 55 70 56 71 71 73 93 74 58 75 41 76
REMARK SMILES IDX 42 77 51 78 43 79 44 80 50 81 52 82 45 83 46 84 47 85 48 86
REMARK SMILES IDX 49 87 75 88 76 89 85 90 77 91 78 92 84 93 86 94 79 95 80 96
REMARK SMILES IDX 81 97 82 98 83 99 59 100 60 101 69 102 61 103 62 104 68 105
REMARK SMILES IDX 70 106 63 107 64 108 65 109 66 110 67 111
REMARK H PARENT 24 5 106 36 29 42 91 61 57 72
REMARK Flexibility Score: inf
ROOT
ATOM      1  C   UNL A   1      31.965  29.750  25.403  1.00  0.00     0.116 C 
ENDROOT
BRANCH   1   2
ATOM      2  N   UNL A   1      31.698  29.018  24.188  1.00  0.00    -0.354 N 
ATOM      3  C   UNL A   1      30.718  29.255  23.271  1.00  0.00     0.242 C 
ATOM      4  O   UNL A   1      30.985  28.963  22.098  1.00  0.00    -0.273 OA
ATOM      5  H   UNL A   1      32.295  28.257  24.001  1.00  0.00     0.163 HD
BRANCH   3   6
ATOM      6  C   UNL A   1      29.304  29.815  23.623  1.00  0.00     0.174 C 
ATOM      7  N   UNL A   1      28.107  29.350  22.911  1.00  0.00    -0.328 N 
ATOM      8  C   UNL A   1      27.866  30.168  21.727  1.00  0.00     0.120 C 
ATOM      9  C   UNL A   1      28.955  31.229  21.734  1.00  0.00     0.024 C 
ATOM     10  C   UNL A   1      29.330  31.303  23.211  1.00  0.00     0.037 C 
BRANCH   7  11
ATOM     11  C   UNL A   1      27.155  28.429  23.290  1.00  0.00     0.264 C 
ATOM     12  O   UNL A   1      25.960  28.656  23.050  1.00  0.00    -0.271 OA
BRANCH  11  13
ATOM     13  C   UNL A   1      27.509  27.088  23.974  1.00  0.00     0.363 C 
BRANCH  13  14
ATOM     14  O   UNL A   1      28.661  26.325  23.666  1.00  0.00    -0.385 OA
BRANCH  14  15
ATOM     15  N   UNL A   1      29.478  26.309  24.796  1.00  0.00    -0.091 NA
ATOM     16  C   UNL A   1      36.612  21.318  25.986  1.00  0.00     0.014 C 
ATOM     17  C   UNL A   1      35.736  22.567  25.683  1.00  0.00    -0.003 C 
ATOM     18  C   UNL A   1      34.852  22.774  26.912  1.00  0.00     0.010 C 
ATOM     19  C   UNL A   1      34.915  22.507  24.366  1.00  0.00     0.001 C 
ATOM     20  C   UNL A   1      36.608  23.774  25.293  1.00  0.00     0.120 C 
ATOM     21  C   UNL A   1      33.660  21.800  26.919  1.00  0.00     0.005 C 
ATOM     22  C   UNL A   1      33.796  21.474  24.388  1.00  0.00    -0.003 C 
ATOM     23  C   UNL A   1      36.020  22.464  23.302  1.00  0.00     0.007 C 
ATOM     24  C   UNL A   1      37.137  23.357  23.906  1.00  0.00     0.032 C 
ATOM     25  C   UNL A   1      32.859  21.737  25.594  1.00  0.00     0.002 C 
ATOM     26  C   UNL A   1      32.949  21.370  23.116  1.00  0.00     0.008 C 
ATOM     27  C   UNL A   1      31.804  22.912  25.428  1.00  0.00    -0.008 C 
ATOM     28  C   UNL A   1      32.051  22.568  22.818  1.00  0.00     0.032 C 
ATOM     29  C   UNL A   1      31.453  23.308  23.988  1.00  0.00    -0.062 C 
ATOM     30  C   UNL A   1      32.245  24.234  26.102  1.00  0.00     0.018 C 
ATOM     31  C   UNL A   1      30.514  22.398  26.133  1.00  0.00     0.016 C 
ATOM     32  C   UNL A   1      30.724  24.418  23.724  1.00  0.00     0.027 C 
ATOM     33  C   UNL A   1      31.197  25.326  26.083  1.00  0.00     0.061 C 
ATOM     34  C   UNL A   1      30.381  25.382  24.808  1.00  0.00     0.080 C 
BRANCH  20  35
ATOM     35  O   UNL A   1      37.627  24.058  26.218  1.00  0.00    -0.393 OA
ATOM     36  H   UNL A   1      38.467  24.182  25.747  1.00  0.00     0.210 HD
ENDBRANCH  20  35
ENDBRANCH  14  15
ENDBRANCH  13  14
ENDBRANCH  11  13
ENDBRANCH   7  11
ENDBRANCH   3   6
ENDBRANCH   1   2
BRANCH   1  37
ATOM     37  C   UNL A   1      31.769  28.963  26.688  1.00  0.00     0.023 C 
BRANCH  37  38
ATOM     38  C   UNL A   1      33.021  28.213  27.146  1.00  0.00     0.023 C 
BRANCH  38  39
ATOM     39  C   UNL A   1      34.311  29.029  27.253  1.00  0.00     0.116 C 
BRANCH  39  40
ATOM     40  N   UNL A   1      34.227  30.198  28.114  1.00  0.00    -0.352 N 
ATOM     41  C   UNL A   1      35.233  30.749  28.881  1.00  0.00     0.251 C 
ATOM     42  H   UNL A   1      33.352  30.648  28.156  1.00  0.00     0.163 HD
ATOM     43  O   UNL A   1      35.025  31.726  29.593  1.00  0.00    -0.269 OA
BRANCH  41  44
ATOM     44  C   UNL A   1      36.562  30.100  28.872  1.00  0.00     0.039 A 
ATOM     45  C   UNL A   1      37.316  30.130  27.698  1.00  0.00     0.014 A 
ATOM     46  C   UNL A   1      37.105  29.583  30.053  1.00  0.00     0.014 A 
ATOM     47  C   UNL A   1      38.652  29.727  27.730  1.00  0.00     0.010 A 
ATOM     48  C   UNL A   1      38.457  29.254  30.098  1.00  0.00     0.010 A 
ATOM     49  C   UNL A   1      39.250  29.335  28.940  1.00  0.00    -0.014 A 
BRANCH  49  50
ATOM     50  C   UNL A   1      40.705  29.035  29.015  1.00  0.00     0.031 A 
ATOM     51  C   UNL A   1      41.222  27.678  28.626  1.00  0.00     0.074 A 
ATOM     52  C   UNL A   1      41.558  29.967  29.489  1.00  0.00     0.049 A 
ATOM     53  N   UNL A   1      42.445  27.218  28.658  1.00  0.00    -0.248 NA
ATOM     54  C   UNL A   1      40.225  26.697  28.169  1.00  0.00     0.031 C 
ATOM     55  C   UNL A   1      41.180  31.305  29.950  1.00  0.00     0.029 A 
ATOM     56  N   UNL A   1      42.920  29.931  29.665  1.00  0.00    -0.354 N 
ATOM     57  C   UNL A   1      42.367  25.897  28.236  1.00  0.00     0.074 A 
ATOM     58  C   UNL A   1      40.965  25.610  28.014  1.00  0.00     0.031 C 
ATOM     59  C   UNL A   1      42.284  31.971  30.324  1.00  0.00     0.029 A 
ATOM     60  C   UNL A   1      43.445  31.100  30.166  1.00  0.00     0.049 A 
ATOM     61  H   UNL A   1      43.470  29.142  29.453  1.00  0.00     0.167 HD
ATOM     62  C   UNL A   1      43.369  25.011  28.023  1.00  0.00     0.037 A 
ATOM     63  C   UNL A   1      44.716  31.434  30.465  1.00  0.00     0.037 A 
ATOM     64  C   UNL A   1      44.763  25.306  28.228  1.00  0.00     0.049 A 
ATOM     65  C   UNL A   1      45.814  30.432  30.231  1.00  0.00     0.074 A 
ATOM     66  C   UNL A   1      45.859  24.495  27.988  1.00  0.00     0.029 A 
ATOM     67  N   UNL A   1      45.256  26.502  28.731  1.00  0.00    -0.354 N 
ATOM     68  N   UNL A   1      45.729  29.210  29.762  1.00  0.00    -0.248 NA
ATOM     69  C   UNL A   1      47.183  30.855  30.561  1.00  0.00     0.031 C 
ATOM     70  C   UNL A   1      47.010  25.184  28.389  1.00  0.00     0.029 A 
ATOM     71  C   UNL A   1      46.636  26.443  28.831  1.00  0.00     0.049 A 
ATOM     72  H   UNL A   1      44.704  27.279  28.979  1.00  0.00     0.167 HD
ATOM     73  C   UNL A   1      47.032  28.727  29.716  1.00  0.00     0.074 A 
ATOM     74  C   UNL A   1      47.889  29.793  30.196  1.00  0.00     0.031 C 
ATOM     75  C   UNL A   1      47.478  27.513  29.309  1.00  0.00     0.037 A 
BRANCH  62  76
ATOM     76  C   UNL A   1      42.984  23.636  27.546  1.00  0.00     0.058 A 
ATOM     77  C   UNL A   1      42.660  22.607  28.446  1.00  0.00     0.135 A 
ATOM     78  C   UNL A   1      42.938  23.342  26.174  1.00  0.00     0.135 A 
ATOM     79  F   UNL A   1      42.700  22.829  29.769  1.00  0.00    -0.206 F 
ATOM     80  C   UNL A   1      42.357  21.323  28.006  1.00  0.00     0.059 A 
ATOM     81  C   UNL A   1      42.605  22.072  25.709  1.00  0.00     0.059 A 
ATOM     82  F   UNL A   1      43.231  24.288  25.268  1.00  0.00    -0.206 F 
ATOM     83  C   UNL A   1      42.339  21.063  26.635  1.00  0.00     0.060 A 
BRANCH  83  84
ATOM     84  S   UNL A   1      41.976  19.384  26.081  1.00  0.00     0.124 S 
ATOM     85  O   UNL A   1      42.830  19.279  24.901  1.00  0.00    -0.237 OA
ATOM     86  O   UNL A   1      42.381  18.581  27.229  1.00  0.00    -0.237 OA
ATOM     87  O   UNL A   1      40.541  19.416  25.816  1.00  0.00    -0.744 OA
ENDBRANCH  83  84
ENDBRANCH  62  76
BRANCH  63  88
ATOM     88  C   UNL A   1      45.021  32.795  30.983  1.00  0.00     0.058 A 
ATOM     89  C   UNL A   1      45.323  33.848  30.107  1.00  0.00     0.135 A 
ATOM     90  C   UNL A   1      44.987  33.079  32.358  1.00  0.00     0.135 A 
ATOM     91  F   UNL A   1      45.378  33.625  28.785  1.00  0.00    -0.206 F 
ATOM     92  C   UNL A   1      45.585  35.132  30.572  1.00  0.00     0.059 A 
ATOM     93  C   UNL A   1      45.220  34.362  32.845  1.00  0.00     0.059 A 
ATOM     94  F   UNL A   1      44.688  32.110  33.238  1.00  0.00    -0.206 F 
ATOM     95  C   UNL A   1      45.523  35.381  31.945  1.00  0.00     0.060 A 
BRANCH  95  96
ATOM     96  S   UNL A   1      45.792  37.068  32.530  1.00  0.00     0.124 S 
ATOM     97  O   UNL A   1      46.789  37.554  31.584  1.00  0.00    -0.237 OA
ATOM     98  O   UNL A   1      44.459  37.651  32.408  1.00  0.00    -0.237 OA
ATOM     99  O   UNL A   1      46.260  36.877  33.901  1.00  0.00    -0.744 OA
ENDBRANCH  95  96
ENDBRANCH  63  88
BRANCH  75 100
ATOM    100  C   UNL A   1      48.965  27.274  29.335  1.00  0.00     0.058 A 
ATOM    101  C   UNL A   1      49.781  27.577  28.235  1.00  0.00     0.135 A 
ATOM    102  C   UNL A   1      49.585  26.791  30.498  1.00  0.00     0.135 A 
ATOM    103  F   UNL A   1      49.238  28.035  27.095  1.00  0.00    -0.206 F 
ATOM    104  C   UNL A   1      51.159  27.388  28.279  1.00  0.00     0.059 A 
ATOM    105  C   UNL A   1      50.964  26.620  30.574  1.00  0.00     0.059 A 
ATOM    106  F   UNL A   1      48.852  26.495  31.583  1.00  0.00    -0.206 F 
ATOM    107  C   UNL A   1      51.742  26.912  29.455  1.00  0.00     0.060 A 
BRANCH 107 108
ATOM    108  S   UNL A   1      53.535  26.707  29.512  1.00  0.00     0.124 S 
ATOM    109  O   UNL A   1      53.793  26.026  28.249  1.00  0.00    -0.237 OA
ATOM    110  O   UNL A   1      54.004  28.087  29.598  1.00  0.00    -0.237 OA
ATOM    111  O   UNL A   1      53.747  25.905  30.714  1.00  0.00    -0.744 OA
ENDBRANCH 107 108
ENDBRANCH  75 100
ENDBRANCH  49  50
ENDBRANCH  41  44
ENDBRANCH  39  40
ENDBRANCH  38  39
ENDBRANCH  37  38
ENDBRANCH   1  37
TORSDOF 19
ENDMDL
MODEL 3
REMARK VINA RESULT:     -12.8      3.152      5.143
REMARK SMILES C[C@]12CC[C@@H]3[C@@H](CCC4=C/C(=N\OCC(=O)N5CCC[C@@H]5C(=O)NCCCCNC(=O)c5ccc(-c6c7nc(c(-c8c(F)cc(S(=O)(=O)[O-])cc8F)c8ccc([nH]8)c(-c8c(F)cc(S(=O)(=O)[O-])cc8F)c8nc(c(-c9c(F)cc(S(=O)(=O)[O-])cc9F)c9ccc6[nH]9)C=C8)C=C7)cc5)CC[C@@]43C)[C@@H]1CC[C@@H]2O
REMARK SMILES IDX 25 1 24 2 22 3 23 4 21 6 17 7 18 8 19 9 20 10 15 11 16 12
REMARK SMILES IDX 14 13 13 14 12 15 1 16 2 17 3 18 102 19 105 20 4 21 6 22
REMARK SMILES IDX 103 23 104 24 5 25 7 26 100 27 8 28 9 29 99 30 101 31 10 32
REMARK SMILES IDX 98 33 11 34 106 35 26 37 27 38 28 39 29 40 30 41 31 43 32 44
REMARK SMILES IDX 33 45 97 46 34 47 96 48 35 49 36 50 37 51 90 52 38 53 95 54
REMARK SMILES IDX 89 55 91 56 39 57 94 58 88 59 87 60 40 62 74 63 53 64 73 65
REMARK SMILES IDX 54 66 57 67 72 68 92 69 55 70 56 71 71 73 93 74 58 75 41 76
REMARK SMILES IDX 42 77 51 78 43 79 44 80 50 81 52 82 45 83 46 84 47 85 48 86
REMARK SMILES IDX 49 87 75 88 76 89 85 90 77 91 78 92 84 93 86 94 79 95 80 96
REMARK SMILES IDX 81 97 82 98 83 99 59 100 60 101 69 102 61 103 62 104 68 105
REMARK SMILES IDX 70 106 63 107 64 108 65 109 66 110 67 111
REMARK H PARENT 24 5 106 36 29 42 91 61 57 72
REMARK Flexibility Score: inf
ROOT
ATOM      1  C   UNL A   1      31.769  29.933  25.372  1.00  0.00     0.116 C 
ENDROOT
BRANCH   1   2
ATOM      2  N   UNL A   1      31.562  29.183  24.157  1.00  0.00    -0.354 N 
ATOM      3  C   UNL A   1      30.595  29.375  23.216  1.00  0.00     0.242 C 
ATOM      4  O   UNL A   1      30.902  29.087  22.051  1.00  0.00    -0.273 OA
ATOM      5  H   UNL A   1      32.193  28.446  23.989  1.00  0.00     0.163 HD
BRANCH   3   6
ATOM      6  C   UNL A   1      29.151  29.879  23.530  1.00  0.00     0.174 C 
ATOM      7  N   UNL A   1      27.984  29.304  22.849  1.00  0.00    -0.328 N 
ATOM      8  C   UNL A   1      27.704  30.030  21.614  1.00  0.00     0.120 C 
ATOM      9  C   UNL A   1      28.734  31.145  21.552  1.00  0.00     0.024 C 
ATOM     10  C   UNL A   1      29.098  31.336  23.021  1.00  0.00     0.037 C 
BRANCH   7  11
ATOM     11  C   UNL A   1      27.082  28.360  23.287  1.00  0.00     0.264 C 
ATOM     12  O   UNL A   1      25.867  28.568  23.146  1.00  0.00    -0.271 OA
BRANCH  11  13
ATOM     13  C   UNL A   1      27.513  27.016  23.919  1.00  0.00     0.363 C 
BRANCH  13  14
ATOM     14  O   UNL A   1      28.708  26.334  23.585  1.00  0.00    -0.385 OA
BRANCH  14  15
ATOM     15  N   UNL A   1      29.535  26.346  24.709  1.00  0.00    -0.091 NA
ATOM     16  C   UNL A   1      36.618  21.311  26.006  1.00  0.00     0.014 C 
ATOM     17  C   UNL A   1      35.755  22.559  25.668  1.00  0.00    -0.003 C 
ATOM     18  C   UNL A   1      34.885  22.819  26.897  1.00  0.00     0.010 C 
ATOM     19  C   UNL A   1      34.922  22.465  24.362  1.00  0.00     0.001 C 
ATOM     20  C   UNL A   1      36.638  23.742  25.230  1.00  0.00     0.120 C 
ATOM     21  C   UNL A   1      33.681  21.861  26.947  1.00  0.00     0.005 C 
ATOM     22  C   UNL A   1      33.790  21.447  24.428  1.00  0.00    -0.003 C 
ATOM     23  C   UNL A   1      36.017  22.373  23.290  1.00  0.00     0.007 C 
ATOM     24  C   UNL A   1      37.149  23.272  23.854  1.00  0.00     0.032 C 
ATOM     25  C   UNL A   1      32.868  21.763  25.632  1.00  0.00     0.002 C 
ATOM     26  C   UNL A   1      32.931  21.311  23.167  1.00  0.00     0.008 C 
ATOM     27  C   UNL A   1      31.825  22.944  25.435  1.00  0.00    -0.008 C 
ATOM     28  C   UNL A   1      32.045  22.510  22.836  1.00  0.00     0.032 C 
ATOM     29  C   UNL A   1      31.466  23.296  23.986  1.00  0.00    -0.062 C 
ATOM     30  C   UNL A   1      32.289  24.283  26.060  1.00  0.00     0.018 C 
ATOM     31  C   UNL A   1      30.535  22.471  26.168  1.00  0.00     0.016 C 
ATOM     32  C   UNL A   1      30.748  24.406  23.691  1.00  0.00     0.027 C 
ATOM     33  C   UNL A   1      31.253  25.386  26.014  1.00  0.00     0.061 C 
ATOM     34  C   UNL A   1      30.426  25.409  24.744  1.00  0.00     0.080 C 
BRANCH  20  35
ATOM     35  O   UNL A   1      37.669  24.045  26.136  1.00  0.00    -0.393 OA
ATOM     36  H   UNL A   1      38.116  23.226  26.403  1.00  0.00     0.210 HD
ENDBRANCH  20  35
ENDBRANCH  14  15
ENDBRANCH  13  14
ENDBRANCH  11  13
ENDBRANCH   7  11
ENDBRANCH   3   6
ENDBRANCH   1   2
BRANCH   1  37
ATOM     37  C   UNL A   1      31.495  29.170  26.658  1.00  0.00     0.023 C 
BRANCH  37  38
ATOM     38  C   UNL A   1      32.633  28.238  27.075  1.00  0.00     0.023 C 
BRANCH  38  39
ATOM     39  C   UNL A   1      34.007  28.880  27.281  1.00  0.00     0.116 C 
BRANCH  39  40
ATOM     40  N   UNL A   1      33.981  30.194  27.904  1.00  0.00    -0.352 N 
ATOM     41  C   UNL A   1      35.016  30.835  28.553  1.00  0.00     0.251 C 
ATOM     42  H   UNL A   1      33.127  30.684  27.856  1.00  0.00     0.163 HD
ATOM     43  O   UNL A   1      34.856  31.939  29.065  1.00  0.00    -0.269 OA
BRANCH  41  44
ATOM     44  C   UNL A   1      36.314  30.138  28.672  1.00  0.00     0.039 A 
ATOM     45  C   UNL A   1      37.200  30.180  27.594  1.00  0.00     0.014 A 
ATOM     46  C   UNL A   1      36.698  29.559  29.885  1.00  0.00     0.014 A 
ATOM     47  C   UNL A   1      38.509  29.725  27.762  1.00  0.00     0.010 A 
ATOM     48  C   UNL A   1      38.025  29.177  30.072  1.00  0.00     0.010 A 
ATOM     49  C   UNL A   1      38.949  29.269  29.017  1.00  0.00    -0.014 A 
BRANCH  49  50
ATOM     50  C   UNL A   1      40.375  28.911  29.246  1.00  0.00     0.031 A 
ATOM     51  C   UNL A   1      41.319  29.910  29.857  1.00  0.00     0.074 A 
ATOM     52  C   UNL A   1      40.836  27.707  28.852  1.00  0.00     0.049 A 
ATOM     53  N   UNL A   1      42.598  29.797  30.100  1.00  0.00    -0.248 NA
ATOM     54  C   UNL A   1      40.754  31.221  30.214  1.00  0.00     0.031 C 
ATOM     55  C   UNL A   1      40.038  26.667  28.198  1.00  0.00     0.029 A 
ATOM     56  N   UNL A   1      42.090  27.153  28.938  1.00  0.00    -0.354 N 
ATOM     57  C   UNL A   1      42.995  31.019  30.628  1.00  0.00     0.074 A 
ATOM     58  C   UNL A   1      41.832  31.881  30.611  1.00  0.00     0.031 C 
ATOM     59  C   UNL A   1      40.811  25.592  27.974  1.00  0.00     0.029 A 
ATOM     60  C   UNL A   1      42.168  25.876  28.432  1.00  0.00     0.049 A 
ATOM     61  H   UNL A   1      42.862  27.626  29.326  1.00  0.00     0.167 HD
ATOM     62  C   UNL A   1      44.206  31.384  31.111  1.00  0.00     0.037 A 
ATOM     63  C   UNL A   1      43.213  25.029  28.344  1.00  0.00     0.037 A 
ATOM     64  C   UNL A   1      45.357  30.518  31.142  1.00  0.00     0.049 A 
ATOM     65  C   UNL A   1      44.553  25.456  28.877  1.00  0.00     0.074 A 
ATOM     66  C   UNL A   1      46.613  30.774  31.663  1.00  0.00     0.029 A 
ATOM     67  N   UNL A   1      45.394  29.230  30.626  1.00  0.00    -0.354 N 
ATOM     68  N   UNL A   1      44.892  26.592  29.440  1.00  0.00    -0.248 NA
ATOM     69  C   UNL A   1      45.653  24.487  28.770  1.00  0.00     0.031 C 
ATOM     70  C   UNL A   1      47.424  29.660  31.418  1.00  0.00     0.029 A 
ATOM     71  C   UNL A   1      46.659  28.689  30.792  1.00  0.00     0.049 A 
ATOM     72  H   UNL A   1      44.634  28.769  30.203  1.00  0.00     0.167 HD
ATOM     73  C   UNL A   1      46.235  26.465  29.776  1.00  0.00     0.074 A 
ATOM     74  C   UNL A   1      46.644  25.137  29.364  1.00  0.00     0.031 C 
ATOM     75  C   UNL A   1      47.054  27.364  30.378  1.00  0.00     0.037 A 
BRANCH  62  76
ATOM     76  C   UNL A   1      44.344  32.787  31.640  1.00  0.00     0.058 A 
ATOM     77  C   UNL A   1      44.142  33.086  32.998  1.00  0.00     0.135 A 
ATOM     78  C   UNL A   1      44.678  33.845  30.781  1.00  0.00     0.135 A 
ATOM     79  F   UNL A   1      43.808  32.115  33.862  1.00  0.00    -0.206 F 
ATOM     80  C   UNL A   1      44.217  34.390  33.475  1.00  0.00     0.059 A 
ATOM     81  C   UNL A   1      44.790  35.155  31.243  1.00  0.00     0.059 A 
ATOM     82  F   UNL A   1      44.888  33.618  29.475  1.00  0.00    -0.206 F 
ATOM     83  C   UNL A   1      44.534  35.420  32.588  1.00  0.00     0.060 A 
BRANCH  83  84
ATOM     84  S   UNL A   1      44.594  37.110  33.216  1.00  0.00     0.124 S 
ATOM     85  O   UNL A   1      43.174  37.399  33.400  1.00  0.00    -0.237 OA
ATOM     86  O   UNL A   1      45.374  36.962  34.440  1.00  0.00    -0.237 OA
ATOM     87  O   UNL A   1      45.251  37.849  32.143  1.00  0.00    -0.744 OA
ENDBRANCH  83  84
ENDBRANCH  62  76
BRANCH  63  88
ATOM     88  C   UNL A   1      43.019  23.674  27.761  1.00  0.00     0.058 A 
ATOM     89  C   UNL A   1      42.695  22.578  28.576  1.00  0.00     0.135 A 
ATOM     90  C   UNL A   1      43.123  23.450  26.379  1.00  0.00     0.135 A 
ATOM     91  F   UNL A   1      42.593  22.739  29.905  1.00  0.00    -0.206 F 
ATOM     92  C   UNL A   1      42.484  21.310  28.045  1.00  0.00     0.059 A 
ATOM     93  C   UNL A   1      42.893  22.196  25.822  1.00  0.00     0.059 A 
ATOM     94  F   UNL A   1      43.417  24.467  25.554  1.00  0.00    -0.206 F 
ATOM     95  C   UNL A   1      42.578  21.131  26.663  1.00  0.00     0.060 A 
BRANCH  95  96
ATOM     96  S   UNL A   1      42.231  19.496  25.979  1.00  0.00     0.124 S 
ATOM     97  O   UNL A   1      40.797  19.577  25.732  1.00  0.00    -0.237 OA
ATOM     98  O   UNL A   1      43.083  19.473  24.793  1.00  0.00    -0.237 OA
ATOM     99  O   UNL A   1      42.638  18.590  27.050  1.00  0.00    -0.744 OA
ENDBRANCH  95  96
ENDBRANCH  63  88
BRANCH  75 100
ATOM    100  C   UNL A   1      48.471  26.938  30.654  1.00  0.00     0.058 A 
ATOM    101  C   UNL A   1      49.474  27.030  29.678  1.00  0.00     0.135 A 
ATOM    102  C   UNL A   1      48.838  26.486  31.932  1.00  0.00     0.135 A 
ATOM    103  F   UNL A   1      49.175  27.448  28.438  1.00  0.00    -0.206 F 
ATOM    104  C   UNL A   1      50.789  26.668  29.953  1.00  0.00     0.059 A 
ATOM    105  C   UNL A   1      50.153  26.146  32.237  1.00  0.00     0.059 A 
ATOM    106  F   UNL A   1      47.920  26.389  32.906  1.00  0.00    -0.206 F 
ATOM    107  C   UNL A   1      51.120  26.230  31.237  1.00  0.00     0.060 A 
BRANCH 107 108
ATOM    108  S   UNL A   1      52.838  25.800  31.590  1.00  0.00     0.124 S 
ATOM    109  O   UNL A   1      52.715  24.399  31.980  1.00  0.00    -0.237 OA
ATOM    110  O   UNL A   1      53.492  26.048  30.309  1.00  0.00    -0.237 OA
ATOM    111  O   UNL A   1      53.204  26.720  32.663  1.00  0.00    -0.744 OA
ENDBRANCH 107 108
ENDBRANCH  75 100
ENDBRANCH  49  50
ENDBRANCH  41  44
ENDBRANCH  39  40
ENDBRANCH  38  39
ENDBRANCH  37  38
ENDBRANCH   1  37
TORSDOF 19
ENDMDL
