MODEL 1
REMARK VINA RESULT:      -9.0      0.000      0.000
REMARK SMILES O=C(Cn1nc(-c2ccc(Br)cc2)ccc1=O)N[C@H](C(=O)NCCCCNC(=O)c1ccc(-c2c3nc(c(-c4c(F)cc(S(=O)(=O)[O-])cc4F)c4ccc([nH]4)c(-c4c(F)cc(S(=O)(=O)[O-])cc4F)c4nc(c(-c5c(F)cc(S(=O)(=O)[O-])cc5F)c5ccc2[nH]5)C=C4)C=C3)cc1)c1ccccc1
REMARK SMILES IDX 24 1 23 2 22 3 20 4 21 5 19 7 18 8 1 9 2 10 3 12 4 13 5 14
REMARK SMILES IDX 16 15 6 16 15 17 17 18 14 19 7 20 8 21 13 22 9 23 12 24
REMARK SMILES IDX 10 25 11 26 96 27 97 28 101 29 98 30 100 31 99 32 25 33
REMARK SMILES IDX 26 34 27 35 28 36 29 38 30 39 31 40 95 41 32 42 94 43 33 44
REMARK SMILES IDX 34 45 35 46 88 47 36 48 93 49 87 50 89 51 37 52 92 53 86 54
REMARK SMILES IDX 85 55 38 57 72 58 51 59 71 60 52 61 55 62 70 63 90 64 53 65
REMARK SMILES IDX 54 66 69 68 91 69 56 70 39 71 40 72 49 73 41 74 42 75 48 76
REMARK SMILES IDX 50 77 43 78 44 79 45 80 46 81 47 82 73 83 74 84 83 85 75 86
REMARK SMILES IDX 76 87 82 88 84 89 77 90 78 91 79 92 80 93 81 94 57 95 58 96
REMARK SMILES IDX 67 97 59 98 60 99 66 100 68 101 61 102 62 103 63 104 64 105
REMARK SMILES IDX 65 106
REMARK H PARENT 22 6 18 11 27 37 89 56 55 67
REMARK Flexibility Score: inf
ROOT
ATOM      1  C   UNL A   1      43.604  23.626  30.772  1.00  0.00     0.023 C 
ENDROOT
BRANCH   1   2
ATOM      2  C   UNL A   1      44.619  23.551  31.915  1.00  0.00     0.116 C 
BRANCH   2   3
ATOM      3  N   UNL A   1      43.979  23.679  33.208  1.00  0.00    -0.354 N 
ATOM      4  C   UNL A   1      44.373  23.198  34.432  1.00  0.00     0.247 C 
ATOM      5  O   UNL A   1      43.548  23.266  35.346  1.00  0.00    -0.272 OA
ATOM      6  H   UNL A   1      43.135  24.186  33.209  1.00  0.00     0.163 HD
BRANCH   4   7
ATOM      7  C   UNL A   1      45.753  22.491  34.566  1.00  0.00     0.202 C 
BRANCH   7   8
ATOM      8  N   UNL A   1      46.896  23.415  34.636  1.00  0.00    -0.339 N 
ATOM      9  O   UNL A   1      48.523  21.835  34.344  1.00  0.00    -0.273 OA
ATOM     10  C   UNL A   1      48.190  23.018  34.372  1.00  0.00     0.242 C 
ATOM     11  H   UNL A   1      46.731  24.354  34.880  1.00  0.00     0.164 HD
BRANCH  10  12
ATOM     12  C   UNL A   1      49.243  24.129  34.296  1.00  0.00     0.248 C 
BRANCH  12  13
ATOM     13  N   UNL A   1      49.420  24.716  32.967  1.00  0.00    -0.220 N 
ATOM     14  N   UNL A   1      48.372  25.486  32.496  1.00  0.00    -0.169 NA
ATOM     15  C   UNL A   1      50.703  24.809  32.437  1.00  0.00     0.267 A 
ATOM     16  C   UNL A   1      48.567  26.135  31.392  1.00  0.00     0.091 A 
ATOM     17  C   UNL A   1      50.793  25.361  31.070  1.00  0.00     0.075 A 
ATOM     18  O   UNL A   1      51.729  24.443  32.996  1.00  0.00    -0.268 OA
ATOM     19  C   UNL A   1      49.759  26.006  30.532  1.00  0.00     0.036 A 
BRANCH  16  20
ATOM     20  C   UNL A   1      47.595  27.161  30.969  1.00  0.00     0.002 A 
ATOM     21  C   UNL A   1      47.384  28.243  31.832  1.00  0.00     0.011 A 
ATOM     22  C   UNL A   1      46.945  27.090  29.736  1.00  0.00     0.011 A 
ATOM     23  C   UNL A   1      46.522  29.271  31.455  1.00  0.00     0.016 A 
ATOM     24  C   UNL A   1      46.073  28.118  29.367  1.00  0.00     0.016 A 
ATOM     25  C   UNL A   1      45.870  29.203  30.225  1.00  0.00     0.018 A 
ATOM     26  Br  UNL A   1      44.701  30.598  29.712  1.00  0.00    -0.051 Br
ENDBRANCH  16  20
ENDBRANCH  12  13
ENDBRANCH  10  12
ENDBRANCH   7   8
BRANCH   7  27
ATOM     27  C   UNL A   1      45.790  21.345  35.574  1.00  0.00    -0.016 A 
ATOM     28  C   UNL A   1      46.129  21.522  36.921  1.00  0.00     0.006 A 
ATOM     29  C   UNL A   1      45.512  20.035  35.143  1.00  0.00     0.006 A 
ATOM     30  C   UNL A   1      46.236  20.440  37.797  1.00  0.00     0.000 A 
ATOM     31  C   UNL A   1      45.597  18.950  36.021  1.00  0.00     0.000 A 
ATOM     32  C   UNL A   1      45.974  19.151  37.346  1.00  0.00     0.000 A 
ENDBRANCH   7  27
ENDBRANCH   4   7
ENDBRANCH   2   3
ENDBRANCH   1   2
BRANCH   1  33
ATOM     33  C   UNL A   1      43.992  22.856  29.509  1.00  0.00     0.023 C 
BRANCH  33  34
ATOM     34  C   UNL A   1      44.594  23.701  28.392  1.00  0.00     0.116 C 
BRANCH  34  35
ATOM     35  N   UNL A   1      43.902  23.551  27.119  1.00  0.00    -0.352 N 
ATOM     36  C   UNL A   1      42.817  24.258  26.638  1.00  0.00     0.251 C 
ATOM     37  H   UNL A   1      44.253  22.853  26.521  1.00  0.00     0.163 HD
ATOM     38  O   UNL A   1      42.285  23.944  25.585  1.00  0.00    -0.269 OA
BRANCH  36  39
ATOM     39  C   UNL A   1      42.279  25.371  27.454  1.00  0.00     0.039 A 
ATOM     40  C   UNL A   1      42.938  26.602  27.483  1.00  0.00     0.014 A 
ATOM     41  C   UNL A   1      41.179  25.136  28.281  1.00  0.00     0.014 A 
ATOM     42  C   UNL A   1      42.629  27.517  28.484  1.00  0.00     0.010 A 
ATOM     43  C   UNL A   1      40.816  26.095  29.230  1.00  0.00     0.010 A 
ATOM     44  C   UNL A   1      41.584  27.262  29.387  1.00  0.00    -0.014 A 
BRANCH  44  45
ATOM     45  C   UNL A   1      41.348  28.188  30.527  1.00  0.00     0.031 A 
ATOM     46  C   UNL A   1      42.241  28.144  31.743  1.00  0.00     0.074 A 
ATOM     47  C   UNL A   1      40.369  29.109  30.448  1.00  0.00     0.049 A 
ATOM     48  N   UNL A   1      42.165  28.837  32.851  1.00  0.00    -0.248 NA
ATOM     49  C   UNL A   1      43.369  27.197  31.712  1.00  0.00     0.031 C 
ATOM     50  C   UNL A   1      39.461  29.280  29.311  1.00  0.00     0.029 A 
ATOM     51  N   UNL A   1      39.983  30.086  31.330  1.00  0.00    -0.354 N 
ATOM     52  C   UNL A   1      43.213  28.399  33.653  1.00  0.00     0.074 A 
ATOM     53  C   UNL A   1      43.897  27.358  32.918  1.00  0.00     0.031 C 
ATOM     54  C   UNL A   1      38.653  30.324  29.547  1.00  0.00     0.029 A 
ATOM     55  C   UNL A   1      38.936  30.853  30.878  1.00  0.00     0.049 A 
ATOM     56  H   UNL A   1      40.415  30.226  32.203  1.00  0.00     0.167 HD
ATOM     57  C   UNL A   1      43.580  28.833  34.884  1.00  0.00     0.037 A 
ATOM     58  C   UNL A   1      38.260  31.853  31.474  1.00  0.00     0.037 A 
ATOM     59  C   UNL A   1      42.913  29.891  35.601  1.00  0.00     0.049 A 
ATOM     60  C   UNL A   1      38.649  32.274  32.863  1.00  0.00     0.074 A 
ATOM     61  C   UNL A   1      43.216  30.408  36.849  1.00  0.00     0.029 A 
ATOM     62  N   UNL A   1      41.817  30.599  35.132  1.00  0.00    -0.354 N 
ATOM     63  N   UNL A   1      39.623  31.826  33.619  1.00  0.00    -0.248 NA
ATOM     64  C   UNL A   1      37.838  33.329  33.485  1.00  0.00     0.031 C 
ATOM     65  C   UNL A   1      42.278  31.400  37.153  1.00  0.00     0.029 A 
ATOM     66  C   UNL A   1      41.418  31.534  36.075  1.00  0.00     0.049 A 
ATOM     67  H   UNL A   1      41.384  30.458  34.260  1.00  0.00     0.167 HD
ATOM     68  C   UNL A   1      39.547  32.549  34.803  1.00  0.00     0.074 A 
ATOM     69  C   UNL A   1      38.448  33.482  34.653  1.00  0.00     0.031 C 
ATOM     70  C   UNL A   1      40.313  32.447  35.917  1.00  0.00     0.037 A 
BRANCH  57  71
ATOM     71  C   UNL A   1      44.752  28.161  35.549  1.00  0.00     0.058 A 
ATOM     72  C   UNL A   1      46.047  28.699  35.484  1.00  0.00     0.135 A 
ATOM     73  C   UNL A   1      44.566  26.995  36.311  1.00  0.00     0.135 A 
ATOM     74  F   UNL A   1      46.286  29.801  34.755  1.00  0.00    -0.206 F 
ATOM     75  C   UNL A   1      47.118  28.099  36.139  1.00  0.00     0.059 A 
ATOM     76  C   UNL A   1      45.618  26.391  36.994  1.00  0.00     0.059 A 
ATOM     77  F   UNL A   1      43.350  26.436  36.405  1.00  0.00    -0.206 F 
ATOM     78  C   UNL A   1      46.893  26.946  36.895  1.00  0.00     0.060 A 
BRANCH  78  79
ATOM     79  S   UNL A   1      48.293  26.191  37.750  1.00  0.00     0.124 S 
ATOM     80  O   UNL A   1      48.069  24.774  37.481  1.00  0.00    -0.237 OA
ATOM     81  O   UNL A   1      49.435  26.792  37.070  1.00  0.00    -0.237 OA
ATOM     82  O   UNL A   1      48.107  26.601  39.138  1.00  0.00    -0.744 OA
ENDBRANCH  78  79
ENDBRANCH  57  71
BRANCH  58  83
ATOM     83  C   UNL A   1      37.133  32.508  30.761  1.00  0.00     0.058 A 
ATOM     84  C   UNL A   1      35.813  32.075  30.947  1.00  0.00     0.135 A 
ATOM     85  C   UNL A   1      37.351  33.596  29.902  1.00  0.00     0.135 A 
ATOM     86  F   UNL A   1      35.555  31.031  31.750  1.00  0.00    -0.206 F 
ATOM     87  C   UNL A   1      34.747  32.695  30.304  1.00  0.00     0.059 A 
ATOM     88  C   UNL A   1      36.300  34.251  29.270  1.00  0.00     0.059 A 
ATOM     89  F   UNL A   1      38.595  34.056  29.700  1.00  0.00    -0.206 F 
ATOM     90  C   UNL A   1      35.000  33.787  29.472  1.00  0.00     0.060 A 
BRANCH  90  91
ATOM     91  S   UNL A   1      33.603  34.623  28.693  1.00  0.00     0.124 S 
ATOM     92  O   UNL A   1      32.748  34.899  29.840  1.00  0.00    -0.237 OA
ATOM     93  O   UNL A   1      34.244  35.782  28.080  1.00  0.00    -0.237 OA
ATOM     94  O   UNL A   1      33.097  33.627  27.752  1.00  0.00    -0.744 OA
ENDBRANCH  90  91
ENDBRANCH  58  83
BRANCH  70  95
ATOM     95  C   UNL A   1      39.991  33.370  37.058  1.00  0.00     0.058 A 
ATOM     96  C   UNL A   1      38.950  33.090  37.957  1.00  0.00     0.135 A 
ATOM     97  C   UNL A   1      40.748  34.534  37.274  1.00  0.00     0.135 A 
ATOM     98  F   UNL A   1      38.193  31.994  37.791  1.00  0.00    -0.206 F 
ATOM     99  C   UNL A   1      38.651  33.945  39.012  1.00  0.00     0.059 A 
ATOM    100  C   UNL A   1      40.483  35.390  38.339  1.00  0.00     0.059 A 
ATOM    101  F   UNL A   1      41.762  34.843  36.451  1.00  0.00    -0.206 F 
ATOM    102  C   UNL A   1      39.423  35.094  39.193  1.00  0.00     0.060 A 
BRANCH 102 103
ATOM    103  S   UNL A   1      39.028  36.189  40.573  1.00  0.00     0.124 S 
ATOM    104  O   UNL A   1      38.475  37.348  39.880  1.00  0.00    -0.237 OA
ATOM    105  O   UNL A   1      38.072  35.393  41.339  1.00  0.00    -0.237 OA
ATOM    106  O   UNL A   1      40.319  36.402  41.220  1.00  0.00    -0.744 OA
ENDBRANCH 102 103
ENDBRANCH  70  95
ENDBRANCH  44  45
ENDBRANCH  36  39
ENDBRANCH  34  35
ENDBRANCH  33  34
ENDBRANCH   1  33
TORSDOF 19
ENDMDL
MODEL 2
REMARK VINA RESULT:      -9.0      3.855      9.748
REMARK SMILES O=C(Cn1nc(-c2ccc(Br)cc2)ccc1=O)N[C@H](C(=O)NCCCCNC(=O)c1ccc(-c2c3nc(c(-c4c(F)cc(S(=O)(=O)[O-])cc4F)c4ccc([nH]4)c(-c4c(F)cc(S(=O)(=O)[O-])cc4F)c4nc(c(-c5c(F)cc(S(=O)(=O)[O-])cc5F)c5ccc2[nH]5)C=C4)C=C3)cc1)c1ccccc1
REMARK SMILES IDX 24 1 23 2 22 3 20 4 21 5 19 7 18 8 1 9 2 10 3 12 4 13 5 14
REMARK SMILES IDX 16 15 6 16 15 17 17 18 14 19 7 20 8 21 13 22 9 23 12 24
REMARK SMILES IDX 10 25 11 26 96 27 97 28 101 29 98 30 100 31 99 32 25 33
REMARK SMILES IDX 26 34 27 35 28 36 29 38 30 39 31 40 95 41 32 42 94 43 33 44
REMARK SMILES IDX 34 45 35 46 88 47 36 48 93 49 87 50 89 51 37 52 92 53 86 54
REMARK SMILES IDX 85 55 38 57 72 58 51 59 71 60 52 61 55 62 70 63 90 64 53 65
REMARK SMILES IDX 54 66 69 68 91 69 56 70 39 71 40 72 49 73 41 74 42 75 48 76
REMARK SMILES IDX 50 77 43 78 44 79 45 80 46 81 47 82 73 83 74 84 83 85 75 86
REMARK SMILES IDX 76 87 82 88 84 89 77 90 78 91 79 92 80 93 81 94 57 95 58 96
REMARK SMILES IDX 67 97 59 98 60 99 66 100 68 101 61 102 62 103 63 104 64 105
REMARK SMILES IDX 65 106
REMARK H PARENT 22 6 18 11 27 37 89 56 55 67
REMARK Flexibility Score: inf
ROOT
ATOM      1  C   UNL A   1      43.429  23.340  25.040  1.00  0.00     0.023 C 
ENDROOT
BRANCH   1   2
ATOM      2  C   UNL A   1      44.701  23.767  25.776  1.00  0.00     0.116 C 
BRANCH   2   3
ATOM      3  N   UNL A   1      45.504  24.668  24.976  1.00  0.00    -0.354 N 
ATOM      4  C   UNL A   1      45.977  25.921  25.276  1.00  0.00     0.247 C 
ATOM      5  O   UNL A   1      46.465  26.567  24.346  1.00  0.00    -0.272 OA
ATOM      6  H   UNL A   1      45.749  24.331  24.083  1.00  0.00     0.163 HD
BRANCH   4   7
ATOM      7  C   UNL A   1      45.757  26.497  26.705  1.00  0.00     0.202 C 
BRANCH   7   8
ATOM      8  N   UNL A   1      46.997  26.688  27.473  1.00  0.00    -0.339 N 
ATOM      9  O   UNL A   1      47.591  24.481  27.557  1.00  0.00    -0.273 OA
ATOM     10  C   UNL A   1      47.889  25.664  27.711  1.00  0.00     0.242 C 
ATOM     11  H   UNL A   1      47.199  27.582  27.831  1.00  0.00     0.164 HD
BRANCH  10  12
ATOM     12  C   UNL A   1      49.223  26.056  28.356  1.00  0.00     0.248 C 
BRANCH  12  13
ATOM     13  N   UNL A   1      50.388  25.932  27.479  1.00  0.00    -0.220 N 
ATOM     14  N   UNL A   1      50.164  26.159  26.132  1.00  0.00    -0.169 NA
ATOM     15  C   UNL A   1      51.661  25.989  28.037  1.00  0.00     0.267 A 
ATOM     16  C   UNL A   1      51.204  26.202  25.361  1.00  0.00     0.091 A 
ATOM     17  C   UNL A   1      52.782  25.800  27.095  1.00  0.00     0.075 A 
ATOM     18  O   UNL A   1      51.907  26.145  29.226  1.00  0.00    -0.268 OA
ATOM     19  C   UNL A   1      52.584  25.891  25.780  1.00  0.00     0.036 A 
BRANCH  16  20
ATOM     20  C   UNL A   1      51.063  26.685  23.974  1.00  0.00     0.002 A 
ATOM     21  C   UNL A   1      52.216  26.706  23.179  1.00  0.00     0.011 A 
ATOM     22  C   UNL A   1      49.825  27.061  23.452  1.00  0.00     0.011 A 
ATOM     23  C   UNL A   1      52.128  27.095  21.844  1.00  0.00     0.016 A 
ATOM     24  C   UNL A   1      49.744  27.462  22.116  1.00  0.00     0.016 A 
ATOM     25  C   UNL A   1      50.893  27.472  21.319  1.00  0.00     0.018 A 
ATOM     26  Br  UNL A   1      50.773  28.000  19.507  1.00  0.00    -0.051 Br
ENDBRANCH  16  20
ENDBRANCH  12  13
ENDBRANCH  10  12
ENDBRANCH   7   8
BRANCH   7  27
ATOM     27  C   UNL A   1      44.769  27.659  26.781  1.00  0.00    -0.016 A 
ATOM     28  C   UNL A   1      44.926  28.740  27.657  1.00  0.00     0.006 A 
ATOM     29  C   UNL A   1      43.618  27.643  25.972  1.00  0.00     0.006 A 
ATOM     30  C   UNL A   1      43.959  29.743  27.762  1.00  0.00     0.000 A 
ATOM     31  C   UNL A   1      42.658  28.656  26.057  1.00  0.00     0.000 A 
ATOM     32  C   UNL A   1      42.822  29.699  26.965  1.00  0.00     0.000 A 
ENDBRANCH   7  27
ENDBRANCH   4   7
ENDBRANCH   2   3
ENDBRANCH   1   2
BRANCH   1  33
ATOM     33  C   UNL A   1      42.752  22.083  25.590  1.00  0.00     0.023 C 
BRANCH  33  34
ATOM     34  C   UNL A   1      41.614  22.335  26.572  1.00  0.00     0.116 C 
BRANCH  34  35
ATOM     35  N   UNL A   1      40.295  22.102  25.998  1.00  0.00    -0.352 N 
ATOM     36  C   UNL A   1      39.177  22.910  26.050  1.00  0.00     0.251 C 
ATOM     37  H   UNL A   1      40.186  21.256  25.507  1.00  0.00     0.163 HD
ATOM     38  O   UNL A   1      38.108  22.526  25.601  1.00  0.00    -0.269 OA
BRANCH  36  39
ATOM     39  C   UNL A   1      39.287  24.231  26.711  1.00  0.00     0.039 A 
ATOM     40  C   UNL A   1      40.063  25.240  26.139  1.00  0.00     0.014 A 
ATOM     41  C   UNL A   1      38.706  24.411  27.968  1.00  0.00     0.014 A 
ATOM     42  C   UNL A   1      40.430  26.339  26.909  1.00  0.00     0.010 A 
ATOM     43  C   UNL A   1      39.006  25.559  28.706  1.00  0.00     0.010 A 
ATOM     44  C   UNL A   1      39.928  26.497  28.211  1.00  0.00    -0.014 A 
BRANCH  44  45
ATOM     45  C   UNL A   1      40.427  27.608  29.066  1.00  0.00     0.031 A 
ATOM     46  C   UNL A   1      39.577  28.833  29.299  1.00  0.00     0.074 A 
ATOM     47  C   UNL A   1      41.619  27.493  29.683  1.00  0.00     0.049 A 
ATOM     48  N   UNL A   1      39.858  29.920  29.972  1.00  0.00    -0.248 NA
ATOM     49  C   UNL A   1      38.233  28.840  28.695  1.00  0.00     0.031 C 
ATOM     50  C   UNL A   1      42.519  26.343  29.571  1.00  0.00     0.029 A 
ATOM     51  N   UNL A   1      42.272  28.342  30.539  1.00  0.00    -0.354 N 
ATOM     52  C   UNL A   1      38.744  30.744  29.857  1.00  0.00     0.074 A 
ATOM     53  C   UNL A   1      37.789  30.045  29.024  1.00  0.00     0.031 C 
ATOM     54  C   UNL A   1      43.586  26.541  30.360  1.00  0.00     0.029 A 
ATOM     55  C   UNL A   1      43.480  27.858  30.979  1.00  0.00     0.049 A 
ATOM     56  H   UNL A   1      41.908  29.215  30.813  1.00  0.00     0.167 HD
ATOM     57  C   UNL A   1      38.530  31.965  30.405  1.00  0.00     0.037 A 
ATOM     58  C   UNL A   1      44.413  28.419  31.771  1.00  0.00     0.037 A 
ATOM     59  C   UNL A   1      39.472  32.645  31.259  1.00  0.00     0.049 A 
ATOM     60  C   UNL A   1      44.177  29.799  32.318  1.00  0.00     0.074 A 
ATOM     61  C   UNL A   1      39.343  33.880  31.870  1.00  0.00     0.029 A 
ATOM     62  N   UNL A   1      40.712  32.146  31.629  1.00  0.00    -0.354 N 
ATOM     63  N   UNL A   1      43.131  30.577  32.171  1.00  0.00    -0.248 NA
ATOM     64  C   UNL A   1      45.256  30.383  33.127  1.00  0.00     0.031 C 
ATOM     65  C   UNL A   1      40.521  34.147  32.576  1.00  0.00     0.029 A 
ATOM     66  C   UNL A   1      41.367  33.058  32.442  1.00  0.00     0.049 A 
ATOM     67  H   UNL A   1      41.075  31.273  31.353  1.00  0.00     0.167 HD
ATOM     68  C   UNL A   1      43.422  31.739  32.876  1.00  0.00     0.074 A 
ATOM     69  C   UNL A   1      44.731  31.551  33.469  1.00  0.00     0.031 C 
ATOM     70  C   UNL A   1      42.676  32.863  33.015  1.00  0.00     0.037 A 
BRANCH  57  71
ATOM     71  C   UNL A   1      37.231  32.660  30.096  1.00  0.00     0.058 A 
ATOM     72  C   UNL A   1      36.069  32.423  30.847  1.00  0.00     0.135 A 
ATOM     73  C   UNL A   1      37.163  33.621  29.073  1.00  0.00     0.135 A 
ATOM     74  F   UNL A   1      36.071  31.503  31.824  1.00  0.00    -0.206 F 
ATOM     75  C   UNL A   1      34.883  33.103  30.586  1.00  0.00     0.059 A 
ATOM     76  C   UNL A   1      35.994  34.330  28.810  1.00  0.00     0.059 A 
ATOM     77  F   UNL A   1      38.243  33.886  28.322  1.00  0.00    -0.206 F 
ATOM     78  C   UNL A   1      34.856  34.057  29.567  1.00  0.00     0.060 A 
BRANCH  78  79
ATOM     79  S   UNL A   1      33.312  34.940  29.254  1.00  0.00     0.124 S 
ATOM     80  O   UNL A   1      32.670  34.066  28.277  1.00  0.00    -0.237 OA
ATOM     81  O   UNL A   1      32.697  34.970  30.577  1.00  0.00    -0.237 OA
ATOM     82  O   UNL A   1      33.755  36.232  28.743  1.00  0.00    -0.744 OA
ENDBRANCH  78  79
ENDBRANCH  57  71
BRANCH  58  83
ATOM     83  C   UNL A   1      45.664  27.676  32.075  1.00  0.00     0.058 A 
ATOM     84  C   UNL A   1      46.808  27.835  31.281  1.00  0.00     0.135 A 
ATOM     85  C   UNL A   1      45.748  26.816  33.182  1.00  0.00     0.135 A 
ATOM     86  F   UNL A   1      46.773  28.637  30.206  1.00  0.00    -0.206 F 
ATOM     87  C   UNL A   1      47.991  27.164  31.569  1.00  0.00     0.059 A 
ATOM     88  C   UNL A   1      46.927  26.157  33.507  1.00  0.00     0.059 A 
ATOM     89  F   UNL A   1      44.684  26.641  33.981  1.00  0.00    -0.206 F 
ATOM     90  C   UNL A   1      48.044  26.332  32.690  1.00  0.00     0.060 A 
BRANCH  90  91
ATOM     91  S   UNL A   1      49.603  25.516  33.090  1.00  0.00     0.124 S 
ATOM     92  O   UNL A   1      50.030  25.040  31.780  1.00  0.00    -0.237 OA
ATOM     93  O   UNL A   1      50.383  26.611  33.658  1.00  0.00    -0.237 OA
ATOM     94  O   UNL A   1      49.207  24.480  34.040  1.00  0.00    -0.744 OA
ENDBRANCH  90  91
ENDBRANCH  58  83
BRANCH  70  95
ATOM     95  C   UNL A   1      43.257  33.974  33.844  1.00  0.00     0.058 A 
ATOM     96  C   UNL A   1      44.018  35.000  33.263  1.00  0.00     0.135 A 
ATOM     97  C   UNL A   1      43.028  34.030  35.228  1.00  0.00     0.135 A 
ATOM     98  F   UNL A   1      44.271  34.989  31.945  1.00  0.00    -0.206 F 
ATOM     99  C   UNL A   1      44.558  36.027  34.030  1.00  0.00     0.059 A 
ATOM    100  C   UNL A   1      43.535  35.063  36.011  1.00  0.00     0.059 A 
ATOM    101  F   UNL A   1      42.296  33.080  35.832  1.00  0.00    -0.206 F 
ATOM    102  C   UNL A   1      44.311  36.049  35.404  1.00  0.00     0.060 A 
BRANCH 102 103
ATOM    103  S   UNL A   1      45.010  37.394  36.385  1.00  0.00     0.124 S 
ATOM    104  O   UNL A   1      44.510  38.566  35.675  1.00  0.00    -0.237 OA
ATOM    105  O   UNL A   1      44.427  37.154  37.702  1.00  0.00    -0.237 OA
ATOM    106  O   UNL A   1      46.449  37.170  36.292  1.00  0.00    -0.744 OA
ENDBRANCH 102 103
ENDBRANCH  70  95
ENDBRANCH  44  45
ENDBRANCH  36  39
ENDBRANCH  34  35
ENDBRANCH  33  34
ENDBRANCH   1  33
TORSDOF 19
ENDMDL
MODEL 3
REMARK VINA RESULT:      -8.9      3.680      9.453
REMARK SMILES O=C(Cn1nc(-c2ccc(Br)cc2)ccc1=O)N[C@H](C(=O)NCCCCNC(=O)c1ccc(-c2c3nc(c(-c4c(F)cc(S(=O)(=O)[O-])cc4F)c4ccc([nH]4)c(-c4c(F)cc(S(=O)(=O)[O-])cc4F)c4nc(c(-c5c(F)cc(S(=O)(=O)[O-])cc5F)c5ccc2[nH]5)C=C4)C=C3)cc1)c1ccccc1
REMARK SMILES IDX 24 1 23 2 22 3 20 4 21 5 19 7 18 8 1 9 2 10 3 12 4 13 5 14
REMARK SMILES IDX 16 15 6 16 15 17 17 18 14 19 7 20 8 21 13 22 9 23 12 24
REMARK SMILES IDX 10 25 11 26 96 27 97 28 101 29 98 30 100 31 99 32 25 33
REMARK SMILES IDX 26 34 27 35 28 36 29 38 30 39 31 40 95 41 32 42 94 43 33 44
REMARK SMILES IDX 34 45 35 46 88 47 36 48 93 49 87 50 89 51 37 52 92 53 86 54
REMARK SMILES IDX 85 55 38 57 72 58 51 59 71 60 52 61 55 62 70 63 90 64 53 65
REMARK SMILES IDX 54 66 69 68 91 69 56 70 39 71 40 72 49 73 41 74 42 75 48 76
REMARK SMILES IDX 50 77 43 78 44 79 45 80 46 81 47 82 73 83 74 84 83 85 75 86
REMARK SMILES IDX 76 87 82 88 84 89 77 90 78 91 79 92 80 93 81 94 57 95 58 96
REMARK SMILES IDX 67 97 59 98 60 99 66 100 68 101 61 102 62 103 63 104 64 105
REMARK SMILES IDX 65 106
REMARK H PARENT 22 6 18 11 27 37 89 56 55 67
REMARK Flexibility Score: inf
ROOT
ATOM      1  C   UNL A   1      43.368  23.511  25.190  1.00  0.00     0.023 C 
ENDROOT
BRANCH   1   2
ATOM      2  C   UNL A   1      44.705  23.891  25.830  1.00  0.00     0.116 C 
BRANCH   2   3
ATOM      3  N   UNL A   1      45.494  24.737  24.958  1.00  0.00    -0.354 N 
ATOM      4  C   UNL A   1      46.111  25.935  25.221  1.00  0.00     0.247 C 
ATOM      5  O   UNL A   1      46.549  26.558  24.251  1.00  0.00    -0.272 OA
ATOM      6  H   UNL A   1      45.604  24.403  24.038  1.00  0.00     0.163 HD
BRANCH   4   7
ATOM      7  C   UNL A   1      46.106  26.491  26.674  1.00  0.00     0.202 C 
BRANCH   7   8
ATOM      8  N   UNL A   1      47.448  26.711  27.237  1.00  0.00    -0.339 N 
ATOM      9  O   UNL A   1      47.895  24.517  27.703  1.00  0.00    -0.273 OA
ATOM     10  C   UNL A   1      48.292  25.674  27.575  1.00  0.00     0.242 C 
ATOM     11  H   UNL A   1      47.756  27.635  27.378  1.00  0.00     0.164 HD
BRANCH  10  12
ATOM     12  C   UNL A   1      49.723  26.058  27.965  1.00  0.00     0.248 C 
BRANCH  12  13
ATOM     13  N   UNL A   1      50.084  27.448  27.686  1.00  0.00    -0.220 N 
ATOM     14  N   UNL A   1      49.417  28.410  28.424  1.00  0.00    -0.169 NA
ATOM     15  C   UNL A   1      51.282  27.715  27.033  1.00  0.00     0.267 A 
ATOM     16  C   UNL A   1      49.825  29.634  28.302  1.00  0.00     0.091 A 
ATOM     17  C   UNL A   1      51.548  29.138  26.738  1.00  0.00     0.075 A 
ATOM     18  O   UNL A   1      52.092  26.874  26.664  1.00  0.00    -0.268 OA
ATOM     19  C   UNL A   1      50.843  30.096  27.338  1.00  0.00     0.036 A 
BRANCH  16  20
ATOM     20  C   UNL A   1      49.333  30.663  29.237  1.00  0.00     0.002 A 
ATOM     21  C   UNL A   1      48.303  31.500  28.790  1.00  0.00     0.011 A 
ATOM     22  C   UNL A   1      49.834  30.773  30.534  1.00  0.00     0.011 A 
ATOM     23  C   UNL A   1      47.759  32.449  29.653  1.00  0.00     0.016 A 
ATOM     24  C   UNL A   1      49.293  31.735  31.393  1.00  0.00     0.016 A 
ATOM     25  C   UNL A   1      48.257  32.562  30.949  1.00  0.00     0.018 A 
ATOM     26  Br  UNL A   1      47.520  33.850  32.122  1.00  0.00    -0.051 Br
ENDBRANCH  16  20
ENDBRANCH  12  13
ENDBRANCH  10  12
ENDBRANCH   7   8
BRANCH   7  27
ATOM     27  C   UNL A   1      45.112  27.623  26.923  1.00  0.00    -0.016 A 
ATOM     28  C   UNL A   1      43.860  27.691  26.302  1.00  0.00     0.006 A 
ATOM     29  C   UNL A   1      45.466  28.678  27.784  1.00  0.00     0.006 A 
ATOM     30  C   UNL A   1      43.009  28.784  26.486  1.00  0.00     0.000 A 
ATOM     31  C   UNL A   1      44.609  29.764  27.990  1.00  0.00     0.000 A 
ATOM     32  C   UNL A   1      43.386  29.824  27.328  1.00  0.00     0.000 A 
ENDBRANCH   7  27
ENDBRANCH   4   7
ENDBRANCH   2   3
ENDBRANCH   1   2
BRANCH   1  33
ATOM     33  C   UNL A   1      42.762  22.197  25.687  1.00  0.00     0.023 C 
BRANCH  33  34
ATOM     34  C   UNL A   1      41.600  22.344  26.661  1.00  0.00     0.116 C 
BRANCH  34  35
ATOM     35  N   UNL A   1      40.298  22.132  26.043  1.00  0.00    -0.352 N 
ATOM     36  C   UNL A   1      39.189  22.955  26.062  1.00  0.00     0.251 C 
ATOM     37  H   UNL A   1      40.193  21.289  25.546  1.00  0.00     0.163 HD
ATOM     38  O   UNL A   1      38.131  22.587  25.576  1.00  0.00    -0.269 OA
BRANCH  36  39
ATOM     39  C   UNL A   1      39.296  24.272  26.731  1.00  0.00     0.039 A 
ATOM     40  C   UNL A   1      40.042  25.298  26.149  1.00  0.00     0.014 A 
ATOM     41  C   UNL A   1      38.743  24.432  28.004  1.00  0.00     0.014 A 
ATOM     42  C   UNL A   1      40.410  26.396  26.919  1.00  0.00     0.010 A 
ATOM     43  C   UNL A   1      39.044  25.578  28.744  1.00  0.00     0.010 A 
ATOM     44  C   UNL A   1      39.939  26.535  28.235  1.00  0.00    -0.014 A 
BRANCH  44  45
ATOM     45  C   UNL A   1      40.441  27.646  29.087  1.00  0.00     0.031 A 
ATOM     46  C   UNL A   1      39.584  28.863  29.338  1.00  0.00     0.074 A 
ATOM     47  C   UNL A   1      41.643  27.539  29.685  1.00  0.00     0.049 A 
ATOM     48  N   UNL A   1      39.867  29.949  30.012  1.00  0.00    -0.248 NA
ATOM     49  C   UNL A   1      38.232  28.862  28.755  1.00  0.00     0.031 C 
ATOM     50  C   UNL A   1      42.551  26.397  29.554  1.00  0.00     0.029 A 
ATOM     51  N   UNL A   1      42.302  28.390  30.535  1.00  0.00    -0.354 N 
ATOM     52  C   UNL A   1      38.744  30.765  29.917  1.00  0.00     0.074 A 
ATOM     53  C   UNL A   1      37.782  30.062  29.096  1.00  0.00     0.031 C 
ATOM     54  C   UNL A   1      43.628  26.600  30.328  1.00  0.00     0.029 A 
ATOM     55  C   UNL A   1      43.520  27.914  30.955  1.00  0.00     0.049 A 
ATOM     56  H   UNL A   1      41.935  29.258  30.819  1.00  0.00     0.167 HD
ATOM     57  C   UNL A   1      38.528  31.982  30.474  1.00  0.00     0.037 A 
ATOM     58  C   UNL A   1      44.461  28.479  31.735  1.00  0.00     0.037 A 
ATOM     59  C   UNL A   1      39.478  32.666  31.316  1.00  0.00     0.049 A 
ATOM     60  C   UNL A   1      44.222  29.855  32.291  1.00  0.00     0.074 A 
ATOM     61  C   UNL A   1      39.348  33.897  31.935  1.00  0.00     0.029 A 
ATOM     62  N   UNL A   1      40.728  32.175  31.665  1.00  0.00    -0.354 N 
ATOM     63  N   UNL A   1      43.167  30.624  32.164  1.00  0.00    -0.248 NA
ATOM     64  C   UNL A   1      45.308  30.444  33.086  1.00  0.00     0.031 C 
ATOM     65  C   UNL A   1      40.534  34.171  32.624  1.00  0.00     0.029 A 
ATOM     66  C   UNL A   1      41.387  33.089  32.473  1.00  0.00     0.049 A 
ATOM     67  H   UNL A   1      41.093  31.307  31.380  1.00  0.00     0.167 HD
ATOM     68  C   UNL A   1      43.459  31.786  32.869  1.00  0.00     0.074 A 
ATOM     69  C   UNL A   1      44.778  31.606  33.442  1.00  0.00     0.031 C 
ATOM     70  C   UNL A   1      42.706  32.903  33.024  1.00  0.00     0.037 A 
BRANCH  57  71
ATOM     71  C   UNL A   1      37.219  32.667  30.188  1.00  0.00     0.058 A 
ATOM     72  C   UNL A   1      36.080  32.443  30.977  1.00  0.00     0.135 A 
ATOM     73  C   UNL A   1      37.119  33.606  29.147  1.00  0.00     0.135 A 
ATOM     74  F   UNL A   1      36.112  31.543  31.972  1.00  0.00    -0.206 F 
ATOM     75  C   UNL A   1      34.884  33.115  30.736  1.00  0.00     0.059 A 
ATOM     76  C   UNL A   1      35.941  34.307  28.903  1.00  0.00     0.059 A 
ATOM     77  F   UNL A   1      38.177  33.858  28.361  1.00  0.00    -0.206 F 
ATOM     78  C   UNL A   1      34.826  34.047  29.698  1.00  0.00     0.060 A 
BRANCH  78  79
ATOM     79  S   UNL A   1      33.271  34.920  29.411  1.00  0.00     0.124 S 
ATOM     80  O   UNL A   1      32.614  34.037  28.452  1.00  0.00    -0.237 OA
ATOM     81  O   UNL A   1      32.682  34.954  30.746  1.00  0.00    -0.237 OA
ATOM     82  O   UNL A   1      33.696  36.212  28.883  1.00  0.00    -0.744 OA
ENDBRANCH  78  79
ENDBRANCH  57  71
BRANCH  58  83
ATOM     83  C   UNL A   1      45.722  27.746  32.017  1.00  0.00     0.058 A 
ATOM     84  C   UNL A   1      45.771  26.746  32.998  1.00  0.00     0.135 A 
ATOM     85  C   UNL A   1      46.895  28.010  31.291  1.00  0.00     0.135 A 
ATOM     86  F   UNL A   1      44.679  26.465  33.725  1.00  0.00    -0.206 F 
ATOM     87  C   UNL A   1      46.939  26.035  33.254  1.00  0.00     0.059 A 
ATOM     88  C   UNL A   1      48.066  27.295  31.509  1.00  0.00     0.059 A 
ATOM     89  F   UNL A   1      46.896  28.949  30.333  1.00  0.00    -0.206 F 
ATOM     90  C   UNL A   1      48.080  26.312  32.499  1.00  0.00     0.060 A 
BRANCH  90  91
ATOM     91  S   UNL A   1      49.572  25.340  32.798  1.00  0.00     0.124 S 
ATOM     92  O   UNL A   1      50.406  26.295  33.516  1.00  0.00    -0.237 OA
ATOM     93  O   UNL A   1      49.056  24.224  33.583  1.00  0.00    -0.237 OA
ATOM     94  O   UNL A   1      50.023  24.994  31.452  1.00  0.00    -0.744 OA
ENDBRANCH  90  91
ENDBRANCH  58  83
BRANCH  70  95
ATOM     95  C   UNL A   1      43.290  34.015  33.850  1.00  0.00     0.058 A 
ATOM     96  C   UNL A   1      44.052  35.039  33.265  1.00  0.00     0.135 A 
ATOM     97  C   UNL A   1      43.064  34.075  35.234  1.00  0.00     0.135 A 
ATOM     98  F   UNL A   1      44.303  35.024  31.946  1.00  0.00    -0.206 F 
ATOM     99  C   UNL A   1      44.595  36.066  34.028  1.00  0.00     0.059 A 
ATOM    100  C   UNL A   1      43.574  35.110  36.013  1.00  0.00     0.059 A 
ATOM    101  F   UNL A   1      42.332  33.128  35.842  1.00  0.00    -0.206 F 
ATOM    102  C   UNL A   1      44.351  36.092  35.402  1.00  0.00     0.060 A 
BRANCH 102 103
ATOM    103  S   UNL A   1      45.054  37.439  36.378  1.00  0.00     0.124 S 
ATOM    104  O   UNL A   1      44.189  38.554  36.008  1.00  0.00    -0.237 OA
ATOM    105  O   UNL A   1      44.902  36.946  37.744  1.00  0.00    -0.237 OA
ATOM    106  O   UNL A   1      46.429  37.526  35.898  1.00  0.00    -0.744 OA
ENDBRANCH 102 103
ENDBRANCH  70  95
ENDBRANCH  44  45
ENDBRANCH  36  39
ENDBRANCH  34  35
ENDBRANCH  33  34
ENDBRANCH   1  33
TORSDOF 19
ENDMDL
