MODEL 1
REMARK VINA RESULT:     -10.9      0.000      0.000
REMARK SMILES C[C@@H](SCCC(=O)NCCCCNC(=O)c1ccc(-c2c3nc(c(-c4c(F)cc(S(=O)(=O)[O-])cc4F)c4ccc([nH]4)c(-c4c(F)cc(S(=O)(=O)[O-])cc4F)c4nc(c(-c5c(F)cc(S(=O)(=O)[O-])cc5F)c5ccc2[nH]5)C=C4)C=C3)cc1)C(=O)Nc1ccc(C(N)=O)cc1
REMARK SMILES IDX 9 1 8 2 6 3 7 4 5 6 4 7 3 8 2 9 1 10 82 11 83 12 84 13 85 15
REMARK SMILES IDX 86 16 93 17 87 18 92 19 88 20 89 21 90 22 91 23 10 26 11 27
REMARK SMILES IDX 12 28 13 29 14 30 15 32 16 33 17 34 81 35 18 36 80 37 19 38
REMARK SMILES IDX 20 39 21 40 74 41 22 42 79 43 73 44 75 45 23 46 78 47 72 48
REMARK SMILES IDX 71 49 24 51 58 52 37 53 57 54 38 55 41 56 56 57 76 58 39 59
REMARK SMILES IDX 40 60 55 62 77 63 42 64 25 65 26 66 35 67 27 68 28 69 34 70
REMARK SMILES IDX 36 71 29 72 30 73 31 74 32 75 33 76 59 77 60 78 69 79 61 80
REMARK SMILES IDX 62 81 68 82 70 83 63 84 64 85 65 86 66 87 67 88 43 89 44 90
REMARK SMILES IDX 53 91 45 92 46 93 52 94 54 95 47 96 48 97 49 98 50 99 51 100
REMARK H PARENT 8 5 84 14 90 24 90 25 13 31 75 50 41 61
REMARK Flexibility Score: inf
ROOT
ATOM      1  C   UNL A   1      34.480  29.266  27.395  1.00  0.00     0.116 C 
ENDROOT
BRANCH   1   2
ATOM      2  N   UNL A   1      33.147  28.941  27.872  1.00  0.00    -0.356 N 
ATOM      3  C   UNL A   1      32.218  28.066  27.408  1.00  0.00     0.220 C 
ATOM      4  O   UNL A   1      31.135  28.006  27.993  1.00  0.00    -0.275 OA
ATOM      5  H   UNL A   1      32.869  29.443  28.672  1.00  0.00     0.163 HD
BRANCH   3   6
ATOM      6  C   UNL A   1      32.527  27.164  26.235  1.00  0.00     0.111 C 
BRANCH   6   7
ATOM      7  C   UNL A   1      32.526  27.912  24.900  1.00  0.00     0.080 C 
BRANCH   7   8
ATOM      8  S   UNL A   1      33.776  27.330  23.679  1.00  0.00    -0.148 SA
BRANCH   8   9
ATOM      9  C   UNL A   1      33.480  25.523  23.718  1.00  0.00     0.133 C 
ATOM     10  C   UNL A   1      34.616  24.715  24.321  1.00  0.00     0.030 C 
BRANCH   9  11
ATOM     11  C   UNL A   1      32.845  25.025  22.394  1.00  0.00     0.237 C 
ATOM     12  O   UNL A   1      33.368  25.270  21.299  1.00  0.00    -0.273 OA
ATOM     13  N   UNL A   1      31.700  24.264  22.363  1.00  0.00    -0.325 N 
ATOM     14  H   UNL A   1      30.930  24.534  21.813  1.00  0.00     0.169 HD
BRANCH  13  15
ATOM     15  C   UNL A   1      31.657  23.096  23.131  1.00  0.00     0.041 A 
ATOM     16  C   UNL A   1      32.205  21.938  22.577  1.00  0.00     0.027 A 
ATOM     17  C   UNL A   1      31.249  23.138  24.457  1.00  0.00     0.027 A 
ATOM     18  C   UNL A   1      32.507  20.866  23.408  1.00  0.00     0.016 A 
ATOM     19  C   UNL A   1      31.576  22.078  25.296  1.00  0.00     0.016 A 
ATOM     20  C   UNL A   1      32.238  20.958  24.780  1.00  0.00     0.039 A 
BRANCH  20  21
ATOM     21  C   UNL A   1      32.725  19.935  25.736  1.00  0.00     0.248 C 
ATOM     22  N   UNL A   1      33.434  20.381  26.815  1.00  0.00    -0.366 N 
ATOM     23  O   UNL A   1      32.509  18.745  25.572  1.00  0.00    -0.270 OA
ATOM     24  H   UNL A   1      33.599  21.344  26.931  1.00  0.00     0.159 HD
ATOM     25  H   UNL A   1      33.779  19.739  27.477  1.00  0.00     0.159 HD
ENDBRANCH  20  21
ENDBRANCH  13  15
ENDBRANCH   9  11
ENDBRANCH   8   9
ENDBRANCH   7   8
ENDBRANCH   6   7
ENDBRANCH   3   6
ENDBRANCH   1   2
BRANCH   1  26
ATOM     26  C   UNL A   1      34.984  30.629  27.870  1.00  0.00     0.023 C 
BRANCH  26  27
ATOM     27  C   UNL A   1      33.852  31.593  28.254  1.00  0.00     0.023 C 
BRANCH  27  28
ATOM     28  C   UNL A   1      33.695  32.779  27.325  1.00  0.00     0.116 C 
BRANCH  28  29
ATOM     29  N   UNL A   1      32.943  33.906  27.839  1.00  0.00    -0.352 N 
ATOM     30  C   UNL A   1      33.275  34.759  28.873  1.00  0.00     0.251 C 
ATOM     31  H   UNL A   1      32.083  34.085  27.394  1.00  0.00     0.163 HD
ATOM     32  O   UNL A   1      32.529  35.692  29.165  1.00  0.00    -0.269 OA
BRANCH  30  33
ATOM     33  C   UNL A   1      34.473  34.484  29.714  1.00  0.00     0.039 A 
ATOM     34  C   UNL A   1      34.277  33.966  31.000  1.00  0.00     0.014 A 
ATOM     35  C   UNL A   1      35.772  34.624  29.231  1.00  0.00     0.014 A 
ATOM     36  C   UNL A   1      35.367  33.490  31.737  1.00  0.00     0.010 A 
ATOM     37  C   UNL A   1      36.833  34.025  29.898  1.00  0.00     0.010 A 
ATOM     38  C   UNL A   1      36.646  33.454  31.163  1.00  0.00    -0.014 A 
BRANCH  38  39
ATOM     39  C   UNL A   1      37.811  32.842  31.851  1.00  0.00     0.031 A 
ATOM     40  C   UNL A   1      38.490  31.645  31.235  1.00  0.00     0.074 A 
ATOM     41  C   UNL A   1      38.183  33.288  33.069  1.00  0.00     0.049 A 
ATOM     42  N   UNL A   1      39.416  30.871  31.737  1.00  0.00    -0.248 NA
ATOM     43  C   UNL A   1      38.033  31.236  29.896  1.00  0.00     0.031 C 
ATOM     44  C   UNL A   1      37.558  34.398  33.794  1.00  0.00     0.029 A 
ATOM     45  N   UNL A   1      39.163  32.850  33.925  1.00  0.00    -0.354 N 
ATOM     46  C   UNL A   1      39.623  29.870  30.794  1.00  0.00     0.074 A 
ATOM     47  C   UNL A   1      38.687  30.099  29.718  1.00  0.00     0.031 C 
ATOM     48  C   UNL A   1      38.181  34.565  34.971  1.00  0.00     0.029 A 
ATOM     49  C   UNL A   1      39.214  33.545  35.111  1.00  0.00     0.049 A 
ATOM     50  H   UNL A   1      39.772  32.107  33.710  1.00  0.00     0.167 HD
ATOM     51  C   UNL A   1      40.531  28.867  30.813  1.00  0.00     0.037 A 
ATOM     52  C   UNL A   1      39.992  33.367  36.198  1.00  0.00     0.037 A 
ATOM     53  C   UNL A   1      41.491  28.684  31.867  1.00  0.00     0.049 A 
ATOM     54  C   UNL A   1      41.005  32.254  36.188  1.00  0.00     0.074 A 
ATOM     55  C   UNL A   1      42.517  27.761  31.944  1.00  0.00     0.029 A 
ATOM     56  N   UNL A   1      41.541  29.438  33.031  1.00  0.00    -0.354 N 
ATOM     57  N   UNL A   1      41.249  31.372  35.247  1.00  0.00    -0.248 NA
ATOM     58  C   UNL A   1      41.850  32.108  37.381  1.00  0.00     0.031 C 
ATOM     59  C   UNL A   1      43.152  27.918  33.179  1.00  0.00     0.029 A 
ATOM     60  C   UNL A   1      42.559  28.979  33.847  1.00  0.00     0.049 A 
ATOM     61  H   UNL A   1      40.940  30.188  33.245  1.00  0.00     0.167 HD
ATOM     62  C   UNL A   1      42.289  30.582  35.726  1.00  0.00     0.074 A 
ATOM     63  C   UNL A   1      42.641  31.102  37.030  1.00  0.00     0.031 C 
ATOM     64  C   UNL A   1      42.899  29.522  35.139  1.00  0.00     0.037 A 
BRANCH  51  65
ATOM     65  C   UNL A   1      40.537  27.896  29.664  1.00  0.00     0.058 A 
ATOM     66  C   UNL A   1      41.481  27.979  28.625  1.00  0.00     0.135 A 
ATOM     67  C   UNL A   1      39.616  26.837  29.623  1.00  0.00     0.135 A 
ATOM     68  F   UNL A   1      42.375  28.980  28.602  1.00  0.00    -0.206 F 
ATOM     69  C   UNL A   1      41.494  27.063  27.579  1.00  0.00     0.059 A 
ATOM     70  C   UNL A   1      39.631  25.890  28.603  1.00  0.00     0.059 A 
ATOM     71  F   UNL A   1      38.688  26.711  30.586  1.00  0.00    -0.206 F 
ATOM     72  C   UNL A   1      40.568  26.019  27.578  1.00  0.00     0.060 A 
BRANCH  72  73
ATOM     73  S   UNL A   1      40.617  24.827  26.224  1.00  0.00     0.124 S 
ATOM     74  O   UNL A   1      41.212  25.625  25.156  1.00  0.00    -0.237 OA
ATOM     75  O   UNL A   1      41.461  23.771  26.771  1.00  0.00    -0.237 OA
ATOM     76  O   UNL A   1      39.215  24.471  26.032  1.00  0.00    -0.744 OA
ENDBRANCH  72  73
ENDBRANCH  51  65
BRANCH  52  77
ATOM     77  C   UNL A   1      39.845  34.260  37.382  1.00  0.00     0.058 A 
ATOM     78  C   UNL A   1      40.480  35.510  37.429  1.00  0.00     0.135 A 
ATOM     79  C   UNL A   1      39.065  33.885  38.488  1.00  0.00     0.135 A 
ATOM     80  F   UNL A   1      41.241  35.915  36.401  1.00  0.00    -0.206 F 
ATOM     81  C   UNL A   1      40.368  36.346  38.536  1.00  0.00     0.059 A 
ATOM     82  C   UNL A   1      38.913  34.715  39.594  1.00  0.00     0.059 A 
ATOM     83  F   UNL A   1      38.420  32.707  38.489  1.00  0.00    -0.206 F 
ATOM     84  C   UNL A   1      39.580  35.940  39.615  1.00  0.00     0.060 A 
BRANCH  84  85
ATOM     85  S   UNL A   1      39.415  37.047  41.032  1.00  0.00     0.124 S 
ATOM     86  O   UNL A   1      38.604  36.243  41.940  1.00  0.00    -0.237 OA
ATOM     87  O   UNL A   1      40.805  37.249  41.427  1.00  0.00    -0.237 OA
ATOM     88  O   UNL A   1      38.754  38.220  40.466  1.00  0.00    -0.744 OA
ENDBRANCH  84  85
ENDBRANCH  52  77
BRANCH  64  89
ATOM     89  C   UNL A   1      44.026  28.867  35.886  1.00  0.00     0.058 A 
ATOM     90  C   UNL A   1      43.810  27.768  36.730  1.00  0.00     0.135 A 
ATOM     91  C   UNL A   1      45.350  29.290  35.682  1.00  0.00     0.135 A 
ATOM     92  F   UNL A   1      42.562  27.330  36.963  1.00  0.00    -0.206 F 
ATOM     93  C   UNL A   1      44.867  27.115  37.354  1.00  0.00     0.059 A 
ATOM     94  C   UNL A   1      46.424  28.634  36.272  1.00  0.00     0.059 A 
ATOM     95  F   UNL A   1      45.611  30.332  34.876  1.00  0.00    -0.206 F 
ATOM     96  C   UNL A   1      46.172  27.550  37.111  1.00  0.00     0.060 A 
BRANCH  96  97
ATOM     97  S   UNL A   1      47.537  26.651  37.877  1.00  0.00     0.124 S 
ATOM     98  O   UNL A   1      46.829  25.782  38.811  1.00  0.00    -0.237 OA
ATOM     99  O   UNL A   1      48.152  25.986  36.733  1.00  0.00    -0.237 OA
ATOM    100  O   UNL A   1      48.338  27.707  38.488  1.00  0.00    -0.744 OA
ENDBRANCH  96  97
ENDBRANCH  64  89
ENDBRANCH  38  39
ENDBRANCH  30  33
ENDBRANCH  28  29
ENDBRANCH  27  28
ENDBRANCH  26  27
ENDBRANCH   1  26
TORSDOF 20
ENDMDL
MODEL 2
REMARK VINA RESULT:     -10.7      2.133      8.666
REMARK SMILES C[C@@H](SCCC(=O)NCCCCNC(=O)c1ccc(-c2c3nc(c(-c4c(F)cc(S(=O)(=O)[O-])cc4F)c4ccc([nH]4)c(-c4c(F)cc(S(=O)(=O)[O-])cc4F)c4nc(c(-c5c(F)cc(S(=O)(=O)[O-])cc5F)c5ccc2[nH]5)C=C4)C=C3)cc1)C(=O)Nc1ccc(C(N)=O)cc1
REMARK SMILES IDX 9 1 8 2 6 3 7 4 5 6 4 7 3 8 2 9 1 10 82 11 83 12 84 13 85 15
REMARK SMILES IDX 86 16 93 17 87 18 92 19 88 20 89 21 90 22 91 23 10 26 11 27
REMARK SMILES IDX 12 28 13 29 14 30 15 32 16 33 17 34 81 35 18 36 80 37 19 38
REMARK SMILES IDX 20 39 21 40 74 41 22 42 79 43 73 44 75 45 23 46 78 47 72 48
REMARK SMILES IDX 71 49 24 51 58 52 37 53 57 54 38 55 41 56 56 57 76 58 39 59
REMARK SMILES IDX 40 60 55 62 77 63 42 64 25 65 26 66 35 67 27 68 28 69 34 70
REMARK SMILES IDX 36 71 29 72 30 73 31 74 32 75 33 76 59 77 60 78 69 79 61 80
REMARK SMILES IDX 62 81 68 82 70 83 63 84 64 85 65 86 66 87 67 88 43 89 44 90
REMARK SMILES IDX 53 91 45 92 46 93 52 94 54 95 47 96 48 97 49 98 50 99 51 100
REMARK H PARENT 8 5 84 14 90 24 90 25 13 31 75 50 41 61
REMARK Flexibility Score: inf
ROOT
ATOM      1  C   UNL A   1      35.845  23.447  24.887  1.00  0.00     0.116 C 
ENDROOT
BRANCH   1   2
ATOM      2  N   UNL A   1      35.291  23.579  23.551  1.00  0.00    -0.356 N 
ATOM      3  C   UNL A   1      34.136  23.114  23.010  1.00  0.00     0.220 C 
ATOM      4  O   UNL A   1      33.918  23.347  21.820  1.00  0.00    -0.275 OA
ATOM      5  H   UNL A   1      35.851  24.098  22.929  1.00  0.00     0.163 HD
BRANCH   3   6
ATOM      6  C   UNL A   1      33.132  22.368  23.860  1.00  0.00     0.111 C 
BRANCH   6   7
ATOM      7  C   UNL A   1      32.107  23.299  24.513  1.00  0.00     0.080 C 
BRANCH   7   8
ATOM      8  S   UNL A   1      30.702  23.793  23.429  1.00  0.00    -0.148 SA
BRANCH   8   9
ATOM      9  C   UNL A   1      30.878  25.615  23.447  1.00  0.00     0.133 C 
ATOM     10  C   UNL A   1      29.571  26.369  23.628  1.00  0.00     0.030 C 
BRANCH   9  11
ATOM     11  C   UNL A   1      31.860  26.100  22.349  1.00  0.00     0.237 C 
ATOM     12  O   UNL A   1      31.471  26.333  21.197  1.00  0.00    -0.273 OA
ATOM     13  N   UNL A   1      33.192  26.328  22.597  1.00  0.00    -0.325 N 
ATOM     14  H   UNL A   1      33.888  25.903  22.045  1.00  0.00     0.169 HD
BRANCH  13  15
ATOM     15  C   UNL A   1      33.537  27.180  23.652  1.00  0.00     0.041 A 
ATOM     16  C   UNL A   1      33.326  28.548  23.472  1.00  0.00     0.027 A 
ATOM     17  C   UNL A   1      33.901  26.662  24.886  1.00  0.00     0.027 A 
ATOM     18  C   UNL A   1      33.310  29.383  24.584  1.00  0.00     0.016 A 
ATOM     19  C   UNL A   1      33.860  27.490  26.003  1.00  0.00     0.016 A 
ATOM     20  C   UNL A   1      33.528  28.842  25.857  1.00  0.00     0.039 A 
BRANCH  20  21
ATOM     21  C   UNL A   1      33.319  29.644  27.086  1.00  0.00     0.248 C 
ATOM     22  N   UNL A   1      34.374  29.749  27.947  1.00  0.00    -0.366 N 
ATOM     23  O   UNL A   1      32.254  30.189  27.326  1.00  0.00    -0.270 OA
ATOM     24  H   UNL A   1      35.227  29.303  27.737  1.00  0.00     0.159 HD
ATOM     25  H   UNL A   1      34.284  30.272  28.776  1.00  0.00     0.159 HD
ENDBRANCH  20  21
ENDBRANCH  13  15
ENDBRANCH   9  11
ENDBRANCH   8   9
ENDBRANCH   7   8
ENDBRANCH   6   7
ENDBRANCH   3   6
ENDBRANCH   1   2
BRANCH   1  26
ATOM     26  C   UNL A   1      37.319  23.041  24.900  1.00  0.00     0.023 C 
BRANCH  26  27
ATOM     27  C   UNL A   1      37.909  22.942  26.313  1.00  0.00     0.023 C 
BRANCH  27  28
ATOM     28  C   UNL A   1      38.749  24.132  26.727  1.00  0.00     0.116 C 
BRANCH  28  29
ATOM     29  N   UNL A   1      39.746  24.581  25.775  1.00  0.00    -0.352 N 
ATOM     30  C   UNL A   1      40.791  25.460  25.979  1.00  0.00     0.251 C 
ATOM     31  H   UNL A   1      39.667  24.212  24.866  1.00  0.00     0.163 HD
ATOM     32  O   UNL A   1      41.570  25.713  25.062  1.00  0.00    -0.269 OA
BRANCH  30  33
ATOM     33  C   UNL A   1      40.909  26.197  27.268  1.00  0.00     0.039 A 
ATOM     34  C   UNL A   1      41.915  27.162  27.393  1.00  0.00     0.014 A 
ATOM     35  C   UNL A   1      39.995  26.033  28.307  1.00  0.00     0.014 A 
ATOM     36  C   UNL A   1      41.927  28.025  28.494  1.00  0.00     0.010 A 
ATOM     37  C   UNL A   1      39.920  26.975  29.325  1.00  0.00     0.010 A 
ATOM     38  C   UNL A   1      40.888  27.982  29.435  1.00  0.00    -0.014 A 
BRANCH  38  39
ATOM     39  C   UNL A   1      40.781  28.957  30.550  1.00  0.00     0.031 A 
ATOM     40  C   UNL A   1      41.655  28.790  31.767  1.00  0.00     0.074 A 
ATOM     41  C   UNL A   1      39.830  29.914  30.517  1.00  0.00     0.049 A 
ATOM     42  N   UNL A   1      41.617  29.428  32.906  1.00  0.00    -0.248 NA
ATOM     43  C   UNL A   1      42.677  27.731  31.712  1.00  0.00     0.031 C 
ATOM     44  C   UNL A   1      38.882  30.131  29.421  1.00  0.00     0.029 A 
ATOM     45  N   UNL A   1      39.487  30.871  31.440  1.00  0.00    -0.354 N 
ATOM     46  C   UNL A   1      42.580  28.827  33.709  1.00  0.00     0.074 A 
ATOM     47  C   UNL A   1      43.145  27.736  32.950  1.00  0.00     0.031 C 
ATOM     48  C   UNL A   1      38.082  31.165  29.725  1.00  0.00     0.029 A 
ATOM     49  C   UNL A   1      38.421  31.653  31.057  1.00  0.00     0.049 A 
ATOM     50  H   UNL A   1      39.959  30.986  32.295  1.00  0.00     0.167 HD
ATOM     51  C   UNL A   1      42.975  29.172  34.956  1.00  0.00     0.037 A 
ATOM     52  C   UNL A   1      37.777  32.639  31.714  1.00  0.00     0.037 A 
ATOM     53  C   UNL A   1      42.439  30.295  35.677  1.00  0.00     0.049 A 
ATOM     54  C   UNL A   1      38.247  33.014  33.094  1.00  0.00     0.074 A 
ATOM     55  C   UNL A   1      42.831  30.792  36.906  1.00  0.00     0.029 A 
ATOM     56  N   UNL A   1      41.391  31.091  35.237  1.00  0.00    -0.354 N 
ATOM     57  N   UNL A   1      39.221  32.493  33.803  1.00  0.00    -0.248 NA
ATOM     58  C   UNL A   1      37.535  34.110  33.767  1.00  0.00     0.031 C 
ATOM     59  C   UNL A   1      41.983  31.854  37.235  1.00  0.00     0.029 A 
ATOM     60  C   UNL A   1      41.102  32.056  36.184  1.00  0.00     0.049 A 
ATOM     61  H   UNL A   1      40.924  30.985  34.377  1.00  0.00     0.167 HD
ATOM     62  C   UNL A   1      39.253  33.212  34.993  1.00  0.00     0.074 A 
ATOM     63  C   UNL A   1      38.214  34.215  34.902  1.00  0.00     0.031 C 
ATOM     64  C   UNL A   1      40.068  33.055  36.066  1.00  0.00     0.037 A 
BRANCH  51  65
ATOM     65  C   UNL A   1      44.038  28.338  35.618  1.00  0.00     0.058 A 
ATOM     66  C   UNL A   1      43.721  27.220  36.409  1.00  0.00     0.135 A 
ATOM     67  C   UNL A   1      45.396  28.632  35.421  1.00  0.00     0.135 A 
ATOM     68  F   UNL A   1      42.438  26.902  36.646  1.00  0.00    -0.206 F 
ATOM     69  C   UNL A   1      44.710  26.441  36.998  1.00  0.00     0.059 A 
ATOM     70  C   UNL A   1      46.404  27.847  35.974  1.00  0.00     0.059 A 
ATOM     71  F   UNL A   1      45.759  29.691  34.680  1.00  0.00    -0.206 F 
ATOM     72  C   UNL A   1      46.050  26.759  36.772  1.00  0.00     0.060 A 
BRANCH  72  73
ATOM     73  S   UNL A   1      47.320  25.721  37.525  1.00  0.00     0.124 S 
ATOM     74  O   UNL A   1      46.699  24.401  37.449  1.00  0.00    -0.237 OA
ATOM     75  O   UNL A   1      48.460  25.936  36.641  1.00  0.00    -0.237 OA
ATOM     76  O   UNL A   1      47.457  26.271  38.869  1.00  0.00    -0.744 OA
ENDBRANCH  72  73
ENDBRANCH  51  65
BRANCH  52  77
ATOM     77  C   UNL A   1      36.624  33.338  31.079  1.00  0.00     0.058 A 
ATOM     78  C   UNL A   1      36.814  34.206  29.994  1.00  0.00     0.135 A 
ATOM     79  C   UNL A   1      35.312  33.150  31.540  1.00  0.00     0.135 A 
ATOM     80  F   UNL A   1      38.048  34.425  29.517  1.00  0.00    -0.206 F 
ATOM     81  C   UNL A   1      35.749  34.881  29.403  1.00  0.00     0.059 A 
ATOM     82  C   UNL A   1      34.227  33.789  30.948  1.00  0.00     0.059 A 
ATOM     83  F   UNL A   1      35.070  32.316  32.564  1.00  0.00    -0.206 F 
ATOM     84  C   UNL A   1      34.457  34.665  29.887  1.00  0.00     0.060 A 
BRANCH  84  85
ATOM     85  S   UNL A   1      33.080  35.519  29.091  1.00  0.00     0.124 S 
ATOM     86  O   UNL A   1      32.296  35.949  30.243  1.00  0.00    -0.237 OA
ATOM     87  O   UNL A   1      33.762  36.577  28.353  1.00  0.00    -0.237 OA
ATOM     88  O   UNL A   1      32.472  34.480  28.266  1.00  0.00    -0.744 OA
ENDBRANCH  84  85
ENDBRANCH  52  77
BRANCH  64  89
ATOM     89  C   UNL A   1      39.892  34.003  37.218  1.00  0.00     0.058 A 
ATOM     90  C   UNL A   1      40.485  35.274  37.222  1.00  0.00     0.135 A 
ATOM     91  C   UNL A   1      39.047  33.667  38.288  1.00  0.00     0.135 A 
ATOM     92  F   UNL A   1      41.308  35.640  36.226  1.00  0.00    -0.206 F 
ATOM     93  C   UNL A   1      40.253  36.178  38.254  1.00  0.00     0.059 A 
ATOM     94  C   UNL A   1      38.777  34.566  39.313  1.00  0.00     0.059 A 
ATOM     95  F   UNL A   1      38.447  32.465  38.326  1.00  0.00    -0.206 F 
ATOM     96  C   UNL A   1      39.389  35.817  39.290  1.00  0.00     0.060 A 
BRANCH  96  97
ATOM     97  S   UNL A   1      39.048  37.026  40.586  1.00  0.00     0.124 S 
ATOM     98  O   UNL A   1      38.337  36.212  41.567  1.00  0.00    -0.237 OA
ATOM     99  O   UNL A   1      40.389  37.455  40.971  1.00  0.00    -0.237 OA
ATOM    100  O   UNL A   1      38.243  38.035  39.906  1.00  0.00    -0.744 OA
ENDBRANCH  96  97
ENDBRANCH  64  89
ENDBRANCH  38  39
ENDBRANCH  30  33
ENDBRANCH  28  29
ENDBRANCH  27  28
ENDBRANCH  26  27
ENDBRANCH   1  26
TORSDOF 20
ENDMDL
MODEL 3
REMARK VINA RESULT:     -10.5      0.834      8.206
REMARK SMILES C[C@@H](SCCC(=O)NCCCCNC(=O)c1ccc(-c2c3nc(c(-c4c(F)cc(S(=O)(=O)[O-])cc4F)c4ccc([nH]4)c(-c4c(F)cc(S(=O)(=O)[O-])cc4F)c4nc(c(-c5c(F)cc(S(=O)(=O)[O-])cc5F)c5ccc2[nH]5)C=C4)C=C3)cc1)C(=O)Nc1ccc(C(N)=O)cc1
REMARK SMILES IDX 9 1 8 2 6 3 7 4 5 6 4 7 3 8 2 9 1 10 82 11 83 12 84 13 85 15
REMARK SMILES IDX 86 16 93 17 87 18 92 19 88 20 89 21 90 22 91 23 10 26 11 27
REMARK SMILES IDX 12 28 13 29 14 30 15 32 16 33 17 34 81 35 18 36 80 37 19 38
REMARK SMILES IDX 20 39 21 40 74 41 22 42 79 43 73 44 75 45 23 46 78 47 72 48
REMARK SMILES IDX 71 49 24 51 58 52 37 53 57 54 38 55 41 56 56 57 76 58 39 59
REMARK SMILES IDX 40 60 55 62 77 63 42 64 25 65 26 66 35 67 27 68 28 69 34 70
REMARK SMILES IDX 36 71 29 72 30 73 31 74 32 75 33 76 59 77 60 78 69 79 61 80
REMARK SMILES IDX 62 81 68 82 70 83 63 84 64 85 65 86 66 87 67 88 43 89 44 90
REMARK SMILES IDX 53 91 45 92 46 93 52 94 54 95 47 96 48 97 49 98 50 99 51 100
REMARK H PARENT 8 5 84 14 90 24 90 25 13 31 75 50 41 61
REMARK Flexibility Score: inf
ROOT
ATOM      1  C   UNL A   1      34.783  29.917  27.639  1.00  0.00     0.116 C 
ENDROOT
BRANCH   1   2
ATOM      2  N   UNL A   1      33.398  29.546  27.873  1.00  0.00    -0.356 N 
ATOM      3  C   UNL A   1      32.626  28.574  27.323  1.00  0.00     0.220 C 
ATOM      4  O   UNL A   1      31.452  28.493  27.685  1.00  0.00    -0.275 OA
ATOM      5  H   UNL A   1      32.940  30.097  28.549  1.00  0.00     0.163 HD
BRANCH   3   6
ATOM      6  C   UNL A   1      33.210  27.596  26.329  1.00  0.00     0.111 C 
BRANCH   6   7
ATOM      7  C   UNL A   1      32.208  26.521  25.902  1.00  0.00     0.080 C 
BRANCH   7   8
ATOM      8  S   UNL A   1      31.489  26.750  24.222  1.00  0.00    -0.148 SA
BRANCH   8   9
ATOM      9  C   UNL A   1      33.009  26.795  23.201  1.00  0.00     0.133 C 
ATOM     10  C   UNL A   1      33.582  28.187  22.994  1.00  0.00     0.030 C 
BRANCH   9  11
ATOM     11  C   UNL A   1      32.895  25.857  21.972  1.00  0.00     0.237 C 
ATOM     12  O   UNL A   1      33.374  26.175  20.875  1.00  0.00    -0.273 OA
ATOM     13  N   UNL A   1      32.294  24.623  22.037  1.00  0.00    -0.325 N 
ATOM     14  H   UNL A   1      31.575  24.379  21.410  1.00  0.00     0.169 HD
BRANCH  13  15
ATOM     15  C   UNL A   1      32.728  23.722  23.015  1.00  0.00     0.041 A 
ATOM     16  C   UNL A   1      31.760  22.942  23.649  1.00  0.00     0.027 A 
ATOM     17  C   UNL A   1      34.082  23.492  23.211  1.00  0.00     0.027 A 
ATOM     18  C   UNL A   1      32.155  21.808  24.350  1.00  0.00     0.016 A 
ATOM     19  C   UNL A   1      34.479  22.343  23.888  1.00  0.00     0.016 A 
ATOM     20  C   UNL A   1      33.515  21.482  24.425  1.00  0.00     0.039 A 
BRANCH  20  21
ATOM     21  C   UNL A   1      33.971  20.185  24.979  1.00  0.00     0.248 C 
ATOM     22  N   UNL A   1      35.285  20.090  25.339  1.00  0.00    -0.366 N 
ATOM     23  O   UNL A   1      33.213  19.237  25.108  1.00  0.00    -0.270 OA
ATOM     24  H   UNL A   1      35.883  20.865  25.228  1.00  0.00     0.159 HD
ATOM     25  H   UNL A   1      35.635  19.249  25.712  1.00  0.00     0.159 HD
ENDBRANCH  20  21
ENDBRANCH  13  15
ENDBRANCH   9  11
ENDBRANCH   8   9
ENDBRANCH   7   8
ENDBRANCH   6   7
ENDBRANCH   3   6
ENDBRANCH   1   2
BRANCH   1  26
ATOM     26  C   UNL A   1      35.021  31.427  27.647  1.00  0.00     0.023 C 
BRANCH  26  27
ATOM     27  C   UNL A   1      33.767  32.237  28.009  1.00  0.00     0.023 C 
BRANCH  27  28
ATOM     28  C   UNL A   1      33.819  33.693  27.597  1.00  0.00     0.116 C 
BRANCH  28  29
ATOM     29  N   UNL A   1      32.940  34.597  28.311  1.00  0.00    -0.352 N 
ATOM     30  C   UNL A   1      33.082  35.101  29.589  1.00  0.00     0.251 C 
ATOM     31  H   UNL A   1      32.136  34.889  27.822  1.00  0.00     0.163 HD
ATOM     32  O   UNL A   1      32.250  35.887  30.037  1.00  0.00    -0.269 OA
BRANCH  30  33
ATOM     33  C   UNL A   1      34.174  34.603  30.472  1.00  0.00     0.039 A 
ATOM     34  C   UNL A   1      33.851  33.674  31.468  1.00  0.00     0.014 A 
ATOM     35  C   UNL A   1      35.510  34.947  30.273  1.00  0.00     0.014 A 
ATOM     36  C   UNL A   1      34.868  33.018  32.171  1.00  0.00     0.010 A 
ATOM     37  C   UNL A   1      36.518  34.199  30.866  1.00  0.00     0.010 A 
ATOM     38  C   UNL A   1      36.211  33.227  31.827  1.00  0.00    -0.014 A 
BRANCH  38  39
ATOM     39  C   UNL A   1      37.322  32.464  32.451  1.00  0.00     0.031 A 
ATOM     40  C   UNL A   1      37.896  32.931  33.764  1.00  0.00     0.074 A 
ATOM     41  C   UNL A   1      37.882  31.430  31.789  1.00  0.00     0.049 A 
ATOM     42  N   UNL A   1      38.957  32.507  34.400  1.00  0.00    -0.248 NA
ATOM     43  C   UNL A   1      37.214  34.055  34.427  1.00  0.00     0.031 C 
ATOM     44  C   UNL A   1      37.454  30.928  30.480  1.00  0.00     0.029 A 
ATOM     45  N   UNL A   1      38.947  30.626  32.114  1.00  0.00    -0.354 N 
ATOM     46  C   UNL A   1      39.086  33.333  35.511  1.00  0.00     0.074 A 
ATOM     47  C   UNL A   1      38.033  34.318  35.434  1.00  0.00     0.031 C 
ATOM     48  C   UNL A   1      38.232  29.894  30.125  1.00  0.00     0.029 A 
ATOM     49  C   UNL A   1      39.248  29.689  31.152  1.00  0.00     0.049 A 
ATOM     50  H   UNL A   1      39.448  30.713  32.956  1.00  0.00     0.167 HD
ATOM     51  C   UNL A   1      39.986  33.258  36.519  1.00  0.00     0.037 A 
ATOM     52  C   UNL A   1      40.242  28.781  31.094  1.00  0.00     0.037 A 
ATOM     53  C   UNL A   1      40.995  32.238  36.609  1.00  0.00     0.049 A 
ATOM     54  C   UNL A   1      41.221  28.707  32.236  1.00  0.00     0.074 A 
ATOM     55  C   UNL A   1      41.896  32.010  37.632  1.00  0.00     0.029 A 
ATOM     56  N   UNL A   1      41.238  31.278  35.637  1.00  0.00    -0.354 N 
ATOM     57  N   UNL A   1      41.273  29.439  33.324  1.00  0.00    -0.248 NA
ATOM     58  C   UNL A   1      42.276  27.688  32.147  1.00  0.00     0.031 C 
ATOM     59  C   UNL A   1      42.723  30.949  37.253  1.00  0.00     0.029 A 
ATOM     60  C   UNL A   1      42.298  30.477  36.021  1.00  0.00     0.049 A 
ATOM     61  H   UNL A   1      40.732  31.182  34.798  1.00  0.00     0.167 HD
ATOM     62  C   UNL A   1      42.349  28.953  34.059  1.00  0.00     0.074 A 
ATOM     63  C   UNL A   1      42.909  27.855  33.301  1.00  0.00     0.031 C 
ATOM     64  C   UNL A   1      42.832  29.379  35.253  1.00  0.00     0.037 A 
BRANCH  51  65
ATOM     65  C   UNL A   1      39.919  34.296  37.606  1.00  0.00     0.058 A 
ATOM     66  C   UNL A   1      40.658  35.490  37.541  1.00  0.00     0.135 A 
ATOM     67  C   UNL A   1      39.066  34.118  38.707  1.00  0.00     0.135 A 
ATOM     68  F   UNL A   1      41.502  35.707  36.520  1.00  0.00    -0.206 F 
ATOM     69  C   UNL A   1      40.573  36.454  38.539  1.00  0.00     0.059 A 
ATOM     70  C   UNL A   1      38.940  35.084  39.702  1.00  0.00     0.059 A 
ATOM     71  F   UNL A   1      38.340  32.994  38.825  1.00  0.00    -0.206 F 
ATOM     72  C   UNL A   1      39.708  36.245  39.614  1.00  0.00     0.060 A 
BRANCH  72  73
ATOM     73  S   UNL A   1      39.592  37.519  40.886  1.00  0.00     0.124 S 
ATOM     74  O   UNL A   1      38.540  38.376  40.345  1.00  0.00    -0.237 OA
ATOM     75  O   UNL A   1      39.232  36.745  42.069  1.00  0.00    -0.237 OA
ATOM     76  O   UNL A   1      40.928  38.106  40.905  1.00  0.00    -0.744 OA
ENDBRANCH  72  73
ENDBRANCH  51  65
BRANCH  52  77
ATOM     77  C   UNL A   1      40.364  27.871  29.920  1.00  0.00     0.058 A 
ATOM     78  C   UNL A   1      41.358  28.071  28.950  1.00  0.00     0.135 A 
ATOM     79  C   UNL A   1      39.493  26.784  29.745  1.00  0.00     0.135 A 
ATOM     80  F   UNL A   1      42.213  29.098  29.067  1.00  0.00    -0.206 F 
ATOM     81  C   UNL A   1      41.471  27.241  27.838  1.00  0.00     0.059 A 
ATOM     82  C   UNL A   1      39.604  25.923  28.657  1.00  0.00     0.059 A 
ATOM     83  F   UNL A   1      38.534  26.536  30.651  1.00  0.00    -0.206 F 
ATOM     84  C   UNL A   1      40.588  26.167  27.701  1.00  0.00     0.060 A 
BRANCH  84  85
ATOM     85  S   UNL A   1      40.766  25.078  26.272  1.00  0.00     0.124 S 
ATOM     86  O   UNL A   1      41.191  26.016  25.239  1.00  0.00    -0.237 OA
ATOM     87  O   UNL A   1      41.779  24.133  26.731  1.00  0.00    -0.237 OA
ATOM     88  O   UNL A   1      39.428  24.519  26.106  1.00  0.00    -0.744 OA
ENDBRANCH  84  85
ENDBRANCH  52  77
BRANCH  64  89
ATOM     89  C   UNL A   1      44.006  28.642  35.831  1.00  0.00     0.058 A 
ATOM     90  C   UNL A   1      43.839  27.496  36.622  1.00  0.00     0.135 A 
ATOM     91  C   UNL A   1      45.316  29.038  35.514  1.00  0.00     0.135 A 
ATOM     92  F   UNL A   1      42.608  27.081  36.959  1.00  0.00    -0.206 F 
ATOM     93  C   UNL A   1      44.931  26.771  37.087  1.00  0.00     0.059 A 
ATOM     94  C   UNL A   1      46.421  28.311  35.943  1.00  0.00     0.059 A 
ATOM     95  F   UNL A   1      45.529  30.123  34.752  1.00  0.00    -0.206 F 
ATOM     96  C   UNL A   1      46.218  27.182  36.734  1.00  0.00     0.060 A 
BRANCH  96  97
ATOM     97  S   UNL A   1      47.622  26.193  37.291  1.00  0.00     0.124 S 
ATOM     98  O   UNL A   1      47.916  25.403  36.100  1.00  0.00    -0.237 OA
ATOM     99  O   UNL A   1      48.606  27.216  37.632  1.00  0.00    -0.237 OA
ATOM    100  O   UNL A   1      47.084  25.447  38.423  1.00  0.00    -0.744 OA
ENDBRANCH  96  97
ENDBRANCH  64  89
ENDBRANCH  38  39
ENDBRANCH  30  33
ENDBRANCH  28  29
ENDBRANCH  27  28
ENDBRANCH  26  27
ENDBRANCH   1  26
TORSDOF 20
ENDMDL
