MODEL 1
REMARK VINA RESULT:     -14.4      0.000      0.000
REMARK SMILES CC1(C)O[C@@H]2C[C@@H]3[C@H]4CCC5=CC(=O)C=C[C@@]5(C)[C@]4(F)[C@H](O)C[C@]3(C)[C@]2(C(=O)NCCCCNC(=O)c2ccc(-c3c4nc(c(-c5c(F)cc(S(=O)(=O)[O-])cc5F)c5ccc([nH]5)c(-c5c(F)cc(S(=O)(=O)[O-])cc5F)c5nc(c(-c6c(F)cc(S(=O)(=O)[O-])cc6F)c6ccc3[nH]6)C=C5)C=C4)cc2)O1
REMARK SMILES IDX 32 1 31 2 30 3 29 4 27 5 28 6 26 8 1 9 2 10 4 11 103 12 3 13
REMARK SMILES IDX 5 14 6 15 24 16 7 17 23 18 25 19 8 20 21 21 9 22 19 23 10 24
REMARK SMILES IDX 17 25 20 26 11 27 16 28 18 29 12 30 15 31 13 32 14 33 22 34
REMARK SMILES IDX 33 36 34 37 35 38 36 40 37 41 38 42 102 43 39 44 101 45
REMARK SMILES IDX 40 46 41 47 42 48 95 49 43 50 100 51 94 52 96 53 44 54 99 55
REMARK SMILES IDX 93 56 92 57 45 59 79 60 58 61 78 62 59 63 62 64 77 65 97 66
REMARK SMILES IDX 60 67 61 68 76 70 98 71 63 72 46 73 47 74 56 75 48 76 49 77
REMARK SMILES IDX 55 78 57 79 50 80 51 81 52 82 53 83 54 84 80 85 81 86 90 87
REMARK SMILES IDX 82 88 83 89 89 90 91 91 84 92 85 93 86 94 87 95 88 96 64 97
REMARK SMILES IDX 65 98 74 99 66 100 67 101 73 102 75 103 68 104 69 105 70 106
REMARK SMILES IDX 71 107 72 108
REMARK H PARENT 29 7 22 35 34 39 96 58 62 69
REMARK Flexibility Score: inf
ROOT
ATOM      1  C   UNL A   1      40.460  21.996  27.442  1.00  0.00     0.023 C 
ENDROOT
BRANCH   1   2
ATOM      2  C   UNL A   1      39.824  21.563  26.126  1.00  0.00     0.023 C 
BRANCH   2   3
ATOM      3  C   UNL A   1      38.462  22.207  25.867  1.00  0.00     0.116 C 
BRANCH   3   4
ATOM      4  N   UNL A   1      37.617  21.325  25.098  1.00  0.00    -0.353 N 
ATOM      5  C   UNL A   1      36.316  20.972  25.213  1.00  0.00     0.255 C 
ATOM      6  O   UNL A   1      36.082  19.817  24.828  1.00  0.00    -0.272 OA
ATOM      7  H   UNL A   1      38.078  20.896  24.341  1.00  0.00     0.163 HD
BRANCH   5   8
ATOM      8  C   UNL A   1      35.140  21.920  25.573  1.00  0.00     0.181 C 
ATOM      9  C   UNL A   1      33.164  19.397  24.260  1.00  0.00     0.075 C 
ATOM     10  C   UNL A   1      33.175  20.668  25.102  1.00  0.00     0.164 C 
ATOM     11  O   UNL A   1      33.515  20.411  26.468  1.00  0.00    -0.344 OA
ATOM     12  O   UNL A   1      34.129  21.605  24.521  1.00  0.00    -0.331 OA
ATOM     13  C   UNL A   1      31.721  21.198  25.091  1.00  0.00     0.075 C 
ATOM     14  C   UNL A   1      34.411  21.450  26.877  1.00  0.00     0.164 C 
ATOM     15  C   UNL A   1      33.606  22.701  27.438  1.00  0.00     0.040 C 
ATOM     16  C   UNL A   1      35.231  23.500  25.804  1.00  0.00     0.014 C 
ATOM     17  C   UNL A   1      33.748  23.701  26.273  1.00  0.00     0.008 C 
ATOM     18  C   UNL A   1      35.580  24.439  24.630  1.00  0.00     0.046 C 
ATOM     19  C   UNL A   1      36.230  23.799  26.975  1.00  0.00     0.015 C 
ATOM     20  C   UNL A   1      32.722  24.642  25.582  1.00  0.00     0.035 C 
ATOM     21  C   UNL A   1      34.448  24.904  23.734  1.00  0.00     0.154 C 
ATOM     22  C   UNL A   1      31.655  25.291  26.447  1.00  0.00     0.012 C 
ATOM     23  C   UNL A   1      33.296  25.595  24.520  1.00  0.00     0.152 C 
ATOM     24  C   UNL A   1      30.458  25.610  25.534  1.00  0.00     0.032 C 
ATOM     25  C   UNL A   1      32.142  26.151  23.571  1.00  0.00     0.044 C 
ATOM     26  F   UNL A   1      33.842  26.651  25.208  1.00  0.00    -0.239 F 
ATOM     27  C   UNL A   1      30.824  26.445  24.327  1.00  0.00    -0.053 C 
ATOM     28  C   UNL A   1      32.594  27.414  22.832  1.00  0.00    -0.009 C 
ATOM     29  C   UNL A   1      31.768  25.144  22.443  1.00  0.00     0.024 C 
ATOM     30  C   UNL A   1      29.950  27.358  23.858  1.00  0.00     0.052 C 
ATOM     31  C   UNL A   1      31.731  28.335  22.377  1.00  0.00     0.048 C 
ATOM     32  C   UNL A   1      30.291  28.200  22.686  1.00  0.00     0.178 C 
ATOM     33  O   UNL A   1      29.430  28.794  22.051  1.00  0.00    -0.290 OA
BRANCH  21  34
ATOM     34  O   UNL A   1      34.055  23.798  22.928  1.00  0.00    -0.390 OA
ATOM     35  H   UNL A   1      34.773  23.147  22.901  1.00  0.00     0.211 HD
ENDBRANCH  21  34
ENDBRANCH   5   8
ENDBRANCH   3   4
ENDBRANCH   2   3
ENDBRANCH   1   2
BRANCH   1  36
ATOM     36  C   UNL A   1      41.597  23.000  27.306  1.00  0.00     0.116 C 
BRANCH  36  37
ATOM     37  N   UNL A   1      41.498  23.858  26.133  1.00  0.00    -0.352 N 
ATOM     38  C   UNL A   1      41.346  25.227  26.118  1.00  0.00     0.251 C 
ATOM     39  H   UNL A   1      41.546  23.411  25.256  1.00  0.00     0.163 HD
ATOM     40  O   UNL A   1      41.213  25.837  25.061  1.00  0.00    -0.269 OA
BRANCH  38  41
ATOM     41  C   UNL A   1      41.295  25.929  27.414  1.00  0.00     0.039 A 
ATOM     42  C   UNL A   1      42.333  26.795  27.755  1.00  0.00     0.014 A 
ATOM     43  C   UNL A   1      40.144  25.842  28.202  1.00  0.00     0.014 A 
ATOM     44  C   UNL A   1      42.180  27.640  28.856  1.00  0.00     0.010 A 
ATOM     45  C   UNL A   1      39.959  26.748  29.239  1.00  0.00     0.010 A 
ATOM     46  C   UNL A   1      40.974  27.655  29.578  1.00  0.00    -0.014 A 
BRANCH  46  47
ATOM     47  C   UNL A   1      40.763  28.607  30.699  1.00  0.00     0.031 A 
ATOM     48  C   UNL A   1      41.589  28.480  31.951  1.00  0.00     0.074 A 
ATOM     49  C   UNL A   1      39.794  29.540  30.617  1.00  0.00     0.049 A 
ATOM     50  N   UNL A   1      41.530  29.181  33.053  1.00  0.00    -0.248 NA
ATOM     51  C   UNL A   1      42.587  27.398  31.982  1.00  0.00     0.031 C 
ATOM     52  C   UNL A   1      38.875  29.716  29.489  1.00  0.00     0.029 A 
ATOM     53  N   UNL A   1      39.413  30.517  31.504  1.00  0.00    -0.354 N 
ATOM     54  C   UNL A   1      42.466  28.614  33.910  1.00  0.00     0.074 A 
ATOM     55  C   UNL A   1      43.030  27.472  33.227  1.00  0.00     0.031 C 
ATOM     56  C   UNL A   1      38.065  30.758  29.736  1.00  0.00     0.029 A 
ATOM     57  C   UNL A   1      38.382  31.307  31.050  1.00  0.00     0.049 A 
ATOM     58  H   UNL A   1      39.839  30.640  32.382  1.00  0.00     0.167 HD
ATOM     59  C   UNL A   1      42.850  29.030  35.140  1.00  0.00     0.037 A 
ATOM     60  C   UNL A   1      37.770  32.361  31.627  1.00  0.00     0.037 A 
ATOM     61  C   UNL A   1      42.316  30.193  35.797  1.00  0.00     0.049 A 
ATOM     62  C   UNL A   1      38.241  32.829  32.978  1.00  0.00     0.074 A 
ATOM     63  C   UNL A   1      42.683  30.739  37.014  1.00  0.00     0.029 A 
ATOM     64  N   UNL A   1      41.306  30.994  35.286  1.00  0.00    -0.354 N 
ATOM     65  N   UNL A   1      39.182  32.326  33.743  1.00  0.00    -0.248 NA
ATOM     66  C   UNL A   1      37.580  34.015  33.538  1.00  0.00     0.031 C 
ATOM     67  C   UNL A   1      41.870  31.851  37.255  1.00  0.00     0.029 A 
ATOM     68  C   UNL A   1      41.028  32.024  36.168  1.00  0.00     0.049 A 
ATOM     69  H   UNL A   1      40.853  30.850  34.424  1.00  0.00     0.167 HD
ATOM     70  C   UNL A   1      39.244  33.151  34.861  1.00  0.00     0.074 A 
ATOM     71  C   UNL A   1      38.255  34.192  34.665  1.00  0.00     0.031 C 
ATOM     72  C   UNL A   1      40.047  33.056  35.950  1.00  0.00     0.037 A 
BRANCH  59  73
ATOM     73  C   UNL A   1      43.911  28.226  35.842  1.00  0.00     0.058 A 
ATOM     74  C   UNL A   1      43.585  27.127  36.653  1.00  0.00     0.135 A 
ATOM     75  C   UNL A   1      45.269  28.550  35.693  1.00  0.00     0.135 A 
ATOM     76  F   UNL A   1      42.301  26.785  36.844  1.00  0.00    -0.206 F 
ATOM     77  C   UNL A   1      44.563  26.398  37.320  1.00  0.00     0.059 A 
ATOM     78  C   UNL A   1      46.268  27.817  36.328  1.00  0.00     0.059 A 
ATOM     79  F   UNL A   1      45.637  29.593  34.933  1.00  0.00    -0.206 F 
ATOM     80  C   UNL A   1      45.902  26.753  37.153  1.00  0.00     0.060 A 
BRANCH  80  81
ATOM     81  S   UNL A   1      47.160  25.797  38.027  1.00  0.00     0.124 S 
ATOM     82  O   UNL A   1      47.683  24.958  36.954  1.00  0.00    -0.237 OA
ATOM     83  O   UNL A   1      48.060  26.837  38.515  1.00  0.00    -0.237 OA
ATOM     84  O   UNL A   1      46.399  25.098  39.059  1.00  0.00    -0.744 OA
ENDBRANCH  80  81
ENDBRANCH  59  73
BRANCH  60  85
ATOM     85  C   UNL A   1      36.677  33.072  30.911  1.00  0.00     0.058 A 
ATOM     86  C   UNL A   1      35.337  32.908  31.296  1.00  0.00     0.135 A 
ATOM     87  C   UNL A   1      36.946  33.933  29.836  1.00  0.00     0.135 A 
ATOM     88  F   UNL A   1      35.028  32.091  32.314  1.00  0.00    -0.206 F 
ATOM     89  C   UNL A   1      34.301  33.556  30.630  1.00  0.00     0.059 A 
ATOM     90  C   UNL A   1      35.928  34.611  29.170  1.00  0.00     0.059 A 
ATOM     91  F   UNL A   1      38.211  34.140  29.440  1.00  0.00    -0.206 F 
ATOM     92  C   UNL A   1      34.608  34.407  29.568  1.00  0.00     0.060 A 
BRANCH  92  93
ATOM     93  S   UNL A   1      33.260  35.281  28.741  1.00  0.00     0.124 S 
ATOM     94  O   UNL A   1      32.527  35.829  29.876  1.00  0.00    -0.237 OA
ATOM     95  O   UNL A   1      33.981  36.248  27.918  1.00  0.00    -0.237 OA
ATOM     96  O   UNL A   1      32.581  34.223  28.000  1.00  0.00    -0.744 OA
ENDBRANCH  92  93
ENDBRANCH  60  85
BRANCH  72  97
ATOM     97  C   UNL A   1      39.916  34.127  36.997  1.00  0.00     0.058 A 
ATOM     98  C   UNL A   1      40.570  35.362  36.875  1.00  0.00     0.135 A 
ATOM     99  C   UNL A   1      39.089  33.928  38.114  1.00  0.00     0.135 A 
ATOM    100  F   UNL A   1      41.375  35.601  35.828  1.00  0.00    -0.206 F 
ATOM    101  C   UNL A   1      40.431  36.355  37.840  1.00  0.00     0.059 A 
ATOM    102  C   UNL A   1      38.914  34.917  39.077  1.00  0.00     0.059 A 
ATOM    103  F   UNL A   1      38.430  32.769  38.270  1.00  0.00    -0.206 F 
ATOM    104  C   UNL A   1      39.601  36.121  38.939  1.00  0.00     0.060 A 
BRANCH 104 105
ATOM    105  S   UNL A   1      39.412  37.424  40.174  1.00  0.00     0.124 S 
ATOM    106  O   UNL A   1      40.780  37.919  40.288  1.00  0.00    -0.237 OA
ATOM    107  O   UNL A   1      38.461  38.327  39.534  1.00  0.00    -0.237 OA
ATOM    108  O   UNL A   1      38.902  36.712  41.342  1.00  0.00    -0.744 OA
ENDBRANCH 104 105
ENDBRANCH  72  97
ENDBRANCH  46  47
ENDBRANCH  38  41
ENDBRANCH  36  37
ENDBRANCH   1  36
TORSDOF 15
ENDMDL
MODEL 2
REMARK VINA RESULT:     -14.3      4.640     10.292
REMARK SMILES CC1(C)O[C@@H]2C[C@@H]3[C@H]4CCC5=CC(=O)C=C[C@@]5(C)[C@]4(F)[C@H](O)C[C@]3(C)[C@]2(C(=O)NCCCCNC(=O)c2ccc(-c3c4nc(c(-c5c(F)cc(S(=O)(=O)[O-])cc5F)c5ccc([nH]5)c(-c5c(F)cc(S(=O)(=O)[O-])cc5F)c5nc(c(-c6c(F)cc(S(=O)(=O)[O-])cc6F)c6ccc3[nH]6)C=C5)C=C4)cc2)O1
REMARK SMILES IDX 32 1 31 2 30 3 29 4 27 5 28 6 26 8 1 9 2 10 4 11 103 12 3 13
REMARK SMILES IDX 5 14 6 15 24 16 7 17 23 18 25 19 8 20 21 21 9 22 19 23 10 24
REMARK SMILES IDX 17 25 20 26 11 27 16 28 18 29 12 30 15 31 13 32 14 33 22 34
REMARK SMILES IDX 33 36 34 37 35 38 36 40 37 41 38 42 102 43 39 44 101 45
REMARK SMILES IDX 40 46 41 47 42 48 95 49 43 50 100 51 94 52 96 53 44 54 99 55
REMARK SMILES IDX 93 56 92 57 45 59 79 60 58 61 78 62 59 63 62 64 77 65 97 66
REMARK SMILES IDX 60 67 61 68 76 70 98 71 63 72 46 73 47 74 56 75 48 76 49 77
REMARK SMILES IDX 55 78 57 79 50 80 51 81 52 82 53 83 54 84 80 85 81 86 90 87
REMARK SMILES IDX 82 88 83 89 89 90 91 91 84 92 85 93 86 94 87 95 88 96 64 97
REMARK SMILES IDX 65 98 74 99 66 100 67 101 73 102 75 103 68 104 69 105 70 106
REMARK SMILES IDX 71 107 72 108
REMARK H PARENT 29 7 22 35 34 39 96 58 62 69
REMARK Flexibility Score: inf
ROOT
ATOM      1  C   UNL A   1      33.833  28.501  25.739  1.00  0.00     0.023 C 
ENDROOT
BRANCH   1   2
ATOM      2  C   UNL A   1      32.708  29.093  24.898  1.00  0.00     0.023 C 
BRANCH   2   3
ATOM      3  C   UNL A   1      32.203  28.150  23.806  1.00  0.00     0.116 C 
BRANCH   3   4
ATOM      4  N   UNL A   1      31.213  27.242  24.332  1.00  0.00    -0.353 N 
ATOM      5  C   UNL A   1      31.110  25.892  24.323  1.00  0.00     0.255 C 
ATOM      6  O   UNL A   1      29.939  25.487  24.291  1.00  0.00    -0.272 OA
ATOM      7  H   UNL A   1      30.464  27.692  24.787  1.00  0.00     0.163 HD
BRANCH   5   8
ATOM      8  C   UNL A   1      32.271  24.886  24.546  1.00  0.00     0.181 C 
ATOM      9  C   UNL A   1      32.680  25.131  21.116  1.00  0.00     0.075 C 
ATOM     10  C   UNL A   1      33.318  24.672  22.423  1.00  0.00     0.164 C 
ATOM     11  O   UNL A   1      33.980  25.740  23.108  1.00  0.00    -0.344 OA
ATOM     12  O   UNL A   1      32.280  24.104  23.275  1.00  0.00    -0.331 OA
ATOM     13  C   UNL A   1      34.407  23.646  22.027  1.00  0.00     0.075 C 
ATOM     14  C   UNL A   1      33.662  25.605  24.497  1.00  0.00     0.164 C 
ATOM     15  C   UNL A   1      34.705  24.651  25.225  1.00  0.00     0.040 C 
ATOM     16  C   UNL A   1      32.454  23.911  25.802  1.00  0.00     0.014 C 
ATOM     17  C   UNL A   1      33.871  23.367  25.405  1.00  0.00     0.008 C 
ATOM     18  C   UNL A   1      31.458  22.758  26.043  1.00  0.00     0.046 C 
ATOM     19  C   UNL A   1      32.534  24.763  27.116  1.00  0.00     0.015 C 
ATOM     20  C   UNL A   1      34.208  21.868  25.174  1.00  0.00     0.035 C 
ATOM     21  C   UNL A   1      31.707  21.445  25.326  1.00  0.00     0.154 C 
ATOM     22  C   UNL A   1      35.615  21.396  25.501  1.00  0.00     0.012 C 
ATOM     23  C   UNL A   1      33.124  20.863  25.598  1.00  0.00     0.152 C 
ATOM     24  C   UNL A   1      35.892  20.150  24.640  1.00  0.00     0.032 C 
ATOM     25  C   UNL A   1      33.359  19.446  24.905  1.00  0.00     0.044 C 
ATOM     26  F   UNL A   1      33.253  20.712  26.958  1.00  0.00    -0.239 F 
ATOM     27  C   UNL A   1      34.855  19.062  24.803  1.00  0.00    -0.053 C 
ATOM     28  C   UNL A   1      32.601  18.339  25.643  1.00  0.00    -0.009 C 
ATOM     29  C   UNL A   1      32.808  19.402  23.449  1.00  0.00     0.024 C 
ATOM     30  C   UNL A   1      35.229  17.768  24.743  1.00  0.00     0.052 C 
ATOM     31  C   UNL A   1      32.978  17.051  25.601  1.00  0.00     0.048 C 
ATOM     32  C   UNL A   1      34.235  16.683  24.915  1.00  0.00     0.178 C 
ATOM     33  O   UNL A   1      34.469  15.536  24.558  1.00  0.00    -0.290 OA
BRANCH  21  34
ATOM     34  O   UNL A   1      31.382  21.636  23.953  1.00  0.00    -0.390 OA
ATOM     35  H   UNL A   1      30.742  20.964  23.676  1.00  0.00     0.211 HD
ENDBRANCH  21  34
ENDBRANCH   5   8
ENDBRANCH   3   4
ENDBRANCH   2   3
ENDBRANCH   1   2
BRANCH   1  36
ATOM     36  C   UNL A   1      33.626  28.597  27.246  1.00  0.00     0.116 C 
BRANCH  36  37
ATOM     37  N   UNL A   1      33.563  29.961  27.753  1.00  0.00    -0.352 N 
ATOM     38  C   UNL A   1      34.589  30.680  28.327  1.00  0.00     0.251 C 
ATOM     39  H   UNL A   1      32.694  30.419  27.678  1.00  0.00     0.163 HD
ATOM     40  O   UNL A   1      34.398  31.807  28.775  1.00  0.00    -0.269 OA
BRANCH  38  41
ATOM     41  C   UNL A   1      35.910  30.033  28.433  1.00  0.00     0.039 A 
ATOM     42  C   UNL A   1      36.787  30.104  27.351  1.00  0.00     0.014 A 
ATOM     43  C   UNL A   1      36.322  29.500  29.658  1.00  0.00     0.014 A 
ATOM     44  C   UNL A   1      38.114  29.710  27.525  1.00  0.00     0.010 A 
ATOM     45  C   UNL A   1      37.664  29.196  29.851  1.00  0.00     0.010 A 
ATOM     46  C   UNL A   1      38.574  29.296  28.787  1.00  0.00    -0.014 A 
BRANCH  46  47
ATOM     47  C   UNL A   1      40.002  28.954  29.010  1.00  0.00     0.031 A 
ATOM     48  C   UNL A   1      40.934  29.984  29.592  1.00  0.00     0.074 A 
ATOM     49  C   UNL A   1      40.473  27.748  28.635  1.00  0.00     0.049 A 
ATOM     50  N   UNL A   1      42.217  29.898  29.824  1.00  0.00    -0.248 NA
ATOM     51  C   UNL A   1      40.352  31.295  29.922  1.00  0.00     0.031 C 
ATOM     52  C   UNL A   1      39.689  26.692  27.989  1.00  0.00     0.029 A 
ATOM     53  N   UNL A   1      41.730  27.206  28.736  1.00  0.00    -0.354 N 
ATOM     54  C   UNL A   1      42.597  31.144  30.308  1.00  0.00     0.074 A 
ATOM     55  C   UNL A   1      41.424  31.988  30.272  1.00  0.00     0.031 C 
ATOM     56  C   UNL A   1      40.472  25.620  27.786  1.00  0.00     0.029 A 
ATOM     57  C   UNL A   1      41.820  25.919  28.257  1.00  0.00     0.049 A 
ATOM     58  H   UNL A   1      42.497  27.693  29.116  1.00  0.00     0.167 HD
ATOM     59  C   UNL A   1      43.804  31.540  30.776  1.00  0.00     0.037 A 
ATOM     60  C   UNL A   1      42.870  25.074  28.213  1.00  0.00     0.037 A 
ATOM     61  C   UNL A   1      44.957  30.683  30.849  1.00  0.00     0.049 A 
ATOM     62  C   UNL A   1      44.192  25.524  28.776  1.00  0.00     0.074 A 
ATOM     63  C   UNL A   1      46.207  30.965  31.368  1.00  0.00     0.029 A 
ATOM     64  N   UNL A   1      44.995  29.372  30.398  1.00  0.00    -0.354 N 
ATOM     65  N   UNL A   1      44.514  26.683  29.300  1.00  0.00    -0.248 NA
ATOM     66  C   UNL A   1      45.289  24.547  28.756  1.00  0.00     0.031 C 
ATOM     67  C   UNL A   1      47.014  29.835  31.198  1.00  0.00     0.029 A 
ATOM     68  C   UNL A   1      46.253  28.835  30.614  1.00  0.00     0.049 A 
ATOM     69  H   UNL A   1      44.241  28.896  29.983  1.00  0.00     0.167 HD
ATOM     70  C   UNL A   1      45.841  26.565  29.697  1.00  0.00     0.074 A 
ATOM     71  C   UNL A   1      46.258  25.218  29.365  1.00  0.00     0.031 C 
ATOM     72  C   UNL A   1      46.643  27.488  30.285  1.00  0.00     0.037 A 
BRANCH  59  73
ATOM     73  C   UNL A   1      43.927  32.960  31.260  1.00  0.00     0.058 A 
ATOM     74  C   UNL A   1      43.616  33.314  32.583  1.00  0.00     0.135 A 
ATOM     75  C   UNL A   1      44.372  33.974  30.398  1.00  0.00     0.135 A 
ATOM     76  F   UNL A   1      43.169  32.386  33.444  1.00  0.00    -0.206 F 
ATOM     77  C   UNL A   1      43.707  34.629  33.025  1.00  0.00     0.059 A 
ATOM     78  C   UNL A   1      44.499  35.293  30.827  1.00  0.00     0.059 A 
ATOM     79  F   UNL A   1      44.679  33.692  29.123  1.00  0.00    -0.206 F 
ATOM     80  C   UNL A   1      44.147  35.612  32.138  1.00  0.00     0.060 A 
BRANCH  80  81
ATOM     81  S   UNL A   1      44.259  37.315  32.728  1.00  0.00     0.124 S 
ATOM     82  O   UNL A   1      45.651  37.379  33.162  1.00  0.00    -0.237 OA
ATOM     83  O   UNL A   1      43.932  38.082  31.531  1.00  0.00    -0.237 OA
ATOM     84  O   UNL A   1      43.265  37.370  33.795  1.00  0.00    -0.744 OA
ENDBRANCH  80  81
ENDBRANCH  59  73
BRANCH  60  85
ATOM     85  C   UNL A   1      42.703  23.705  27.657  1.00  0.00     0.058 A 
ATOM     86  C   UNL A   1      42.427  22.615  28.496  1.00  0.00     0.135 A 
ATOM     87  C   UNL A   1      42.809  23.457  26.280  1.00  0.00     0.135 A 
ATOM     88  F   UNL A   1      42.323  22.799  29.822  1.00  0.00    -0.206 F 
ATOM     89  C   UNL A   1      42.280  21.325  27.995  1.00  0.00     0.059 A 
ATOM     90  C   UNL A   1      42.642  22.180  25.752  1.00  0.00     0.059 A 
ATOM     91  F   UNL A   1      43.053  24.468  25.432  1.00  0.00    -0.206 F 
ATOM     92  C   UNL A   1      42.389  21.118  26.619  1.00  0.00     0.060 A 
BRANCH  92  93
ATOM     93  S   UNL A   1      42.147  19.449  25.972  1.00  0.00     0.124 S 
ATOM     94  O   UNL A   1      42.983  19.473  24.778  1.00  0.00    -0.237 OA
ATOM     95  O   UNL A   1      42.629  18.620  27.073  1.00  0.00    -0.237 OA
ATOM     96  O   UNL A   1      40.708  19.387  25.736  1.00  0.00    -0.744 OA
ENDBRANCH  92  93
ENDBRANCH  60  85
BRANCH  72  97
ATOM     97  C   UNL A   1      48.041  27.060  30.641  1.00  0.00     0.058 A 
ATOM     98  C   UNL A   1      49.116  27.246  29.760  1.00  0.00     0.135 A 
ATOM     99  C   UNL A   1      48.310  26.499  31.900  1.00  0.00     0.135 A 
ATOM    100  F   UNL A   1      48.910  27.775  28.543  1.00  0.00    -0.206 F 
ATOM    101  C   UNL A   1      50.409  26.863  30.102  1.00  0.00     0.059 A 
ATOM    102  C   UNL A   1      49.599  26.133  32.274  1.00  0.00     0.059 A 
ATOM    103  F   UNL A   1      47.318  26.313  32.784  1.00  0.00    -0.206 F 
ATOM    104  C   UNL A   1      50.639  26.306  31.362  1.00  0.00     0.060 A 
BRANCH 104 105
ATOM    105  S   UNL A   1      52.324  25.832  31.805  1.00  0.00     0.124 S 
ATOM    106  O   UNL A   1      52.604  26.745  32.909  1.00  0.00    -0.237 OA
ATOM    107  O   UNL A   1      52.170  24.427  32.166  1.00  0.00    -0.237 OA
ATOM    108  O   UNL A   1      53.078  26.079  30.580  1.00  0.00    -0.744 OA
ENDBRANCH 104 105
ENDBRANCH  72  97
ENDBRANCH  46  47
ENDBRANCH  38  41
ENDBRANCH  36  37
ENDBRANCH   1  36
TORSDOF 15
ENDMDL
MODEL 3
REMARK VINA RESULT:     -14.3      1.409      2.652
REMARK SMILES CC1(C)O[C@@H]2C[C@@H]3[C@H]4CCC5=CC(=O)C=C[C@@]5(C)[C@]4(F)[C@H](O)C[C@]3(C)[C@]2(C(=O)NCCCCNC(=O)c2ccc(-c3c4nc(c(-c5c(F)cc(S(=O)(=O)[O-])cc5F)c5ccc([nH]5)c(-c5c(F)cc(S(=O)(=O)[O-])cc5F)c5nc(c(-c6c(F)cc(S(=O)(=O)[O-])cc6F)c6ccc3[nH]6)C=C5)C=C4)cc2)O1
REMARK SMILES IDX 32 1 31 2 30 3 29 4 27 5 28 6 26 8 1 9 2 10 4 11 103 12 3 13
REMARK SMILES IDX 5 14 6 15 24 16 7 17 23 18 25 19 8 20 21 21 9 22 19 23 10 24
REMARK SMILES IDX 17 25 20 26 11 27 16 28 18 29 12 30 15 31 13 32 14 33 22 34
REMARK SMILES IDX 33 36 34 37 35 38 36 40 37 41 38 42 102 43 39 44 101 45
REMARK SMILES IDX 40 46 41 47 42 48 95 49 43 50 100 51 94 52 96 53 44 54 99 55
REMARK SMILES IDX 93 56 92 57 45 59 79 60 58 61 78 62 59 63 62 64 77 65 97 66
REMARK SMILES IDX 60 67 61 68 76 70 98 71 63 72 46 73 47 74 56 75 48 76 49 77
REMARK SMILES IDX 55 78 57 79 50 80 51 81 52 82 53 83 54 84 80 85 81 86 90 87
REMARK SMILES IDX 82 88 83 89 89 90 91 91 84 92 85 93 86 94 87 95 88 96 64 97
REMARK SMILES IDX 65 98 74 99 66 100 67 101 73 102 75 103 68 104 69 105 70 106
REMARK SMILES IDX 71 107 72 108
REMARK H PARENT 29 7 22 35 34 39 96 58 62 69
REMARK Flexibility Score: inf
ROOT
ATOM      1  C   UNL A   1      37.954  22.884  26.134  1.00  0.00     0.023 C 
ENDROOT
BRANCH   1   2
ATOM      2  C   UNL A   1      36.510  23.162  25.733  1.00  0.00     0.023 C 
BRANCH   2   3
ATOM      3  C   UNL A   1      35.495  22.285  26.466  1.00  0.00     0.116 C 
BRANCH   3   4
ATOM      4  N   UNL A   1      34.810  21.414  25.542  1.00  0.00    -0.353 N 
ATOM      5  C   UNL A   1      33.541  21.394  25.071  1.00  0.00     0.255 C 
ATOM      6  O   UNL A   1      33.126  20.254  24.817  1.00  0.00    -0.272 OA
ATOM      7  H   UNL A   1      35.376  20.691  25.185  1.00  0.00     0.163 HD
BRANCH   5   8
ATOM      8  C   UNL A   1      32.702  22.632  24.654  1.00  0.00     0.181 C 
ATOM      9  C   UNL A   1      35.218  23.120  22.325  1.00  0.00     0.075 C 
ATOM     10  C   UNL A   1      33.800  23.503  22.734  1.00  0.00     0.164 C 
ATOM     11  O   UNL A   1      32.828  22.563  22.267  1.00  0.00    -0.344 OA
ATOM     12  O   UNL A   1      33.743  23.595  24.188  1.00  0.00    -0.331 OA
ATOM     13  C   UNL A   1      33.503  24.848  22.029  1.00  0.00     0.075 C 
ATOM     14  C   UNL A   1      31.899  22.356  23.337  1.00  0.00     0.164 C 
ATOM     15  C   UNL A   1      30.722  23.423  23.277  1.00  0.00     0.040 C 
ATOM     16  C   UNL A   1      31.609  23.382  25.549  1.00  0.00     0.014 C 
ATOM     17  C   UNL A   1      31.105  24.366  24.436  1.00  0.00     0.008 C 
ATOM     18  C   UNL A   1      32.034  24.145  26.821  1.00  0.00     0.046 C 
ATOM     19  C   UNL A   1      30.479  22.371  25.949  1.00  0.00     0.015 C 
ATOM     20  C   UNL A   1      31.133  25.916  24.548  1.00  0.00     0.035 C 
ATOM     21  C   UNL A   1      32.501  25.580  26.663  1.00  0.00     0.154 C 
ATOM     22  C   UNL A   1      30.050  26.701  23.827  1.00  0.00     0.012 C 
ATOM     23  C   UNL A   1      31.460  26.481  25.940  1.00  0.00     0.152 C 
ATOM     24  C   UNL A   1      30.614  28.105  23.545  1.00  0.00     0.032 C 
ATOM     25  C   UNL A   1      31.918  28.006  25.841  1.00  0.00     0.044 C 
ATOM     26  F   UNL A   1      30.291  26.422  26.661  1.00  0.00    -0.239 F 
ATOM     27  C   UNL A   1      31.126  28.810  24.781  1.00  0.00    -0.053 C 
ATOM     28  C   UNL A   1      31.802  28.706  27.198  1.00  0.00    -0.009 C 
ATOM     29  C   UNL A   1      33.418  28.147  25.448  1.00  0.00     0.024 C 
ATOM     30  C   UNL A   1      30.987  30.146  24.894  1.00  0.00     0.052 C 
ATOM     31  C   UNL A   1      31.647  30.034  27.317  1.00  0.00     0.048 C 
ATOM     32  C   UNL A   1      31.467  30.858  26.102  1.00  0.00     0.178 C 
ATOM     33  O   UNL A   1      31.647  32.068  26.104  1.00  0.00    -0.290 OA
BRANCH  21  34
ATOM     34  O   UNL A   1      33.795  25.549  26.068  1.00  0.00    -0.390 OA
ATOM     35  H   UNL A   1      34.449  25.881  26.701  1.00  0.00     0.211 HD
ENDBRANCH  21  34
ENDBRANCH   5   8
ENDBRANCH   3   4
ENDBRANCH   2   3
ENDBRANCH   1   2
BRANCH   1  36
ATOM     36  C   UNL A   1      38.768  24.119  26.500  1.00  0.00     0.116 C 
BRANCH  36  37
ATOM     37  N   UNL A   1      40.196  23.991  26.241  1.00  0.00    -0.352 N 
ATOM     38  C   UNL A   1      41.202  24.795  26.729  1.00  0.00     0.251 C 
ATOM     39  H   UNL A   1      40.472  23.249  25.654  1.00  0.00     0.163 HD
ATOM     40  O   UNL A   1      42.369  24.624  26.389  1.00  0.00    -0.269 OA
BRANCH  38  41
ATOM     41  C   UNL A   1      40.825  25.900  27.630  1.00  0.00     0.039 A 
ATOM     42  C   UNL A   1      39.830  25.686  28.584  1.00  0.00     0.014 A 
ATOM     43  C   UNL A   1      41.572  27.081  27.624  1.00  0.00     0.014 A 
ATOM     44  C   UNL A   1      39.636  26.634  29.589  1.00  0.00     0.010 A 
ATOM     45  C   UNL A   1      41.438  27.977  28.678  1.00  0.00     0.010 A 
ATOM     46  C   UNL A   1      40.469  27.764  29.670  1.00  0.00    -0.014 A 
BRANCH  46  47
ATOM     47  C   UNL A   1      40.332  28.740  30.783  1.00  0.00     0.031 A 
ATOM     48  C   UNL A   1      41.202  28.606  32.004  1.00  0.00     0.074 A 
ATOM     49  C   UNL A   1      39.390  29.703  30.723  1.00  0.00     0.049 A 
ATOM     50  N   UNL A   1      41.209  29.325  33.095  1.00  0.00    -0.248 NA
ATOM     51  C   UNL A   1      42.167  27.493  32.013  1.00  0.00     0.031 C 
ATOM     52  C   UNL A   1      38.433  29.890  29.629  1.00  0.00     0.029 A 
ATOM     53  N   UNL A   1      39.075  30.704  31.607  1.00  0.00    -0.354 N 
ATOM     54  C   UNL A   1      42.160  28.742  33.924  1.00  0.00     0.074 A 
ATOM     55  C   UNL A   1      42.660  27.573  33.239  1.00  0.00     0.031 C 
ATOM     56  C   UNL A   1      37.666  30.961  29.890  1.00  0.00     0.029 A 
ATOM     57  C   UNL A   1      38.053  31.519  31.181  1.00  0.00     0.049 A 
ATOM     58  H   UNL A   1      39.539  30.828  32.467  1.00  0.00     0.167 HD
ATOM     59  C   UNL A   1      42.605  29.165  35.131  1.00  0.00     0.037 A 
ATOM     60  C   UNL A   1      37.497  32.601  31.764  1.00  0.00     0.037 A 
ATOM     61  C   UNL A   1      42.134  30.354  35.789  1.00  0.00     0.049 A 
ATOM     62  C   UNL A   1      38.036  33.075  33.088  1.00  0.00     0.074 A 
ATOM     63  C   UNL A   1      42.566  30.906  36.981  1.00  0.00     0.029 A 
ATOM     64  N   UNL A   1      41.130  31.179  35.304  1.00  0.00    -0.354 N 
ATOM     65  N   UNL A   1      38.989  32.554  33.823  1.00  0.00    -0.248 NA
ATOM     66  C   UNL A   1      37.434  34.290  33.653  1.00  0.00     0.031 C 
ATOM     67  C   UNL A   1      41.799  32.048  37.235  1.00  0.00     0.029 A 
ATOM     68  C   UNL A   1      40.919  32.231  36.179  1.00  0.00     0.049 A 
ATOM     69  H   UNL A   1      40.640  31.037  34.463  1.00  0.00     0.167 HD
ATOM     70  C   UNL A   1      39.121  33.394  34.924  1.00  0.00     0.074 A 
ATOM     71  C   UNL A   1      38.159  34.463  34.750  1.00  0.00     0.031 C 
ATOM     72  C   UNL A   1      39.963  33.290  35.982  1.00  0.00     0.037 A 
BRANCH  59  73
ATOM     73  C   UNL A   1      43.668  28.339  35.805  1.00  0.00     0.058 A 
ATOM     74  C   UNL A   1      45.033  28.552  35.553  1.00  0.00     0.135 A 
ATOM     75  C   UNL A   1      43.320  27.333  36.720  1.00  0.00     0.135 A 
ATOM     76  F   UNL A   1      45.420  29.489  34.673  1.00  0.00    -0.206 F 
ATOM     77  C   UNL A   1      46.015  27.774  36.157  1.00  0.00     0.059 A 
ATOM     78  C   UNL A   1      44.287  26.562  37.359  1.00  0.00     0.059 A 
ATOM     79  F   UNL A   1      42.030  27.085  36.995  1.00  0.00    -0.206 F 
ATOM     80  C   UNL A   1      45.631  26.780  37.057  1.00  0.00     0.060 A 
BRANCH  80  81
ATOM     81  S   UNL A   1      46.918  25.779  37.832  1.00  0.00     0.124 S 
ATOM     82  O   UNL A   1      46.300  24.456  37.824  1.00  0.00    -0.237 OA
ATOM     83  O   UNL A   1      48.044  25.958  36.923  1.00  0.00    -0.237 OA
ATOM     84  O   UNL A   1      47.076  26.390  39.149  1.00  0.00    -0.744 OA
ENDBRANCH  80  81
ENDBRANCH  59  73
BRANCH  60  85
ATOM     85  C   UNL A   1      36.399  33.336  31.080  1.00  0.00     0.058 A 
ATOM     86  C   UNL A   1      36.649  34.096  29.927  1.00  0.00     0.135 A 
ATOM     87  C   UNL A   1      35.080  33.290  31.557  1.00  0.00     0.135 A 
ATOM     88  F   UNL A   1      37.895  34.176  29.435  1.00  0.00    -0.206 F 
ATOM     89  C   UNL A   1      35.637  34.799  29.281  1.00  0.00     0.059 A 
ATOM     90  C   UNL A   1      34.046  33.966  30.914  1.00  0.00     0.059 A 
ATOM     91  F   UNL A   1      34.783  32.563  32.645  1.00  0.00    -0.206 F 
ATOM     92  C   UNL A   1      34.337  34.727  29.783  1.00  0.00     0.060 A 
BRANCH  92  93
ATOM     93  S   UNL A   1      33.021  35.603  28.909  1.00  0.00     0.124 S 
ATOM     94  O   UNL A   1      33.782  36.563  28.118  1.00  0.00    -0.237 OA
ATOM     95  O   UNL A   1      32.377  34.526  28.163  1.00  0.00    -0.237 OA
ATOM     96  O   UNL A   1      32.221  36.169  29.991  1.00  0.00    -0.744 OA
ENDBRANCH  92  93
ENDBRANCH  60  85
BRANCH  72  97
ATOM     97  C   UNL A   1      39.908  34.381  37.016  1.00  0.00     0.058 A 
ATOM     98  C   UNL A   1      40.693  35.539  36.910  1.00  0.00     0.135 A 
ATOM     99  C   UNL A   1      39.023  34.283  38.102  1.00  0.00     0.135 A 
ATOM    100  F   UNL A   1      41.558  35.679  35.892  1.00  0.00    -0.206 F 
ATOM    101  C   UNL A   1      40.624  36.551  37.861  1.00  0.00     0.059 A 
ATOM    102  C   UNL A   1      38.918  35.295  39.051  1.00  0.00     0.059 A 
ATOM    103  F   UNL A   1      38.240  33.201  38.241  1.00  0.00    -0.206 F 
ATOM    104  C   UNL A   1      39.733  36.419  38.929  1.00  0.00     0.060 A 
BRANCH 104 105
ATOM    105  S   UNL A   1      39.637  37.748  40.147  1.00  0.00     0.124 S 
ATOM    106  O   UNL A   1      39.324  37.007  41.365  1.00  0.00    -0.237 OA
ATOM    107  O   UNL A   1      40.974  38.329  40.083  1.00  0.00    -0.237 OA
ATOM    108  O   UNL A   1      38.566  38.598  39.636  1.00  0.00    -0.744 OA
ENDBRANCH 104 105
ENDBRANCH  72  97
ENDBRANCH  46  47
ENDBRANCH  38  41
ENDBRANCH  36  37
ENDBRANCH   1  36
TORSDOF 15
ENDMDL
