MODEL 1
REMARK VINA RESULT:     -11.4      0.000      0.000
REMARK SMILES Cc1cc(CS(=O)(=O)N[C@@H]2C=C[C@H](C(=O)NCCCCNC(=O)c3ccc(-c4c5nc(c(-c6c(F)cc(S(=O)(=O)[O-])cc6F)c6ccc([nH]6)c(-c6c(F)cc(S(=O)(=O)[O-])cc6F)c6nc(c(-c7c(F)cc(S(=O)(=O)[O-])cc7F)c7ccc4[nH]7)C=C6)C=C5)cc3)C2)no1
REMARK SMILES IDX 18 1 17 2 16 3 14 4 15 5 13 7 10 8 11 9 90 10 12 11 9 12
REMARK SMILES IDX 6 14 7 15 8 16 5 17 4 18 1 19 2 20 3 21 92 22 91 23 19 24
REMARK SMILES IDX 20 25 21 26 22 27 23 29 24 30 25 31 89 32 26 33 88 34 27 35
REMARK SMILES IDX 28 36 29 37 82 38 30 39 87 40 81 41 83 42 31 43 86 44 80 45
REMARK SMILES IDX 79 46 32 48 66 49 45 50 65 51 46 52 49 53 64 54 84 55 47 56
REMARK SMILES IDX 48 57 63 59 85 60 50 61 33 62 34 63 43 64 35 65 36 66 42 67
REMARK SMILES IDX 44 68 37 69 38 70 39 71 40 72 41 73 67 74 68 75 77 76 69 77
REMARK SMILES IDX 70 78 76 79 78 80 71 81 72 82 73 83 74 84 75 85 51 86 52 87
REMARK SMILES IDX 61 88 53 89 54 90 60 91 62 92 55 93 56 94 57 95 58 96 59 97
REMARK H PARENT 16 6 9 13 21 28 83 47 49 58
REMARK Flexibility Score: inf
ROOT
ATOM      1  C   UNL A   1      40.786  21.068  27.172  1.00  0.00     0.023 C 
ENDROOT
BRANCH   1   2
ATOM      2  C   UNL A   1      39.632  21.161  26.172  1.00  0.00     0.116 C 
BRANCH   2   3
ATOM      3  N   UNL A   1      38.825  22.348  26.402  1.00  0.00    -0.356 N 
ATOM      4  C   UNL A   1      37.763  22.902  25.763  1.00  0.00     0.226 C 
ATOM      5  O   UNL A   1      37.369  23.989  26.202  1.00  0.00    -0.274 OA
ATOM      6  H   UNL A   1      39.110  22.861  27.192  1.00  0.00     0.163 HD
BRANCH   4   7
ATOM      7  C   UNL A   1      36.993  22.255  24.604  1.00  0.00     0.103 C 
ATOM      8  C   UNL A   1      34.991  23.318  23.601  1.00  0.00     0.093 C 
ATOM      9  C   UNL A   1      34.671  22.139  24.454  1.00  0.00    -0.011 C 
ATOM     10  C   UNL A   1      36.522  23.350  23.619  1.00  0.00     0.042 C 
ATOM     11  C   UNL A   1      35.751  21.506  24.914  1.00  0.00    -0.016 C 
BRANCH   8  12
ATOM     12  N   UNL A   1      34.370  24.491  24.217  1.00  0.00    -0.208 NA
ATOM     13  H   UNL A   1      33.691  24.150  24.897  1.00  0.00     0.141 HD
BRANCH  12  14
ATOM     14  S   UNL A   1      33.571  25.589  23.218  1.00  0.00     0.218 S 
ATOM     15  O   UNL A   1      33.962  25.316  21.855  1.00  0.00    -0.212 OA
ATOM     16  O   UNL A   1      33.866  26.884  23.803  1.00  0.00    -0.212 OA
BRANCH  14  17
ATOM     17  C   UNL A   1      31.802  25.286  23.472  1.00  0.00     0.213 C 
BRANCH  17  18
ATOM     18  C   UNL A   1      31.457  24.698  24.788  1.00  0.00     0.100 A 
ATOM     19  C   UNL A   1      29.569  22.769  27.253  1.00  0.00     0.091 C 
ATOM     20  C   UNL A   1      30.474  23.537  26.378  1.00  0.00     0.133 A 
ATOM     21  C   UNL A   1      30.817  23.459  25.049  1.00  0.00     0.073 A 
ATOM     22  O   UNL A   1      31.048  24.642  26.921  1.00  0.00    -0.361 OA
ATOM     23  N   UNL A   1      31.707  25.348  25.931  1.00  0.00    -0.084 NA
ENDBRANCH  17  18
ENDBRANCH  14  17
ENDBRANCH  12  14
ENDBRANCH   8  12
ENDBRANCH   4   7
ENDBRANCH   2   3
ENDBRANCH   1   2
BRANCH   1  24
ATOM     24  C   UNL A   1      41.109  22.394  27.865  1.00  0.00     0.023 C 
BRANCH  24  25
ATOM     25  C   UNL A   1      42.376  23.086  27.373  1.00  0.00     0.116 C 
BRANCH  25  26
ATOM     26  N   UNL A   1      42.164  23.884  26.174  1.00  0.00    -0.352 N 
ATOM     27  C   UNL A   1      41.774  25.199  26.083  1.00  0.00     0.251 C 
ATOM     28  H   UNL A   1      42.320  23.422  25.318  1.00  0.00     0.163 HD
ATOM     29  O   UNL A   1      41.514  25.693  24.990  1.00  0.00    -0.269 OA
BRANCH  27  30
ATOM     30  C   UNL A   1      41.637  25.993  27.322  1.00  0.00     0.039 A 
ATOM     31  C   UNL A   1      42.656  26.879  27.674  1.00  0.00     0.014 A 
ATOM     32  C   UNL A   1      40.479  25.898  28.098  1.00  0.00     0.014 A 
ATOM     33  C   UNL A   1      42.481  27.721  28.773  1.00  0.00     0.010 A 
ATOM     34  C   UNL A   1      40.274  26.794  29.142  1.00  0.00     0.010 A 
ATOM     35  C   UNL A   1      41.274  27.714  29.492  1.00  0.00    -0.014 A 
BRANCH  35  36
ATOM     36  C   UNL A   1      41.039  28.665  30.609  1.00  0.00     0.031 A 
ATOM     37  C   UNL A   1      41.850  28.562  31.873  1.00  0.00     0.074 A 
ATOM     38  C   UNL A   1      40.056  29.582  30.508  1.00  0.00     0.049 A 
ATOM     39  N   UNL A   1      41.761  29.269  32.970  1.00  0.00    -0.248 NA
ATOM     40  C   UNL A   1      42.876  27.508  31.921  1.00  0.00     0.031 C 
ATOM     41  C   UNL A   1      39.164  29.742  29.357  1.00  0.00     0.029 A 
ATOM     42  N   UNL A   1      39.635  30.547  31.388  1.00  0.00    -0.354 N 
ATOM     43  C   UNL A   1      42.708  28.739  33.839  1.00  0.00     0.074 A 
ATOM     44  C   UNL A   1      43.318  27.615  33.165  1.00  0.00     0.031 C 
ATOM     45  C   UNL A   1      38.321  30.761  29.591  1.00  0.00     0.029 A 
ATOM     46  C   UNL A   1      38.583  31.302  30.921  1.00  0.00     0.049 A 
ATOM     47  H   UNL A   1      40.047  30.687  32.271  1.00  0.00     0.167 HD
ATOM     48  C   UNL A   1      43.053  29.167  35.077  1.00  0.00     0.037 A 
ATOM     49  C   UNL A   1      37.903  32.311  31.500  1.00  0.00     0.037 A 
ATOM     50  C   UNL A   1      42.455  30.302  35.731  1.00  0.00     0.049 A 
ATOM     51  C   UNL A   1      38.308  32.770  32.876  1.00  0.00     0.074 A 
ATOM     52  C   UNL A   1      42.779  30.856  36.957  1.00  0.00     0.029 A 
ATOM     53  N   UNL A   1      41.408  31.053  35.219  1.00  0.00    -0.354 N 
ATOM     54  N   UNL A   1      39.257  32.305  33.654  1.00  0.00    -0.248 NA
ATOM     55  C   UNL A   1      37.558  33.895  33.449  1.00  0.00     0.031 C 
ATOM     56  C   UNL A   1      41.892  31.905  37.210  1.00  0.00     0.029 A 
ATOM     57  C   UNL A   1      41.055  32.049  36.115  1.00  0.00     0.049 A 
ATOM     58  H   UNL A   1      40.978  30.900  34.346  1.00  0.00     0.167 HD
ATOM     59  C   UNL A   1      39.236  33.099  34.795  1.00  0.00     0.074 A 
ATOM     60  C   UNL A   1      38.189  34.082  34.599  1.00  0.00     0.031 C 
ATOM     61  C   UNL A   1      40.014  33.024  35.904  1.00  0.00     0.037 A 
BRANCH  48  62
ATOM     62  C   UNL A   1      44.131  28.407  35.804  1.00  0.00     0.058 A 
ATOM     63  C   UNL A   1      45.489  28.743  35.674  1.00  0.00     0.135 A 
ATOM     64  C   UNL A   1      43.799  27.356  36.673  1.00  0.00     0.135 A 
ATOM     65  F   UNL A   1      45.867  29.728  34.845  1.00  0.00    -0.206 F 
ATOM     66  C   UNL A   1      46.480  28.045  36.357  1.00  0.00     0.059 A 
ATOM     67  C   UNL A   1      44.771  26.665  37.391  1.00  0.00     0.059 A 
ATOM     68  F   UNL A   1      42.517  26.991  36.836  1.00  0.00    -0.206 F 
ATOM     69  C   UNL A   1      46.110  27.008  37.215  1.00  0.00     0.060 A 
BRANCH  69  70
ATOM     70  S   UNL A   1      47.410  26.122  38.101  1.00  0.00     0.124 S 
ATOM     71  O   UNL A   1      48.223  25.619  36.998  1.00  0.00    -0.237 OA
ATOM     72  O   UNL A   1      48.015  27.179  38.904  1.00  0.00    -0.237 OA
ATOM     73  O   UNL A   1      46.678  25.108  38.854  1.00  0.00    -0.744 OA
ENDBRANCH  69  70
ENDBRANCH  48  62
BRANCH  49  74
ATOM     74  C   UNL A   1      36.784  32.968  30.771  1.00  0.00     0.058 A 
ATOM     75  C   UNL A   1      35.455  32.563  30.967  1.00  0.00     0.135 A 
ATOM     76  C   UNL A   1      37.019  34.024  29.877  1.00  0.00     0.135 A 
ATOM     77  F   UNL A   1      35.179  31.553  31.806  1.00  0.00    -0.206 F 
ATOM     78  C   UNL A   1      34.400  33.169  30.291  1.00  0.00     0.059 A 
ATOM     79  C   UNL A   1      35.978  34.666  29.212  1.00  0.00     0.059 A 
ATOM     80  F   UNL A   1      38.270  34.463  29.668  1.00  0.00    -0.206 F 
ATOM     81  C   UNL A   1      34.673  34.224  29.419  1.00  0.00     0.060 A 
BRANCH  81  82
ATOM     82  S   UNL A   1      33.290  35.038  28.589  1.00  0.00     0.124 S 
ATOM     83  O   UNL A   1      33.984  35.919  27.657  1.00  0.00    -0.237 OA
ATOM     84  O   UNL A   1      32.583  33.909  27.996  1.00  0.00    -0.237 OA
ATOM     85  O   UNL A   1      32.588  35.704  29.683  1.00  0.00    -0.744 OA
ENDBRANCH  81  82
ENDBRANCH  49  74
BRANCH  61  86
ATOM     86  C   UNL A   1      39.792  34.054  36.979  1.00  0.00     0.058 A 
ATOM     87  C   UNL A   1      39.012  33.786  38.114  1.00  0.00     0.135 A 
ATOM     88  C   UNL A   1      40.412  35.312  36.893  1.00  0.00     0.135 A 
ATOM     89  F   UNL A   1      38.393  32.602  38.245  1.00  0.00    -0.206 F 
ATOM     90  C   UNL A   1      38.829  34.738  39.111  1.00  0.00     0.059 A 
ATOM     91  C   UNL A   1      40.270  36.267  37.893  1.00  0.00     0.059 A 
ATOM     92  F   UNL A   1      41.180  35.616  35.834  1.00  0.00    -0.206 F 
ATOM     93  C   UNL A   1      39.464  35.976  38.993  1.00  0.00     0.060 A 
BRANCH  93  94
ATOM     94  S   UNL A   1      39.242  37.192  40.307  1.00  0.00     0.124 S 
ATOM     95  O   UNL A   1      38.531  38.256  39.605  1.00  0.00    -0.237 OA
ATOM     96  O   UNL A   1      38.460  36.450  41.290  1.00  0.00    -0.237 OA
ATOM     97  O   UNL A   1      40.607  37.511  40.713  1.00  0.00    -0.744 OA
ENDBRANCH  93  94
ENDBRANCH  61  86
ENDBRANCH  35  36
ENDBRANCH  27  30
ENDBRANCH  25  26
ENDBRANCH  24  25
ENDBRANCH   1  24
TORSDOF 18
ENDMDL
MODEL 2
REMARK VINA RESULT:     -11.2      1.554      2.554
REMARK SMILES Cc1cc(CS(=O)(=O)N[C@@H]2C=C[C@H](C(=O)NCCCCNC(=O)c3ccc(-c4c5nc(c(-c6c(F)cc(S(=O)(=O)[O-])cc6F)c6ccc([nH]6)c(-c6c(F)cc(S(=O)(=O)[O-])cc6F)c6nc(c(-c7c(F)cc(S(=O)(=O)[O-])cc7F)c7ccc4[nH]7)C=C6)C=C5)cc3)C2)no1
REMARK SMILES IDX 18 1 17 2 16 3 14 4 15 5 13 7 10 8 11 9 90 10 12 11 9 12
REMARK SMILES IDX 6 14 7 15 8 16 5 17 4 18 1 19 2 20 3 21 92 22 91 23 19 24
REMARK SMILES IDX 20 25 21 26 22 27 23 29 24 30 25 31 89 32 26 33 88 34 27 35
REMARK SMILES IDX 28 36 29 37 82 38 30 39 87 40 81 41 83 42 31 43 86 44 80 45
REMARK SMILES IDX 79 46 32 48 66 49 45 50 65 51 46 52 49 53 64 54 84 55 47 56
REMARK SMILES IDX 48 57 63 59 85 60 50 61 33 62 34 63 43 64 35 65 36 66 42 67
REMARK SMILES IDX 44 68 37 69 38 70 39 71 40 72 41 73 67 74 68 75 77 76 69 77
REMARK SMILES IDX 70 78 76 79 78 80 71 81 72 82 73 83 74 84 75 85 51 86 52 87
REMARK SMILES IDX 61 88 53 89 54 90 60 91 62 92 55 93 56 94 57 95 58 96 59 97
REMARK H PARENT 16 6 9 13 21 28 83 47 49 58
REMARK Flexibility Score: inf
ROOT
ATOM      1  C   UNL A   1      37.804  22.283  25.625  1.00  0.00     0.023 C 
ENDROOT
BRANCH   1   2
ATOM      2  C   UNL A   1      37.055  21.818  24.376  1.00  0.00     0.116 C 
BRANCH   2   3
ATOM      3  N   UNL A   1      35.643  21.606  24.653  1.00  0.00    -0.356 N 
ATOM      4  C   UNL A   1      34.519  22.326  24.409  1.00  0.00     0.226 C 
ATOM      5  O   UNL A   1      33.466  21.866  24.869  1.00  0.00    -0.274 OA
ATOM      6  H   UNL A   1      35.465  20.757  25.117  1.00  0.00     0.163 HD
BRANCH   4   7
ATOM      7  C   UNL A   1      34.453  23.605  23.564  1.00  0.00     0.103 C 
ATOM      8  C   UNL A   1      33.053  25.543  24.218  1.00  0.00     0.093 C 
ATOM      9  C   UNL A   1      32.498  24.771  23.069  1.00  0.00    -0.011 C 
ATOM     10  C   UNL A   1      34.384  24.839  24.494  1.00  0.00     0.042 C 
ATOM     11  C   UNL A   1      33.298  23.789  22.652  1.00  0.00    -0.016 C 
BRANCH   8  12
ATOM     12  N   UNL A   1      32.094  25.444  25.319  1.00  0.00    -0.208 NA
ATOM     13  H   UNL A   1      31.478  24.658  25.114  1.00  0.00     0.141 HD
BRANCH  12  14
ATOM     14  S   UNL A   1      31.115  26.777  25.647  1.00  0.00     0.218 S 
ATOM     15  O   UNL A   1      30.956  26.871  27.079  1.00  0.00    -0.212 OA
ATOM     16  O   UNL A   1      29.948  26.578  24.807  1.00  0.00    -0.212 OA
BRANCH  14  17
ATOM     17  C   UNL A   1      32.002  28.211  24.983  1.00  0.00     0.213 C 
BRANCH  17  18
ATOM     18  C   UNL A   1      32.912  28.877  25.946  1.00  0.00     0.100 A 
ATOM     19  C   UNL A   1      34.440  31.603  27.842  1.00  0.00     0.091 C 
ATOM     20  C   UNL A   1      33.895  30.390  27.206  1.00  0.00     0.133 A 
ATOM     21  C   UNL A   1      32.655  30.028  26.735  1.00  0.00     0.073 A 
ATOM     22  O   UNL A   1      34.789  29.414  26.898  1.00  0.00    -0.361 OA
ATOM     23  N   UNL A   1      34.160  28.438  26.146  1.00  0.00    -0.084 NA
ENDBRANCH  17  18
ENDBRANCH  14  17
ENDBRANCH  12  14
ENDBRANCH   8  12
ENDBRANCH   4   7
ENDBRANCH   2   3
ENDBRANCH   1   2
BRANCH   1  24
ATOM     24  C   UNL A   1      37.601  23.764  25.951  1.00  0.00     0.023 C 
BRANCH  24  25
ATOM     25  C   UNL A   1      38.741  24.415  26.727  1.00  0.00     0.116 C 
BRANCH  25  26
ATOM     26  N   UNL A   1      39.943  24.605  25.929  1.00  0.00    -0.352 N 
ATOM     27  C   UNL A   1      40.973  25.493  26.136  1.00  0.00     0.251 C 
ATOM     28  H   UNL A   1      40.031  24.023  25.140  1.00  0.00     0.163 HD
ATOM     29  O   UNL A   1      41.858  25.620  25.297  1.00  0.00    -0.269 OA
BRANCH  27  30
ATOM     30  C   UNL A   1      40.972  26.316  27.364  1.00  0.00     0.039 A 
ATOM     31  C   UNL A   1      41.782  27.452  27.417  1.00  0.00     0.014 A 
ATOM     32  C   UNL A   1      40.131  25.993  28.431  1.00  0.00     0.014 A 
ATOM     33  C   UNL A   1      41.697  28.302  28.520  1.00  0.00     0.010 A 
ATOM     34  C   UNL A   1      39.989  26.884  29.490  1.00  0.00     0.010 A 
ATOM     35  C   UNL A   1      40.771  28.047  29.547  1.00  0.00    -0.014 A 
BRANCH  35  36
ATOM     36  C   UNL A   1      40.606  28.990  30.684  1.00  0.00     0.031 A 
ATOM     37  C   UNL A   1      41.457  28.843  31.916  1.00  0.00     0.074 A 
ATOM     38  C   UNL A   1      39.649  29.937  30.630  1.00  0.00     0.049 A 
ATOM     39  N   UNL A   1      41.430  29.537  33.025  1.00  0.00    -0.248 NA
ATOM     40  C   UNL A   1      42.451  27.758  31.914  1.00  0.00     0.031 C 
ATOM     41  C   UNL A   1      38.722  30.141  29.514  1.00  0.00     0.029 A 
ATOM     42  N   UNL A   1      39.290  30.903  31.537  1.00  0.00    -0.354 N 
ATOM     43  C   UNL A   1      42.389  28.966  33.853  1.00  0.00     0.074 A 
ATOM     44  C   UNL A   1      42.940  27.833  33.143  1.00  0.00     0.031 C 
ATOM     45  C   UNL A   1      37.921  31.182  29.791  1.00  0.00     0.029 A 
ATOM     46  C   UNL A   1      38.247  31.696  31.118  1.00  0.00     0.049 A 
ATOM     47  H   UNL A   1      39.737  31.017  32.407  1.00  0.00     0.167 HD
ATOM     48  C   UNL A   1      42.791  29.365  35.083  1.00  0.00     0.037 A 
ATOM     49  C   UNL A   1      37.619  32.717  31.734  1.00  0.00     0.037 A 
ATOM     50  C   UNL A   1      42.253  30.508  35.773  1.00  0.00     0.049 A 
ATOM     51  C   UNL A   1      38.087  33.144  33.100  1.00  0.00     0.074 A 
ATOM     52  C   UNL A   1      42.637  31.034  36.994  1.00  0.00     0.029 A 
ATOM     53  N   UNL A   1      41.212  31.299  35.308  1.00  0.00    -0.354 N 
ATOM     54  N   UNL A   1      39.048  32.639  33.838  1.00  0.00    -0.248 NA
ATOM     55  C   UNL A   1      37.393  34.284  33.714  1.00  0.00     0.031 C 
ATOM     56  C   UNL A   1      41.793  32.107  37.292  1.00  0.00     0.029 A 
ATOM     57  C   UNL A   1      40.923  32.292  36.229  1.00  0.00     0.049 A 
ATOM     58  H   UNL A   1      40.747  31.172  34.449  1.00  0.00     0.167 HD
ATOM     59  C   UNL A   1      39.092  33.417  34.989  1.00  0.00     0.074 A 
ATOM     60  C   UNL A   1      38.070  34.435  34.843  1.00  0.00     0.031 C 
ATOM     61  C   UNL A   1      39.906  33.302  36.069  1.00  0.00     0.037 A 
BRANCH  48  62
ATOM     62  C   UNL A   1      43.870  28.562  35.761  1.00  0.00     0.058 A 
ATOM     63  C   UNL A   1      45.233  28.841  35.567  1.00  0.00     0.135 A 
ATOM     64  C   UNL A   1      43.536  27.527  36.648  1.00  0.00     0.135 A 
ATOM     65  F   UNL A   1      45.612  29.809  34.717  1.00  0.00    -0.206 F 
ATOM     66  C   UNL A   1      46.226  28.103  36.204  1.00  0.00     0.059 A 
ATOM     67  C   UNL A   1      44.511  26.797  37.322  1.00  0.00     0.059 A 
ATOM     68  F   UNL A   1      42.249  27.216  36.872  1.00  0.00    -0.206 F 
ATOM     69  C   UNL A   1      45.854  27.084  37.082  1.00  0.00     0.060 A 
BRANCH  69  70
ATOM     70  S   UNL A   1      47.156  26.145  37.909  1.00  0.00     0.124 S 
ATOM     71  O   UNL A   1      46.681  24.775  37.737  1.00  0.00    -0.237 OA
ATOM     72  O   UNL A   1      48.338  26.507  37.135  1.00  0.00    -0.237 OA
ATOM     73  O   UNL A   1      47.125  26.652  39.277  1.00  0.00    -0.744 OA
ENDBRANCH  69  70
ENDBRANCH  48  62
BRANCH  49  74
ATOM     74  C   UNL A   1      36.496  33.419  31.055  1.00  0.00     0.058 A 
ATOM     75  C   UNL A   1      35.172  33.253  31.485  1.00  0.00     0.135 A 
ATOM     76  C   UNL A   1      36.727  34.282  29.972  1.00  0.00     0.135 A 
ATOM     77  F   UNL A   1      34.898  32.433  32.512  1.00  0.00    -0.206 F 
ATOM     78  C   UNL A   1      34.113  33.902  30.858  1.00  0.00     0.059 A 
ATOM     79  C   UNL A   1      35.688  34.966  29.347  1.00  0.00     0.059 A 
ATOM     80  F   UNL A   1      37.978  34.490  29.532  1.00  0.00    -0.206 F 
ATOM     81  C   UNL A   1      34.383  34.762  29.792  1.00  0.00     0.060 A 
BRANCH  81  82
ATOM     82  S   UNL A   1      33.007  35.642  29.021  1.00  0.00     0.124 S 
ATOM     83  O   UNL A   1      32.249  36.082  30.186  1.00  0.00    -0.237 OA
ATOM     84  O   UNL A   1      33.696  36.688  28.273  1.00  0.00    -0.237 OA
ATOM     85  O   UNL A   1      32.368  34.614  28.203  1.00  0.00    -0.744 OA
ENDBRANCH  81  82
ENDBRANCH  49  74
BRANCH  61  86
ATOM     86  C   UNL A   1      39.754  34.323  37.164  1.00  0.00     0.058 A 
ATOM     87  C   UNL A   1      38.946  34.092  38.288  1.00  0.00     0.135 A 
ATOM     88  C   UNL A   1      40.471  35.531  37.110  1.00  0.00     0.135 A 
ATOM     89  F   UNL A   1      38.236  32.957  38.388  1.00  0.00    -0.206 F 
ATOM     90  C   UNL A   1      38.828  35.034  39.304  1.00  0.00     0.059 A 
ATOM     91  C   UNL A   1      40.394  36.473  38.131  1.00  0.00     0.059 A 
ATOM     92  F   UNL A   1      41.269  35.797  36.064  1.00  0.00    -0.206 F 
ATOM     93  C   UNL A   1      39.559  36.221  39.217  1.00  0.00     0.060 A 
BRANCH  93  94
ATOM     94  S   UNL A   1      39.419  37.423  40.557  1.00  0.00     0.124 S 
ATOM     95  O   UNL A   1      40.753  38.014  40.561  1.00  0.00    -0.237 OA
ATOM     96  O   UNL A   1      38.343  38.290  40.087  1.00  0.00    -0.237 OA
ATOM     97  O   UNL A   1      39.092  36.603  41.719  1.00  0.00    -0.744 OA
ENDBRANCH  93  94
ENDBRANCH  61  86
ENDBRANCH  35  36
ENDBRANCH  27  30
ENDBRANCH  25  26
ENDBRANCH  24  25
ENDBRANCH   1  24
TORSDOF 18
ENDMDL
MODEL 3
REMARK VINA RESULT:     -11.1      6.463     11.776
REMARK SMILES Cc1cc(CS(=O)(=O)N[C@@H]2C=C[C@H](C(=O)NCCCCNC(=O)c3ccc(-c4c5nc(c(-c6c(F)cc(S(=O)(=O)[O-])cc6F)c6ccc([nH]6)c(-c6c(F)cc(S(=O)(=O)[O-])cc6F)c6nc(c(-c7c(F)cc(S(=O)(=O)[O-])cc7F)c7ccc4[nH]7)C=C6)C=C5)cc3)C2)no1
REMARK SMILES IDX 18 1 17 2 16 3 14 4 15 5 13 7 10 8 11 9 90 10 12 11 9 12
REMARK SMILES IDX 6 14 7 15 8 16 5 17 4 18 1 19 2 20 3 21 92 22 91 23 19 24
REMARK SMILES IDX 20 25 21 26 22 27 23 29 24 30 25 31 89 32 26 33 88 34 27 35
REMARK SMILES IDX 28 36 29 37 82 38 30 39 87 40 81 41 83 42 31 43 86 44 80 45
REMARK SMILES IDX 79 46 32 48 66 49 45 50 65 51 46 52 49 53 64 54 84 55 47 56
REMARK SMILES IDX 48 57 63 59 85 60 50 61 33 62 34 63 43 64 35 65 36 66 42 67
REMARK SMILES IDX 44 68 37 69 38 70 39 71 40 72 41 73 67 74 68 75 77 76 69 77
REMARK SMILES IDX 70 78 76 79 78 80 71 81 72 82 73 83 74 84 75 85 51 86 52 87
REMARK SMILES IDX 61 88 53 89 54 90 60 91 62 92 55 93 56 94 57 95 58 96 59 97
REMARK H PARENT 16 6 9 13 21 28 83 47 49 58
REMARK Flexibility Score: inf
ROOT
ATOM      1  C   UNL A   1      34.719  30.038  27.566  1.00  0.00     0.023 C 
ENDROOT
BRANCH   1   2
ATOM      2  C   UNL A   1      33.416  29.684  26.850  1.00  0.00     0.116 C 
BRANCH   2   3
ATOM      3  N   UNL A   1      33.571  29.739  25.406  1.00  0.00    -0.356 N 
ATOM      4  C   UNL A   1      32.897  29.187  24.365  1.00  0.00     0.226 C 
ATOM      5  O   UNL A   1      33.370  29.389  23.240  1.00  0.00    -0.274 OA
ATOM      6  H   UNL A   1      34.330  30.297  25.121  1.00  0.00     0.163 HD
BRANCH   4   7
ATOM      7  C   UNL A   1      31.581  28.405  24.479  1.00  0.00     0.103 C 
ATOM      8  C   UNL A   1      30.803  26.874  22.692  1.00  0.00     0.093 C 
ATOM      9  C   UNL A   1      30.035  28.150  22.754  1.00  0.00    -0.011 C 
ATOM     10  C   UNL A   1      31.763  26.992  23.879  1.00  0.00     0.042 C 
ATOM     11  C   UNL A   1      30.385  28.932  23.776  1.00  0.00    -0.016 C 
BRANCH   8  12
ATOM     12  N   UNL A   1      31.475  26.826  21.393  1.00  0.00    -0.208 NA
ATOM     13  H   UNL A   1      30.799  26.473  20.716  1.00  0.00     0.141 HD
BRANCH  12  14
ATOM     14  S   UNL A   1      32.867  25.887  21.248  1.00  0.00     0.218 S 
ATOM     15  O   UNL A   1      33.982  26.666  21.732  1.00  0.00    -0.212 OA
ATOM     16  O   UNL A   1      32.852  25.435  19.869  1.00  0.00    -0.212 OA
BRANCH  14  17
ATOM     17  C   UNL A   1      32.582  24.427  22.284  1.00  0.00     0.213 C 
BRANCH  17  18
ATOM     18  C   UNL A   1      33.788  23.913  22.977  1.00  0.00     0.100 A 
ATOM     19  C   UNL A   1      36.542  23.824  25.379  1.00  0.00     0.091 C 
ATOM     20  C   UNL A   1      35.459  23.677  24.389  1.00  0.00     0.133 A 
ATOM     21  C   UNL A   1      34.143  24.070  24.342  1.00  0.00     0.073 A 
ATOM     22  O   UNL A   1      35.802  23.129  23.194  1.00  0.00    -0.361 OA
ATOM     23  N   UNL A   1      34.736  23.234  22.319  1.00  0.00    -0.084 NA
ENDBRANCH  17  18
ENDBRANCH  14  17
ENDBRANCH  12  14
ENDBRANCH   8  12
ENDBRANCH   4   7
ENDBRANCH   2   3
ENDBRANCH   1   2
BRANCH   1  24
ATOM     24  C   UNL A   1      34.882  31.534  27.847  1.00  0.00     0.023 C 
BRANCH  24  25
ATOM     25  C   UNL A   1      35.907  31.879  28.923  1.00  0.00     0.116 C 
BRANCH  25  26
ATOM     26  N   UNL A   1      35.720  31.127  30.155  1.00  0.00    -0.352 N 
ATOM     27  C   UNL A   1      36.606  30.280  30.779  1.00  0.00     0.251 C 
ATOM     28  H   UNL A   1      34.849  31.239  30.598  1.00  0.00     0.163 HD
ATOM     29  O   UNL A   1      36.250  29.619  31.749  1.00  0.00    -0.269 OA
BRANCH  27  30
ATOM     30  C   UNL A   1      37.976  30.153  30.240  1.00  0.00     0.039 A 
ATOM     31  C   UNL A   1      39.056  30.190  31.123  1.00  0.00     0.014 A 
ATOM     32  C   UNL A   1      38.183  29.943  28.874  1.00  0.00     0.014 A 
ATOM     33  C   UNL A   1      40.344  29.948  30.641  1.00  0.00     0.010 A 
ATOM     34  C   UNL A   1      39.454  29.622  28.411  1.00  0.00     0.010 A 
ATOM     35  C   UNL A   1      40.548  29.623  29.289  1.00  0.00    -0.014 A 
BRANCH  35  36
ATOM     36  C   UNL A   1      41.900  29.276  28.779  1.00  0.00     0.031 A 
ATOM     37  C   UNL A   1      42.199  27.873  28.322  1.00  0.00     0.074 A 
ATOM     38  C   UNL A   1      42.874  30.208  28.785  1.00  0.00     0.049 A 
ATOM     39  N   UNL A   1      43.326  27.369  27.889  1.00  0.00    -0.248 NA
ATOM     40  C   UNL A   1      41.094  26.903  28.386  1.00  0.00     0.031 C 
ATOM     41  C   UNL A   1      42.723  31.586  29.258  1.00  0.00     0.029 A 
ATOM     42  N   UNL A   1      44.186  30.138  28.388  1.00  0.00    -0.354 N 
ATOM     43  C   UNL A   1      43.069  26.026  27.642  1.00  0.00     0.074 A 
ATOM     44  C   UNL A   1      41.697  25.779  28.029  1.00  0.00     0.031 C 
ATOM     45  C   UNL A   1      43.886  32.237  29.100  1.00  0.00     0.029 A 
ATOM     46  C   UNL A   1      44.878  31.316  28.552  1.00  0.00     0.049 A 
ATOM     47  H   UNL A   1      44.595  29.322  28.021  1.00  0.00     0.167 HD
ATOM     48  C   UNL A   1      43.895  25.089  27.118  1.00  0.00     0.037 A 
ATOM     49  C   UNL A   1      46.165  31.620  28.295  1.00  0.00     0.037 A 
ATOM     50  C   UNL A   1      45.252  25.349  26.715  1.00  0.00     0.049 A 
ATOM     51  C   UNL A   1      47.063  30.562  27.710  1.00  0.00     0.074 A 
ATOM     52  C   UNL A   1      46.150  24.485  26.113  1.00  0.00     0.029 A 
ATOM     53  N   UNL A   1      45.911  26.559  26.877  1.00  0.00    -0.354 N 
ATOM     54  N   UNL A   1      46.782  29.315  27.412  1.00  0.00    -0.248 NA
ATOM     55  C   UNL A   1      48.448  30.953  27.417  1.00  0.00     0.031 C 
ATOM     56  C   UNL A   1      47.368  25.155  25.963  1.00  0.00     0.029 A 
ATOM     57  C   UNL A   1      47.211  26.457  26.412  1.00  0.00     0.049 A 
ATOM     58  H   UNL A   1      45.512  27.370  27.266  1.00  0.00     0.167 HD
ATOM     59  C   UNL A   1      47.946  28.782  26.870  1.00  0.00     0.074 A 
ATOM     60  C   UNL A   1      48.930  29.846  26.869  1.00  0.00     0.031 C 
ATOM     61  C   UNL A   1      48.180  27.526  26.412  1.00  0.00     0.037 A 
BRANCH  48  62
ATOM     62  C   UNL A   1      43.351  23.695  26.945  1.00  0.00     0.058 A 
ATOM     63  C   UNL A   1      42.962  23.204  25.688  1.00  0.00     0.135 A 
ATOM     64  C   UNL A   1      43.256  22.826  28.043  1.00  0.00     0.135 A 
ATOM     65  F   UNL A   1      43.015  23.995  24.605  1.00  0.00    -0.206 F 
ATOM     66  C   UNL A   1      42.470  21.911  25.532  1.00  0.00     0.059 A 
ATOM     67  C   UNL A   1      42.799  21.519  27.905  1.00  0.00     0.059 A 
ATOM     68  F   UNL A   1      43.614  23.242  29.269  1.00  0.00    -0.206 F 
ATOM     69  C   UNL A   1      42.394  21.075  26.647  1.00  0.00     0.060 A 
BRANCH  69  70
ATOM     70  S   UNL A   1      41.765  19.398  26.423  1.00  0.00     0.124 S 
ATOM     71  O   UNL A   1      40.335  19.643  26.260  1.00  0.00    -0.237 OA
ATOM     72  O   UNL A   1      42.472  18.959  25.224  1.00  0.00    -0.237 OA
ATOM     73  O   UNL A   1      42.150  18.722  27.658  1.00  0.00    -0.744 OA
ENDBRANCH  69  70
ENDBRANCH  48  62
BRANCH  49  74
ATOM     74  C   UNL A   1      46.676  32.991  28.571  1.00  0.00     0.058 A 
ATOM     75  C   UNL A   1      47.290  33.303  29.792  1.00  0.00     0.135 A 
ATOM     76  C   UNL A   1      46.573  34.012  27.613  1.00  0.00     0.135 A 
ATOM     77  F   UNL A   1      47.407  32.364  30.744  1.00  0.00    -0.206 F 
ATOM     78  C   UNL A   1      47.771  34.581  30.063  1.00  0.00     0.059 A 
ATOM     79  C   UNL A   1      47.073  35.289  27.847  1.00  0.00     0.059 A 
ATOM     80  F   UNL A   1      46.010  33.761  26.420  1.00  0.00    -0.206 F 
ATOM     81  C   UNL A   1      47.661  35.566  29.080  1.00  0.00     0.060 A 
BRANCH  81  82
ATOM     82  S   UNL A   1      48.338  37.206  29.422  1.00  0.00     0.124 S 
ATOM     83  O   UNL A   1      49.594  36.875  30.083  1.00  0.00    -0.237 OA
ATOM     84  O   UNL A   1      48.451  37.773  28.082  1.00  0.00    -0.237 OA
ATOM     85  O   UNL A   1      47.319  37.819  30.270  1.00  0.00    -0.744 OA
ENDBRANCH  81  82
ENDBRANCH  49  74
BRANCH  61  86
ATOM     86  C   UNL A   1      49.540  27.240  25.836  1.00  0.00     0.058 A 
ATOM     87  C   UNL A   1      50.618  26.841  26.641  1.00  0.00     0.135 A 
ATOM     88  C   UNL A   1      49.751  27.316  24.449  1.00  0.00     0.135 A 
ATOM     89  F   UNL A   1      50.473  26.757  27.973  1.00  0.00    -0.206 F 
ATOM     90  C   UNL A   1      51.866  26.560  26.096  1.00  0.00     0.059 A 
ATOM     91  C   UNL A   1      50.982  27.007  23.879  1.00  0.00     0.059 A 
ATOM     92  F   UNL A   1      48.750  27.680  23.632  1.00  0.00    -0.206 F 
ATOM     93  C   UNL A   1      52.037  26.644  24.713  1.00  0.00     0.060 A 
BRANCH  93  94
ATOM     94  S   UNL A   1      53.655  26.248  24.015  1.00  0.00     0.124 S 
ATOM     95  O   UNL A   1      53.936  24.959  24.639  1.00  0.00    -0.237 OA
ATOM     96  O   UNL A   1      53.377  26.212  22.584  1.00  0.00    -0.237 OA
ATOM     97  O   UNL A   1      54.497  27.356  24.456  1.00  0.00    -0.744 OA
ENDBRANCH  93  94
ENDBRANCH  61  86
ENDBRANCH  35  36
ENDBRANCH  27  30
ENDBRANCH  25  26
ENDBRANCH  24  25
ENDBRANCH   1  24
TORSDOF 18
ENDMDL
