MODEL 1
REMARK VINA RESULT:     -12.0      0.000      0.000
REMARK SMILES O=C(NCCCCNC(=O)c1cc(-c2ccc(F)c(C(F)(F)F)c2)cnc1O)c1ccc(-c2c3nc(c(-c4c(F)cc(S(=O)(=O)[O-])cc4F)c4ccc([nH]4)c(-c4c(F)cc(S(=O)(=O)[O-])cc4F)c4nc(c(-c5c(F)cc(S(=O)(=O)[O-])cc5F)c5ccc2[nH]5)C=C4)C=C3)cc1
REMARK SMILES IDX 5 1 4 2 3 3 1 4 2 5 29 7 30 8 94 9 31 10 93 11 32 12 33 13
REMARK SMILES IDX 34 14 87 15 35 16 92 17 86 18 88 19 36 20 91 21 85 22 84 23
REMARK SMILES IDX 37 25 71 26 50 27 70 28 51 29 54 30 69 31 89 32 52 33 53 34
REMARK SMILES IDX 68 36 90 37 55 38 38 39 39 40 48 41 40 42 41 43 47 44 49 45
REMARK SMILES IDX 42 46 43 47 44 48 45 49 46 50 72 51 73 52 82 53 74 54 75 55
REMARK SMILES IDX 81 56 83 57 76 58 77 59 78 60 79 61 80 62 56 63 57 64 66 65
REMARK SMILES IDX 58 66 59 67 65 68 67 69 60 70 61 71 62 72 63 73 64 74 6 75
REMARK SMILES IDX 7 76 8 77 9 78 10 80 11 81 12 82 27 83 13 84 26 85 25 86
REMARK SMILES IDX 28 87 14 89 15 90 24 91 16 92 19 93 17 94 18 95 20 96 21 97
REMARK SMILES IDX 22 98 23 99
REMARK H PARENT 3 6 88 24 54 35 8 79 28 88
REMARK Flexibility Score: inf
ROOT
ATOM      1  C   UNL A   1      39.022  22.837  26.516  1.00  0.00     0.023 C 
ENDROOT
BRANCH   1   2
ATOM      2  C   UNL A   1      40.295  23.517  27.010  1.00  0.00     0.116 C 
BRANCH   2   3
ATOM      3  N   UNL A   1      40.883  24.387  26.008  1.00  0.00    -0.352 N 
ATOM      4  O   UNL A   1      41.498  26.317  25.042  1.00  0.00    -0.269 OA
ATOM      5  C   UNL A   1      41.173  25.727  26.069  1.00  0.00     0.251 C 
ATOM      6  H   UNL A   1      41.108  23.949  25.155  1.00  0.00     0.163 HD
BRANCH   5   7
ATOM      7  C   UNL A   1      41.094  26.463  27.351  1.00  0.00     0.039 A 
ATOM      8  C   UNL A   1      39.994  26.240  28.186  1.00  0.00     0.014 A 
ATOM      9  C   UNL A   1      42.051  27.421  27.700  1.00  0.00     0.014 A 
ATOM     10  C   UNL A   1      39.862  26.963  29.375  1.00  0.00     0.010 A 
ATOM     11  C   UNL A   1      41.954  28.093  28.915  1.00  0.00     0.010 A 
ATOM     12  C   UNL A   1      40.842  27.893  29.749  1.00  0.00    -0.014 A 
BRANCH  12  13
ATOM     13  C   UNL A   1      40.677  28.757  30.945  1.00  0.00     0.031 A 
ATOM     14  C   UNL A   1      39.640  29.846  30.924  1.00  0.00     0.074 A 
ATOM     15  C   UNL A   1      41.461  28.592  32.025  1.00  0.00     0.049 A 
ATOM     16  N   UNL A   1      39.413  30.795  31.794  1.00  0.00    -0.248 NA
ATOM     17  C   UNL A   1      38.753  29.881  29.750  1.00  0.00     0.031 C 
ATOM     18  C   UNL A   1      42.485  27.559  32.181  1.00  0.00     0.029 A 
ATOM     19  N   UNL A   1      41.515  29.297  33.201  1.00  0.00    -0.354 N 
ATOM     20  C   UNL A   1      38.369  31.547  31.269  1.00  0.00     0.074 A 
ATOM     21  C   UNL A   1      38.047  30.977  29.978  1.00  0.00     0.031 C 
ATOM     22  C   UNL A   1      43.047  27.680  33.395  1.00  0.00     0.029 A 
ATOM     23  C   UNL A   1      42.456  28.826  34.083  1.00  0.00     0.049 A 
ATOM     24  H   UNL A   1      40.935  30.069  33.393  1.00  0.00     0.167 HD
ATOM     25  C   UNL A   1      37.718  32.600  31.819  1.00  0.00     0.037 A 
ATOM     26  C   UNL A   1      42.806  29.274  35.304  1.00  0.00     0.037 A 
ATOM     27  C   UNL A   1      38.033  33.158  33.108  1.00  0.00     0.049 A 
ATOM     28  C   UNL A   1      42.118  30.484  35.872  1.00  0.00     0.074 A 
ATOM     29  C   UNL A   1      37.442  34.229  33.754  1.00  0.00     0.029 A 
ATOM     30  N   UNL A   1      39.025  32.680  33.953  1.00  0.00    -0.354 N 
ATOM     31  N   UNL A   1      41.158  31.210  35.348  1.00  0.00    -0.248 NA
ATOM     32  C   UNL A   1      42.568  30.942  37.192  1.00  0.00     0.031 C 
ATOM     33  C   UNL A   1      38.099  34.419  34.977  1.00  0.00     0.029 A 
ATOM     34  C   UNL A   1      39.071  33.440  35.111  1.00  0.00     0.049 A 
ATOM     35  H   UNL A   1      39.611  31.913  33.758  1.00  0.00     0.167 HD
ATOM     36  C   UNL A   1      40.878  32.203  36.282  1.00  0.00     0.074 A 
ATOM     37  C   UNL A   1      41.763  31.974  37.407  1.00  0.00     0.031 C 
ATOM     38  C   UNL A   1      39.973  33.211  36.213  1.00  0.00     0.037 A 
BRANCH  25  39
ATOM     39  C   UNL A   1      36.609  33.210  31.007  1.00  0.00     0.058 A 
ATOM     40  C   UNL A   1      36.877  34.058  29.919  1.00  0.00     0.135 A 
ATOM     41  C   UNL A   1      35.264  32.979  31.339  1.00  0.00     0.135 A 
ATOM     42  F   UNL A   1      38.145  34.329  29.570  1.00  0.00    -0.206 F 
ATOM     43  C   UNL A   1      35.855  34.699  29.226  1.00  0.00     0.059 A 
ATOM     44  C   UNL A   1      34.224  33.587  30.640  1.00  0.00     0.059 A 
ATOM     45  F   UNL A   1      34.950  32.177  32.369  1.00  0.00    -0.206 F 
ATOM     46  C   UNL A   1      34.532  34.466  29.602  1.00  0.00     0.060 A 
BRANCH  46  47
ATOM     47  S   UNL A   1      33.219  35.345  28.730  1.00  0.00     0.124 S 
ATOM     48  O   UNL A   1      32.572  34.255  28.006  1.00  0.00    -0.237 OA
ATOM     49  O   UNL A   1      32.447  35.922  29.826  1.00  0.00    -0.237 OA
ATOM     50  O   UNL A   1      33.944  36.306  27.904  1.00  0.00    -0.744 OA
ENDBRANCH  46  47
ENDBRANCH  25  39
BRANCH  26  51
ATOM     51  C   UNL A   1      43.837  28.541  36.082  1.00  0.00     0.058 A 
ATOM     52  C   UNL A   1      43.479  27.444  36.877  1.00  0.00     0.135 A 
ATOM     53  C   UNL A   1      45.198  28.876  36.001  1.00  0.00     0.135 A 
ATOM     54  F   UNL A   1      42.190  27.096  36.997  1.00  0.00    -0.206 F 
ATOM     55  C   UNL A   1      44.434  26.692  37.553  1.00  0.00     0.059 A 
ATOM     56  C   UNL A   1      46.173  28.128  36.651  1.00  0.00     0.059 A 
ATOM     57  F   UNL A   1      45.590  29.915  35.245  1.00  0.00    -0.206 F 
ATOM     58  C   UNL A   1      45.781  27.034  37.422  1.00  0.00     0.060 A 
BRANCH  58  59
ATOM     59  S   UNL A   1      47.017  25.983  38.217  1.00  0.00     0.124 S 
ATOM     60  O   UNL A   1      46.477  25.860  39.566  1.00  0.00    -0.237 OA
ATOM     61  O   UNL A   1      46.963  24.777  37.395  1.00  0.00    -0.237 OA
ATOM     62  O   UNL A   1      48.246  26.759  38.096  1.00  0.00    -0.744 OA
ENDBRANCH  58  59
ENDBRANCH  26  51
BRANCH  38  63
ATOM     63  C   UNL A   1      39.895  34.139  37.393  1.00  0.00     0.058 A 
ATOM     64  C   UNL A   1      40.639  35.328  37.444  1.00  0.00     0.135 A 
ATOM     65  C   UNL A   1      39.049  33.849  38.476  1.00  0.00     0.135 A 
ATOM     66  F   UNL A   1      41.466  35.651  36.436  1.00  0.00    -0.206 F 
ATOM     67  C   UNL A   1      40.574  36.180  38.541  1.00  0.00     0.059 A 
ATOM     68  C   UNL A   1      38.949  34.699  39.574  1.00  0.00     0.059 A 
ATOM     69  F   UNL A   1      38.306  32.730  38.473  1.00  0.00    -0.206 F 
ATOM     70  C   UNL A   1      39.730  35.854  39.604  1.00  0.00     0.060 A 
BRANCH  70  71
ATOM     71  S   UNL A   1      39.654  36.969  41.022  1.00  0.00     0.124 S 
ATOM     72  O   UNL A   1      41.069  37.200  41.290  1.00  0.00    -0.237 OA
ATOM     73  O   UNL A   1      38.917  38.109  40.486  1.00  0.00    -0.237 OA
ATOM     74  O   UNL A   1      38.942  36.189  42.030  1.00  0.00    -0.744 OA
ENDBRANCH  70  71
ENDBRANCH  38  63
ENDBRANCH  12  13
ENDBRANCH   5   7
ENDBRANCH   2   3
ENDBRANCH   1   2
BRANCH   1  75
ATOM     75  C   UNL A   1      37.882  23.779  26.123  1.00  0.00     0.023 C 
BRANCH  75  76
ATOM     76  C   UNL A   1      37.067  23.344  24.908  1.00  0.00     0.116 C 
BRANCH  76  77
ATOM     77  N   UNL A   1      35.868  22.605  25.284  1.00  0.00    -0.352 N 
ATOM     78  C   UNL A   1      34.562  23.018  25.262  1.00  0.00     0.256 C 
ATOM     79  H   UNL A   1      36.017  21.683  25.595  1.00  0.00     0.163 HD
ATOM     80  O   UNL A   1      33.679  22.345  25.784  1.00  0.00    -0.269 OA
BRANCH  78  81
ATOM     81  C   UNL A   1      34.208  24.276  24.598  1.00  0.00     0.102 A 
ATOM     82  C   UNL A   1      33.964  25.403  25.387  1.00  0.00     0.029 A 
ATOM     83  C   UNL A   1      34.083  24.382  23.219  1.00  0.00     0.223 A 
ATOM     84  C   UNL A   1      33.650  26.622  24.778  1.00  0.00     0.001 A 
ATOM     85  N   UNL A   1      33.804  25.541  22.595  1.00  0.00    -0.221 NA
ATOM     86  C   UNL A   1      33.602  26.625  23.382  1.00  0.00     0.124 A 
BRANCH  83  87
ATOM     87  O   UNL A   1      34.242  23.329  22.365  1.00  0.00    -0.493 OA
ATOM     88  H   UNL A   1      34.873  22.664  22.555  1.00  0.00     0.295 HD
ENDBRANCH  83  87
BRANCH  84  89
ATOM     89  C   UNL A   1      33.381  27.835  25.558  1.00  0.00    -0.016 A 
ATOM     90  C   UNL A   1      32.075  28.341  25.663  1.00  0.00     0.012 A 
ATOM     91  C   UNL A   1      34.418  28.529  26.209  1.00  0.00     0.025 A 
ATOM     92  C   UNL A   1      31.814  29.505  26.386  1.00  0.00     0.040 A 
ATOM     93  C   UNL A   1      34.165  29.705  26.938  1.00  0.00     0.092 A 
ATOM     94  C   UNL A   1      32.858  30.177  27.011  1.00  0.00     0.135 A 
ATOM     95  F   UNL A   1      32.588  31.300  27.688  1.00  0.00    -0.206 F 
BRANCH  93  96
ATOM     96  C   UNL A   1      35.258  30.475  27.613  1.00  0.00     0.419 C 
ATOM     97  F   UNL A   1      35.232  30.344  28.968  1.00  0.00    -0.166 F 
ATOM     98  F   UNL A   1      36.504  30.096  27.216  1.00  0.00    -0.166 F 
ATOM     99  F   UNL A   1      35.192  31.816  27.374  1.00  0.00    -0.166 F 
ENDBRANCH  93  96
ENDBRANCH  84  89
ENDBRANCH  78  81
ENDBRANCH  76  77
ENDBRANCH  75  76
ENDBRANCH   1  75
TORSDOF 17
ENDMDL
MODEL 2
REMARK VINA RESULT:     -11.7      1.108      8.156
REMARK SMILES O=C(NCCCCNC(=O)c1cc(-c2ccc(F)c(C(F)(F)F)c2)cnc1O)c1ccc(-c2c3nc(c(-c4c(F)cc(S(=O)(=O)[O-])cc4F)c4ccc([nH]4)c(-c4c(F)cc(S(=O)(=O)[O-])cc4F)c4nc(c(-c5c(F)cc(S(=O)(=O)[O-])cc5F)c5ccc2[nH]5)C=C4)C=C3)cc1
REMARK SMILES IDX 5 1 4 2 3 3 1 4 2 5 29 7 30 8 94 9 31 10 93 11 32 12 33 13
REMARK SMILES IDX 34 14 87 15 35 16 92 17 86 18 88 19 36 20 91 21 85 22 84 23
REMARK SMILES IDX 37 25 71 26 50 27 70 28 51 29 54 30 69 31 89 32 52 33 53 34
REMARK SMILES IDX 68 36 90 37 55 38 38 39 39 40 48 41 40 42 41 43 47 44 49 45
REMARK SMILES IDX 42 46 43 47 44 48 45 49 46 50 72 51 73 52 82 53 74 54 75 55
REMARK SMILES IDX 81 56 83 57 76 58 77 59 78 60 79 61 80 62 56 63 57 64 66 65
REMARK SMILES IDX 58 66 59 67 65 68 67 69 60 70 61 71 62 72 63 73 64 74 6 75
REMARK SMILES IDX 7 76 8 77 9 78 10 80 11 81 12 82 27 83 13 84 26 85 25 86
REMARK SMILES IDX 28 87 14 89 15 90 24 91 16 92 19 93 17 94 18 95 20 96 21 97
REMARK SMILES IDX 22 98 23 99
REMARK H PARENT 3 6 88 24 54 35 8 79 28 88
REMARK Flexibility Score: inf
ROOT
ATOM      1  C   UNL A   1      37.199  23.366  25.126  1.00  0.00     0.023 C 
ENDROOT
BRANCH   1   2
ATOM      2  C   UNL A   1      38.037  23.951  26.258  1.00  0.00     0.116 C 
BRANCH   2   3
ATOM      3  N   UNL A   1      39.444  23.611  26.139  1.00  0.00    -0.352 N 
ATOM      4  O   UNL A   1      41.665  23.916  26.229  1.00  0.00    -0.269 OA
ATOM      5  C   UNL A   1      40.551  24.278  26.598  1.00  0.00     0.251 C 
ATOM      6  H   UNL A   1      39.631  22.775  25.653  1.00  0.00     0.163 HD
BRANCH   5   7
ATOM      7  C   UNL A   1      40.416  25.425  27.526  1.00  0.00     0.039 A 
ATOM      8  C   UNL A   1      41.242  26.538  27.341  1.00  0.00     0.014 A 
ATOM      9  C   UNL A   1      39.538  25.380  28.614  1.00  0.00     0.014 A 
ATOM     10  C   UNL A   1      41.179  27.611  28.234  1.00  0.00     0.010 A 
ATOM     11  C   UNL A   1      39.429  26.476  29.465  1.00  0.00     0.010 A 
ATOM     12  C   UNL A   1      40.270  27.588  29.302  1.00  0.00    -0.014 A 
BRANCH  12  13
ATOM     13  C   UNL A   1      40.256  28.657  30.332  1.00  0.00     0.031 A 
ATOM     14  C   UNL A   1      41.264  28.613  31.447  1.00  0.00     0.074 A 
ATOM     15  C   UNL A   1      39.337  29.638  30.292  1.00  0.00     0.049 A 
ATOM     16  N   UNL A   1      41.353  29.358  32.518  1.00  0.00    -0.248 NA
ATOM     17  C   UNL A   1      42.300  27.572  31.350  1.00  0.00     0.031 C 
ATOM     18  C   UNL A   1      38.321  29.807  29.252  1.00  0.00     0.029 A 
ATOM     19  N   UNL A   1      39.111  30.681  31.153  1.00  0.00    -0.354 N 
ATOM     20  C   UNL A   1      42.444  28.870  33.228  1.00  0.00     0.074 A 
ATOM     21  C   UNL A   1      42.948  27.729  32.494  1.00  0.00     0.031 C 
ATOM     22  C   UNL A   1      37.599  30.907  29.522  1.00  0.00     0.029 A 
ATOM     23  C   UNL A   1      38.068  31.492  30.776  1.00  0.00     0.049 A 
ATOM     24  H   UNL A   1      39.645  30.833  31.967  1.00  0.00     0.167 HD
ATOM     25  C   UNL A   1      42.994  29.342  34.373  1.00  0.00     0.037 A 
ATOM     26  C   UNL A   1      37.549  32.579  31.378  1.00  0.00     0.037 A 
ATOM     27  C   UNL A   1      42.497  30.483  35.095  1.00  0.00     0.049 A 
ATOM     28  C   UNL A   1      38.130  33.050  32.682  1.00  0.00     0.074 A 
ATOM     29  C   UNL A   1      42.974  31.038  36.269  1.00  0.00     0.029 A 
ATOM     30  N   UNL A   1      41.409  31.252  34.703  1.00  0.00    -0.354 N 
ATOM     31  N   UNL A   1      39.138  32.556  33.363  1.00  0.00    -0.248 NA
ATOM     32  C   UNL A   1      37.497  34.219  33.305  1.00  0.00     0.031 C 
ATOM     33  C   UNL A   1      42.155  32.124  36.604  1.00  0.00     0.029 A 
ATOM     34  C   UNL A   1      41.193  32.271  35.617  1.00  0.00     0.049 A 
ATOM     35  H   UNL A   1      40.871  31.096  33.894  1.00  0.00     0.167 HD
ATOM     36  C   UNL A   1      39.269  33.363  34.488  1.00  0.00     0.074 A 
ATOM     37  C   UNL A   1      38.246  34.385  34.387  1.00  0.00     0.031 C 
ATOM     38  C   UNL A   1      40.155  33.267  35.511  1.00  0.00     0.037 A 
BRANCH  25  39
ATOM     39  C   UNL A   1      44.190  28.601  34.904  1.00  0.00     0.058 A 
ATOM     40  C   UNL A   1      45.494  28.917  34.486  1.00  0.00     0.135 A 
ATOM     41  C   UNL A   1      44.034  27.538  35.808  1.00  0.00     0.135 A 
ATOM     42  F   UNL A   1      45.700  29.911  33.607  1.00  0.00    -0.206 F 
ATOM     43  C   UNL A   1      46.593  28.172  34.901  1.00  0.00     0.059 A 
ATOM     44  C   UNL A   1      45.123  26.797  36.260  1.00  0.00     0.059 A 
ATOM     45  F   UNL A   1      42.811  27.192  36.241  1.00  0.00    -0.206 F 
ATOM     46  C   UNL A   1      46.395  27.106  35.780  1.00  0.00     0.060 A 
BRANCH  46  47
ATOM     47  S   UNL A   1      47.822  26.114  36.268  1.00  0.00     0.124 S 
ATOM     48  O   UNL A   1      48.809  26.516  35.272  1.00  0.00    -0.237 OA
ATOM     49  O   UNL A   1      48.072  26.576  37.630  1.00  0.00    -0.237 OA
ATOM     50  O   UNL A   1      47.337  24.742  36.155  1.00  0.00    -0.744 OA
ENDBRANCH  46  47
ENDBRANCH  25  39
BRANCH  26  51
ATOM     51  C   UNL A   1      36.437  33.314  30.723  1.00  0.00     0.058 A 
ATOM     52  C   UNL A   1      35.129  33.209  31.217  1.00  0.00     0.135 A 
ATOM     53  C   UNL A   1      36.662  34.178  29.640  1.00  0.00     0.135 A 
ATOM     54  F   UNL A   1      34.864  32.385  32.241  1.00  0.00    -0.206 F 
ATOM     55  C   UNL A   1      34.084  33.947  30.672  1.00  0.00     0.059 A 
ATOM     56  C   UNL A   1      35.637  34.941  29.091  1.00  0.00     0.059 A 
ATOM     57  F   UNL A   1      37.899  34.317  29.137  1.00  0.00    -0.206 F 
ATOM     58  C   UNL A   1      34.351  34.821  29.617  1.00  0.00     0.060 A 
BRANCH  58  59
ATOM     59  S   UNL A   1      33.005  35.852  28.993  1.00  0.00     0.124 S 
ATOM     60  O   UNL A   1      33.737  36.932  28.343  1.00  0.00    -0.237 OA
ATOM     61  O   UNL A   1      32.304  34.929  28.105  1.00  0.00    -0.237 OA
ATOM     62  O   UNL A   1      32.275  36.220  30.202  1.00  0.00    -0.744 OA
ENDBRANCH  58  59
ENDBRANCH  26  51
BRANCH  38  63
ATOM     63  C   UNL A   1      40.056  34.300  36.600  1.00  0.00     0.058 A 
ATOM     64  C   UNL A   1      40.698  35.544  36.492  1.00  0.00     0.135 A 
ATOM     65  C   UNL A   1      39.293  34.054  37.752  1.00  0.00     0.135 A 
ATOM     66  F   UNL A   1      41.443  35.828  35.412  1.00  0.00    -0.206 F 
ATOM     67  C   UNL A   1      40.615  36.494  37.505  1.00  0.00     0.059 A 
ATOM     68  C   UNL A   1      39.176  34.999  38.767  1.00  0.00     0.059 A 
ATOM     69  F   UNL A   1      38.649  32.885  37.899  1.00  0.00    -0.206 F 
ATOM     70  C   UNL A   1      39.855  36.211  38.641  1.00  0.00     0.060 A 
BRANCH  70  71
ATOM     71  S   UNL A   1      39.754  37.452  39.947  1.00  0.00     0.124 S 
ATOM     72  O   UNL A   1      40.927  38.272  39.664  1.00  0.00    -0.237 OA
ATOM     73  O   UNL A   1      38.464  38.081  39.683  1.00  0.00    -0.237 OA
ATOM     74  O   UNL A   1      39.820  36.663  41.173  1.00  0.00    -0.744 OA
ENDBRANCH  70  71
ENDBRANCH  38  63
ENDBRANCH  12  13
ENDBRANCH   5   7
ENDBRANCH   2   3
ENDBRANCH   1   2
BRANCH   1  75
ATOM     75  C   UNL A   1      35.956  22.586  25.562  1.00  0.00     0.023 C 
BRANCH  75  76
ATOM     76  C   UNL A   1      34.639  23.350  25.462  1.00  0.00     0.116 C 
BRANCH  76  77
ATOM     77  N   UNL A   1      33.642  22.630  24.679  1.00  0.00    -0.352 N 
ATOM     78  C   UNL A   1      32.772  23.117  23.739  1.00  0.00     0.256 C 
ATOM     79  H   UNL A   1      33.587  21.662  24.847  1.00  0.00     0.163 HD
ATOM     80  O   UNL A   1      31.864  22.419  23.298  1.00  0.00    -0.269 OA
BRANCH  78  81
ATOM     81  C   UNL A   1      32.929  24.488  23.244  1.00  0.00     0.102 A 
ATOM     82  C   UNL A   1      32.805  25.545  24.149  1.00  0.00     0.029 A 
ATOM     83  C   UNL A   1      33.171  24.774  21.906  1.00  0.00     0.223 A 
ATOM     84  C   UNL A   1      32.977  26.861  23.708  1.00  0.00     0.001 A 
ATOM     85  N   UNL A   1      33.363  26.024  21.448  1.00  0.00    -0.221 NA
ATOM     86  C   UNL A   1      33.267  27.029  22.352  1.00  0.00     0.124 A 
BRANCH  83  87
ATOM     87  O   UNL A   1      33.250  23.820  20.934  1.00  0.00    -0.493 OA
ATOM     88  H   UNL A   1      33.001  24.025  20.055  1.00  0.00     0.295 HD
ENDBRANCH  83  87
BRANCH  84  89
ATOM     89  C   UNL A   1      32.855  28.008  24.614  1.00  0.00    -0.016 A 
ATOM     90  C   UNL A   1      31.693  28.797  24.614  1.00  0.00     0.012 A 
ATOM     91  C   UNL A   1      33.895  28.355  25.496  1.00  0.00     0.025 A 
ATOM     92  C   UNL A   1      31.577  29.901  25.459  1.00  0.00     0.040 A 
ATOM     93  C   UNL A   1      33.789  29.468  26.349  1.00  0.00     0.092 A 
ATOM     94  C   UNL A   1      32.624  30.229  26.312  1.00  0.00     0.135 A 
ATOM     95  F   UNL A   1      32.499  31.301  27.105  1.00  0.00    -0.206 F 
BRANCH  93  96
ATOM     96  C   UNL A   1      34.896  29.872  27.273  1.00  0.00     0.419 C 
ATOM     97  F   UNL A   1      34.749  29.357  28.525  1.00  0.00    -0.166 F 
ATOM     98  F   UNL A   1      36.126  29.479  26.840  1.00  0.00    -0.166 F 
ATOM     99  F   UNL A   1      34.983  31.223  27.442  1.00  0.00    -0.166 F 
ENDBRANCH  93  96
ENDBRANCH  84  89
ENDBRANCH  78  81
ENDBRANCH  76  77
ENDBRANCH  75  76
ENDBRANCH   1  75
TORSDOF 17
ENDMDL
MODEL 3
REMARK VINA RESULT:     -11.7      6.847     11.555
REMARK SMILES O=C(NCCCCNC(=O)c1cc(-c2ccc(F)c(C(F)(F)F)c2)cnc1O)c1ccc(-c2c3nc(c(-c4c(F)cc(S(=O)(=O)[O-])cc4F)c4ccc([nH]4)c(-c4c(F)cc(S(=O)(=O)[O-])cc4F)c4nc(c(-c5c(F)cc(S(=O)(=O)[O-])cc5F)c5ccc2[nH]5)C=C4)C=C3)cc1
REMARK SMILES IDX 5 1 4 2 3 3 1 4 2 5 29 7 30 8 94 9 31 10 93 11 32 12 33 13
REMARK SMILES IDX 34 14 87 15 35 16 92 17 86 18 88 19 36 20 91 21 85 22 84 23
REMARK SMILES IDX 37 25 71 26 50 27 70 28 51 29 54 30 69 31 89 32 52 33 53 34
REMARK SMILES IDX 68 36 90 37 55 38 38 39 39 40 48 41 40 42 41 43 47 44 49 45
REMARK SMILES IDX 42 46 43 47 44 48 45 49 46 50 72 51 73 52 82 53 74 54 75 55
REMARK SMILES IDX 81 56 83 57 76 58 77 59 78 60 79 61 80 62 56 63 57 64 66 65
REMARK SMILES IDX 58 66 59 67 65 68 67 69 60 70 61 71 62 72 63 73 64 74 6 75
REMARK SMILES IDX 7 76 8 77 9 78 10 80 11 81 12 82 27 83 13 84 26 85 25 86
REMARK SMILES IDX 28 87 14 89 15 90 24 91 16 92 19 93 17 94 18 95 20 96 21 97
REMARK SMILES IDX 22 98 23 99
REMARK H PARENT 3 6 88 24 54 35 8 79 28 88
REMARK Flexibility Score: inf
ROOT
ATOM      1  C   UNL A   1      33.343  29.775  27.090  1.00  0.00     0.023 C 
ENDROOT
BRANCH   1   2
ATOM      2  C   UNL A   1      34.782  29.960  27.559  1.00  0.00     0.116 C 
BRANCH   2   3
ATOM      3  N   UNL A   1      34.876  30.786  28.749  1.00  0.00    -0.352 N 
ATOM      4  O   UNL A   1      35.703  31.527  30.700  1.00  0.00    -0.269 OA
ATOM      5  C   UNL A   1      35.898  30.909  29.656  1.00  0.00     0.251 C 
ATOM      6  H   UNL A   1      34.084  31.343  28.934  1.00  0.00     0.163 HD
BRANCH   5   7
ATOM      7  C   UNL A   1      37.224  30.305  29.391  1.00  0.00     0.039 A 
ATOM      8  C   UNL A   1      37.967  29.819  30.471  1.00  0.00     0.014 A 
ATOM      9  C   UNL A   1      37.769  30.283  28.103  1.00  0.00     0.014 A 
ATOM     10  C   UNL A   1      39.246  29.296  30.260  1.00  0.00     0.010 A 
ATOM     11  C   UNL A   1      39.016  29.703  27.884  1.00  0.00     0.010 A 
ATOM     12  C   UNL A   1      39.779  29.233  28.965  1.00  0.00    -0.014 A 
BRANCH  12  13
ATOM     13  C   UNL A   1      41.174  28.790  28.719  1.00  0.00     0.031 A 
ATOM     14  C   UNL A   1      42.295  29.782  28.870  1.00  0.00     0.074 A 
ATOM     15  C   UNL A   1      41.438  27.528  28.338  1.00  0.00     0.049 A 
ATOM     16  N   UNL A   1      43.563  29.654  28.581  1.00  0.00    -0.248 NA
ATOM     17  C   UNL A   1      41.928  31.106  29.399  1.00  0.00     0.031 C 
ATOM     18  C   UNL A   1      40.445  26.465  28.180  1.00  0.00     0.029 A 
ATOM     19  N   UNL A   1      42.627  26.926  28.014  1.00  0.00    -0.354 N 
ATOM     20  C   UNL A   1      44.144  30.881  28.880  1.00  0.00     0.074 A 
ATOM     21  C   UNL A   1      43.078  31.757  29.317  1.00  0.00     0.031 C 
ATOM     22  C   UNL A   1      41.071  25.333  27.817  1.00  0.00     0.029 A 
ATOM     23  C   UNL A   1      42.500  25.603  27.670  1.00  0.00     0.049 A 
ATOM     24  H   UNL A   1      43.491  27.400  28.026  1.00  0.00     0.167 HD
ATOM     25  C   UNL A   1      45.449  31.242  28.821  1.00  0.00     0.037 A 
ATOM     26  C   UNL A   1      43.430  24.712  27.276  1.00  0.00     0.037 A 
ATOM     27  C   UNL A   1      46.508  30.366  28.396  1.00  0.00     0.049 A 
ATOM     28  C   UNL A   1      44.864  25.148  27.153  1.00  0.00     0.074 A 
ATOM     29  C   UNL A   1      47.862  30.634  28.290  1.00  0.00     0.029 A 
ATOM     30  N   UNL A   1      46.332  29.044  28.011  1.00  0.00    -0.354 N 
ATOM     31  N   UNL A   1      45.394  26.322  27.402  1.00  0.00    -0.248 NA
ATOM     32  C   UNL A   1      45.824  24.139  26.686  1.00  0.00     0.031 C 
ATOM     33  C   UNL A   1      48.499  29.482  27.812  1.00  0.00     0.029 A 
ATOM     34  C   UNL A   1      47.550  28.484  27.658  1.00  0.00     0.049 A 
ATOM     35  H   UNL A   1      45.469  28.572  27.992  1.00  0.00     0.167 HD
ATOM     36  C   UNL A   1      46.753  26.191  27.135  1.00  0.00     0.074 A 
ATOM     37  C   UNL A   1      46.963  24.817  26.720  1.00  0.00     0.031 C 
ATOM     38  C   UNL A   1      47.737  27.121  27.226  1.00  0.00     0.037 A 
BRANCH  25  39
ATOM     39  C   UNL A   1      45.779  32.654  29.221  1.00  0.00     0.058 A 
ATOM     40  C   UNL A   1      45.798  33.698  28.280  1.00  0.00     0.135 A 
ATOM     41  C   UNL A   1      46.120  32.963  30.547  1.00  0.00     0.135 A 
ATOM     42  F   UNL A   1      45.500  33.454  26.994  1.00  0.00    -0.206 F 
ATOM     43  C   UNL A   1      46.196  34.984  28.628  1.00  0.00     0.059 A 
ATOM     44  C   UNL A   1      46.494  34.251  30.924  1.00  0.00     0.059 A 
ATOM     45  F   UNL A   1      46.119  32.005  31.487  1.00  0.00    -0.206 F 
ATOM     46  C   UNL A   1      46.553  35.248  29.951  1.00  0.00     0.060 A 
BRANCH  46  47
ATOM     47  S   UNL A   1      47.119  36.908  30.377  1.00  0.00     0.124 S 
ATOM     48  O   UNL A   1      48.193  36.615  31.321  1.00  0.00    -0.237 OA
ATOM     49  O   UNL A   1      47.540  37.437  29.084  1.00  0.00    -0.237 OA
ATOM     50  O   UNL A   1      45.932  37.535  30.950  1.00  0.00    -0.744 OA
ENDBRANCH  46  47
ENDBRANCH  25  39
BRANCH  26  51
ATOM     51  C   UNL A   1      43.028  23.308  27.008  1.00  0.00     0.058 A 
ATOM     52  C   UNL A   1      42.938  22.835  25.691  1.00  0.00     0.135 A 
ATOM     53  C   UNL A   1      42.789  22.398  28.050  1.00  0.00     0.135 A 
ATOM     54  F   UNL A   1      43.143  23.672  24.664  1.00  0.00    -0.206 F 
ATOM     55  C   UNL A   1      42.641  21.505  25.414  1.00  0.00     0.059 A 
ATOM     56  C   UNL A   1      42.510  21.059  27.798  1.00  0.00     0.059 A 
ATOM     57  F   UNL A   1      42.872  22.802  29.327  1.00  0.00    -0.206 F 
ATOM     58  C   UNL A   1      42.442  20.621  26.476  1.00  0.00     0.060 A 
BRANCH  58  59
ATOM     59  S   UNL A   1      42.165  18.876  26.101  1.00  0.00     0.124 S 
ATOM     60  O   UNL A   1      43.095  18.658  25.001  1.00  0.00    -0.237 OA
ATOM     61  O   UNL A   1      42.511  18.236  27.367  1.00  0.00    -0.237 OA
ATOM     62  O   UNL A   1      40.749  18.828  25.751  1.00  0.00    -0.744 OA
ENDBRANCH  58  59
ENDBRANCH  26  51
BRANCH  38  63
ATOM     63  C   UNL A   1      49.130  26.678  26.872  1.00  0.00     0.058 A 
ATOM     64  C   UNL A   1      49.622  26.780  25.561  1.00  0.00     0.135 A 
ATOM     65  C   UNL A   1      49.991  26.168  27.857  1.00  0.00     0.135 A 
ATOM     66  F   UNL A   1      48.839  27.258  24.581  1.00  0.00    -0.206 F 
ATOM     67  C   UNL A   1      50.907  26.360  25.233  1.00  0.00     0.059 A 
ATOM     68  C   UNL A   1      51.288  25.764  27.556  1.00  0.00     0.059 A 
ATOM     69  F   UNL A   1      49.574  26.061  29.129  1.00  0.00    -0.206 F 
ATOM     70  C   UNL A   1      51.730  25.848  26.236  1.00  0.00     0.060 A 
BRANCH  70  71
ATOM     71  S   UNL A   1      53.395  25.307  25.797  1.00  0.00     0.124 S 
ATOM     72  O   UNL A   1      54.103  25.478  27.061  1.00  0.00    -0.237 OA
ATOM     73  O   UNL A   1      53.176  23.926  25.376  1.00  0.00    -0.237 OA
ATOM     74  O   UNL A   1      53.782  26.226  24.731  1.00  0.00    -0.744 OA
ENDBRANCH  70  71
ENDBRANCH  38  63
ENDBRANCH  12  13
ENDBRANCH   5   7
ENDBRANCH   2   3
ENDBRANCH   1   2
BRANCH   1  75
ATOM     75  C   UNL A   1      33.140  28.742  25.980  1.00  0.00     0.023 C 
BRANCH  75  76
ATOM     76  C   UNL A   1      32.348  29.232  24.770  1.00  0.00     0.116 C 
BRANCH  76  77
ATOM     77  N   UNL A   1      33.174  29.328  23.573  1.00  0.00    -0.352 N 
ATOM     78  C   UNL A   1      33.553  28.336  22.708  1.00  0.00     0.256 C 
ATOM     79  H   UNL A   1      33.504  30.229  23.356  1.00  0.00     0.163 HD
ATOM     80  O   UNL A   1      34.403  28.539  21.847  1.00  0.00    -0.269 OA
BRANCH  78  81
ATOM     81  C   UNL A   1      32.929  27.013  22.802  1.00  0.00     0.102 A 
ATOM     82  C   UNL A   1      33.683  25.952  23.311  1.00  0.00     0.029 A 
ATOM     83  C   UNL A   1      31.628  26.770  22.380  1.00  0.00     0.223 A 
ATOM     84  C   UNL A   1      33.104  24.685  23.435  1.00  0.00     0.001 A 
ATOM     85  N   UNL A   1      31.029  25.572  22.504  1.00  0.00    -0.221 NA
ATOM     86  C   UNL A   1      31.772  24.568  23.028  1.00  0.00     0.124 A 
BRANCH  83  87
ATOM     87  O   UNL A   1      30.829  27.722  21.815  1.00  0.00    -0.493 OA
ATOM     88  H   UNL A   1      30.991  28.009  20.939  1.00  0.00     0.295 HD
ENDBRANCH  83  87
BRANCH  84  89
ATOM     89  C   UNL A   1      33.849  23.536  23.960  1.00  0.00    -0.016 A 
ATOM     90  C   UNL A   1      35.206  23.661  24.299  1.00  0.00     0.012 A 
ATOM     91  C   UNL A   1      33.234  22.282  24.127  1.00  0.00     0.025 A 
ATOM     92  C   UNL A   1      35.928  22.568  24.780  1.00  0.00     0.040 A 
ATOM     93  C   UNL A   1      33.954  21.174  24.608  1.00  0.00     0.092 A 
ATOM     94  C   UNL A   1      35.299  21.337  24.926  1.00  0.00     0.135 A 
ATOM     95  F   UNL A   1      36.012  20.297  25.376  1.00  0.00    -0.206 F 
BRANCH  93  96
ATOM     96  C   UNL A   1      33.325  19.822  24.766  1.00  0.00     0.419 C 
ATOM     97  F   UNL A   1      32.037  19.788  24.325  1.00  0.00    -0.166 F 
ATOM     98  F   UNL A   1      33.987  18.842  24.090  1.00  0.00    -0.166 F 
ATOM     99  F   UNL A   1      33.279  19.404  26.063  1.00  0.00    -0.166 F 
ENDBRANCH  93  96
ENDBRANCH  84  89
ENDBRANCH  78  81
ENDBRANCH  76  77
ENDBRANCH  75  76
ENDBRANCH   1  75
TORSDOF 17
ENDMDL
