MODEL 1
REMARK VINA RESULT:     -11.4      0.000      0.000
REMARK SMILES C#CCN(CC(=O)NCCCCNC(=O)c1ccc(-c2c3nc(c(-c4c(F)cc(S(=O)(=O)[O-])cc4F)c4ccc([nH]4)c(-c4c(F)cc(S(=O)(=O)[O-])cc4F)c4nc(c(-c5c(F)cc(S(=O)(=O)[O-])cc5F)c5ccc2[nH]5)C=C4)C=C3)cc1)C(=O)Nc1cc(Br)ccc1C
REMARK SMILES IDX 10 1 9 2 8 3 6 4 7 5 5 7 4 8 3 9 2 10 1 11 82 12 83 13 84 14
REMARK SMILES IDX 85 16 86 17 91 18 87 19 90 20 92 21 88 22 89 23 11 24 12 25
REMARK SMILES IDX 13 26 14 27 15 29 16 30 17 31 81 32 18 33 80 34 19 35 20 36
REMARK SMILES IDX 21 37 74 38 22 39 79 40 73 41 75 42 23 43 78 44 72 45 71 46
REMARK SMILES IDX 24 48 58 49 37 50 57 51 38 52 41 53 56 54 76 55 39 56 40 57
REMARK SMILES IDX 55 59 77 60 42 61 25 62 26 63 35 64 27 65 28 66 34 67 36 68
REMARK SMILES IDX 29 69 30 70 31 71 32 72 33 73 59 74 60 75 69 76 61 77 62 78
REMARK SMILES IDX 68 79 70 80 63 81 64 82 65 83 66 84 67 85 43 86 44 87 53 88
REMARK SMILES IDX 45 89 46 90 52 91 54 92 47 93 48 94 49 95 50 96 51 97
REMARK H PARENT 8 6 84 15 13 28 75 47 41 58
REMARK Flexibility Score: inf
ROOT
ATOM      1  C   UNL A   1      37.254  22.110  25.283  1.00  0.00     0.023 C 
ENDROOT
BRANCH   1   2
ATOM      2  C   UNL A   1      35.866  21.532  25.555  1.00  0.00     0.116 C 
BRANCH   2   3
ATOM      3  N   UNL A   1      35.169  22.112  26.682  1.00  0.00    -0.355 N 
ATOM      4  C   UNL A   1      33.853  22.166  27.026  1.00  0.00     0.239 C 
ATOM      5  O   UNL A   1      33.629  22.334  28.232  1.00  0.00    -0.273 OA
ATOM      6  H   UNL A   1      35.764  22.554  27.329  1.00  0.00     0.163 HD
BRANCH   4   7
ATOM      7  C   UNL A   1      32.672  21.866  26.075  1.00  0.00     0.222 C 
BRANCH   7   8
ATOM      8  N   UNL A   1      31.746  22.939  25.706  1.00  0.00    -0.304 N 
BRANCH   8   9
ATOM      9  C   UNL A   1      31.417  23.011  24.295  1.00  0.00     0.211 C 
BRANCH   9  10
ATOM     10  C   UNL A   1      32.634  23.143  23.395  1.00  0.00    -0.085 C 
ATOM     11  C   UNL A   1      33.679  23.257  22.623  1.00  0.00     0.006 C 
ENDBRANCH   9  10
ENDBRANCH   8   9
BRANCH   8  12
ATOM     12  C   UNL A   1      31.062  23.809  26.535  1.00  0.00     0.323 C 
ATOM     13  O   UNL A   1      30.280  23.398  27.399  1.00  0.00    -0.248 OA
ATOM     14  N   UNL A   1      31.370  25.131  26.588  1.00  0.00    -0.307 N 
ATOM     15  H   UNL A   1      31.334  25.504  27.499  1.00  0.00     0.171 HD
BRANCH  14  16
ATOM     16  C   UNL A   1      31.726  26.069  25.618  1.00  0.00     0.046 A 
ATOM     17  C   UNL A   1      30.678  26.659  24.900  1.00  0.00     0.042 A 
ATOM     18  C   UNL A   1      33.056  26.373  25.291  1.00  0.00    -0.027 A 
ATOM     19  C   UNL A   1      30.947  27.667  23.977  1.00  0.00     0.020 A 
ATOM     20  C   UNL A   1      33.306  27.410  24.376  1.00  0.00     0.007 A 
ATOM     21  C   UNL A   1      34.207  25.518  25.739  1.00  0.00     0.046 C 
ATOM     22  Br  UNL A   1      29.523  28.495  23.051  1.00  0.00    -0.051 Br
ATOM     23  C   UNL A   1      32.256  28.072  23.741  1.00  0.00     0.016 A 
ENDBRANCH  14  16
ENDBRANCH   8  12
ENDBRANCH   7   8
ENDBRANCH   4   7
ENDBRANCH   2   3
ENDBRANCH   1   2
BRANCH   1  24
ATOM     24  C   UNL A   1      37.413  23.615  25.490  1.00  0.00     0.023 C 
BRANCH  24  25
ATOM     25  C   UNL A   1      38.412  24.039  26.554  1.00  0.00     0.116 C 
BRANCH  25  26
ATOM     26  N   UNL A   1      39.797  23.961  26.123  1.00  0.00    -0.352 N 
ATOM     27  C   UNL A   1      40.867  24.741  26.501  1.00  0.00     0.251 C 
ATOM     28  H   UNL A   1      39.998  23.253  25.470  1.00  0.00     0.163 HD
ATOM     29  O   UNL A   1      41.962  24.558  25.995  1.00  0.00    -0.269 OA
BRANCH  27  30
ATOM     30  C   UNL A   1      40.664  25.833  27.482  1.00  0.00     0.039 A 
ATOM     31  C   UNL A   1      39.734  25.637  28.505  1.00  0.00     0.014 A 
ATOM     32  C   UNL A   1      41.401  27.018  27.417  1.00  0.00     0.014 A 
ATOM     33  C   UNL A   1      39.595  26.600  29.506  1.00  0.00     0.010 A 
ATOM     34  C   UNL A   1      41.313  27.943  28.454  1.00  0.00     0.010 A 
ATOM     35  C   UNL A   1      40.411  27.742  29.509  1.00  0.00    -0.014 A 
BRANCH  35  36
ATOM     36  C   UNL A   1      40.336  28.733  30.611  1.00  0.00     0.031 A 
ATOM     37  C   UNL A   1      41.235  28.599  31.808  1.00  0.00     0.074 A 
ATOM     38  C   UNL A   1      39.416  29.717  30.559  1.00  0.00     0.049 A 
ATOM     39  N   UNL A   1      41.275  29.323  32.897  1.00  0.00    -0.248 NA
ATOM     40  C   UNL A   1      42.199  27.486  31.793  1.00  0.00     0.031 C 
ATOM     41  C   UNL A   1      38.456  29.919  29.472  1.00  0.00     0.029 A 
ATOM     42  N   UNL A   1      39.132  30.725  31.444  1.00  0.00    -0.354 N 
ATOM     43  C   UNL A   1      42.254  28.749  33.698  1.00  0.00     0.074 A 
ATOM     44  C   UNL A   1      42.748  27.585  32.995  1.00  0.00     0.031 C 
ATOM     45  C   UNL A   1      37.703  30.999  29.744  1.00  0.00     0.029 A 
ATOM     46  C   UNL A   1      38.104  31.544  31.037  1.00  0.00     0.049 A 
ATOM     47  H   UNL A   1      39.618  30.852  32.291  1.00  0.00     0.167 HD
ATOM     48  C   UNL A   1      42.716  29.168  34.901  1.00  0.00     0.037 A 
ATOM     49  C   UNL A   1      37.545  32.611  31.642  1.00  0.00     0.037 A 
ATOM     50  C   UNL A   1      42.239  30.342  35.581  1.00  0.00     0.049 A 
ATOM     51  C   UNL A   1      38.082  33.062  32.972  1.00  0.00     0.074 A 
ATOM     52  C   UNL A   1      42.678  30.882  36.778  1.00  0.00     0.029 A 
ATOM     53  N   UNL A   1      41.215  31.160  35.126  1.00  0.00    -0.354 N 
ATOM     54  N   UNL A   1      39.049  32.542  33.690  1.00  0.00    -0.248 NA
ATOM     55  C   UNL A   1      37.458  34.249  33.573  1.00  0.00     0.031 C 
ATOM     56  C   UNL A   1      41.897  32.008  37.063  1.00  0.00     0.029 A 
ATOM     57  C   UNL A   1      40.998  32.193  36.024  1.00  0.00     0.049 A 
ATOM     58  H   UNL A   1      40.715  31.027  34.288  1.00  0.00     0.167 HD
ATOM     59  C   UNL A   1      39.166  33.351  34.814  1.00  0.00     0.074 A 
ATOM     60  C   UNL A   1      38.180  34.403  34.676  1.00  0.00     0.031 C 
ATOM     61  C   UNL A   1      40.016  33.236  35.864  1.00  0.00     0.037 A 
BRANCH  48  62
ATOM     62  C   UNL A   1      43.799  28.353  35.550  1.00  0.00     0.058 A 
ATOM     63  C   UNL A   1      45.155  28.558  35.247  1.00  0.00     0.135 A 
ATOM     64  C   UNL A   1      43.485  27.372  36.504  1.00  0.00     0.135 A 
ATOM     65  F   UNL A   1      45.513  29.472  34.329  1.00  0.00    -0.206 F 
ATOM     66  C   UNL A   1      46.158  27.799  35.841  1.00  0.00     0.059 A 
ATOM     67  C   UNL A   1      44.473  26.619  37.132  1.00  0.00     0.059 A 
ATOM     68  F   UNL A   1      42.204  27.134  36.831  1.00  0.00    -0.206 F 
ATOM     69  C   UNL A   1      45.806  26.829  36.781  1.00  0.00     0.060 A 
BRANCH  69  70
ATOM     70  S   UNL A   1      47.117  25.851  37.543  1.00  0.00     0.124 S 
ATOM     71  O   UNL A   1      47.359  26.599  38.773  1.00  0.00    -0.237 OA
ATOM     72  O   UNL A   1      46.480  24.548  37.711  1.00  0.00    -0.237 OA
ATOM     73  O   UNL A   1      48.193  25.897  36.559  1.00  0.00    -0.744 OA
ENDBRANCH  69  70
ENDBRANCH  48  62
BRANCH  49  74
ATOM     74  C   UNL A   1      36.433  33.341  30.978  1.00  0.00     0.058 A 
ATOM     75  C   UNL A   1      36.670  34.139  29.849  1.00  0.00     0.135 A 
ATOM     76  C   UNL A   1      35.115  33.247  31.447  1.00  0.00     0.135 A 
ATOM     77  F   UNL A   1      37.915  34.265  29.366  1.00  0.00    -0.206 F 
ATOM     78  C   UNL A   1      35.641  34.829  29.215  1.00  0.00     0.059 A 
ATOM     79  C   UNL A   1      34.065  33.909  30.817  1.00  0.00     0.059 A 
ATOM     80  F   UNL A   1      34.833  32.483  32.515  1.00  0.00    -0.206 F 
ATOM     81  C   UNL A   1      34.341  34.705  29.707  1.00  0.00     0.060 A 
BRANCH  81  82
ATOM     82  S   UNL A   1      33.005  35.567  28.849  1.00  0.00     0.124 S 
ATOM     83  O   UNL A   1      32.427  34.493  28.050  1.00  0.00    -0.237 OA
ATOM     84  O   UNL A   1      32.188  36.048  29.959  1.00  0.00    -0.237 OA
ATOM     85  O   UNL A   1      33.705  36.606  28.101  1.00  0.00    -0.744 OA
ENDBRANCH  81  82
ENDBRANCH  49  74
BRANCH  61  86
ATOM     86  C   UNL A   1      39.940  34.290  36.932  1.00  0.00     0.058 A 
ATOM     87  C   UNL A   1      40.606  35.518  36.806  1.00  0.00     0.135 A 
ATOM     88  C   UNL A   1      39.146  34.087  38.073  1.00  0.00     0.135 A 
ATOM     89  F   UNL A   1      41.382  35.758  35.737  1.00  0.00    -0.206 F 
ATOM     90  C   UNL A   1      40.505  36.503  37.783  1.00  0.00     0.059 A 
ATOM     91  C   UNL A   1      39.010  35.066  39.051  1.00  0.00     0.059 A 
ATOM     92  F   UNL A   1      38.481  32.933  38.238  1.00  0.00    -0.206 F 
ATOM     93  C   UNL A   1      39.703  36.268  38.902  1.00  0.00     0.060 A 
BRANCH  93  94
ATOM     94  S   UNL A   1      39.548  37.568  40.145  1.00  0.00     0.124 S 
ATOM     95  O   UNL A   1      40.886  38.152  40.126  1.00  0.00    -0.237 OA
ATOM     96  O   UNL A   1      38.485  38.403  39.597  1.00  0.00    -0.237 OA
ATOM     97  O   UNL A   1      39.199  36.837  41.360  1.00  0.00    -0.744 OA
ENDBRANCH  93  94
ENDBRANCH  61  86
ENDBRANCH  35  36
ENDBRANCH  27  30
ENDBRANCH  25  26
ENDBRANCH  24  25
ENDBRANCH   1  24
TORSDOF 19
ENDMDL
MODEL 2
REMARK VINA RESULT:     -11.3      4.921     10.448
REMARK SMILES C#CCN(CC(=O)NCCCCNC(=O)c1ccc(-c2c3nc(c(-c4c(F)cc(S(=O)(=O)[O-])cc4F)c4ccc([nH]4)c(-c4c(F)cc(S(=O)(=O)[O-])cc4F)c4nc(c(-c5c(F)cc(S(=O)(=O)[O-])cc5F)c5ccc2[nH]5)C=C4)C=C3)cc1)C(=O)Nc1cc(Br)ccc1C
REMARK SMILES IDX 10 1 9 2 8 3 6 4 7 5 5 7 4 8 3 9 2 10 1 11 82 12 83 13 84 14
REMARK SMILES IDX 85 16 86 17 91 18 87 19 90 20 92 21 88 22 89 23 11 24 12 25
REMARK SMILES IDX 13 26 14 27 15 29 16 30 17 31 81 32 18 33 80 34 19 35 20 36
REMARK SMILES IDX 21 37 74 38 22 39 79 40 73 41 75 42 23 43 78 44 72 45 71 46
REMARK SMILES IDX 24 48 58 49 37 50 57 51 38 52 41 53 56 54 76 55 39 56 40 57
REMARK SMILES IDX 55 59 77 60 42 61 25 62 26 63 35 64 27 65 28 66 34 67 36 68
REMARK SMILES IDX 29 69 30 70 31 71 32 72 33 73 59 74 60 75 69 76 61 77 62 78
REMARK SMILES IDX 68 79 70 80 63 81 64 82 65 83 66 84 67 85 43 86 44 87 53 88
REMARK SMILES IDX 45 89 46 90 52 91 54 92 47 93 48 94 49 95 50 96 51 97
REMARK H PARENT 8 6 84 15 13 28 75 47 41 58
REMARK Flexibility Score: inf
ROOT
ATOM      1  C   UNL A   1      33.100  29.051  24.675  1.00  0.00     0.023 C 
ENDROOT
BRANCH   1   2
ATOM      2  C   UNL A   1      33.523  29.008  23.208  1.00  0.00     0.116 C 
BRANCH   2   3
ATOM      3  N   UNL A   1      32.618  28.301  22.328  1.00  0.00    -0.355 N 
ATOM      4  C   UNL A   1      32.216  27.002  22.268  1.00  0.00     0.239 C 
ATOM      5  O   UNL A   1      31.129  26.812  21.704  1.00  0.00    -0.273 OA
ATOM      6  H   UNL A   1      32.213  28.872  21.637  1.00  0.00     0.163 HD
BRANCH   4   7
ATOM      7  C   UNL A   1      32.910  25.821  22.985  1.00  0.00     0.222 C 
BRANCH   7   8
ATOM      8  N   UNL A   1      32.116  24.895  23.795  1.00  0.00    -0.304 N 
BRANCH   8   9
ATOM      9  C   UNL A   1      31.834  25.344  25.145  1.00  0.00     0.211 C 
BRANCH   9  10
ATOM     10  C   UNL A   1      32.012  24.258  26.194  1.00  0.00    -0.085 C 
ATOM     11  C   UNL A   1      32.165  23.326  27.093  1.00  0.00     0.006 C 
ENDBRANCH   9  10
ENDBRANCH   8   9
BRANCH   8  12
ATOM     12  C   UNL A   1      31.510  23.714  23.407  1.00  0.00     0.323 C 
ATOM     13  O   UNL A   1      30.321  23.677  23.074  1.00  0.00    -0.248 OA
ATOM     14  N   UNL A   1      32.232  22.588  23.171  1.00  0.00    -0.307 N 
ATOM     15  H   UNL A   1      31.909  22.073  22.396  1.00  0.00     0.171 HD
BRANCH  14  16
ATOM     16  C   UNL A   1      33.337  22.011  23.800  1.00  0.00     0.046 A 
ATOM     17  C   UNL A   1      34.478  22.813  23.924  1.00  0.00     0.042 A 
ATOM     18  C   UNL A   1      33.371  20.675  24.227  1.00  0.00    -0.027 A 
ATOM     19  C   UNL A   1      35.589  22.339  24.616  1.00  0.00     0.020 A 
ATOM     20  C   UNL A   1      34.490  20.224  24.945  1.00  0.00     0.007 A 
ATOM     21  C   UNL A   1      32.345  19.668  23.790  1.00  0.00     0.046 C 
ATOM     22  Br  UNL A   1      37.107  23.447  24.825  1.00  0.00    -0.051 Br
ATOM     23  C   UNL A   1      35.585  21.061  25.162  1.00  0.00     0.016 A 
ENDBRANCH  14  16
ENDBRANCH   8  12
ENDBRANCH   7   8
ENDBRANCH   4   7
ENDBRANCH   2   3
ENDBRANCH   1   2
BRANCH   1  24
ATOM     24  C   UNL A   1      33.972  28.269  25.656  1.00  0.00     0.023 C 
BRANCH  24  25
ATOM     25  C   UNL A   1      33.605  28.400  27.125  1.00  0.00     0.116 C 
BRANCH  25  26
ATOM     26  N   UNL A   1      33.489  29.774  27.580  1.00  0.00    -0.352 N 
ATOM     27  C   UNL A   1      34.448  30.582  28.149  1.00  0.00     0.251 C 
ATOM     28  H   UNL A   1      32.602  30.185  27.467  1.00  0.00     0.163 HD
ATOM     29  O   UNL A   1      34.154  31.708  28.516  1.00  0.00    -0.269 OA
BRANCH  27  30
ATOM     30  C   UNL A   1      35.816  30.054  28.359  1.00  0.00     0.039 A 
ATOM     31  C   UNL A   1      36.720  30.122  27.296  1.00  0.00     0.014 A 
ATOM     32  C   UNL A   1      36.216  29.531  29.592  1.00  0.00     0.014 A 
ATOM     33  C   UNL A   1      38.046  29.732  27.492  1.00  0.00     0.010 A 
ATOM     34  C   UNL A   1      37.553  29.211  29.805  1.00  0.00     0.010 A 
ATOM     35  C   UNL A   1      38.482  29.311  28.758  1.00  0.00    -0.014 A 
BRANCH  35  36
ATOM     36  C   UNL A   1      39.906  28.974  29.005  1.00  0.00     0.031 A 
ATOM     37  C   UNL A   1      40.839  30.011  29.566  1.00  0.00     0.074 A 
ATOM     38  C   UNL A   1      40.369  27.755  28.665  1.00  0.00     0.049 A 
ATOM     39  N   UNL A   1      42.125  29.929  29.790  1.00  0.00    -0.248 NA
ATOM     40  C   UNL A   1      40.255  31.322  29.893  1.00  0.00     0.031 C 
ATOM     41  C   UNL A   1      39.570  26.683  28.067  1.00  0.00     0.029 A 
ATOM     42  N   UNL A   1      41.626  27.214  28.766  1.00  0.00    -0.354 N 
ATOM     43  C   UNL A   1      42.506  31.176  30.271  1.00  0.00     0.074 A 
ATOM     44  C   UNL A   1      41.326  32.013  30.256  1.00  0.00     0.031 C 
ATOM     45  C   UNL A   1      40.351  25.606  27.875  1.00  0.00     0.029 A 
ATOM     46  C   UNL A   1      41.710  25.921  28.303  1.00  0.00     0.049 A 
ATOM     47  H   UNL A   1      42.396  27.704  29.135  1.00  0.00     0.167 HD
ATOM     48  C   UNL A   1      43.723  31.580  30.706  1.00  0.00     0.037 A 
ATOM     49  C   UNL A   1      42.765  25.086  28.230  1.00  0.00     0.037 A 
ATOM     50  C   UNL A   1      44.886  30.733  30.744  1.00  0.00     0.049 A 
ATOM     51  C   UNL A   1      44.104  25.555  28.729  1.00  0.00     0.074 A 
ATOM     52  C   UNL A   1      46.152  31.029  31.217  1.00  0.00     0.029 A 
ATOM     53  N   UNL A   1      44.925  29.422  30.291  1.00  0.00    -0.354 N 
ATOM     54  N   UNL A   1      44.434  26.719  29.235  1.00  0.00    -0.248 NA
ATOM     55  C   UNL A   1      45.214  24.594  28.655  1.00  0.00     0.031 C 
ATOM     56  C   UNL A   1      46.967  29.909  31.019  1.00  0.00     0.029 A 
ATOM     57  C   UNL A   1      46.198  28.900  30.460  1.00  0.00     0.049 A 
ATOM     58  H   UNL A   1      44.162  28.933  29.906  1.00  0.00     0.167 HD
ATOM     59  C   UNL A   1      45.782  26.624  29.562  1.00  0.00     0.074 A 
ATOM     60  C   UNL A   1      46.203  25.284  29.208  1.00  0.00     0.031 C 
ATOM     61  C   UNL A   1      46.596  27.560  30.109  1.00  0.00     0.037 A 
BRANCH  48  62
ATOM     62  C   UNL A   1      43.853  32.998  31.186  1.00  0.00     0.058 A 
ATOM     63  C   UNL A   1      44.179  34.044  30.308  1.00  0.00     0.135 A 
ATOM     64  C   UNL A   1      43.625  33.323  32.533  1.00  0.00     0.135 A 
ATOM     65  F   UNL A   1      44.425  33.788  29.012  1.00  0.00    -0.206 F 
ATOM     66  C   UNL A   1      44.308  35.356  30.753  1.00  0.00     0.059 A 
ATOM     67  C   UNL A   1      43.720  34.632  32.995  1.00  0.00     0.059 A 
ATOM     68  F   UNL A   1      43.309  32.362  33.416  1.00  0.00    -0.206 F 
ATOM     69  C   UNL A   1      44.078  35.640  32.100  1.00  0.00     0.060 A 
BRANCH  69  70
ATOM     70  S   UNL A   1      44.250  37.346  32.664  1.00  0.00     0.124 S 
ATOM     71  O   UNL A   1      44.213  38.073  31.399  1.00  0.00    -0.237 OA
ATOM     72  O   UNL A   1      43.081  37.512  33.522  1.00  0.00    -0.237 OA
ATOM     73  O   UNL A   1      45.536  37.350  33.353  1.00  0.00    -0.744 OA
ENDBRANCH  69  70
ENDBRANCH  48  62
BRANCH  49  74
ATOM     74  C   UNL A   1      42.588  23.713  27.688  1.00  0.00     0.058 A 
ATOM     75  C   UNL A   1      42.635  23.474  26.307  1.00  0.00     0.135 A 
ATOM     76  C   UNL A   1      42.384  22.614  28.535  1.00  0.00     0.135 A 
ATOM     77  F   UNL A   1      42.823  24.494  25.455  1.00  0.00    -0.206 F 
ATOM     78  C   UNL A   1      42.472  22.196  25.782  1.00  0.00     0.059 A 
ATOM     79  C   UNL A   1      42.241  21.323  28.037  1.00  0.00     0.059 A 
ATOM     80  F   UNL A   1      42.348  22.789  29.866  1.00  0.00    -0.206 F 
ATOM     81  C   UNL A   1      42.277  21.125  26.657  1.00  0.00     0.060 A 
BRANCH  81  82
ATOM     82  S   UNL A   1      42.114  19.463  25.970  1.00  0.00     0.124 S 
ATOM     83  O   UNL A   1      42.933  19.560  24.767  1.00  0.00    -0.237 OA
ATOM     84  O   UNL A   1      42.652  18.633  27.044  1.00  0.00    -0.237 OA
ATOM     85  O   UNL A   1      40.678  19.333  25.748  1.00  0.00    -0.744 OA
ENDBRANCH  81  82
ENDBRANCH  49  74
BRANCH  61  86
ATOM     86  C   UNL A   1      48.017  27.160  30.388  1.00  0.00     0.058 A 
ATOM     87  C   UNL A   1      49.043  27.386  29.458  1.00  0.00     0.135 A 
ATOM     88  C   UNL A   1      48.365  26.594  31.626  1.00  0.00     0.135 A 
ATOM     89  F   UNL A   1      48.761  27.918  28.259  1.00  0.00    -0.206 F 
ATOM     90  C   UNL A   1      50.362  27.043  29.735  1.00  0.00     0.059 A 
ATOM     91  C   UNL A   1      49.681  26.267  31.934  1.00  0.00     0.059 A 
ATOM     92  F   UNL A   1      47.422  26.366  32.554  1.00  0.00    -0.206 F 
ATOM     93  C   UNL A   1      50.672  26.486  30.978  1.00  0.00     0.060 A 
BRANCH  93  94
ATOM     94  S   UNL A   1      52.393  26.083  31.342  1.00  0.00     0.124 S 
ATOM     95  O   UNL A   1      52.784  27.205  32.189  1.00  0.00    -0.237 OA
ATOM     96  O   UNL A   1      52.280  24.792  32.013  1.00  0.00    -0.237 OA
ATOM     97  O   UNL A   1      53.018  26.043  30.023  1.00  0.00    -0.744 OA
ENDBRANCH  93  94
ENDBRANCH  61  86
ENDBRANCH  35  36
ENDBRANCH  27  30
ENDBRANCH  25  26
ENDBRANCH  24  25
ENDBRANCH   1  24
TORSDOF 19
ENDMDL
MODEL 3
REMARK VINA RESULT:     -11.1      0.467      8.237
REMARK SMILES C#CCN(CC(=O)NCCCCNC(=O)c1ccc(-c2c3nc(c(-c4c(F)cc(S(=O)(=O)[O-])cc4F)c4ccc([nH]4)c(-c4c(F)cc(S(=O)(=O)[O-])cc4F)c4nc(c(-c5c(F)cc(S(=O)(=O)[O-])cc5F)c5ccc2[nH]5)C=C4)C=C3)cc1)C(=O)Nc1cc(Br)ccc1C
REMARK SMILES IDX 10 1 9 2 8 3 6 4 7 5 5 7 4 8 3 9 2 10 1 11 82 12 83 13 84 14
REMARK SMILES IDX 85 16 86 17 91 18 87 19 90 20 92 21 88 22 89 23 11 24 12 25
REMARK SMILES IDX 13 26 14 27 15 29 16 30 17 31 81 32 18 33 80 34 19 35 20 36
REMARK SMILES IDX 21 37 74 38 22 39 79 40 73 41 75 42 23 43 78 44 72 45 71 46
REMARK SMILES IDX 24 48 58 49 37 50 57 51 38 52 41 53 56 54 76 55 39 56 40 57
REMARK SMILES IDX 55 59 77 60 42 61 25 62 26 63 35 64 27 65 28 66 34 67 36 68
REMARK SMILES IDX 29 69 30 70 31 71 32 72 33 73 59 74 60 75 69 76 61 77 62 78
REMARK SMILES IDX 68 79 70 80 63 81 64 82 65 83 66 84 67 85 43 86 44 87 53 88
REMARK SMILES IDX 45 89 46 90 52 91 54 92 47 93 48 94 49 95 50 96 51 97
REMARK H PARENT 8 6 84 15 13 28 75 47 41 58
REMARK Flexibility Score: inf
ROOT
ATOM      1  C   UNL A   1      37.312  22.092  25.633  1.00  0.00     0.023 C 
ENDROOT
BRANCH   1   2
ATOM      2  C   UNL A   1      35.922  21.474  25.779  1.00  0.00     0.116 C 
BRANCH   2   3
ATOM      3  N   UNL A   1      35.104  22.044  26.828  1.00  0.00    -0.355 N 
ATOM      4  C   UNL A   1      33.757  22.124  27.008  1.00  0.00     0.239 C 
ATOM      5  O   UNL A   1      33.390  22.267  28.182  1.00  0.00    -0.273 OA
ATOM      6  H   UNL A   1      35.625  22.454  27.556  1.00  0.00     0.163 HD
BRANCH   4   7
ATOM      7  C   UNL A   1      32.697  21.879  25.911  1.00  0.00     0.222 C 
BRANCH   7   8
ATOM      8  N   UNL A   1      31.700  22.911  25.621  1.00  0.00    -0.304 N 
BRANCH   8   9
ATOM      9  C   UNL A   1      31.214  22.932  24.254  1.00  0.00     0.211 C 
BRANCH   9  10
ATOM     10  C   UNL A   1      32.280  23.311  23.239  1.00  0.00    -0.085 C 
ATOM     11  C   UNL A   1      33.195  23.635  22.368  1.00  0.00     0.006 C 
ENDBRANCH   9  10
ENDBRANCH   8   9
BRANCH   8  12
ATOM     12  C   UNL A   1      31.083  23.783  26.499  1.00  0.00     0.323 C 
ATOM     13  O   UNL A   1      30.338  23.377  27.397  1.00  0.00    -0.248 OA
ATOM     14  N   UNL A   1      31.424  25.097  26.555  1.00  0.00    -0.307 N 
ATOM     15  H   UNL A   1      31.446  25.455  27.472  1.00  0.00     0.171 HD
BRANCH  14  16
ATOM     16  C   UNL A   1      31.750  26.042  25.581  1.00  0.00     0.046 A 
ATOM     17  C   UNL A   1      30.680  26.631  24.894  1.00  0.00     0.042 A 
ATOM     18  C   UNL A   1      33.070  26.354  25.220  1.00  0.00    -0.027 A 
ATOM     19  C   UNL A   1      30.921  27.644  23.971  1.00  0.00     0.020 A 
ATOM     20  C   UNL A   1      33.290  27.397  24.305  1.00  0.00     0.007 A 
ATOM     21  C   UNL A   1      34.236  25.502  25.633  1.00  0.00     0.046 C 
ATOM     22  Br  UNL A   1      29.468  28.471  23.087  1.00  0.00    -0.051 Br
ATOM     23  C   UNL A   1      32.220  28.058  23.702  1.00  0.00     0.016 A 
ENDBRANCH  14  16
ENDBRANCH   8  12
ENDBRANCH   7   8
ENDBRANCH   4   7
ENDBRANCH   2   3
ENDBRANCH   1   2
BRANCH   1  24
ATOM     24  C   UNL A   1      37.379  23.619  25.635  1.00  0.00     0.023 C 
BRANCH  24  25
ATOM     25  C   UNL A   1      38.368  24.240  26.607  1.00  0.00     0.116 C 
BRANCH  25  26
ATOM     26  N   UNL A   1      39.746  24.194  26.151  1.00  0.00    -0.352 N 
ATOM     27  C   UNL A   1      40.820  24.955  26.558  1.00  0.00     0.251 C 
ATOM     28  H   UNL A   1      39.940  23.525  25.455  1.00  0.00     0.163 HD
ATOM     29  O   UNL A   1      41.907  24.806  26.025  1.00  0.00    -0.269 OA
BRANCH  27  30
ATOM     30  C   UNL A   1      40.628  25.987  27.603  1.00  0.00     0.039 A 
ATOM     31  C   UNL A   1      39.669  25.755  28.592  1.00  0.00     0.014 A 
ATOM     32  C   UNL A   1      41.402  27.150  27.631  1.00  0.00     0.014 A 
ATOM     33  C   UNL A   1      39.537  26.655  29.651  1.00  0.00     0.010 A 
ATOM     34  C   UNL A   1      41.319  28.007  28.724  1.00  0.00     0.010 A 
ATOM     35  C   UNL A   1      40.388  27.767  29.745  1.00  0.00    -0.014 A 
BRANCH  35  36
ATOM     36  C   UNL A   1      40.318  28.688  30.907  1.00  0.00     0.031 A 
ATOM     37  C   UNL A   1      39.328  29.819  30.914  1.00  0.00     0.074 A 
ATOM     38  C   UNL A   1      41.188  28.540  31.926  1.00  0.00     0.049 A 
ATOM     39  N   UNL A   1      39.158  30.763  31.804  1.00  0.00    -0.248 NA
ATOM     40  C   UNL A   1      38.426  29.919  29.755  1.00  0.00     0.031 C 
ATOM     41  C   UNL A   1      42.227  27.511  32.008  1.00  0.00     0.029 A 
ATOM     42  N   UNL A   1      41.344  29.261  33.083  1.00  0.00    -0.354 N 
ATOM     43  C   UNL A   1      38.144  31.573  31.308  1.00  0.00     0.074 A 
ATOM     44  C   UNL A   1      37.772  31.041  30.015  1.00  0.00     0.031 C 
ATOM     45  C   UNL A   1      42.898  27.653  33.163  1.00  0.00     0.029 A 
ATOM     46  C   UNL A   1      42.361  28.801  33.887  1.00  0.00     0.049 A 
ATOM     47  H   UNL A   1      40.782  30.035  33.316  1.00  0.00     0.167 HD
ATOM     48  C   UNL A   1      37.560  32.648  31.889  1.00  0.00     0.037 A 
ATOM     49  C   UNL A   1      42.811  29.256  35.073  1.00  0.00     0.037 A 
ATOM     50  C   UNL A   1      37.917  33.155  33.188  1.00  0.00     0.049 A 
ATOM     51  C   UNL A   1      42.140  30.447  35.701  1.00  0.00     0.074 A 
ATOM     52  C   UNL A   1      37.351  34.205  33.888  1.00  0.00     0.029 A 
ATOM     53  N   UNL A   1      38.934  32.646  33.983  1.00  0.00    -0.354 N 
ATOM     54  N   UNL A   1      41.143  31.167  35.246  1.00  0.00    -0.248 NA
ATOM     55  C   UNL A   1      42.649  30.883  37.009  1.00  0.00     0.031 C 
ATOM     56  C   UNL A   1      38.047  34.355  35.093  1.00  0.00     0.029 A 
ATOM     57  C   UNL A   1      39.021  33.371  35.162  1.00  0.00     0.049 A 
ATOM     58  H   UNL A   1      39.510  31.884  33.746  1.00  0.00     0.167 HD
ATOM     59  C   UNL A   1      40.889  32.125  36.220  1.00  0.00     0.074 A 
ATOM     60  C   UNL A   1      41.829  31.886  37.295  1.00  0.00     0.031 C 
ATOM     61  C   UNL A   1      39.959  33.111  36.225  1.00  0.00     0.037 A 
BRANCH  48  62
ATOM     62  C   UNL A   1      36.468  33.342  31.124  1.00  0.00     0.058 A 
ATOM     63  C   UNL A   1      36.746  34.125  29.992  1.00  0.00     0.135 A 
ATOM     64  C   UNL A   1      35.125  33.204  31.509  1.00  0.00     0.135 A 
ATOM     65  F   UNL A   1      38.015  34.304  29.588  1.00  0.00    -0.206 F 
ATOM     66  C   UNL A   1      35.736  34.773  29.288  1.00  0.00     0.059 A 
ATOM     67  C   UNL A   1      34.095  33.821  30.804  1.00  0.00     0.059 A 
ATOM     68  F   UNL A   1      34.802  32.467  32.584  1.00  0.00    -0.206 F 
ATOM     69  C   UNL A   1      34.413  34.617  29.704  1.00  0.00     0.060 A 
BRANCH  69  70
ATOM     70  S   UNL A   1      33.113  35.465  28.783  1.00  0.00     0.124 S 
ATOM     71  O   UNL A   1      33.894  36.389  27.966  1.00  0.00    -0.237 OA
ATOM     72  O   UNL A   1      32.473  34.370  28.062  1.00  0.00    -0.237 OA
ATOM     73  O   UNL A   1      32.303  36.083  29.827  1.00  0.00    -0.744 OA
ENDBRANCH  69  70
ENDBRANCH  48  62
BRANCH  49  74
ATOM     74  C   UNL A   1      43.938  28.565  35.754  1.00  0.00     0.058 A 
ATOM     75  C   UNL A   1      43.698  27.529  36.669  1.00  0.00     0.135 A 
ATOM     76  C   UNL A   1      45.272  28.913  35.495  1.00  0.00     0.135 A 
ATOM     77  F   UNL A   1      42.438  27.164  36.953  1.00  0.00    -0.206 F 
ATOM     78  C   UNL A   1      44.739  26.872  37.314  1.00  0.00     0.059 A 
ATOM     79  C   UNL A   1      46.332  28.255  36.111  1.00  0.00     0.059 A 
ATOM     80  F   UNL A   1      45.554  29.887  34.615  1.00  0.00    -0.206 F 
ATOM     81  C   UNL A   1      46.055  27.241  37.027  1.00  0.00     0.060 A 
BRANCH  81  82
ATOM     82  S   UNL A   1      47.401  26.349  37.834  1.00  0.00     0.124 S 
ATOM     83  O   UNL A   1      48.327  26.147  36.726  1.00  0.00    -0.237 OA
ATOM     84  O   UNL A   1      47.829  27.299  38.858  1.00  0.00    -0.237 OA
ATOM     85  O   UNL A   1      46.748  25.147  38.342  1.00  0.00    -0.744 OA
ENDBRANCH  81  82
ENDBRANCH  49  74
BRANCH  61  86
ATOM     86  C   UNL A   1      39.890  33.989  37.443  1.00  0.00     0.058 A 
ATOM     87  C   UNL A   1      40.635  35.173  37.542  1.00  0.00     0.135 A 
ATOM     88  C   UNL A   1      39.025  33.665  38.501  1.00  0.00     0.135 A 
ATOM     89  F   UNL A   1      41.481  35.522  36.560  1.00  0.00    -0.206 F 
ATOM     90  C   UNL A   1      40.542  35.998  38.658  1.00  0.00     0.059 A 
ATOM     91  C   UNL A   1      38.897  34.488  39.616  1.00  0.00     0.059 A 
ATOM     92  F   UNL A   1      38.282  32.548  38.452  1.00  0.00    -0.206 F 
ATOM     93  C   UNL A   1      39.668  35.647  39.690  1.00  0.00     0.060 A 
BRANCH  93  94
ATOM     94  S   UNL A   1      39.527  36.746  41.116  1.00  0.00     0.124 S 
ATOM     95  O   UNL A   1      38.742  35.929  42.037  1.00  0.00    -0.237 OA
ATOM     96  O   UNL A   1      40.921  36.959  41.488  1.00  0.00    -0.237 OA
ATOM     97  O   UNL A   1      38.843  37.917  40.575  1.00  0.00    -0.744 OA
ENDBRANCH  93  94
ENDBRANCH  61  86
ENDBRANCH  35  36
ENDBRANCH  27  30
ENDBRANCH  25  26
ENDBRANCH  24  25
ENDBRANCH   1  24
TORSDOF 19
ENDMDL
