MODEL 1
REMARK VINA RESULT:     -12.4      0.000      0.000
REMARK SMILES CN(c1ccc(C(N)=O)nn1)[C@H]1COC[C@@H]1C(=O)NCCCCNC(=O)c1ccc(-c2c3nc(c(-c4c(F)cc(S(=O)(=O)[O-])cc4F)c4ccc([nH]4)c(-c4c(F)cc(S(=O)(=O)[O-])cc4F)c4nc(c(-c5c(F)cc(S(=O)(=O)[O-])cc5F)c5ccc2[nH]5)C=C4)C=C3)cc1
REMARK SMILES IDX 21 1 20 2 19 3 17 4 18 5 16 7 12 8 13 9 14 10 15 11 2 12
REMARK SMILES IDX 1 13 3 14 4 15 11 16 5 17 10 18 6 19 7 20 8 21 9 22 22 25
REMARK SMILES IDX 23 26 24 27 25 28 26 30 27 31 28 32 92 33 29 34 91 35 30 36
REMARK SMILES IDX 31 37 32 38 85 39 33 40 90 41 84 42 86 43 34 44 89 45 83 46
REMARK SMILES IDX 82 47 35 49 69 50 48 51 68 52 49 53 52 54 67 55 87 56 50 57
REMARK SMILES IDX 51 58 66 60 88 61 53 62 36 63 37 64 46 65 38 66 39 67 45 68
REMARK SMILES IDX 47 69 40 70 41 71 42 72 43 73 44 74 70 75 71 76 80 77 72 78
REMARK SMILES IDX 73 79 79 80 81 81 74 82 75 83 76 84 77 85 78 86 54 87 55 88
REMARK SMILES IDX 64 89 56 90 57 91 63 92 65 93 58 94 59 95 60 96 61 97 62 98
REMARK H PARENT 19 6 8 23 8 24 24 29 86 48 52 59
REMARK Flexibility Score: inf
ROOT
ATOM      1  C   UNL A   1      31.515  27.545  26.031  1.00  0.00     0.023 C 
ENDROOT
BRANCH   1   2
ATOM      2  C   UNL A   1      30.938  26.235  25.501  1.00  0.00     0.116 C 
BRANCH   2   3
ATOM      3  N   UNL A   1      30.843  25.220  26.533  1.00  0.00    -0.356 N 
ATOM      4  C   UNL A   1      31.224  23.910  26.516  1.00  0.00     0.227 C 
ATOM      5  O   UNL A   1      31.082  23.270  27.558  1.00  0.00    -0.275 OA
ATOM      6  H   UNL A   1      30.439  25.523  27.379  1.00  0.00     0.163 HD
BRANCH   4   7
ATOM      7  C   UNL A   1      31.741  23.275  25.229  1.00  0.00     0.129 C 
ATOM      8  C   UNL A   1      32.173  21.839  25.515  1.00  0.00     0.124 C 
ATOM      9  C   UNL A   1      33.606  22.102  26.028  1.00  0.00     0.186 C 
ATOM     10  O   UNL A   1      34.141  23.164  25.225  1.00  0.00    -0.378 OA
ATOM     11  C   UNL A   1      33.026  23.944  24.763  1.00  0.00     0.176 C 
BRANCH   8  12
ATOM     12  N   UNL A   1      32.135  20.929  24.326  1.00  0.00    -0.352 N 
ATOM     13  C   UNL A   1      32.242  21.480  22.981  1.00  0.00     0.145 C 
BRANCH  12  14
ATOM     14  C   UNL A   1      32.447  19.587  24.497  1.00  0.00     0.151 A 
ATOM     15  C   UNL A   1      32.763  18.746  23.431  1.00  0.00     0.051 A 
ATOM     16  N   UNL A   1      32.381  19.046  25.732  1.00  0.00    -0.132 NA
ATOM     17  C   UNL A   1      32.965  17.378  23.637  1.00  0.00     0.040 A 
ATOM     18  N   UNL A   1      32.582  17.701  25.963  1.00  0.00    -0.143 NA
ATOM     19  C   UNL A   1      32.852  16.890  24.922  1.00  0.00     0.150 A 
BRANCH  19  20
ATOM     20  C   UNL A   1      32.993  15.440  25.224  1.00  0.00     0.269 C 
ATOM     21  N   UNL A   1      31.835  14.764  25.498  1.00  0.00    -0.364 N 
ATOM     22  O   UNL A   1      34.084  14.878  25.218  1.00  0.00    -0.268 OA
ATOM     23  H   UNL A   1      30.974  15.242  25.496  1.00  0.00     0.160 HD
ATOM     24  H   UNL A   1      31.863  13.801  25.698  1.00  0.00     0.160 HD
ENDBRANCH  19  20
ENDBRANCH  12  14
ENDBRANCH   8  12
ENDBRANCH   4   7
ENDBRANCH   2   3
ENDBRANCH   1   2
BRANCH   1  25
ATOM     25  C   UNL A   1      32.949  27.453  26.558  1.00  0.00     0.023 C 
BRANCH  25  26
ATOM     26  C   UNL A   1      33.929  28.468  25.978  1.00  0.00     0.116 C 
BRANCH  26  27
ATOM     27  N   UNL A   1      33.638  29.833  26.384  1.00  0.00    -0.352 N 
ATOM     28  C   UNL A   1      34.287  30.630  27.296  1.00  0.00     0.251 C 
ATOM     29  H   UNL A   1      32.862  30.248  25.940  1.00  0.00     0.163 HD
ATOM     30  O   UNL A   1      33.802  31.715  27.604  1.00  0.00    -0.269 OA
BRANCH  28  31
ATOM     31  C   UNL A   1      35.547  30.174  27.926  1.00  0.00     0.039 A 
ATOM     32  C   UNL A   1      36.739  30.293  27.206  1.00  0.00     0.014 A 
ATOM     33  C   UNL A   1      35.563  29.628  29.212  1.00  0.00     0.014 A 
ATOM     34  C   UNL A   1      37.946  29.914  27.796  1.00  0.00     0.010 A 
ATOM     35  C   UNL A   1      36.776  29.335  29.831  1.00  0.00     0.010 A 
ATOM     36  C   UNL A   1      37.983  29.461  29.126  1.00  0.00    -0.014 A 
BRANCH  36  37
ATOM     37  C   UNL A   1      39.275  29.123  29.780  1.00  0.00     0.031 A 
ATOM     38  C   UNL A   1      39.770  29.916  30.960  1.00  0.00     0.074 A 
ATOM     39  C   UNL A   1      40.030  28.126  29.280  1.00  0.00     0.049 A 
ATOM     40  N   UNL A   1      40.860  29.752  31.666  1.00  0.00    -0.248 NA
ATOM     41  C   UNL A   1      38.950  31.062  31.383  1.00  0.00     0.031 C 
ATOM     42  C   UNL A   1      39.703  27.336  28.092  1.00  0.00     0.029 A 
ATOM     43  N   UNL A   1      41.230  27.608  29.702  1.00  0.00    -0.354 N 
ATOM     44  C   UNL A   1      40.862  30.777  32.606  1.00  0.00     0.074 A 
ATOM     45  C   UNL A   1      39.701  31.596  32.334  1.00  0.00     0.031 C 
ATOM     46  C   UNL A   1      40.661  26.417  27.896  1.00  0.00     0.029 A 
ATOM     47  C   UNL A   1      41.689  26.573  28.922  1.00  0.00     0.049 A 
ATOM     48  H   UNL A   1      41.714  27.945  30.489  1.00  0.00     0.167 HD
ATOM     49  C   UNL A   1      41.736  31.002  33.618  1.00  0.00     0.037 A 
ATOM     50  C   UNL A   1      42.811  25.832  29.016  1.00  0.00     0.037 A 
ATOM     51  C   UNL A   1      42.885  30.175  33.884  1.00  0.00     0.049 A 
ATOM     52  C   UNL A   1      43.756  26.075  30.159  1.00  0.00     0.074 A 
ATOM     53  C   UNL A   1      43.790  30.269  34.927  1.00  0.00     0.029 A 
ATOM     54  N   UNL A   1      43.300  29.114  33.091  1.00  0.00    -0.354 N 
ATOM     55  N   UNL A   1      43.688  26.983  31.104  1.00  0.00    -0.248 NA
ATOM     56  C   UNL A   1      44.919  25.184  30.262  1.00  0.00     0.031 C 
ATOM     57  C   UNL A   1      44.785  29.305  34.730  1.00  0.00     0.029 A 
ATOM     58  C   UNL A   1      44.465  28.564  33.602  1.00  0.00     0.049 A 
ATOM     59  H   UNL A   1      42.835  28.797  32.282  1.00  0.00     0.167 HD
ATOM     60  C   UNL A   1      44.788  26.762  31.925  1.00  0.00     0.074 A 
ATOM     61  C   UNL A   1      45.496  25.624  31.372  1.00  0.00     0.031 C 
ATOM     62  C   UNL A   1      45.170  27.437  33.039  1.00  0.00     0.037 A 
BRANCH  49  63
ATOM     63  C   UNL A   1      41.483  32.200  34.498  1.00  0.00     0.058 A 
ATOM     64  C   UNL A   1      40.647  32.132  35.626  1.00  0.00     0.135 A 
ATOM     65  C   UNL A   1      42.077  33.439  34.204  1.00  0.00     0.135 A 
ATOM     66  F   UNL A   1      40.045  30.978  35.954  1.00  0.00    -0.206 F 
ATOM     67  C   UNL A   1      40.360  33.260  36.389  1.00  0.00     0.059 A 
ATOM     68  C   UNL A   1      41.834  34.571  34.977  1.00  0.00     0.059 A 
ATOM     69  F   UNL A   1      42.893  33.564  33.145  1.00  0.00    -0.206 F 
ATOM     70  C   UNL A   1      40.952  34.477  36.052  1.00  0.00     0.060 A 
BRANCH  70  71
ATOM     71  S   UNL A   1      40.532  35.939  37.023  1.00  0.00     0.124 S 
ATOM     72  O   UNL A   1      39.727  36.699  36.071  1.00  0.00    -0.237 OA
ATOM     73  O   UNL A   1      39.804  35.367  38.152  1.00  0.00    -0.237 OA
ATOM     74  O   UNL A   1      41.832  36.518  37.348  1.00  0.00    -0.744 OA
ENDBRANCH  70  71
ENDBRANCH  49  63
BRANCH  50  75
ATOM     75  C   UNL A   1      43.067  24.775  28.001  1.00  0.00     0.058 A 
ATOM     76  C   UNL A   1      43.674  25.074  26.774  1.00  0.00     0.135 A 
ATOM     77  C   UNL A   1      42.782  23.428  28.280  1.00  0.00     0.135 A 
ATOM     78  F   UNL A   1      43.958  26.347  26.458  1.00  0.00    -0.206 F 
ATOM     79  C   UNL A   1      43.998  24.076  25.859  1.00  0.00     0.059 A 
ATOM     80  C   UNL A   1      43.120  22.411  27.393  1.00  0.00     0.059 A 
ATOM     81  F   UNL A   1      42.218  23.088  29.449  1.00  0.00    -0.206 F 
ATOM     82  C   UNL A   1      43.731  22.745  26.185  1.00  0.00     0.060 A 
BRANCH  82  83
ATOM     83  S   UNL A   1      44.254  21.450  25.040  1.00  0.00     0.124 S 
ATOM     84  O   UNL A   1      43.233  20.432  25.259  1.00  0.00    -0.237 OA
ATOM     85  O   UNL A   1      44.202  22.142  23.755  1.00  0.00    -0.237 OA
ATOM     86  O   UNL A   1      45.595  21.112  25.505  1.00  0.00    -0.744 OA
ENDBRANCH  82  83
ENDBRANCH  50  75
BRANCH  62  87
ATOM     87  C   UNL A   1      46.401  26.951  33.759  1.00  0.00     0.058 A 
ATOM     88  C   UNL A   1      47.673  27.483  33.496  1.00  0.00     0.135 A 
ATOM     89  C   UNL A   1      46.293  25.980  34.769  1.00  0.00     0.135 A 
ATOM     90  F   UNL A   1      47.836  28.408  32.538  1.00  0.00    -0.206 F 
ATOM     91  C   UNL A   1      48.800  27.050  34.190  1.00  0.00     0.059 A 
ATOM     92  C   UNL A   1      47.400  25.557  35.497  1.00  0.00     0.059 A 
ATOM     93  F   UNL A   1      45.099  25.447  35.069  1.00  0.00    -0.206 F 
ATOM     94  C   UNL A   1      48.652  26.088  35.192  1.00  0.00     0.060 A 
BRANCH  94  95
ATOM     95  S   UNL A   1      50.116  25.559  36.107  1.00  0.00     0.124 S 
ATOM     96  O   UNL A   1      49.526  24.722  37.147  1.00  0.00    -0.237 OA
ATOM     97  O   UNL A   1      50.885  24.855  35.086  1.00  0.00    -0.237 OA
ATOM     98  O   UNL A   1      50.700  26.815  36.570  1.00  0.00    -0.744 OA
ENDBRANCH  94  95
ENDBRANCH  62  87
ENDBRANCH  36  37
ENDBRANCH  28  31
ENDBRANCH  26  27
ENDBRANCH  25  26
ENDBRANCH   1  25
TORSDOF 17
ENDMDL
MODEL 2
REMARK VINA RESULT:     -12.3      3.268      9.288
REMARK SMILES CN(c1ccc(C(N)=O)nn1)[C@H]1COC[C@@H]1C(=O)NCCCCNC(=O)c1ccc(-c2c3nc(c(-c4c(F)cc(S(=O)(=O)[O-])cc4F)c4ccc([nH]4)c(-c4c(F)cc(S(=O)(=O)[O-])cc4F)c4nc(c(-c5c(F)cc(S(=O)(=O)[O-])cc5F)c5ccc2[nH]5)C=C4)C=C3)cc1
REMARK SMILES IDX 21 1 20 2 19 3 17 4 18 5 16 7 12 8 13 9 14 10 15 11 2 12
REMARK SMILES IDX 1 13 3 14 4 15 11 16 5 17 10 18 6 19 7 20 8 21 9 22 22 25
REMARK SMILES IDX 23 26 24 27 25 28 26 30 27 31 28 32 92 33 29 34 91 35 30 36
REMARK SMILES IDX 31 37 32 38 85 39 33 40 90 41 84 42 86 43 34 44 89 45 83 46
REMARK SMILES IDX 82 47 35 49 69 50 48 51 68 52 49 53 52 54 67 55 87 56 50 57
REMARK SMILES IDX 51 58 66 60 88 61 53 62 36 63 37 64 46 65 38 66 39 67 45 68
REMARK SMILES IDX 47 69 40 70 41 71 42 72 43 73 44 74 70 75 71 76 80 77 72 78
REMARK SMILES IDX 73 79 79 80 81 81 74 82 75 83 76 84 77 85 78 86 54 87 55 88
REMARK SMILES IDX 64 89 56 90 57 91 63 92 65 93 58 94 59 95 60 96 61 97 62 98
REMARK H PARENT 19 6 8 23 8 24 24 29 86 48 52 59
REMARK Flexibility Score: inf
ROOT
ATOM      1  C   UNL A   1      38.874  22.829  26.435  1.00  0.00     0.023 C 
ENDROOT
BRANCH   1   2
ATOM      2  C   UNL A   1      37.869  21.923  25.727  1.00  0.00     0.116 C 
BRANCH   2   3
ATOM      3  N   UNL A   1      37.638  22.330  24.353  1.00  0.00    -0.356 N 
ATOM      4  C   UNL A   1      36.491  22.739  23.739  1.00  0.00     0.227 C 
ATOM      5  O   UNL A   1      36.578  23.087  22.561  1.00  0.00    -0.275 OA
ATOM      6  H   UNL A   1      38.434  22.306  23.773  1.00  0.00     0.163 HD
BRANCH   4   7
ATOM      7  C   UNL A   1      35.161  22.696  24.484  1.00  0.00     0.129 C 
ATOM      8  C   UNL A   1      34.017  22.732  23.473  1.00  0.00     0.124 C 
ATOM      9  C   UNL A   1      33.913  24.257  23.261  1.00  0.00     0.186 C 
ATOM     10  O   UNL A   1      34.132  24.866  24.541  1.00  0.00    -0.378 OA
ATOM     11  C   UNL A   1      34.947  23.961  25.303  1.00  0.00     0.176 C 
BRANCH   8  12
ATOM     12  N   UNL A   1      32.739  22.120  23.958  1.00  0.00    -0.352 N 
ATOM     13  C   UNL A   1      31.474  22.816  23.759  1.00  0.00     0.145 C 
BRANCH  12  14
ATOM     14  C   UNL A   1      32.690  20.749  24.176  1.00  0.00     0.151 A 
ATOM     15  C   UNL A   1      32.853  20.181  25.439  1.00  0.00     0.051 A 
ATOM     16  N   UNL A   1      32.546  19.918  23.123  1.00  0.00    -0.132 NA
ATOM     17  C   UNL A   1      32.904  18.793  25.595  1.00  0.00     0.040 A 
ATOM     18  N   UNL A   1      32.586  18.546  23.250  1.00  0.00    -0.143 NA
ATOM     19  C   UNL A   1      32.780  18.006  24.469  1.00  0.00     0.150 A 
BRANCH  19  20
ATOM     20  C   UNL A   1      32.881  16.524  24.536  1.00  0.00     0.269 C 
ATOM     21  N   UNL A   1      31.980  15.892  25.350  1.00  0.00    -0.364 N 
ATOM     22  O   UNL A   1      33.718  15.899  23.891  1.00  0.00    -0.268 OA
ATOM     23  H   UNL A   1      31.320  16.419  25.856  1.00  0.00     0.160 HD
ATOM     24  H   UNL A   1      31.992  14.911  25.430  1.00  0.00     0.160 HD
ENDBRANCH  19  20
ENDBRANCH  12  14
ENDBRANCH   8  12
ENDBRANCH   4   7
ENDBRANCH   2   3
ENDBRANCH   1   2
BRANCH   1  25
ATOM     25  C   UNL A   1      40.175  22.143  26.859  1.00  0.00     0.023 C 
BRANCH  25  26
ATOM     26  C   UNL A   1      41.325  23.079  27.218  1.00  0.00     0.116 C 
BRANCH  26  27
ATOM     27  N   UNL A   1      41.854  23.795  26.069  1.00  0.00    -0.352 N 
ATOM     28  C   UNL A   1      41.991  25.148  25.871  1.00  0.00     0.251 C 
ATOM     29  H   UNL A   1      42.159  23.227  25.325  1.00  0.00     0.163 HD
ATOM     30  O   UNL A   1      42.335  25.565  24.769  1.00  0.00    -0.269 OA
BRANCH  28  31
ATOM     31  C   UNL A   1      41.701  26.099  26.968  1.00  0.00     0.039 A 
ATOM     32  C   UNL A   1      40.667  25.800  27.860  1.00  0.00     0.014 A 
ATOM     33  C   UNL A   1      42.433  27.279  27.122  1.00  0.00     0.014 A 
ATOM     34  C   UNL A   1      40.405  26.658  28.930  1.00  0.00     0.010 A 
ATOM     35  C   UNL A   1      42.230  28.086  28.240  1.00  0.00     0.010 A 
ATOM     36  C   UNL A   1      41.204  27.793  29.151  1.00  0.00    -0.014 A 
BRANCH  36  37
ATOM     37  C   UNL A   1      40.972  28.669  30.330  1.00  0.00     0.031 A 
ATOM     38  C   UNL A   1      41.794  28.509  31.581  1.00  0.00     0.074 A 
ATOM     39  C   UNL A   1      39.983  29.585  30.291  1.00  0.00     0.049 A 
ATOM     40  N   UNL A   1      41.744  29.194  32.695  1.00  0.00    -0.248 NA
ATOM     41  C   UNL A   1      42.778  27.416  31.595  1.00  0.00     0.031 C 
ATOM     42  C   UNL A   1      39.062  29.783  29.171  1.00  0.00     0.029 A 
ATOM     43  N   UNL A   1      39.584  30.515  31.218  1.00  0.00    -0.354 N 
ATOM     44  C   UNL A   1      42.679  28.611  33.543  1.00  0.00     0.074 A 
ATOM     45  C   UNL A   1      43.230  27.474  32.838  1.00  0.00     0.031 C 
ATOM     46  C   UNL A   1      38.224  30.789  29.463  1.00  0.00     0.029 A 
ATOM     47  C   UNL A   1      38.523  31.286  30.803  1.00  0.00     0.049 A 
ATOM     48  H   UNL A   1      40.015  30.621  32.096  1.00  0.00     0.167 HD
ATOM     49  C   UNL A   1      43.062  29.000  34.784  1.00  0.00     0.037 A 
ATOM     50  C   UNL A   1      37.861  32.279  31.429  1.00  0.00     0.037 A 
ATOM     51  C   UNL A   1      42.512  30.139  35.472  1.00  0.00     0.049 A 
ATOM     52  C   UNL A   1      38.315  32.718  32.793  1.00  0.00     0.074 A 
ATOM     53  C   UNL A   1      42.882  30.665  36.698  1.00  0.00     0.029 A 
ATOM     54  N   UNL A   1      41.461  30.918  35.007  1.00  0.00    -0.354 N 
ATOM     55  N   UNL A   1      39.274  32.223  33.540  1.00  0.00    -0.248 NA
ATOM     56  C   UNL A   1      37.614  33.860  33.393  1.00  0.00     0.031 C 
ATOM     57  C   UNL A   1      42.015  31.721  37.000  1.00  0.00     0.029 A 
ATOM     58  C   UNL A   1      41.147  31.899  35.933  1.00  0.00     0.049 A 
ATOM     59  H   UNL A   1      41.004  30.790  34.143  1.00  0.00     0.167 HD
ATOM     60  C   UNL A   1      39.304  33.003  34.689  1.00  0.00     0.074 A 
ATOM     61  C   UNL A   1      38.276  34.013  34.532  1.00  0.00     0.031 C 
ATOM     62  C   UNL A   1      40.115  32.895  35.773  1.00  0.00     0.037 A 
BRANCH  49  63
ATOM     63  C   UNL A   1      44.116  28.173  35.474  1.00  0.00     0.058 A 
ATOM     64  C   UNL A   1      45.490  28.404  35.280  1.00  0.00     0.135 A 
ATOM     65  C   UNL A   1      43.750  27.125  36.335  1.00  0.00     0.135 A 
ATOM     66  F   UNL A   1      45.902  29.385  34.463  1.00  0.00    -0.206 F 
ATOM     67  C   UNL A   1      46.456  27.589  35.862  1.00  0.00     0.059 A 
ATOM     68  C   UNL A   1      44.701  26.321  36.958  1.00  0.00     0.059 A 
ATOM     69  F   UNL A   1      42.455  26.861  36.568  1.00  0.00    -0.206 F 
ATOM     70  C   UNL A   1      46.051  26.544  36.693  1.00  0.00     0.060 A 
BRANCH  70  71
ATOM     71  S   UNL A   1      47.314  25.467  37.402  1.00  0.00     0.124 S 
ATOM     72  O   UNL A   1      48.496  25.869  36.645  1.00  0.00    -0.237 OA
ATOM     73  O   UNL A   1      47.302  25.855  38.809  1.00  0.00    -0.237 OA
ATOM     74  O   UNL A   1      46.815  24.124  37.120  1.00  0.00    -0.744 OA
ENDBRANCH  70  71
ENDBRANCH  49  63
BRANCH  50  75
ATOM     75  C   UNL A   1      36.717  32.933  30.738  1.00  0.00     0.058 A 
ATOM     76  C   UNL A   1      35.391  32.642  31.088  1.00  0.00     0.135 A 
ATOM     77  C   UNL A   1      36.936  33.927  29.770  1.00  0.00     0.135 A 
ATOM     78  F   UNL A   1      35.131  31.696  32.002  1.00  0.00    -0.206 F 
ATOM     79  C   UNL A   1      34.320  33.317  30.509  1.00  0.00     0.059 A 
ATOM     80  C   UNL A   1      35.884  34.633  29.196  1.00  0.00     0.059 A 
ATOM     81  F   UNL A   1      38.188  34.255  29.413  1.00  0.00    -0.206 F 
ATOM     82  C   UNL A   1      34.578  34.322  29.574  1.00  0.00     0.060 A 
BRANCH  82  83
ATOM     83  S   UNL A   1      33.188  35.265  28.910  1.00  0.00     0.124 S 
ATOM     84  O   UNL A   1      32.511  34.262  28.098  1.00  0.00    -0.237 OA
ATOM     85  O   UNL A   1      32.494  35.680  30.126  1.00  0.00    -0.237 OA
ATOM     86  O   UNL A   1      33.837  36.344  28.171  1.00  0.00    -0.744 OA
ENDBRANCH  82  83
ENDBRANCH  50  75
BRANCH  62  87
ATOM     87  C   UNL A   1      39.946  33.911  36.872  1.00  0.00     0.058 A 
ATOM     88  C   UNL A   1      40.627  35.139  36.860  1.00  0.00     0.135 A 
ATOM     89  C   UNL A   1      39.044  33.674  37.923  1.00  0.00     0.135 A 
ATOM     90  F   UNL A   1      41.505  35.416  35.884  1.00  0.00    -0.206 F 
ATOM     91  C   UNL A   1      40.438  36.085  37.864  1.00  0.00     0.059 A 
ATOM     92  C   UNL A   1      38.816  34.618  38.918  1.00  0.00     0.059 A 
ATOM     93  F   UNL A   1      38.358  32.522  37.978  1.00  0.00    -0.206 F 
ATOM     94  C   UNL A   1      39.527  35.816  38.888  1.00  0.00     0.060 A 
BRANCH  94  95
ATOM     95  S   UNL A   1      39.268  37.065  40.165  1.00  0.00     0.124 S 
ATOM     96  O   UNL A   1      40.640  37.416  40.516  1.00  0.00    -0.237 OA
ATOM     97  O   UNL A   1      38.513  38.090  39.451  1.00  0.00    -0.237 OA
ATOM     98  O   UNL A   1      38.521  36.349  41.196  1.00  0.00    -0.744 OA
ENDBRANCH  94  95
ENDBRANCH  62  87
ENDBRANCH  36  37
ENDBRANCH  28  31
ENDBRANCH  26  27
ENDBRANCH  25  26
ENDBRANCH   1  25
TORSDOF 17
ENDMDL
MODEL 3
REMARK VINA RESULT:     -12.2      2.511      3.024
REMARK SMILES CN(c1ccc(C(N)=O)nn1)[C@H]1COC[C@@H]1C(=O)NCCCCNC(=O)c1ccc(-c2c3nc(c(-c4c(F)cc(S(=O)(=O)[O-])cc4F)c4ccc([nH]4)c(-c4c(F)cc(S(=O)(=O)[O-])cc4F)c4nc(c(-c5c(F)cc(S(=O)(=O)[O-])cc5F)c5ccc2[nH]5)C=C4)C=C3)cc1
REMARK SMILES IDX 21 1 20 2 19 3 17 4 18 5 16 7 12 8 13 9 14 10 15 11 2 12
REMARK SMILES IDX 1 13 3 14 4 15 11 16 5 17 10 18 6 19 7 20 8 21 9 22 22 25
REMARK SMILES IDX 23 26 24 27 25 28 26 30 27 31 28 32 92 33 29 34 91 35 30 36
REMARK SMILES IDX 31 37 32 38 85 39 33 40 90 41 84 42 86 43 34 44 89 45 83 46
REMARK SMILES IDX 82 47 35 49 69 50 48 51 68 52 49 53 52 54 67 55 87 56 50 57
REMARK SMILES IDX 51 58 66 60 88 61 53 62 36 63 37 64 46 65 38 66 39 67 45 68
REMARK SMILES IDX 47 69 40 70 41 71 42 72 43 73 44 74 70 75 71 76 80 77 72 78
REMARK SMILES IDX 73 79 79 80 81 81 74 82 75 83 76 84 77 85 78 86 54 87 55 88
REMARK SMILES IDX 64 89 56 90 57 91 63 92 65 93 58 94 59 95 60 96 61 97 62 98
REMARK H PARENT 19 6 8 23 8 24 24 29 86 48 52 59
REMARK Flexibility Score: inf
ROOT
ATOM      1  C   UNL A   1      31.459  27.834  25.935  1.00  0.00     0.023 C 
ENDROOT
BRANCH   1   2
ATOM      2  C   UNL A   1      30.895  26.592  25.249  1.00  0.00     0.116 C 
BRANCH   2   3
ATOM      3  N   UNL A   1      30.446  25.595  26.202  1.00  0.00    -0.356 N 
ATOM      4  C   UNL A   1      30.858  24.308  26.389  1.00  0.00     0.227 C 
ATOM      5  O   UNL A   1      30.346  23.683  27.318  1.00  0.00    -0.275 OA
ATOM      6  H   UNL A   1      29.730  25.894  26.810  1.00  0.00     0.163 HD
BRANCH   4   7
ATOM      7  C   UNL A   1      31.864  23.676  25.433  1.00  0.00     0.129 C 
ATOM      8  C   UNL A   1      31.921  22.171  25.686  1.00  0.00     0.124 C 
ATOM      9  C   UNL A   1      32.931  22.148  26.854  1.00  0.00     0.186 C 
ATOM     10  O   UNL A   1      33.917  23.148  26.564  1.00  0.00    -0.378 OA
ATOM     11  C   UNL A   1      33.281  24.139  25.739  1.00  0.00     0.176 C 
BRANCH   8  12
ATOM     12  N   UNL A   1      32.369  21.359  24.509  1.00  0.00    -0.352 N 
ATOM     13  C   UNL A   1      32.715  22.018  23.256  1.00  0.00     0.145 C 
BRANCH  12  14
ATOM     14  C   UNL A   1      32.876  20.085  24.727  1.00  0.00     0.151 A 
ATOM     15  C   UNL A   1      34.205  19.750  24.471  1.00  0.00     0.051 A 
ATOM     16  N   UNL A   1      32.045  19.104  25.139  1.00  0.00    -0.132 NA
ATOM     17  C   UNL A   1      34.646  18.430  24.602  1.00  0.00     0.040 A 
ATOM     18  N   UNL A   1      32.456  17.796  25.282  1.00  0.00    -0.143 NA
ATOM     19  C   UNL A   1      33.733  17.475  24.998  1.00  0.00     0.150 A 
BRANCH  19  20
ATOM     20  C   UNL A   1      34.101  16.038  25.107  1.00  0.00     0.269 C 
ATOM     21  N   UNL A   1      35.424  15.768  25.333  1.00  0.00    -0.364 N 
ATOM     22  O   UNL A   1      33.267  15.144  25.009  1.00  0.00    -0.268 OA
ATOM     23  H   UNL A   1      36.072  16.507  25.407  1.00  0.00     0.160 HD
ATOM     24  H   UNL A   1      35.728  14.836  25.422  1.00  0.00     0.160 HD
ENDBRANCH  19  20
ENDBRANCH  12  14
ENDBRANCH   8  12
ENDBRANCH   4   7
ENDBRANCH   2   3
ENDBRANCH   1   2
BRANCH   1  25
ATOM     25  C   UNL A   1      32.983  27.970  25.874  1.00  0.00     0.023 C 
BRANCH  25  26
ATOM     26  C   UNL A   1      33.666  28.306  27.196  1.00  0.00     0.116 C 
BRANCH  26  27
ATOM     27  N   UNL A   1      33.559  29.712  27.548  1.00  0.00    -0.352 N 
ATOM     28  C   UNL A   1      34.490  30.540  28.131  1.00  0.00     0.251 C 
ATOM     29  H   UNL A   1      32.695  30.134  27.337  1.00  0.00     0.163 HD
ATOM     30  O   UNL A   1      34.160  31.670  28.477  1.00  0.00    -0.269 OA
BRANCH  28  31
ATOM     31  C   UNL A   1      35.872  30.063  28.367  1.00  0.00     0.039 A 
ATOM     32  C   UNL A   1      36.786  30.105  27.311  1.00  0.00     0.014 A 
ATOM     33  C   UNL A   1      36.270  29.574  29.614  1.00  0.00     0.014 A 
ATOM     34  C   UNL A   1      38.107  29.706  27.522  1.00  0.00     0.010 A 
ATOM     35  C   UNL A   1      37.608  29.261  29.845  1.00  0.00     0.010 A 
ATOM     36  C   UNL A   1      38.541  29.311  28.799  1.00  0.00    -0.014 A 
BRANCH  36  37
ATOM     37  C   UNL A   1      39.964  28.953  29.042  1.00  0.00     0.031 A 
ATOM     38  C   UNL A   1      40.923  29.959  29.619  1.00  0.00     0.074 A 
ATOM     39  C   UNL A   1      40.407  27.727  28.698  1.00  0.00     0.049 A 
ATOM     40  N   UNL A   1      42.190  29.818  29.916  1.00  0.00    -0.248 NA
ATOM     41  C   UNL A   1      40.399  31.312  29.865  1.00  0.00     0.031 C 
ATOM     42  C   UNL A   1      39.600  26.689  28.055  1.00  0.00     0.029 A 
ATOM     43  N   UNL A   1      41.644  27.147  28.835  1.00  0.00    -0.354 N 
ATOM     44  C   UNL A   1      42.615  31.061  30.372  1.00  0.00     0.074 A 
ATOM     45  C   UNL A   1      41.490  31.960  30.246  1.00  0.00     0.031 C 
ATOM     46  C   UNL A   1      40.353  25.592  27.879  1.00  0.00     0.029 A 
ATOM     47  C   UNL A   1      41.705  25.858  28.363  1.00  0.00     0.049 A 
ATOM     48  H   UNL A   1      42.415  27.612  29.234  1.00  0.00     0.167 HD
ATOM     49  C   UNL A   1      43.825  31.415  30.872  1.00  0.00     0.037 A 
ATOM     50  C   UNL A   1      42.730  24.984  28.320  1.00  0.00     0.037 A 
ATOM     51  C   UNL A   1      44.937  30.508  30.999  1.00  0.00     0.049 A 
ATOM     52  C   UNL A   1      44.057  25.382  28.903  1.00  0.00     0.074 A 
ATOM     53  C   UNL A   1      46.179  30.744  31.562  1.00  0.00     0.029 A 
ATOM     54  N   UNL A   1      44.950  29.198  30.541  1.00  0.00    -0.354 N 
ATOM     55  N   UNL A   1      44.414  26.530  29.429  1.00  0.00    -0.248 NA
ATOM     56  C   UNL A   1      45.115  24.364  28.907  1.00  0.00     0.031 C 
ATOM     57  C   UNL A   1      46.962  29.597  31.388  1.00  0.00     0.029 A 
ATOM     58  C   UNL A   1      46.188  28.622  30.777  1.00  0.00     0.049 A 
ATOM     59  H   UNL A   1      44.190  28.744  30.108  1.00  0.00     0.167 HD
ATOM     60  C   UNL A   1      45.730  26.368  29.843  1.00  0.00     0.074 A 
ATOM     61  C   UNL A   1      46.102  25.005  29.519  1.00  0.00     0.031 C 
ATOM     62  C   UNL A   1      46.553  27.267  30.442  1.00  0.00     0.037 A 
BRANCH  49  63
ATOM     63  C   UNL A   1      44.003  32.849  31.302  1.00  0.00     0.058 A 
ATOM     64  C   UNL A   1      44.447  33.844  30.413  1.00  0.00     0.135 A 
ATOM     65  C   UNL A   1      43.736  33.234  32.626  1.00  0.00     0.135 A 
ATOM     66  F   UNL A   1      44.725  33.535  29.137  1.00  0.00    -0.206 F 
ATOM     67  C   UNL A   1      44.680  35.148  30.837  1.00  0.00     0.059 A 
ATOM     68  C   UNL A   1      43.926  34.543  33.062  1.00  0.00     0.059 A 
ATOM     69  F   UNL A   1      43.300  32.332  33.520  1.00  0.00    -0.206 F 
ATOM     70  C   UNL A   1      44.425  35.486  32.166  1.00  0.00     0.060 A 
BRANCH  70  71
ATOM     71  S   UNL A   1      44.777  37.170  32.711  1.00  0.00     0.124 S 
ATOM     72  O   UNL A   1      43.433  37.734  32.798  1.00  0.00    -0.237 OA
ATOM     73  O   UNL A   1      45.456  36.952  33.984  1.00  0.00    -0.237 OA
ATOM     74  O   UNL A   1      45.614  37.707  31.641  1.00  0.00    -0.744 OA
ENDBRANCH  70  71
ENDBRANCH  49  63
BRANCH  50  75
ATOM     75  C   UNL A   1      42.511  23.641  27.721  1.00  0.00     0.058 A 
ATOM     76  C   UNL A   1      42.562  23.443  26.334  1.00  0.00     0.135 A 
ATOM     77  C   UNL A   1      42.330  22.512  28.537  1.00  0.00     0.135 A 
ATOM     78  F   UNL A   1      42.726  24.490  25.512  1.00  0.00    -0.206 F 
ATOM     79  C   UNL A   1      42.448  22.173  25.775  1.00  0.00     0.059 A 
ATOM     80  C   UNL A   1      42.240  21.230  28.003  1.00  0.00     0.059 A 
ATOM     81  F   UNL A   1      42.292  22.646  29.872  1.00  0.00    -0.206 F 
ATOM     82  C   UNL A   1      42.302  21.071  26.620  1.00  0.00     0.060 A 
BRANCH  82  83
ATOM     83  S   UNL A   1      42.265  19.419  25.891  1.00  0.00     0.124 S 
ATOM     84  O   UNL A   1      40.855  19.278  25.548  1.00  0.00    -0.237 OA
ATOM     85  O   UNL A   1      43.186  19.562  24.766  1.00  0.00    -0.237 OA
ATOM     86  O   UNL A   1      42.742  18.563  26.973  1.00  0.00    -0.744 OA
ENDBRANCH  82  83
ENDBRANCH  50  75
BRANCH  62  87
ATOM     87  C   UNL A   1      47.936  26.802  30.816  1.00  0.00     0.058 A 
ATOM     88  C   UNL A   1      49.051  27.055  30.001  1.00  0.00     0.135 A 
ATOM     89  C   UNL A   1      48.156  26.144  32.038  1.00  0.00     0.135 A 
ATOM     90  F   UNL A   1      48.899  27.674  28.820  1.00  0.00    -0.206 F 
ATOM     91  C   UNL A   1      50.330  26.649  30.371  1.00  0.00     0.059 A 
ATOM     92  C   UNL A   1      49.430  25.759  32.443  1.00  0.00     0.059 A 
ATOM     93  F   UNL A   1      47.128  25.887  32.862  1.00  0.00    -0.206 F 
ATOM     94  C   UNL A   1      50.509  26.005  31.597  1.00  0.00     0.060 A 
BRANCH  94  95
ATOM     95  S   UNL A   1      52.178  25.514  32.080  1.00  0.00     0.124 S 
ATOM     96  O   UNL A   1      51.994  24.097  32.378  1.00  0.00    -0.237 OA
ATOM     97  O   UNL A   1      52.952  25.815  30.880  1.00  0.00    -0.237 OA
ATOM     98  O   UNL A   1      52.463  26.364  33.233  1.00  0.00    -0.744 OA
ENDBRANCH  94  95
ENDBRANCH  62  87
ENDBRANCH  36  37
ENDBRANCH  28  31
ENDBRANCH  26  27
ENDBRANCH  25  26
ENDBRANCH   1  25
TORSDOF 17
ENDMDL
