MODEL 1
REMARK VINA RESULT:     -12.4      0.000      0.000
REMARK SMILES COc1ccc(C(=O)Nc2cccc(C(=O)NCCCCNC(=O)c3ccc(-c4c5nc(c(-c6c(F)cc(S(=O)(=O)[O-])cc6F)c6ccc([nH]6)c(-c6c(F)cc(S(=O)(=O)[O-])cc6F)c6nc(c(-c7c(F)cc(S(=O)(=O)[O-])cc7F)c7ccc4[nH]7)C=C6)C=C5)cc3)c2)cc1
REMARK SMILES IDX 19 1 18 2 17 3 15 4 16 5 14 7 10 8 11 9 91 10 12 11 13 12
REMARK SMILES IDX 9 13 7 14 8 15 6 17 3 18 4 19 93 20 5 21 92 22 2 23 1 24
REMARK SMILES IDX 20 25 21 26 22 27 23 28 24 30 25 31 26 32 90 33 27 34 89 35
REMARK SMILES IDX 28 36 29 37 30 38 83 39 31 40 88 41 82 42 84 43 32 44 87 45
REMARK SMILES IDX 81 46 80 47 33 49 67 50 46 51 66 52 47 53 50 54 65 55 85 56
REMARK SMILES IDX 48 57 49 58 64 60 86 61 51 62 34 63 35 64 44 65 36 66 37 67
REMARK SMILES IDX 43 68 45 69 38 70 39 71 40 72 41 73 42 74 68 75 69 76 78 77
REMARK SMILES IDX 70 78 71 79 77 80 79 81 72 82 73 83 74 84 75 85 76 86 52 87
REMARK SMILES IDX 53 88 62 89 54 90 55 91 61 92 63 93 56 94 57 95 58 96 59 97
REMARK SMILES IDX 60 98
REMARK H PARENT 17 6 9 16 22 29 84 48 50 59
REMARK Flexibility Score: inf
ROOT
ATOM      1  C   UNL A   1      32.990  30.664  27.277  1.00  0.00     0.023 C 
ENDROOT
BRANCH   1   2
ATOM      2  C   UNL A   1      32.119  30.482  26.033  1.00  0.00     0.116 C 
BRANCH   2   3
ATOM      3  N   UNL A   1      32.884  29.902  24.947  1.00  0.00    -0.352 N 
ATOM      4  C   UNL A   1      32.692  28.803  24.149  1.00  0.00     0.251 C 
ATOM      5  O   UNL A   1      33.540  28.589  23.280  1.00  0.00    -0.269 OA
ATOM      6  H   UNL A   1      33.708  30.400  24.739  1.00  0.00     0.163 HD
BRANCH   4   7
ATOM      7  C   UNL A   1      31.510  27.892  24.231  1.00  0.00     0.041 A 
ATOM      8  C   UNL A   1      30.166  26.127  25.221  1.00  0.00     0.042 A 
ATOM      9  C   UNL A   1      29.154  26.338  24.289  1.00  0.00     0.026 A 
ATOM     10  C   UNL A   1      31.372  26.829  25.124  1.00  0.00     0.040 A 
ATOM     11  C   UNL A   1      29.292  27.361  23.354  1.00  0.00     0.003 A 
ATOM     12  C   UNL A   1      30.449  28.147  23.346  1.00  0.00     0.014 A 
BRANCH   8  13
ATOM     13  N   UNL A   1      29.915  25.258  26.292  1.00  0.00    -0.322 N 
ATOM     14  C   UNL A   1      30.450  24.005  26.539  1.00  0.00     0.255 C 
ATOM     15  O   UNL A   1      29.911  23.278  27.373  1.00  0.00    -0.269 OA
ATOM     16  H   UNL A   1      29.269  25.582  26.961  1.00  0.00     0.170 HD
BRANCH  14  17
ATOM     17  C   UNL A   1      31.737  23.557  25.914  1.00  0.00     0.040 A 
ATOM     18  C   UNL A   1      34.116  22.634  24.699  1.00  0.00     0.118 A 
ATOM     19  C   UNL A   1      32.866  22.245  24.209  1.00  0.00     0.047 A 
ATOM     20  C   UNL A   1      34.175  23.464  25.816  1.00  0.00     0.047 A 
ATOM     21  C   UNL A   1      31.685  22.701  24.808  1.00  0.00     0.017 A 
ATOM     22  C   UNL A   1      32.995  23.890  26.440  1.00  0.00     0.017 A 
BRANCH  18  23
ATOM     23  O   UNL A   1      35.190  22.140  24.014  1.00  0.00    -0.497 OA
ATOM     24  C   UNL A   1      36.461  22.714  24.299  1.00  0.00     0.278 C 
ENDBRANCH  18  23
ENDBRANCH  14  17
ENDBRANCH   8  13
ENDBRANCH   4   7
ENDBRANCH   2   3
ENDBRANCH   1   2
BRANCH   1  25
ATOM     25  C   UNL A   1      34.184  29.710  27.335  1.00  0.00     0.023 C 
BRANCH  25  26
ATOM     26  C   UNL A   1      35.464  30.332  27.883  1.00  0.00     0.116 C 
BRANCH  26  27
ATOM     27  N   UNL A   1      35.410  30.607  29.310  1.00  0.00    -0.352 N 
ATOM     28  C   UNL A   1      36.374  30.361  30.262  1.00  0.00     0.251 C 
ATOM     29  H   UNL A   1      34.578  31.022  29.636  1.00  0.00     0.163 HD
ATOM     30  O   UNL A   1      36.145  30.552  31.442  1.00  0.00    -0.269 OA
BRANCH  28  31
ATOM     31  C   UNL A   1      37.678  29.816  29.823  1.00  0.00     0.039 A 
ATOM     32  C   UNL A   1      38.025  29.909  28.473  1.00  0.00     0.014 A 
ATOM     33  C   UNL A   1      38.568  29.263  30.747  1.00  0.00     0.014 A 
ATOM     34  C   UNL A   1      39.296  29.504  28.063  1.00  0.00     0.010 A 
ATOM     35  C   UNL A   1      39.857  28.931  30.348  1.00  0.00     0.010 A 
ATOM     36  C   UNL A   1      40.234  29.043  29.002  1.00  0.00    -0.014 A 
BRANCH  36  37
ATOM     37  C   UNL A   1      41.610  28.667  28.593  1.00  0.00     0.031 A 
ATOM     38  C   UNL A   1      42.693  29.710  28.547  1.00  0.00     0.074 A 
ATOM     39  C   UNL A   1      41.869  27.402  28.208  1.00  0.00     0.049 A 
ATOM     40  N   UNL A   1      43.941  29.588  28.176  1.00  0.00    -0.248 NA
ATOM     41  C   UNL A   1      42.315  31.076  28.944  1.00  0.00     0.031 C 
ATOM     42  C   UNL A   1      40.888  26.314  28.155  1.00  0.00     0.029 A 
ATOM     43  N   UNL A   1      43.034  26.817  27.782  1.00  0.00    -0.354 N 
ATOM     44  C   UNL A   1      44.492  30.860  28.280  1.00  0.00     0.074 A 
ATOM     45  C   UNL A   1      43.427  31.749  28.691  1.00  0.00     0.031 C 
ATOM     46  C   UNL A   1      41.500  25.189  27.752  1.00  0.00     0.029 A 
ATOM     47  C   UNL A   1      42.906  25.479  27.488  1.00  0.00     0.049 A 
ATOM     48  H   UNL A   1      43.883  27.308  27.696  1.00  0.00     0.167 HD
ATOM     49  C   UNL A   1      45.774  31.248  28.080  1.00  0.00     0.037 A 
ATOM     50  C   UNL A   1      43.820  24.587  27.059  1.00  0.00     0.037 A 
ATOM     51  C   UNL A   1      46.833  30.352  27.698  1.00  0.00     0.049 A 
ATOM     52  C   UNL A   1      45.242  25.036  26.856  1.00  0.00     0.074 A 
ATOM     53  C   UNL A   1      48.177  30.632  27.524  1.00  0.00     0.029 A 
ATOM     54  N   UNL A   1      46.669  29.000  27.432  1.00  0.00    -0.354 N 
ATOM     55  N   UNL A   1      45.760  26.231  27.020  1.00  0.00    -0.248 NA
ATOM     56  C   UNL A   1      46.204  24.017  26.416  1.00  0.00     0.031 C 
ATOM     57  C   UNL A   1      48.819  29.456  27.118  1.00  0.00     0.029 A 
ATOM     58  C   UNL A   1      47.884  28.435  27.082  1.00  0.00     0.049 A 
ATOM     59  H   UNL A   1      45.815  28.514  27.486  1.00  0.00     0.167 HD
ATOM     60  C   UNL A   1      47.113  26.101  26.733  1.00  0.00     0.074 A 
ATOM     61  C   UNL A   1      47.335  24.709  26.391  1.00  0.00     0.031 C 
ATOM     62  C   UNL A   1      48.086  27.045  26.752  1.00  0.00     0.037 A 
BRANCH  49  63
ATOM     63  C   UNL A   1      46.094  32.703  28.280  1.00  0.00     0.058 A 
ATOM     64  C   UNL A   1      46.013  33.626  27.224  1.00  0.00     0.135 A 
ATOM     65  C   UNL A   1      46.482  33.186  29.540  1.00  0.00     0.135 A 
ATOM     66  F   UNL A   1      45.662  33.217  25.993  1.00  0.00    -0.206 F 
ATOM     67  C   UNL A   1      46.346  34.965  27.398  1.00  0.00     0.059 A 
ATOM     68  C   UNL A   1      46.791  34.528  29.745  1.00  0.00     0.059 A 
ATOM     69  F   UNL A   1      46.575  32.349  30.586  1.00  0.00    -0.206 F 
ATOM     70  C   UNL A   1      46.740  35.405  28.662  1.00  0.00     0.060 A 
BRANCH  70  71
ATOM     71  S   UNL A   1      47.187  37.142  28.870  1.00  0.00     0.124 S 
ATOM     72  O   UNL A   1      46.398  37.772  27.816  1.00  0.00    -0.237 OA
ATOM     73  O   UNL A   1      46.753  37.417  30.237  1.00  0.00    -0.237 OA
ATOM     74  O   UNL A   1      48.632  37.148  28.662  1.00  0.00    -0.744 OA
ENDBRANCH  70  71
ENDBRANCH  49  63
BRANCH  50  75
ATOM     75  C   UNL A   1      43.425  23.171  26.839  1.00  0.00     0.058 A 
ATOM     76  C   UNL A   1      43.345  22.640  25.544  1.00  0.00     0.135 A 
ATOM     77  C   UNL A   1      43.150  22.313  27.915  1.00  0.00     0.135 A 
ATOM     78  F   UNL A   1      43.595  23.423  24.483  1.00  0.00    -0.206 F 
ATOM     79  C   UNL A   1      42.994  21.314  25.319  1.00  0.00     0.059 A 
ATOM     80  C   UNL A   1      42.819  20.976  27.717  1.00  0.00     0.059 A 
ATOM     81  F   UNL A   1      43.230  22.768  29.176  1.00  0.00    -0.206 F 
ATOM     82  C   UNL A   1      42.737  20.487  26.414  1.00  0.00     0.060 A 
BRANCH  82  83
ATOM     83  S   UNL A   1      42.342  18.750  26.113  1.00  0.00     0.124 S 
ATOM     84  O   UNL A   1      42.612  18.158  27.417  1.00  0.00    -0.237 OA
ATOM     85  O   UNL A   1      40.938  18.819  25.720  1.00  0.00    -0.237 OA
ATOM     86  O   UNL A   1      43.265  18.377  25.045  1.00  0.00    -0.744 OA
ENDBRANCH  82  83
ENDBRANCH  50  75
BRANCH  62  87
ATOM     87  C   UNL A   1      49.485  26.604  26.428  1.00  0.00     0.058 A 
ATOM     88  C   UNL A   1      50.293  25.961  27.378  1.00  0.00     0.135 A 
ATOM     89  C   UNL A   1      50.002  26.777  25.135  1.00  0.00     0.135 A 
ATOM     90  F   UNL A   1      49.849  25.777  28.631  1.00  0.00    -0.206 F 
ATOM     91  C   UNL A   1      51.576  25.522  27.062  1.00  0.00     0.059 A 
ATOM     92  C   UNL A   1      51.271  26.324  24.789  1.00  0.00     0.059 A 
ATOM     93  F   UNL A   1      49.265  27.377  24.187  1.00  0.00    -0.206 F 
ATOM     94  C   UNL A   1      52.055  25.706  25.763  1.00  0.00     0.060 A 
BRANCH  94  95
ATOM     95  S   UNL A   1      53.704  25.097  25.353  1.00  0.00     0.124 S 
ATOM     96  O   UNL A   1      54.503  25.666  26.432  1.00  0.00    -0.237 OA
ATOM     97  O   UNL A   1      53.522  23.649  25.395  1.00  0.00    -0.237 OA
ATOM     98  O   UNL A   1      53.952  25.653  24.026  1.00  0.00    -0.744 OA
ENDBRANCH  94  95
ENDBRANCH  62  87
ENDBRANCH  36  37
ENDBRANCH  28  31
ENDBRANCH  26  27
ENDBRANCH  25  26
ENDBRANCH   1  25
TORSDOF 17
ENDMDL
MODEL 2
REMARK VINA RESULT:     -12.3      6.125      8.092
REMARK SMILES COc1ccc(C(=O)Nc2cccc(C(=O)NCCCCNC(=O)c3ccc(-c4c5nc(c(-c6c(F)cc(S(=O)(=O)[O-])cc6F)c6ccc([nH]6)c(-c6c(F)cc(S(=O)(=O)[O-])cc6F)c6nc(c(-c7c(F)cc(S(=O)(=O)[O-])cc7F)c7ccc4[nH]7)C=C6)C=C5)cc3)c2)cc1
REMARK SMILES IDX 19 1 18 2 17 3 15 4 16 5 14 7 10 8 11 9 91 10 12 11 13 12
REMARK SMILES IDX 9 13 7 14 8 15 6 17 3 18 4 19 93 20 5 21 92 22 2 23 1 24
REMARK SMILES IDX 20 25 21 26 22 27 23 28 24 30 25 31 26 32 90 33 27 34 89 35
REMARK SMILES IDX 28 36 29 37 30 38 83 39 31 40 88 41 82 42 84 43 32 44 87 45
REMARK SMILES IDX 81 46 80 47 33 49 67 50 46 51 66 52 47 53 50 54 65 55 85 56
REMARK SMILES IDX 48 57 49 58 64 60 86 61 51 62 34 63 35 64 44 65 36 66 37 67
REMARK SMILES IDX 43 68 45 69 38 70 39 71 40 72 41 73 42 74 68 75 69 76 78 77
REMARK SMILES IDX 70 78 71 79 77 80 79 81 72 82 73 83 74 84 75 85 76 86 52 87
REMARK SMILES IDX 53 88 62 89 54 90 55 91 61 92 63 93 56 94 57 95 58 96 59 97
REMARK SMILES IDX 60 98
REMARK H PARENT 17 6 9 16 22 29 84 48 50 59
REMARK Flexibility Score: inf
ROOT
ATOM      1  C   UNL A   1      31.569  31.063  26.119  1.00  0.00     0.023 C 
ENDROOT
BRANCH   1   2
ATOM      2  C   UNL A   1      32.748  30.188  26.546  1.00  0.00     0.116 C 
BRANCH   2   3
ATOM      3  N   UNL A   1      33.474  29.699  25.390  1.00  0.00    -0.352 N 
ATOM      4  C   UNL A   1      33.228  28.696  24.486  1.00  0.00     0.251 C 
ATOM      5  O   UNL A   1      34.053  28.544  23.583  1.00  0.00    -0.269 OA
ATOM      6  H   UNL A   1      34.313  30.185  25.218  1.00  0.00     0.163 HD
BRANCH   4   7
ATOM      7  C   UNL A   1      32.015  27.823  24.497  1.00  0.00     0.041 A 
ATOM      8  C   UNL A   1      30.560  26.100  25.400  1.00  0.00     0.042 A 
ATOM      9  C   UNL A   1      29.609  26.348  24.414  1.00  0.00     0.026 A 
ATOM     10  C   UNL A   1      31.792  26.762  25.374  1.00  0.00     0.040 A 
ATOM     11  C   UNL A   1      29.832  27.369  23.495  1.00  0.00     0.003 A 
ATOM     12  C   UNL A   1      31.013  28.117  23.556  1.00  0.00     0.014 A 
BRANCH   8  13
ATOM     13  N   UNL A   1      30.221  25.235  26.450  1.00  0.00    -0.322 N 
ATOM     14  C   UNL A   1      30.590  23.914  26.642  1.00  0.00     0.255 C 
ATOM     15  O   UNL A   1      29.979  23.236  27.468  1.00  0.00    -0.269 OA
ATOM     16  H   UNL A   1      29.641  25.619  27.147  1.00  0.00     0.170 HD
BRANCH  14  17
ATOM     17  C   UNL A   1      31.790  23.321  25.966  1.00  0.00     0.040 A 
ATOM     18  C   UNL A   1      34.109  22.269  24.741  1.00  0.00     0.118 A 
ATOM     19  C   UNL A   1      34.190  22.945  25.963  1.00  0.00     0.047 A 
ATOM     20  C   UNL A   1      32.870  22.144  24.119  1.00  0.00     0.047 A 
ATOM     21  C   UNL A   1      33.043  23.467  26.572  1.00  0.00     0.017 A 
ATOM     22  C   UNL A   1      31.727  22.699  24.710  1.00  0.00     0.017 A 
BRANCH  18  23
ATOM     23  O   UNL A   1      35.295  21.787  24.263  1.00  0.00    -0.497 OA
ATOM     24  C   UNL A   1      35.983  20.839  25.072  1.00  0.00     0.278 C 
ENDBRANCH  18  23
ENDBRANCH  14  17
ENDBRANCH   8  13
ENDBRANCH   4   7
ENDBRANCH   2   3
ENDBRANCH   1   2
BRANCH   1  25
ATOM     25  C   UNL A   1      31.463  32.375  26.899  1.00  0.00     0.023 C 
BRANCH  25  26
ATOM     26  C   UNL A   1      32.795  32.922  27.399  1.00  0.00     0.116 C 
BRANCH  26  27
ATOM     27  N   UNL A   1      32.708  34.283  27.905  1.00  0.00    -0.352 N 
ATOM     28  C   UNL A   1      33.477  34.880  28.880  1.00  0.00     0.251 C 
ATOM     29  H   UNL A   1      32.013  34.849  27.498  1.00  0.00     0.163 HD
ATOM     30  O   UNL A   1      33.219  36.003  29.273  1.00  0.00    -0.269 OA
BRANCH  28  31
ATOM     31  C   UNL A   1      34.593  34.108  29.470  1.00  0.00     0.039 A 
ATOM     32  C   UNL A   1      35.895  34.372  29.039  1.00  0.00     0.014 A 
ATOM     33  C   UNL A   1      34.356  33.169  30.477  1.00  0.00     0.014 A 
ATOM     34  C   UNL A   1      36.967  33.735  29.665  1.00  0.00     0.010 A 
ATOM     35  C   UNL A   1      35.429  32.593  31.148  1.00  0.00     0.010 A 
ATOM     36  C   UNL A   1      36.745  32.867  30.747  1.00  0.00    -0.014 A 
BRANCH  36  37
ATOM     37  C   UNL A   1      37.876  32.229  31.466  1.00  0.00     0.031 A 
ATOM     38  C   UNL A   1      38.302  32.750  32.811  1.00  0.00     0.074 A 
ATOM     39  C   UNL A   1      38.555  31.222  30.882  1.00  0.00     0.049 A 
ATOM     40  N   UNL A   1      39.290  32.358  33.573  1.00  0.00    -0.248 NA
ATOM     41  C   UNL A   1      37.534  33.879  33.358  1.00  0.00     0.031 C 
ATOM     42  C   UNL A   1      38.273  30.668  29.555  1.00  0.00     0.029 A 
ATOM     43  N   UNL A   1      39.626  30.488  31.325  1.00  0.00    -0.354 N 
ATOM     44  C   UNL A   1      39.271  33.199  34.679  1.00  0.00     0.074 A 
ATOM     45  C   UNL A   1      38.213  34.160  34.460  1.00  0.00     0.031 C 
ATOM     46  C   UNL A   1      39.127  29.662  29.308  1.00  0.00     0.029 A 
ATOM     47  C   UNL A   1      40.037  29.519  30.440  1.00  0.00     0.049 A 
ATOM     48  H   UNL A   1      40.059  30.641  32.196  1.00  0.00     0.167 HD
ATOM     49  C   UNL A   1      40.045  33.157  35.789  1.00  0.00     0.037 A 
ATOM     50  C   UNL A   1      41.032  28.616  30.533  1.00  0.00     0.037 A 
ATOM     51  C   UNL A   1      41.078  32.181  36.012  1.00  0.00     0.049 A 
ATOM     52  C   UNL A   1      41.871  28.579  31.782  1.00  0.00     0.074 A 
ATOM     53  C   UNL A   1      41.882  32.016  37.126  1.00  0.00     0.029 A 
ATOM     54  N   UNL A   1      41.450  31.200  35.102  1.00  0.00    -0.354 N 
ATOM     55  N   UNL A   1      41.799  29.341  32.847  1.00  0.00    -0.248 NA
ATOM     56  C   UNL A   1      42.923  27.554  31.844  1.00  0.00     0.031 C 
ATOM     57  C   UNL A   1      42.764  30.958  36.875  1.00  0.00     0.029 A 
ATOM     58  C   UNL A   1      42.481  30.436  35.623  1.00  0.00     0.049 A 
ATOM     59  H   UNL A   1      41.040  31.068  34.217  1.00  0.00     0.167 HD
ATOM     60  C   UNL A   1      42.774  28.871  33.718  1.00  0.00     0.074 A 
ATOM     61  C   UNL A   1      43.419  27.753  33.058  1.00  0.00     0.031 C 
ATOM     62  C   UNL A   1      43.104  29.322  34.954  1.00  0.00     0.037 A 
BRANCH  49  63
ATOM     63  C   UNL A   1      39.793  34.196  36.847  1.00  0.00     0.058 A 
ATOM     64  C   UNL A   1      40.284  35.506  36.722  1.00  0.00     0.135 A 
ATOM     65  C   UNL A   1      39.048  33.885  37.996  1.00  0.00     0.135 A 
ATOM     66  F   UNL A   1      41.015  35.856  35.651  1.00  0.00    -0.206 F 
ATOM     67  C   UNL A   1      40.083  36.458  37.717  1.00  0.00     0.059 A 
ATOM     68  C   UNL A   1      38.810  34.829  38.991  1.00  0.00     0.059 A 
ATOM     69  F   UNL A   1      38.554  32.648  38.167  1.00  0.00    -0.206 F 
ATOM     70  C   UNL A   1      39.350  36.107  38.851  1.00  0.00     0.060 A 
BRANCH  70  71
ATOM     71  S   UNL A   1      39.114  37.346  40.142  1.00  0.00     0.124 S 
ATOM     72  O   UNL A   1      38.315  38.346  39.441  1.00  0.00    -0.237 OA
ATOM     73  O   UNL A   1      38.416  36.591  41.179  1.00  0.00    -0.237 OA
ATOM     74  O   UNL A   1      40.475  37.752  40.477  1.00  0.00    -0.744 OA
ENDBRANCH  70  71
ENDBRANCH  49  63
BRANCH  50  75
ATOM     75  C   UNL A   1      41.255  27.644  29.431  1.00  0.00     0.058 A 
ATOM     76  C   UNL A   1      42.357  27.771  28.574  1.00  0.00     0.135 A 
ATOM     77  C   UNL A   1      40.392  26.556  29.229  1.00  0.00     0.135 A 
ATOM     78  F   UNL A   1      43.207  28.798  28.724  1.00  0.00    -0.206 F 
ATOM     79  C   UNL A   1      42.592  26.863  27.547  1.00  0.00     0.059 A 
ATOM     80  C   UNL A   1      40.618  25.621  28.224  1.00  0.00     0.059 A 
ATOM     81  F   UNL A   1      39.332  26.380  30.034  1.00  0.00    -0.206 F 
ATOM     82  C   UNL A   1      41.718  25.787  27.383  1.00  0.00     0.060 A 
BRANCH  82  83
ATOM     83  S   UNL A   1      42.066  24.579  26.086  1.00  0.00     0.124 S 
ATOM     84  O   UNL A   1      40.820  23.824  26.045  1.00  0.00    -0.237 OA
ATOM     85  O   UNL A   1      42.334  25.434  24.934  1.00  0.00    -0.237 OA
ATOM     86  O   UNL A   1      43.226  23.857  26.602  1.00  0.00    -0.744 OA
ENDBRANCH  82  83
ENDBRANCH  50  75
BRANCH  62  87
ATOM     87  C   UNL A   1      44.189  28.587  35.691  1.00  0.00     0.058 A 
ATOM     88  C   UNL A   1      43.900  27.516  36.550  1.00  0.00     0.135 A 
ATOM     89  C   UNL A   1      45.537  28.923  35.489  1.00  0.00     0.135 A 
ATOM     90  F   UNL A   1      42.627  27.159  36.782  1.00  0.00    -0.206 F 
ATOM     91  C   UNL A   1      44.911  26.816  37.202  1.00  0.00     0.059 A 
ATOM     92  C   UNL A   1      46.565  28.221  36.109  1.00  0.00     0.059 A 
ATOM     93  F   UNL A   1      45.866  29.933  34.668  1.00  0.00    -0.206 F 
ATOM     94  C   UNL A   1      46.241  27.175  36.973  1.00  0.00     0.060 A 
BRANCH  94  95
ATOM     95  S   UNL A   1      47.546  26.234  37.792  1.00  0.00     0.124 S 
ATOM     96  O   UNL A   1      48.347  27.299  38.386  1.00  0.00    -0.237 OA
ATOM     97  O   UNL A   1      46.794  25.408  38.732  1.00  0.00    -0.237 OA
ATOM     98  O   UNL A   1      48.180  25.507  36.696  1.00  0.00    -0.744 OA
ENDBRANCH  94  95
ENDBRANCH  62  87
ENDBRANCH  36  37
ENDBRANCH  28  31
ENDBRANCH  26  27
ENDBRANCH  25  26
ENDBRANCH   1  25
TORSDOF 17
ENDMDL
MODEL 3
REMARK VINA RESULT:     -12.1      2.666      3.515
REMARK SMILES COc1ccc(C(=O)Nc2cccc(C(=O)NCCCCNC(=O)c3ccc(-c4c5nc(c(-c6c(F)cc(S(=O)(=O)[O-])cc6F)c6ccc([nH]6)c(-c6c(F)cc(S(=O)(=O)[O-])cc6F)c6nc(c(-c7c(F)cc(S(=O)(=O)[O-])cc7F)c7ccc4[nH]7)C=C6)C=C5)cc3)c2)cc1
REMARK SMILES IDX 19 1 18 2 17 3 15 4 16 5 14 7 10 8 11 9 91 10 12 11 13 12
REMARK SMILES IDX 9 13 7 14 8 15 6 17 3 18 4 19 93 20 5 21 92 22 2 23 1 24
REMARK SMILES IDX 20 25 21 26 22 27 23 28 24 30 25 31 26 32 90 33 27 34 89 35
REMARK SMILES IDX 28 36 29 37 30 38 83 39 31 40 88 41 82 42 84 43 32 44 87 45
REMARK SMILES IDX 81 46 80 47 33 49 67 50 46 51 66 52 47 53 50 54 65 55 85 56
REMARK SMILES IDX 48 57 49 58 64 60 86 61 51 62 34 63 35 64 44 65 36 66 37 67
REMARK SMILES IDX 43 68 45 69 38 70 39 71 40 72 41 73 42 74 68 75 69 76 78 77
REMARK SMILES IDX 70 78 71 79 77 80 79 81 72 82 73 83 74 84 75 85 76 86 52 87
REMARK SMILES IDX 53 88 62 89 54 90 55 91 61 92 63 93 56 94 57 95 58 96 59 97
REMARK SMILES IDX 60 98
REMARK H PARENT 17 6 9 16 22 29 84 48 50 59
REMARK Flexibility Score: inf
ROOT
ATOM      1  C   UNL A   1      34.386  28.360  24.609  1.00  0.00     0.023 C 
ENDROOT
BRANCH   1   2
ATOM      2  C   UNL A   1      33.894  28.839  23.243  1.00  0.00     0.116 C 
BRANCH   2   3
ATOM      3  N   UNL A   1      33.842  27.741  22.297  1.00  0.00    -0.352 N 
ATOM      4  C   UNL A   1      32.938  26.732  22.084  1.00  0.00     0.251 C 
ATOM      5  O   UNL A   1      33.181  25.950  21.163  1.00  0.00    -0.269 OA
ATOM      6  H   UNL A   1      34.611  27.716  21.683  1.00  0.00     0.163 HD
BRANCH   4   7
ATOM      7  C   UNL A   1      31.669  26.553  22.853  1.00  0.00     0.041 A 
ATOM      8  C   UNL A   1      30.312  25.700  24.679  1.00  0.00     0.042 A 
ATOM      9  C   UNL A   1      29.211  26.427  24.236  1.00  0.00     0.026 A 
ATOM     10  C   UNL A   1      31.495  25.686  23.932  1.00  0.00     0.040 A 
ATOM     11  C   UNL A   1      29.346  27.261  23.129  1.00  0.00     0.003 A 
ATOM     12  C   UNL A   1      30.573  27.343  22.463  1.00  0.00     0.014 A 
BRANCH   8  13
ATOM     13  N   UNL A   1      30.227  25.051  25.919  1.00  0.00    -0.322 N 
ATOM     14  C   UNL A   1      30.868  23.900  26.344  1.00  0.00     0.255 C 
ATOM     15  O   UNL A   1      30.465  23.330  27.357  1.00  0.00    -0.269 OA
ATOM     16  H   UNL A   1      29.629  25.472  26.578  1.00  0.00     0.170 HD
BRANCH  14  17
ATOM     17  C   UNL A   1      32.116  23.398  25.681  1.00  0.00     0.040 A 
ATOM     18  C   UNL A   1      34.513  22.536  24.458  1.00  0.00     0.118 A 
ATOM     19  C   UNL A   1      34.536  23.482  25.487  1.00  0.00     0.047 A 
ATOM     20  C   UNL A   1      33.286  22.042  24.022  1.00  0.00     0.047 A 
ATOM     21  C   UNL A   1      33.350  23.911  26.096  1.00  0.00     0.017 A 
ATOM     22  C   UNL A   1      32.097  22.499  24.604  1.00  0.00     0.017 A 
BRANCH  18  23
ATOM     23  O   UNL A   1      35.737  22.184  23.964  1.00  0.00    -0.497 OA
ATOM     24  C   UNL A   1      36.859  22.934  24.417  1.00  0.00     0.278 C 
ENDBRANCH  18  23
ENDBRANCH  14  17
ENDBRANCH   8  13
ENDBRANCH   4   7
ENDBRANCH   2   3
ENDBRANCH   1   2
BRANCH   1  25
ATOM     25  C   UNL A   1      33.265  28.162  25.631  1.00  0.00     0.023 C 
BRANCH  25  26
ATOM     26  C   UNL A   1      33.682  28.387  27.080  1.00  0.00     0.116 C 
BRANCH  26  27
ATOM     27  N   UNL A   1      33.526  29.765  27.518  1.00  0.00    -0.352 N 
ATOM     28  C   UNL A   1      34.458  30.573  28.132  1.00  0.00     0.251 C 
ATOM     29  H   UNL A   1      32.644  30.171  27.356  1.00  0.00     0.163 HD
ATOM     30  O   UNL A   1      34.149  31.679  28.537  1.00  0.00    -0.269 OA
BRANCH  28  31
ATOM     31  C   UNL A   1      35.828  30.049  28.328  1.00  0.00     0.039 A 
ATOM     32  C   UNL A   1      36.729  30.110  27.264  1.00  0.00     0.014 A 
ATOM     33  C   UNL A   1      36.228  29.550  29.570  1.00  0.00     0.014 A 
ATOM     34  C   UNL A   1      38.056  29.725  27.466  1.00  0.00     0.010 A 
ATOM     35  C   UNL A   1      37.566  29.239  29.788  1.00  0.00     0.010 A 
ATOM     36  C   UNL A   1      38.493  29.319  28.739  1.00  0.00    -0.014 A 
BRANCH  36  37
ATOM     37  C   UNL A   1      39.912  28.967  28.988  1.00  0.00     0.031 A 
ATOM     38  C   UNL A   1      40.848  29.985  29.578  1.00  0.00     0.074 A 
ATOM     39  C   UNL A   1      40.371  27.752  28.628  1.00  0.00     0.049 A 
ATOM     40  N   UNL A   1      42.128  29.884  29.828  1.00  0.00    -0.248 NA
ATOM     41  C   UNL A   1      40.275  31.302  29.903  1.00  0.00     0.031 C 
ATOM     42  C   UNL A   1      39.573  26.698  27.994  1.00  0.00     0.029 A 
ATOM     43  N   UNL A   1      41.621  27.198  28.739  1.00  0.00    -0.354 N 
ATOM     44  C   UNL A   1      42.515  31.123  30.325  1.00  0.00     0.074 A 
ATOM     45  C   UNL A   1      41.349  31.978  30.283  1.00  0.00     0.031 C 
ATOM     46  C   UNL A   1      40.346  25.617  27.802  1.00  0.00     0.029 A 
ATOM     47  C   UNL A   1      41.698  25.907  28.268  1.00  0.00     0.049 A 
ATOM     48  H   UNL A   1      42.391  27.678  29.120  1.00  0.00     0.167 HD
ATOM     49  C   UNL A   1      43.724  31.506  30.799  1.00  0.00     0.037 A 
ATOM     50  C   UNL A   1      42.740  25.055  28.222  1.00  0.00     0.037 A 
ATOM     51  C   UNL A   1      44.872  30.641  30.863  1.00  0.00     0.049 A 
ATOM     52  C   UNL A   1      44.071  25.497  28.767  1.00  0.00     0.074 A 
ATOM     53  C   UNL A   1      46.128  30.913  31.377  1.00  0.00     0.029 A 
ATOM     54  N   UNL A   1      44.905  29.333  30.398  1.00  0.00    -0.354 N 
ATOM     55  N   UNL A   1      44.405  26.652  29.292  1.00  0.00    -0.248 NA
ATOM     56  C   UNL A   1      45.166  24.517  28.720  1.00  0.00     0.031 C 
ATOM     57  C   UNL A   1      46.930  29.781  31.191  1.00  0.00     0.029 A 
ATOM     58  C   UNL A   1      46.163  28.790  30.600  1.00  0.00     0.049 A 
ATOM     59  H   UNL A   1      44.146  28.862  29.986  1.00  0.00     0.167 HD
ATOM     60  C   UNL A   1      45.738  26.530  29.664  1.00  0.00     0.074 A 
ATOM     61  C   UNL A   1      46.148  25.185  29.311  1.00  0.00     0.031 C 
ATOM     62  C   UNL A   1      46.549  27.445  30.249  1.00  0.00     0.037 A 
BRANCH  49  63
ATOM     63  C   UNL A   1      43.856  32.920  31.292  1.00  0.00     0.058 A 
ATOM     64  C   UNL A   1      43.489  33.281  32.599  1.00  0.00     0.135 A 
ATOM     65  C   UNL A   1      44.358  33.929  30.454  1.00  0.00     0.135 A 
ATOM     66  F   UNL A   1      42.988  32.360  33.440  1.00  0.00    -0.206 F 
ATOM     67  C   UNL A   1      43.576  34.596  33.045  1.00  0.00     0.059 A 
ATOM     68  C   UNL A   1      44.481  35.246  30.887  1.00  0.00     0.059 A 
ATOM     69  F   UNL A   1      44.726  33.641  29.195  1.00  0.00    -0.206 F 
ATOM     70  C   UNL A   1      44.067  35.573  32.178  1.00  0.00     0.060 A 
BRANCH  70  71
ATOM     71  S   UNL A   1      44.156  37.278  32.762  1.00  0.00     0.124 S 
ATOM     72  O   UNL A   1      43.093  37.297  33.763  1.00  0.00    -0.237 OA
ATOM     73  O   UNL A   1      45.517  37.362  33.282  1.00  0.00    -0.237 OA
ATOM     74  O   UNL A   1      43.898  38.063  31.559  1.00  0.00    -0.744 OA
ENDBRANCH  70  71
ENDBRANCH  49  63
BRANCH  50  75
ATOM     75  C   UNL A   1      42.550  23.683  27.682  1.00  0.00     0.058 A 
ATOM     76  C   UNL A   1      42.624  23.438  26.303  1.00  0.00     0.135 A 
ATOM     77  C   UNL A   1      42.321  22.588  28.530  1.00  0.00     0.135 A 
ATOM     78  F   UNL A   1      42.836  24.454  25.453  1.00  0.00    -0.206 F 
ATOM     79  C   UNL A   1      42.466  22.159  25.780  1.00  0.00     0.059 A 
ATOM     80  C   UNL A   1      42.183  21.296  28.032  1.00  0.00     0.059 A 
ATOM     81  F   UNL A   1      42.260  22.768  29.858  1.00  0.00    -0.206 F 
ATOM     82  C   UNL A   1      42.250  21.093  26.654  1.00  0.00     0.060 A 
BRANCH  82  83
ATOM     83  S   UNL A   1      42.107  19.427  25.969  1.00  0.00     0.124 S 
ATOM     84  O   UNL A   1      40.673  19.331  25.728  1.00  0.00    -0.237 OA
ATOM     85  O   UNL A   1      42.951  19.511  24.781  1.00  0.00    -0.237 OA
ATOM     86  O   UNL A   1      42.627  18.579  27.038  1.00  0.00    -0.744 OA
ENDBRANCH  82  83
ENDBRANCH  50  75
BRANCH  62  87
ATOM     87  C   UNL A   1      47.953  27.018  30.575  1.00  0.00     0.058 A 
ATOM     88  C   UNL A   1      49.014  27.232  29.683  1.00  0.00     0.135 A 
ATOM     89  C   UNL A   1      48.247  26.439  31.820  1.00  0.00     0.135 A 
ATOM     90  F   UNL A   1      48.785  27.777  28.477  1.00  0.00    -0.206 F 
ATOM     91  C   UNL A   1      50.318  26.868  30.005  1.00  0.00     0.059 A 
ATOM     92  C   UNL A   1      49.546  26.090  32.174  1.00  0.00     0.059 A 
ATOM     93  F   UNL A   1      47.268  26.222  32.712  1.00  0.00    -0.206 F 
ATOM     94  C   UNL A   1      50.574  26.299  31.255  1.00  0.00     0.060 A 
BRANCH  94  95
ATOM     95  S   UNL A   1      52.274  25.866  31.679  1.00  0.00     0.124 S 
ATOM     96  O   UNL A   1      52.131  24.471  32.080  1.00  0.00    -0.237 OA
ATOM     97  O   UNL A   1      52.979  26.094  30.420  1.00  0.00    -0.237 OA
ATOM     98  O   UNL A   1      52.605  26.799  32.752  1.00  0.00    -0.744 OA
ENDBRANCH  94  95
ENDBRANCH  62  87
ENDBRANCH  36  37
ENDBRANCH  28  31
ENDBRANCH  26  27
ENDBRANCH  25  26
ENDBRANCH   1  25
TORSDOF 17
ENDMDL
