MODEL 1
REMARK VINA RESULT:     -12.3      0.000      0.000
REMARK SMILES [NH3+][C@@]1(C(=O)NCCCCNC(=O)c2ccc(-c3c4nc(c(-c5c(F)cc(S(=O)(=O)[O-])cc5F)c5ccc([nH]5)c(-c5c(F)cc(S(=O)(=O)[O-])cc5F)c5nc(c(-c6c(F)cc(S(=O)(=O)[O-])cc6F)c6ccc3[nH]6)C=C5)C=C4)cc2)CC[N@@H+](Cc2ccc(OCC(=O)N3CCCCC3)cc2)C1
REMARK SMILES IDX 6 1 5 2 3 3 4 4 2 6 79 7 99 8 80 9 81 10 1 12 82 16 83 17
REMARK SMILES IDX 84 18 98 19 85 20 97 21 86 22 87 23 88 24 89 25 90 26 91 27
REMARK SMILES IDX 92 28 96 29 93 30 95 31 94 32 7 33 8 34 9 35 10 36 11 37
REMARK SMILES IDX 12 39 13 40 14 41 78 42 15 43 77 44 16 45 17 46 18 47 71 48
REMARK SMILES IDX 19 49 76 50 70 51 72 52 20 53 75 54 69 55 68 56 21 58 55 59
REMARK SMILES IDX 34 60 54 61 35 62 38 63 53 64 73 65 36 66 37 67 52 69 74 70
REMARK SMILES IDX 39 71 22 72 23 73 32 74 24 75 25 76 31 77 33 78 26 79 27 80
REMARK SMILES IDX 28 81 29 82 30 83 56 84 57 85 66 86 58 87 59 88 65 89 67 90
REMARK SMILES IDX 60 91 61 92 62 93 63 94 64 95 40 96 41 97 50 98 42 99 43 100
REMARK SMILES IDX 49 101 51 102 44 103 45 104 46 105 47 106 48 107
REMARK H PARENT 5 5 81 11 1 13 1 14 1 15 10 38 72 57 38 68
REMARK Flexibility Score: inf
ROOT
ATOM      1  C   UNL A   1      31.822  29.609  25.873  1.00  0.00     0.116 C 
ENDROOT
BRANCH   1   2
ATOM      2  N   UNL A   1      32.570  29.160  24.707  1.00  0.00    -0.350 N 
ATOM      3  C   UNL A   1      32.341  29.073  23.368  1.00  0.00     0.287 C 
ATOM      4  O   UNL A   1      33.379  28.967  22.687  1.00  0.00    -0.268 OA
ATOM      5  H   UNL A   1      33.470  28.839  24.948  1.00  0.00     0.163 HD
BRANCH   3   6
ATOM      6  C   UNL A   1      30.967  29.010  22.584  1.00  0.00     0.228 C 
ATOM      7  C   UNL A   1      29.645  29.176  23.334  1.00  0.00     0.146 C 
ATOM      8  C   UNL A   1      30.805  27.593  21.992  1.00  0.00     0.342 C 
ATOM      9  C   UNL A   1      29.136  27.744  23.614  1.00  0.00     0.270 C 
ATOM     10  N   UNL A   1      30.222  26.916  23.140  1.00  0.00    -0.325 N 
ATOM     11  H   UNL A   1      30.870  26.854  23.926  1.00  0.00     0.348 HD
BRANCH   6  12
ATOM     12  N   UNL A   1      31.058  30.034  21.492  1.00  0.00    -0.340 N 
ATOM     13  H   UNL A   1      30.705  30.927  21.834  1.00  0.00     0.345 HD
ATOM     14  H   UNL A   1      30.500  29.730  20.694  1.00  0.00     0.345 HD
ATOM     15  H   UNL A   1      32.031  30.140  21.205  1.00  0.00     0.345 HD
ENDBRANCH   6  12
BRANCH  10  16
ATOM     16  C   UNL A   1      30.162  25.459  23.120  1.00  0.00     0.299 C 
BRANCH  16  17
ATOM     17  C   UNL A   1      30.800  24.882  24.387  1.00  0.00     0.006 A 
ATOM     18  C   UNL A   1      31.532  25.595  25.330  1.00  0.00     0.013 A 
ATOM     19  C   UNL A   1      30.658  23.516  24.630  1.00  0.00     0.013 A 
ATOM     20  C   UNL A   1      31.999  24.946  26.498  1.00  0.00     0.047 A 
ATOM     21  C   UNL A   1      31.111  22.861  25.759  1.00  0.00     0.047 A 
ATOM     22  C   UNL A   1      31.760  23.581  26.730  1.00  0.00     0.120 A 
BRANCH  22  23
ATOM     23  O   UNL A   1      32.140  23.059  27.932  1.00  0.00    -0.484 OA
BRANCH  23  24
ATOM     24  C   UNL A   1      33.331  22.285  27.979  1.00  0.00     0.329 C 
BRANCH  24  25
ATOM     25  C   UNL A   1      34.007  21.543  26.778  1.00  0.00     0.260 C 
ATOM     26  O   UNL A   1      33.762  20.339  26.618  1.00  0.00    -0.271 OA
ATOM     27  N   UNL A   1      34.823  22.226  25.891  1.00  0.00    -0.340 N 
ATOM     28  C   UNL A   1      35.274  21.568  24.661  1.00  0.00     0.119 C 
ATOM     29  C   UNL A   1      35.359  23.567  26.088  1.00  0.00     0.119 C 
ATOM     30  C   UNL A   1      36.799  21.546  24.542  1.00  0.00     0.022 C 
ATOM     31  C   UNL A   1      36.886  23.508  26.123  1.00  0.00     0.022 C 
ATOM     32  C   UNL A   1      37.424  22.912  24.823  1.00  0.00     0.004 C 
ENDBRANCH  24  25
ENDBRANCH  23  24
ENDBRANCH  22  23
ENDBRANCH  16  17
ENDBRANCH  10  16
ENDBRANCH   3   6
ENDBRANCH   1   2
BRANCH   1  33
ATOM     33  C   UNL A   1      32.487  29.513  27.258  1.00  0.00     0.023 C 
BRANCH  33  34
ATOM     34  C   UNL A   1      33.810  28.758  27.420  1.00  0.00     0.023 C 
BRANCH  34  35
ATOM     35  C   UNL A   1      35.096  29.558  27.489  1.00  0.00     0.116 C 
BRANCH  35  36
ATOM     36  N   UNL A   1      35.151  30.382  28.680  1.00  0.00    -0.352 N 
ATOM     37  C   UNL A   1      36.160  30.498  29.608  1.00  0.00     0.251 C 
ATOM     38  H   UNL A   1      34.355  30.937  28.847  1.00  0.00     0.163 HD
ATOM     39  O   UNL A   1      35.916  31.039  30.685  1.00  0.00    -0.269 OA
BRANCH  37  40
ATOM     40  C   UNL A   1      37.529  29.984  29.336  1.00  0.00     0.039 A 
ATOM     41  C   UNL A   1      38.342  29.615  30.415  1.00  0.00     0.014 A 
ATOM     42  C   UNL A   1      38.052  29.938  28.039  1.00  0.00     0.014 A 
ATOM     43  C   UNL A   1      39.656  29.182  30.196  1.00  0.00     0.010 A 
ATOM     44  C   UNL A   1      39.338  29.445  27.815  1.00  0.00     0.010 A 
ATOM     45  C   UNL A   1      40.162  29.085  28.891  1.00  0.00    -0.014 A 
BRANCH  45  46
ATOM     46  C   UNL A   1      41.567  28.674  28.624  1.00  0.00     0.031 A 
ATOM     47  C   UNL A   1      42.661  29.711  28.637  1.00  0.00     0.074 A 
ATOM     48  C   UNL A   1      41.853  27.396  28.305  1.00  0.00     0.049 A 
ATOM     49  N   UNL A   1      43.922  29.590  28.311  1.00  0.00    -0.248 NA
ATOM     50  C   UNL A   1      42.277  31.072  29.044  1.00  0.00     0.031 C 
ATOM     51  C   UNL A   1      40.881  26.305  28.231  1.00  0.00     0.029 A 
ATOM     52  N   UNL A   1      43.043  26.805  27.961  1.00  0.00    -0.354 N 
ATOM     53  C   UNL A   1      44.473  30.860  28.446  1.00  0.00     0.074 A 
ATOM     54  C   UNL A   1      43.402  31.743  28.850  1.00  0.00     0.031 C 
ATOM     55  C   UNL A   1      41.513  25.177  27.869  1.00  0.00     0.029 A 
ATOM     56  C   UNL A   1      42.928  25.470  27.651  1.00  0.00     0.049 A 
ATOM     57  H   UNL A   1      43.900  27.289  27.940  1.00  0.00     0.167 HD
ATOM     58  C   UNL A   1      45.758  31.250  28.268  1.00  0.00     0.037 A 
ATOM     59  C   UNL A   1      43.852  24.587  27.221  1.00  0.00     0.037 A 
ATOM     60  C   UNL A   1      46.828  30.358  27.909  1.00  0.00     0.049 A 
ATOM     61  C   UNL A   1      45.273  25.044  27.028  1.00  0.00     0.074 A 
ATOM     62  C   UNL A   1      48.177  30.640  27.783  1.00  0.00     0.029 A 
ATOM     63  N   UNL A   1      46.671  29.012  27.619  1.00  0.00    -0.354 N 
ATOM     64  N   UNL A   1      45.788  26.235  27.216  1.00  0.00    -0.248 NA
ATOM     65  C   UNL A   1      46.238  24.039  26.558  1.00  0.00     0.031 C 
ATOM     66  C   UNL A   1      48.831  29.470  27.381  1.00  0.00     0.029 A 
ATOM     67  C   UNL A   1      47.894  28.452  27.290  1.00  0.00     0.049 A 
ATOM     68  H   UNL A   1      45.815  28.525  27.642  1.00  0.00     0.167 HD
ATOM     69  C   UNL A   1      47.137  26.122  26.899  1.00  0.00     0.074 A 
ATOM     70  C   UNL A   1      47.364  24.742  26.522  1.00  0.00     0.031 C 
ATOM     71  C   UNL A   1      48.100  27.076  26.916  1.00  0.00     0.037 A 
BRANCH  58  72
ATOM     72  C   UNL A   1      46.078  32.706  28.467  1.00  0.00     0.058 A 
ATOM     73  C   UNL A   1      45.978  33.633  27.417  1.00  0.00     0.135 A 
ATOM     74  C   UNL A   1      46.462  33.187  29.730  1.00  0.00     0.135 A 
ATOM     75  F   UNL A   1      45.628  33.223  26.187  1.00  0.00    -0.206 F 
ATOM     76  C   UNL A   1      46.278  34.978  27.603  1.00  0.00     0.059 A 
ATOM     77  C   UNL A   1      46.743  34.535  29.944  1.00  0.00     0.059 A 
ATOM     78  F   UNL A   1      46.572  32.345  30.770  1.00  0.00    -0.206 F 
ATOM     79  C   UNL A   1      46.664  35.419  28.869  1.00  0.00     0.060 A 
BRANCH  79  80
ATOM     80  S   UNL A   1      47.051  37.168  29.094  1.00  0.00     0.124 S 
ATOM     81  O   UNL A   1      48.358  37.261  28.449  1.00  0.00    -0.237 OA
ATOM     82  O   UNL A   1      45.953  37.826  28.395  1.00  0.00    -0.237 OA
ATOM     83  O   UNL A   1      47.054  37.333  30.544  1.00  0.00    -0.744 OA
ENDBRANCH  79  80
ENDBRANCH  58  72
BRANCH  59  84
ATOM     84  C   UNL A   1      43.459  23.180  26.946  1.00  0.00     0.058 A 
ATOM     85  C   UNL A   1      43.399  22.693  25.633  1.00  0.00     0.135 A 
ATOM     86  C   UNL A   1      43.157  22.289  27.989  1.00  0.00     0.135 A 
ATOM     87  F   UNL A   1      43.669  23.509  24.602  1.00  0.00    -0.206 F 
ATOM     88  C   UNL A   1      43.047  21.375  25.359  1.00  0.00     0.059 A 
ATOM     89  C   UNL A   1      42.823  20.961  27.742  1.00  0.00     0.059 A 
ATOM     90  F   UNL A   1      43.210  22.704  29.264  1.00  0.00    -0.206 F 
ATOM     91  C   UNL A   1      42.764  20.515  26.422  1.00  0.00     0.060 A 
BRANCH  91  92
ATOM     92  S   UNL A   1      42.367  18.789  26.065  1.00  0.00     0.124 S 
ATOM     93  O   UNL A   1      42.607  18.159  27.361  1.00  0.00    -0.237 OA
ATOM     94  O   UNL A   1      40.966  18.875  25.652  1.00  0.00    -0.237 OA
ATOM     95  O   UNL A   1      43.301  18.440  25.008  1.00  0.00    -0.744 OA
ENDBRANCH  91  92
ENDBRANCH  59  84
BRANCH  71  96
ATOM     96  C   UNL A   1      49.490  26.666  26.523  1.00  0.00     0.058 A 
ATOM     97  C   UNL A   1      50.360  26.062  27.443  1.00  0.00     0.135 A 
ATOM     98  C   UNL A   1      49.926  26.800  25.195  1.00  0.00     0.135 A 
ATOM     99  F   UNL A   1      49.992  25.920  28.726  1.00  0.00    -0.206 F 
ATOM    100  C   UNL A   1      51.617  25.607  27.062  1.00  0.00     0.059 A 
ATOM    101  C   UNL A   1      51.172  26.333  24.787  1.00  0.00     0.059 A 
ATOM    102  F   UNL A   1      49.128  27.365  24.275  1.00  0.00    -0.206 F 
ATOM    103  C   UNL A   1      52.012  25.742  25.729  1.00  0.00     0.060 A 
BRANCH 103 104
ATOM    104  S   UNL A   1      53.620  25.088  25.233  1.00  0.00     0.124 S 
ATOM    105  O   UNL A   1      53.374  23.650  25.257  1.00  0.00    -0.237 OA
ATOM    106  O   UNL A   1      53.804  25.677  23.910  1.00  0.00    -0.237 OA
ATOM    107  O   UNL A   1      54.524  25.588  26.265  1.00  0.00    -0.744 OA
ENDBRANCH 103 104
ENDBRANCH  71  96
ENDBRANCH  45  46
ENDBRANCH  37  40
ENDBRANCH  35  36
ENDBRANCH  34  35
ENDBRANCH  33  34
ENDBRANCH   1  33
TORSDOF 20
ENDMDL
MODEL 2
REMARK VINA RESULT:     -12.0      6.443     11.746
REMARK SMILES [NH3+][C@@]1(C(=O)NCCCCNC(=O)c2ccc(-c3c4nc(c(-c5c(F)cc(S(=O)(=O)[O-])cc5F)c5ccc([nH]5)c(-c5c(F)cc(S(=O)(=O)[O-])cc5F)c5nc(c(-c6c(F)cc(S(=O)(=O)[O-])cc6F)c6ccc3[nH]6)C=C5)C=C4)cc2)CC[N@@H+](Cc2ccc(OCC(=O)N3CCCCC3)cc2)C1
REMARK SMILES IDX 6 1 5 2 3 3 4 4 2 6 79 7 99 8 80 9 81 10 1 12 82 16 83 17
REMARK SMILES IDX 84 18 98 19 85 20 97 21 86 22 87 23 88 24 89 25 90 26 91 27
REMARK SMILES IDX 92 28 96 29 93 30 95 31 94 32 7 33 8 34 9 35 10 36 11 37
REMARK SMILES IDX 12 39 13 40 14 41 78 42 15 43 77 44 16 45 17 46 18 47 71 48
REMARK SMILES IDX 19 49 76 50 70 51 72 52 20 53 75 54 69 55 68 56 21 58 55 59
REMARK SMILES IDX 34 60 54 61 35 62 38 63 53 64 73 65 36 66 37 67 52 69 74 70
REMARK SMILES IDX 39 71 22 72 23 73 32 74 24 75 25 76 31 77 33 78 26 79 27 80
REMARK SMILES IDX 28 81 29 82 30 83 56 84 57 85 66 86 58 87 59 88 65 89 67 90
REMARK SMILES IDX 60 91 61 92 62 93 63 94 64 95 40 96 41 97 50 98 42 99 43 100
REMARK SMILES IDX 49 101 51 102 44 103 45 104 46 105 47 106 48 107
REMARK H PARENT 5 5 81 11 1 13 1 14 1 15 10 38 72 57 38 68
REMARK Flexibility Score: inf
ROOT
ATOM      1  C   UNL A   1      37.627  21.597  25.381  1.00  0.00     0.116 C 
ENDROOT
BRANCH   1   2
ATOM      2  N   UNL A   1      36.489  21.971  26.209  1.00  0.00    -0.350 N 
ATOM      3  C   UNL A   1      35.176  21.625  26.286  1.00  0.00     0.287 C 
ATOM      4  O   UNL A   1      34.642  21.921  27.373  1.00  0.00    -0.268 OA
ATOM      5  H   UNL A   1      36.732  22.646  26.886  1.00  0.00     0.163 HD
BRANCH   3   6
ATOM      6  C   UNL A   1      34.236  20.986  25.183  1.00  0.00     0.228 C 
ATOM      7  C   UNL A   1      34.075  21.666  23.824  1.00  0.00     0.146 C 
ATOM      8  C   UNL A   1      32.784  21.004  25.707  1.00  0.00     0.342 C 
ATOM      9  C   UNL A   1      32.781  22.505  23.923  1.00  0.00     0.270 C 
ATOM     10  N   UNL A   1      32.399  22.348  25.308  1.00  0.00    -0.325 N 
ATOM     11  H   UNL A   1      32.920  23.068  25.810  1.00  0.00     0.348 HD
BRANCH   6  12
ATOM     12  N   UNL A   1      34.713  19.578  24.989  1.00  0.00    -0.340 N 
ATOM     13  H   UNL A   1      35.729  19.573  24.894  1.00  0.00     0.345 HD
ATOM     14  H   UNL A   1      34.292  19.189  24.145  1.00  0.00     0.345 HD
ATOM     15  H   UNL A   1      34.445  19.013  25.794  1.00  0.00     0.345 HD
ENDBRANCH   6  12
BRANCH  10  16
ATOM     16  C   UNL A   1      31.169  22.902  25.862  1.00  0.00     0.299 C 
BRANCH  16  17
ATOM     17  C   UNL A   1      31.075  24.400  25.558  1.00  0.00     0.006 A 
ATOM     18  C   UNL A   1      30.305  24.982  24.557  1.00  0.00     0.013 A 
ATOM     19  C   UNL A   1      31.830  25.277  26.334  1.00  0.00     0.013 A 
ATOM     20  C   UNL A   1      30.252  26.393  24.438  1.00  0.00     0.047 A 
ATOM     21  C   UNL A   1      31.798  26.655  26.232  1.00  0.00     0.047 A 
ATOM     22  C   UNL A   1      30.975  27.234  25.300  1.00  0.00     0.120 A 
BRANCH  22  23
ATOM     23  O   UNL A   1      30.777  28.580  25.196  1.00  0.00    -0.484 OA
BRANCH  23  24
ATOM     24  C   UNL A   1      31.096  29.210  23.963  1.00  0.00     0.329 C 
BRANCH  24  25
ATOM     25  C   UNL A   1      30.163  29.334  22.712  1.00  0.00     0.260 C 
ATOM     26  O   UNL A   1      30.335  28.546  21.770  1.00  0.00    -0.271 OA
ATOM     27  N   UNL A   1      29.142  30.270  22.678  1.00  0.00    -0.340 N 
ATOM     28  C   UNL A   1      28.152  30.230  21.597  1.00  0.00     0.119 C 
ATOM     29  C   UNL A   1      28.975  31.380  23.608  1.00  0.00     0.119 C 
ATOM     30  C   UNL A   1      28.081  31.551  20.829  1.00  0.00     0.022 C 
ATOM     31  C   UNL A   1      29.062  32.702  22.846  1.00  0.00     0.022 C 
ATOM     32  C   UNL A   1      27.990  32.761  21.759  1.00  0.00     0.004 C 
ENDBRANCH  24  25
ENDBRANCH  23  24
ENDBRANCH  22  23
ENDBRANCH  16  17
ENDBRANCH  10  16
ENDBRANCH   3   6
ENDBRANCH   1   2
BRANCH   1  33
ATOM     33  C   UNL A   1      39.046  21.811  25.936  1.00  0.00     0.023 C 
BRANCH  33  34
ATOM     34  C   UNL A   1      39.329  22.982  26.882  1.00  0.00     0.023 C 
BRANCH  34  35
ATOM     35  C   UNL A   1      40.772  23.336  27.186  1.00  0.00     0.116 C 
BRANCH  35  36
ATOM     36  N   UNL A   1      41.355  24.151  26.140  1.00  0.00    -0.352 N 
ATOM     37  C   UNL A   1      41.445  25.522  26.057  1.00  0.00     0.251 C 
ATOM     38  H   UNL A   1      41.743  23.655  25.383  1.00  0.00     0.163 HD
ATOM     39  O   UNL A   1      41.730  26.034  24.976  1.00  0.00    -0.269 OA
BRANCH  37  40
ATOM     40  C   UNL A   1      41.203  26.389  27.241  1.00  0.00     0.039 A 
ATOM     41  C   UNL A   1      42.057  27.475  27.472  1.00  0.00     0.014 A 
ATOM     42  C   UNL A   1      40.198  26.100  28.170  1.00  0.00     0.014 A 
ATOM     43  C   UNL A   1      41.892  28.277  28.608  1.00  0.00     0.010 A 
ATOM     44  C   UNL A   1      39.992  26.937  29.268  1.00  0.00     0.010 A 
ATOM     45  C   UNL A   1      40.851  28.019  29.512  1.00  0.00    -0.014 A 
BRANCH  45  46
ATOM     46  C   UNL A   1      40.674  28.820  30.753  1.00  0.00     0.031 A 
ATOM     47  C   UNL A   1      39.613  29.890  30.803  1.00  0.00     0.074 A 
ATOM     48  C   UNL A   1      41.498  28.640  31.803  1.00  0.00     0.049 A 
ATOM     49  N   UNL A   1      39.374  30.779  31.732  1.00  0.00    -0.248 NA
ATOM     50  C   UNL A   1      38.720  29.990  29.636  1.00  0.00     0.031 C 
ATOM     51  C   UNL A   1      42.581  27.657  31.870  1.00  0.00     0.029 A 
ATOM     52  N   UNL A   1      41.568  29.293  33.009  1.00  0.00    -0.354 N 
ATOM     53  C   UNL A   1      38.327  31.559  31.253  1.00  0.00     0.074 A 
ATOM     54  C   UNL A   1      37.999  31.060  29.935  1.00  0.00     0.031 C 
ATOM     55  C   UNL A   1      43.204  27.770  33.054  1.00  0.00     0.029 A 
ATOM     56  C   UNL A   1      42.590  28.854  33.818  1.00  0.00     0.049 A 
ATOM     57  H   UNL A   1      40.944  30.008  33.272  1.00  0.00     0.167 HD
ATOM     58  C   UNL A   1      37.685  32.584  31.862  1.00  0.00     0.037 A 
ATOM     59  C   UNL A   1      42.999  29.287  35.027  1.00  0.00     0.037 A 
ATOM     60  C   UNL A   1      37.986  33.047  33.190  1.00  0.00     0.049 A 
ATOM     61  C   UNL A   1      42.272  30.429  35.684  1.00  0.00     0.074 A 
ATOM     62  C   UNL A   1      37.341  34.025  33.927  1.00  0.00     0.029 A 
ATOM     63  N   UNL A   1      39.019  32.565  33.980  1.00  0.00    -0.354 N 
ATOM     64  N   UNL A   1      41.247  31.117  35.241  1.00  0.00    -0.248 NA
ATOM     65  C   UNL A   1      42.760  30.860  37.003  1.00  0.00     0.031 C 
ATOM     66  C   UNL A   1      38.007  34.158  35.151  1.00  0.00     0.029 A 
ATOM     67  C   UNL A   1      39.045  33.241  35.189  1.00  0.00     0.049 A 
ATOM     68  H   UNL A   1      39.642  31.848  33.720  1.00  0.00     0.167 HD
ATOM     69  C   UNL A   1      40.960  32.053  36.229  1.00  0.00     0.074 A 
ATOM     70  C   UNL A   1      41.909  31.834  37.301  1.00  0.00     0.031 C 
ATOM     71  C   UNL A   1      39.999  33.009  36.244  1.00  0.00     0.037 A 
BRANCH  58  72
ATOM     72  C   UNL A   1      36.586  33.271  31.099  1.00  0.00     0.058 A 
ATOM     73  C   UNL A   1      36.862  34.128  30.022  1.00  0.00     0.135 A 
ATOM     74  C   UNL A   1      35.239  33.046  31.428  1.00  0.00     0.135 A 
ATOM     75  F   UNL A   1      38.132  34.387  29.674  1.00  0.00    -0.206 F 
ATOM     76  C   UNL A   1      35.844  34.764  29.320  1.00  0.00     0.059 A 
ATOM     77  C   UNL A   1      34.203  33.654  30.723  1.00  0.00     0.059 A 
ATOM     78  F   UNL A   1      34.918  32.234  32.448  1.00  0.00    -0.206 F 
ATOM     79  C   UNL A   1      34.517  34.525  29.680  1.00  0.00     0.060 A 
BRANCH  79  80
ATOM     80  S   UNL A   1      33.207  35.359  28.760  1.00  0.00     0.124 S 
ATOM     81  O   UNL A   1      33.976  36.290  27.939  1.00  0.00    -0.237 OA
ATOM     82  O   UNL A   1      32.575  34.258  28.043  1.00  0.00    -0.237 OA
ATOM     83  O   UNL A   1      32.393  35.971  29.806  1.00  0.00    -0.744 OA
ENDBRANCH  79  80
ENDBRANCH  58  72
BRANCH  59  84
ATOM     84  C   UNL A   1      44.155  28.633  35.696  1.00  0.00     0.058 A 
ATOM     85  C   UNL A   1      43.960  27.573  36.593  1.00  0.00     0.135 A 
ATOM     86  C   UNL A   1      45.473  29.040  35.439  1.00  0.00     0.135 A 
ATOM     87  F   UNL A   1      42.718  27.155  36.879  1.00  0.00    -0.206 F 
ATOM     88  C   UNL A   1      45.032  26.941  37.216  1.00  0.00     0.059 A 
ATOM     89  C   UNL A   1      46.562  28.410  36.034  1.00  0.00     0.059 A 
ATOM     90  F   UNL A   1      45.712  30.043  34.580  1.00  0.00    -0.206 F 
ATOM     91  C   UNL A   1      46.330  27.365  36.928  1.00  0.00     0.060 A 
BRANCH  91  92
ATOM     92  S   UNL A   1      47.720  26.501  37.694  1.00  0.00     0.124 S 
ATOM     93  O   UNL A   1      47.302  25.107  37.570  1.00  0.00    -0.237 OA
ATOM     94  O   UNL A   1      48.839  26.906  36.844  1.00  0.00    -0.237 OA
ATOM     95  O   UNL A   1      47.746  27.036  39.045  1.00  0.00    -0.744 OA
ENDBRANCH  91  92
ENDBRANCH  59  84
BRANCH  71  96
ATOM     96  C   UNL A   1      39.916  33.891  37.457  1.00  0.00     0.058 A 
ATOM     97  C   UNL A   1      40.676  35.065  37.557  1.00  0.00     0.135 A 
ATOM     98  C   UNL A   1      39.007  33.605  38.488  1.00  0.00     0.135 A 
ATOM     99  F   UNL A   1      41.565  35.377  36.600  1.00  0.00    -0.206 F 
ATOM    100  C   UNL A   1      40.543  35.926  38.640  1.00  0.00     0.059 A 
ATOM    101  C   UNL A   1      38.841  34.462  39.572  1.00  0.00     0.059 A 
ATOM    102  F   UNL A   1      38.251  32.497  38.435  1.00  0.00    -0.206 F 
ATOM    103  C   UNL A   1      39.617  35.619  39.640  1.00  0.00     0.060 A 
BRANCH 103 104
ATOM    104  S   UNL A   1      39.405  36.778  41.008  1.00  0.00     0.124 S 
ATOM    105  O   UNL A   1      38.588  37.817  40.391  1.00  0.00    -0.237 OA
ATOM    106  O   UNL A   1      38.735  35.958  42.014  1.00  0.00    -0.237 OA
ATOM    107  O   UNL A   1      40.773  37.168  41.338  1.00  0.00    -0.744 OA
ENDBRANCH 103 104
ENDBRANCH  71  96
ENDBRANCH  45  46
ENDBRANCH  37  40
ENDBRANCH  35  36
ENDBRANCH  34  35
ENDBRANCH  33  34
ENDBRANCH   1  33
TORSDOF 20
ENDMDL
MODEL 3
REMARK VINA RESULT:     -11.9      1.360      8.068
REMARK SMILES [NH3+][C@@]1(C(=O)NCCCCNC(=O)c2ccc(-c3c4nc(c(-c5c(F)cc(S(=O)(=O)[O-])cc5F)c5ccc([nH]5)c(-c5c(F)cc(S(=O)(=O)[O-])cc5F)c5nc(c(-c6c(F)cc(S(=O)(=O)[O-])cc6F)c6ccc3[nH]6)C=C5)C=C4)cc2)CC[N@@H+](Cc2ccc(OCC(=O)N3CCCCC3)cc2)C1
REMARK SMILES IDX 6 1 5 2 3 3 4 4 2 6 79 7 99 8 80 9 81 10 1 12 82 16 83 17
REMARK SMILES IDX 84 18 98 19 85 20 97 21 86 22 87 23 88 24 89 25 90 26 91 27
REMARK SMILES IDX 92 28 96 29 93 30 95 31 94 32 7 33 8 34 9 35 10 36 11 37
REMARK SMILES IDX 12 39 13 40 14 41 78 42 15 43 77 44 16 45 17 46 18 47 71 48
REMARK SMILES IDX 19 49 76 50 70 51 72 52 20 53 75 54 69 55 68 56 21 58 55 59
REMARK SMILES IDX 34 60 54 61 35 62 38 63 53 64 73 65 36 66 37 67 52 69 74 70
REMARK SMILES IDX 39 71 22 72 23 73 32 74 24 75 25 76 31 77 33 78 26 79 27 80
REMARK SMILES IDX 28 81 29 82 30 83 56 84 57 85 66 86 58 87 59 88 65 89 67 90
REMARK SMILES IDX 60 91 61 92 62 93 63 94 64 95 40 96 41 97 50 98 42 99 43 100
REMARK SMILES IDX 49 101 51 102 44 103 45 104 46 105 47 106 48 107
REMARK H PARENT 5 5 81 11 1 13 1 14 1 15 10 38 72 57 38 68
REMARK Flexibility Score: inf
ROOT
ATOM      1  C   UNL A   1      32.317  30.063  25.947  1.00  0.00     0.116 C 
ENDROOT
BRANCH   1   2
ATOM      2  N   UNL A   1      32.966  29.157  25.010  1.00  0.00    -0.350 N 
ATOM      3  C   UNL A   1      32.715  28.699  23.753  1.00  0.00     0.287 C 
ATOM      4  O   UNL A   1      33.715  28.215  23.186  1.00  0.00    -0.268 OA
ATOM      5  H   UNL A   1      33.798  28.780  25.379  1.00  0.00     0.163 HD
BRANCH   3   6
ATOM      6  C   UNL A   1      31.345  28.627  22.963  1.00  0.00     0.228 C 
ATOM      7  C   UNL A   1      30.018  28.637  23.722  1.00  0.00     0.146 C 
ATOM      8  C   UNL A   1      31.270  27.268  22.235  1.00  0.00     0.342 C 
ATOM      9  C   UNL A   1      29.600  27.157  23.860  1.00  0.00     0.270 C 
ATOM     10  N   UNL A   1      30.734  26.448  23.311  1.00  0.00    -0.325 N 
ATOM     11  H   UNL A   1      31.387  26.350  24.088  1.00  0.00     0.348 HD
BRANCH   6  12
ATOM     12  N   UNL A   1      31.369  29.757  21.976  1.00  0.00    -0.340 N 
ATOM     13  H   UNL A   1      32.335  29.970  21.727  1.00  0.00     0.345 HD
ATOM     14  H   UNL A   1      30.936  30.581  22.391  1.00  0.00     0.345 HD
ATOM     15  H   UNL A   1      30.854  29.487  21.138  1.00  0.00     0.345 HD
ENDBRANCH   6  12
BRANCH  10  16
ATOM     16  C   UNL A   1      30.764  24.999  23.149  1.00  0.00     0.299 C 
BRANCH  16  17
ATOM     17  C   UNL A   1      32.114  24.439  23.606  1.00  0.00     0.006 A 
ATOM     18  C   UNL A   1      32.733  24.696  24.825  1.00  0.00     0.013 A 
ATOM     19  C   UNL A   1      32.810  23.605  22.733  1.00  0.00     0.013 A 
ATOM     20  C   UNL A   1      33.949  24.046  25.149  1.00  0.00     0.047 A 
ATOM     21  C   UNL A   1      33.999  22.965  23.026  1.00  0.00     0.047 A 
ATOM     22  C   UNL A   1      34.568  23.151  24.260  1.00  0.00     0.120 A 
BRANCH  22  23
ATOM     23  O   UNL A   1      35.672  22.478  24.695  1.00  0.00    -0.484 OA
BRANCH  23  24
ATOM     24  C   UNL A   1      35.478  21.306  25.474  1.00  0.00     0.329 C 
BRANCH  24  25
ATOM     25  C   UNL A   1      35.526  19.828  24.962  1.00  0.00     0.260 C 
ATOM     26  O   UNL A   1      36.632  19.281  24.847  1.00  0.00    -0.271 OA
ATOM     27  N   UNL A   1      34.358  19.133  24.688  1.00  0.00    -0.340 N 
ATOM     28  C   UNL A   1      34.414  17.694  24.415  1.00  0.00     0.119 C 
ATOM     29  C   UNL A   1      33.028  19.718  24.574  1.00  0.00     0.119 C 
ATOM     30  C   UNL A   1      33.799  17.338  23.060  1.00  0.00     0.022 C 
ATOM     31  C   UNL A   1      32.490  19.490  23.161  1.00  0.00     0.022 C 
ATOM     32  C   UNL A   1      32.436  17.995  22.849  1.00  0.00     0.004 C 
ENDBRANCH  24  25
ENDBRANCH  23  24
ENDBRANCH  22  23
ENDBRANCH  16  17
ENDBRANCH  10  16
ENDBRANCH   3   6
ENDBRANCH   1   2
BRANCH   1  33
ATOM     33  C   UNL A   1      33.163  30.703  27.062  1.00  0.00     0.023 C 
BRANCH  33  34
ATOM     34  C   UNL A   1      34.465  30.034  27.512  1.00  0.00     0.023 C 
BRANCH  34  35
ATOM     35  C   UNL A   1      35.535  30.893  28.159  1.00  0.00     0.116 C 
BRANCH  35  36
ATOM     36  N   UNL A   1      35.540  30.747  29.600  1.00  0.00    -0.352 N 
ATOM     37  C   UNL A   1      36.466  30.124  30.405  1.00  0.00     0.251 C 
ATOM     38  H   UNL A   1      34.774  31.151  30.069  1.00  0.00     0.163 HD
ATOM     39  O   UNL A   1      36.165  29.870  31.570  1.00  0.00    -0.269 OA
BRANCH  37  40
ATOM     40  C   UNL A   1      37.814  29.754  29.896  1.00  0.00     0.039 A 
ATOM     41  C   UNL A   1      38.836  29.487  30.816  1.00  0.00     0.014 A 
ATOM     42  C   UNL A   1      38.105  29.746  28.528  1.00  0.00     0.014 A 
ATOM     43  C   UNL A   1      40.130  29.191  30.369  1.00  0.00     0.010 A 
ATOM     44  C   UNL A   1      39.378  29.387  28.081  1.00  0.00     0.010 A 
ATOM     45  C   UNL A   1      40.410  29.131  28.997  1.00  0.00    -0.014 A 
BRANCH  45  46
ATOM     46  C   UNL A   1      41.782  28.866  28.487  1.00  0.00     0.031 A 
ATOM     47  C   UNL A   1      42.155  27.475  28.042  1.00  0.00     0.074 A 
ATOM     48  C   UNL A   1      42.709  29.844  28.486  1.00  0.00     0.049 A 
ATOM     49  N   UNL A   1      43.321  27.003  27.684  1.00  0.00    -0.248 NA
ATOM     50  C   UNL A   1      41.074  26.475  28.024  1.00  0.00     0.031 C 
ATOM     51  C   UNL A   1      42.482  31.224  28.918  1.00  0.00     0.029 A 
ATOM     52  N   UNL A   1      44.034  29.822  28.129  1.00  0.00    -0.354 N 
ATOM     53  C   UNL A   1      43.122  25.651  27.427  1.00  0.00     0.074 A 
ATOM     54  C   UNL A   1      41.731  25.370  27.703  1.00  0.00     0.031 C 
ATOM     55  C   UNL A   1      43.627  31.916  28.798  1.00  0.00     0.029 A 
ATOM     56  C   UNL A   1      44.678  31.023  28.314  1.00  0.00     0.049 A 
ATOM     57  H   UNL A   1      44.483  29.021  27.773  1.00  0.00     0.167 HD
ATOM     58  C   UNL A   1      44.013  24.731  26.983  1.00  0.00     0.037 A 
ATOM     59  C   UNL A   1      45.970  31.362  28.134  1.00  0.00     0.037 A 
ATOM     60  C   UNL A   1      45.385  25.026  26.668  1.00  0.00     0.049 A 
ATOM     61  C   UNL A   1      46.942  30.324  27.643  1.00  0.00     0.074 A 
ATOM     62  C   UNL A   1      46.346  24.184  26.137  1.00  0.00     0.029 A 
ATOM     63  N   UNL A   1      45.992  26.259  26.856  1.00  0.00    -0.354 N 
ATOM     64  N   UNL A   1      46.723  29.064  27.351  1.00  0.00    -0.248 NA
ATOM     65  C   UNL A   1      48.338  30.749  27.463  1.00  0.00     0.031 C 
ATOM     66  C   UNL A   1      47.545  24.898  26.036  1.00  0.00     0.029 A 
ATOM     67  C   UNL A   1      47.321  26.195  26.473  1.00  0.00     0.049 A 
ATOM     68  H   UNL A   1      45.544  27.061  27.209  1.00  0.00     0.167 HD
ATOM     69  C   UNL A   1      47.949  28.549  26.942  1.00  0.00     0.074 A 
ATOM     70  C   UNL A   1      48.903  29.637  27.010  1.00  0.00     0.031 C 
ATOM     71  C   UNL A   1      48.256  27.289  26.549  1.00  0.00     0.037 A 
BRANCH  58  72
ATOM     72  C   UNL A   1      43.527  23.319  26.806  1.00  0.00     0.058 A 
ATOM     73  C   UNL A   1      43.289  22.776  25.533  1.00  0.00     0.135 A 
ATOM     74  C   UNL A   1      43.325  22.488  27.920  1.00  0.00     0.135 A 
ATOM     75  F   UNL A   1      43.454  23.531  24.436  1.00  0.00    -0.206 F 
ATOM     76  C   UNL A   1      42.837  21.471  25.372  1.00  0.00     0.059 A 
ATOM     77  C   UNL A   1      42.896  21.170  27.781  1.00  0.00     0.059 A 
ATOM     78  F   UNL A   1      43.540  22.955  29.161  1.00  0.00    -0.206 F 
ATOM     79  C   UNL A   1      42.639  20.676  26.502  1.00  0.00     0.060 A 
BRANCH  79  80
ATOM     80  S   UNL A   1      42.050  18.984  26.277  1.00  0.00     0.124 S 
ATOM     81  O   UNL A   1      42.956  18.497  25.241  1.00  0.00    -0.237 OA
ATOM     82  O   UNL A   1      42.238  18.407  27.603  1.00  0.00    -0.237 OA
ATOM     83  O   UNL A   1      40.661  19.159  25.864  1.00  0.00    -0.744 OA
ENDBRANCH  79  80
ENDBRANCH  58  72
BRANCH  59  84
ATOM     84  C   UNL A   1      46.417  32.752  28.418  1.00  0.00     0.058 A 
ATOM     85  C   UNL A   1      46.332  33.748  27.435  1.00  0.00     0.135 A 
ATOM     86  C   UNL A   1      46.918  33.115  29.678  1.00  0.00     0.135 A 
ATOM     87  F   UNL A   1      45.870  33.448  26.212  1.00  0.00    -0.206 F 
ATOM     88  C   UNL A   1      46.733  35.057  27.689  1.00  0.00     0.059 A 
ATOM     89  C   UNL A   1      47.306  34.421  29.962  1.00  0.00     0.059 A 
ATOM     90  F   UNL A   1      47.009  32.199  30.655  1.00  0.00    -0.206 F 
ATOM     91  C   UNL A   1      47.216  35.384  28.957  1.00  0.00     0.060 A 
BRANCH  91  92
ATOM     92  S   UNL A   1      47.679  37.097  29.299  1.00  0.00     0.124 S 
ATOM     93  O   UNL A   1      47.202  37.261  30.670  1.00  0.00    -0.237 OA
ATOM     94  O   UNL A   1      49.132  37.062  29.133  1.00  0.00    -0.237 OA
ATOM     95  O   UNL A   1      46.960  37.849  28.285  1.00  0.00    -0.744 OA
ENDBRANCH  91  92
ENDBRANCH  59  84
BRANCH  71  96
ATOM     96  C   UNL A   1      49.679  27.011  26.155  1.00  0.00     0.058 A 
ATOM     97  C   UNL A   1      50.597  26.479  27.072  1.00  0.00     0.135 A 
ATOM     98  C   UNL A   1      50.104  27.198  24.831  1.00  0.00     0.135 A 
ATOM     99  F   UNL A   1      50.240  26.290  28.353  1.00  0.00    -0.206 F 
ATOM    100  C   UNL A   1      51.892  26.144  26.691  1.00  0.00     0.059 A 
ATOM    101  C   UNL A   1      51.388  26.852  24.422  1.00  0.00     0.059 A 
ATOM    102  F   UNL A   1      49.260  27.698  23.914  1.00  0.00    -0.206 F 
ATOM    103  C   UNL A   1      52.276  26.328  25.360  1.00  0.00     0.060 A 
BRANCH 103 104
ATOM    104  S   UNL A   1      53.938  25.829  24.863  1.00  0.00     0.124 S 
ATOM    105  O   UNL A   1      53.977  24.442  25.315  1.00  0.00    -0.237 OA
ATOM    106  O   UNL A   1      53.905  26.024  23.417  1.00  0.00    -0.237 OA
ATOM    107  O   UNL A   1      54.803  26.752  25.594  1.00  0.00    -0.744 OA
ENDBRANCH 103 104
ENDBRANCH  71  96
ENDBRANCH  45  46
ENDBRANCH  37  40
ENDBRANCH  35  36
ENDBRANCH  34  35
ENDBRANCH  33  34
ENDBRANCH   1  33
TORSDOF 20
ENDMDL
