MODEL 1
REMARK VINA RESULT:     -11.7      0.000      0.000
REMARK SMILES O=C(NCCCCNC(=O)c1cc(S(=O)(=O)N2CCCCC2)c(Cl)cc1Cl)c1ccc(-c2c3nc(c(-c4c(F)cc(S(=O)(=O)[O-])cc4F)c4ccc([nH]4)c(-c4c(F)cc(S(=O)(=O)[O-])cc4F)c4nc(c(-c5c(F)cc(S(=O)(=O)[O-])cc5F)c5ccc2[nH]5)C=C4)C=C3)cc1
REMARK SMILES IDX 5 1 4 2 3 3 1 4 2 5 28 7 29 8 93 9 30 10 92 11 31 12 32 13
REMARK SMILES IDX 33 14 86 15 34 16 91 17 85 18 87 19 35 20 90 21 84 22 83 23
REMARK SMILES IDX 36 25 70 26 49 27 69 28 50 29 53 30 68 31 88 32 51 33 52 34
REMARK SMILES IDX 67 36 89 37 54 38 37 39 38 40 47 41 39 42 40 43 46 44 48 45
REMARK SMILES IDX 41 46 42 47 43 48 44 49 45 50 71 51 72 52 81 53 73 54 74 55
REMARK SMILES IDX 80 56 82 57 75 58 76 59 77 60 78 61 79 62 55 63 56 64 65 65
REMARK SMILES IDX 57 66 58 67 64 68 66 69 59 70 60 71 61 72 62 73 63 74 6 75
REMARK SMILES IDX 7 76 8 77 9 78 10 80 11 81 12 82 26 83 13 84 25 85 27 86
REMARK SMILES IDX 23 87 24 88 14 89 15 90 16 91 17 92 18 93 22 94 19 95 21 96
REMARK SMILES IDX 20 97
REMARK H PARENT 3 6 87 24 53 35 8 79
REMARK Flexibility Score: inf
ROOT
ATOM      1  C   UNL A   1      33.306  28.351  25.651  1.00  0.00     0.023 C 
ENDROOT
BRANCH   1   2
ATOM      2  C   UNL A   1      34.075  28.579  26.945  1.00  0.00     0.116 C 
BRANCH   2   3
ATOM      3  N   UNL A   1      33.775  29.854  27.574  1.00  0.00    -0.352 N 
ATOM      4  O   UNL A   1      34.141  31.643  28.895  1.00  0.00    -0.269 OA
ATOM      5  C   UNL A   1      34.595  30.647  28.341  1.00  0.00     0.251 C 
ATOM      6  H   UNL A   1      32.863  30.196  27.430  1.00  0.00     0.163 HD
BRANCH   5   7
ATOM      7  C   UNL A   1      36.018  30.279  28.520  1.00  0.00     0.039 A 
ATOM      8  C   UNL A   1      36.942  30.461  27.488  1.00  0.00     0.014 A 
ATOM      9  C   UNL A   1      36.431  29.746  29.745  1.00  0.00     0.014 A 
ATOM     10  C   UNL A   1      38.248  30.003  27.638  1.00  0.00     0.010 A 
ATOM     11  C   UNL A   1      37.762  29.353  29.920  1.00  0.00     0.010 A 
ATOM     12  C   UNL A   1      38.676  29.460  28.861  1.00  0.00    -0.014 A 
BRANCH  12  13
ATOM     13  C   UNL A   1      40.106  29.101  29.036  1.00  0.00     0.031 A 
ATOM     14  C   UNL A   1      40.630  27.749  28.640  1.00  0.00     0.074 A 
ATOM     15  C   UNL A   1      40.934  30.027  29.556  1.00  0.00     0.049 A 
ATOM     16  N   UNL A   1      41.851  27.288  28.724  1.00  0.00    -0.248 NA
ATOM     17  C   UNL A   1      39.664  26.788  28.083  1.00  0.00     0.031 C 
ATOM     18  C   UNL A   1      40.528  31.363  30.006  1.00  0.00     0.029 A 
ATOM     19  N   UNL A   1      42.284  29.998  29.792  1.00  0.00    -0.354 N 
ATOM     20  C   UNL A   1      41.802  25.981  28.254  1.00  0.00     0.074 A 
ATOM     21  C   UNL A   1      40.425  25.716  27.894  1.00  0.00     0.031 C 
ATOM     22  C   UNL A   1      41.608  32.033  30.434  1.00  0.00     0.029 A 
ATOM     23  C   UNL A   1      42.772  31.161  30.337  1.00  0.00     0.049 A 
ATOM     24  H   UNL A   1      42.849  29.217  29.590  1.00  0.00     0.167 HD
ATOM     25  C   UNL A   1      42.816  25.092  28.132  1.00  0.00     0.037 A 
ATOM     26  C   UNL A   1      44.016  31.487  30.735  1.00  0.00     0.037 A 
ATOM     27  C   UNL A   1      44.191  25.376  28.463  1.00  0.00     0.049 A 
ATOM     28  C   UNL A   1      45.117  30.479  30.582  1.00  0.00     0.074 A 
ATOM     29  C   UNL A   1      45.299  24.562  28.303  1.00  0.00     0.029 A 
ATOM     30  N   UNL A   1      44.643  26.560  29.025  1.00  0.00    -0.354 N 
ATOM     31  N   UNL A   1      45.059  29.268  30.085  1.00  0.00    -0.248 NA
ATOM     32  C   UNL A   1      46.451  30.879  31.050  1.00  0.00     0.031 C 
ATOM     33  C   UNL A   1      46.417  25.239  28.803  1.00  0.00     0.029 A 
ATOM     34  C   UNL A   1      46.010  26.488  29.244  1.00  0.00     0.049 A 
ATOM     35  H   UNL A   1      44.077  27.337  29.237  1.00  0.00     0.167 HD
ATOM     36  C   UNL A   1      46.348  28.759  30.181  1.00  0.00     0.074 A 
ATOM     37  C   UNL A   1      47.169  29.803  30.758  1.00  0.00     0.031 C 
ATOM     38  C   UNL A   1      46.808  27.533  29.831  1.00  0.00     0.037 A 
BRANCH  25  39
ATOM     39  C   UNL A   1      42.496  23.715  27.619  1.00  0.00     0.058 A 
ATOM     40  C   UNL A   1      42.410  23.443  26.246  1.00  0.00     0.135 A 
ATOM     41  C   UNL A   1      42.374  22.637  28.512  1.00  0.00     0.135 A 
ATOM     42  F   UNL A   1      42.508  24.440  25.352  1.00  0.00    -0.206 F 
ATOM     43  C   UNL A   1      42.213  22.149  25.774  1.00  0.00     0.059 A 
ATOM     44  C   UNL A   1      42.192  21.333  28.061  1.00  0.00     0.059 A 
ATOM     45  F   UNL A   1      42.448  22.846  29.836  1.00  0.00    -0.206 F 
ATOM     46  C   UNL A   1      42.111  21.099  26.688  1.00  0.00     0.060 A 
BRANCH  46  47
ATOM     47  S   UNL A   1      41.900  19.419  26.058  1.00  0.00     0.124 S 
ATOM     48  O   UNL A   1      42.793  19.428  24.903  1.00  0.00    -0.237 OA
ATOM     49  O   UNL A   1      42.335  18.604  27.187  1.00  0.00    -0.237 OA
ATOM     50  O   UNL A   1      40.475  19.348  25.751  1.00  0.00    -0.744 OA
ENDBRANCH  46  47
ENDBRANCH  25  39
BRANCH  26  51
ATOM     51  C   UNL A   1      44.272  32.817  31.340  1.00  0.00     0.058 A 
ATOM     52  C   UNL A   1      44.600  33.925  30.546  1.00  0.00     0.135 A 
ATOM     53  C   UNL A   1      44.181  33.008  32.728  1.00  0.00     0.135 A 
ATOM     54  F   UNL A   1      44.701  33.789  29.214  1.00  0.00    -0.206 F 
ATOM     55  C   UNL A   1      44.846  35.174  31.107  1.00  0.00     0.059 A 
ATOM     56  C   UNL A   1      44.399  34.251  33.309  1.00  0.00     0.059 A 
ATOM     57  F   UNL A   1      43.852  31.981  33.527  1.00  0.00    -0.206 F 
ATOM     58  C   UNL A   1      44.745  35.325  32.491  1.00  0.00     0.060 A 
BRANCH  58  59
ATOM     59  S   UNL A   1      45.026  36.955  33.215  1.00  0.00     0.124 S 
ATOM     60  O   UNL A   1      46.056  37.493  32.333  1.00  0.00    -0.237 OA
ATOM     61  O   UNL A   1      43.709  37.576  33.112  1.00  0.00    -0.237 OA
ATOM     62  O   UNL A   1      45.457  36.643  34.574  1.00  0.00    -0.744 OA
ENDBRANCH  58  59
ENDBRANCH  26  51
BRANCH  38  63
ATOM     63  C   UNL A   1      48.264  27.262  30.068  1.00  0.00     0.058 A 
ATOM     64  C   UNL A   1      49.220  27.510  29.071  1.00  0.00     0.135 A 
ATOM     65  C   UNL A   1      48.709  26.776  31.305  1.00  0.00     0.135 A 
ATOM     66  F   UNL A   1      48.839  27.967  27.868  1.00  0.00    -0.206 F 
ATOM     67  C   UNL A   1      50.571  27.262  29.287  1.00  0.00     0.059 A 
ATOM     68  C   UNL A   1      50.059  26.539  31.549  1.00  0.00     0.059 A 
ATOM     69  F   UNL A   1      47.833  26.530  32.292  1.00  0.00    -0.206 F 
ATOM     70  C   UNL A   1      50.981  26.774  30.529  1.00  0.00     0.060 A 
BRANCH  70  71
ATOM     71  S   UNL A   1      52.738  26.475  30.809  1.00  0.00     0.124 S 
ATOM     72  O   UNL A   1      52.703  25.269  31.629  1.00  0.00    -0.237 OA
ATOM     73  O   UNL A   1      53.250  26.303  29.452  1.00  0.00    -0.237 OA
ATOM     74  O   UNL A   1      53.183  27.687  31.490  1.00  0.00    -0.744 OA
ENDBRANCH  70  71
ENDBRANCH  38  63
ENDBRANCH  12  13
ENDBRANCH   5   7
ENDBRANCH   2   3
ENDBRANCH   1   2
BRANCH   1  75
ATOM     75  C   UNL A   1      32.754  29.608  24.979  1.00  0.00     0.023 C 
BRANCH  75  76
ATOM     76  C   UNL A   1      31.234  29.740  24.987  1.00  0.00     0.116 C 
BRANCH  76  77
ATOM     77  N   UNL A   1      30.674  29.984  23.664  1.00  0.00    -0.352 N 
ATOM     78  C   UNL A   1      30.325  29.106  22.671  1.00  0.00     0.252 C 
ATOM     79  H   UNL A   1      30.521  30.933  23.450  1.00  0.00     0.163 HD
ATOM     80  O   UNL A   1      29.866  29.507  21.609  1.00  0.00    -0.269 OA
BRANCH  78  81
ATOM     81  C   UNL A   1      30.470  27.659  22.899  1.00  0.00     0.059 A 
ATOM     82  C   UNL A   1      31.702  27.056  22.616  1.00  0.00     0.038 A 
ATOM     83  C   UNL A   1      29.427  26.889  23.393  1.00  0.00     0.055 A 
ATOM     84  C   UNL A   1      31.887  25.660  22.723  1.00  0.00     0.102 A 
ATOM     85  C   UNL A   1      29.623  25.517  23.566  1.00  0.00     0.043 A 
ATOM     86  Cl  UNL A   1      27.867  27.528  23.755  1.00  0.00    -0.083 Cl
ATOM     87  C   UNL A   1      30.839  24.891  23.224  1.00  0.00     0.062 A 
ATOM     88  Cl  UNL A   1      30.826  23.197  23.494  1.00  0.00    -0.083 Cl
BRANCH  84  89
ATOM     89  S   UNL A   1      33.463  25.151  22.068  1.00  0.00     0.244 S 
ATOM     90  O   UNL A   1      33.131  24.156  21.068  1.00  0.00    -0.207 OA
ATOM     91  O   UNL A   1      34.120  26.387  21.685  1.00  0.00    -0.207 OA
BRANCH  89  92
ATOM     92  N   UNL A   1      34.450  24.407  23.213  1.00  0.00    -0.198 NA
ATOM     93  C   UNL A   1      34.409  24.944  24.587  1.00  0.00     0.102 C 
ATOM     94  C   UNL A   1      34.898  23.027  22.931  1.00  0.00     0.102 C 
ATOM     95  C   UNL A   1      35.441  24.324  25.515  1.00  0.00     0.017 C 
ATOM     96  C   UNL A   1      35.875  22.469  23.955  1.00  0.00     0.017 C 
ATOM     97  C   UNL A   1      35.488  22.815  25.381  1.00  0.00     0.003 C 
ENDBRANCH  89  92
ENDBRANCH  84  89
ENDBRANCH  78  81
ENDBRANCH  76  77
ENDBRANCH  75  76
ENDBRANCH   1  75
TORSDOF 16
ENDMDL
MODEL 2
REMARK VINA RESULT:     -11.4      2.826      8.723
REMARK SMILES O=C(NCCCCNC(=O)c1cc(S(=O)(=O)N2CCCCC2)c(Cl)cc1Cl)c1ccc(-c2c3nc(c(-c4c(F)cc(S(=O)(=O)[O-])cc4F)c4ccc([nH]4)c(-c4c(F)cc(S(=O)(=O)[O-])cc4F)c4nc(c(-c5c(F)cc(S(=O)(=O)[O-])cc5F)c5ccc2[nH]5)C=C4)C=C3)cc1
REMARK SMILES IDX 5 1 4 2 3 3 1 4 2 5 28 7 29 8 93 9 30 10 92 11 31 12 32 13
REMARK SMILES IDX 33 14 86 15 34 16 91 17 85 18 87 19 35 20 90 21 84 22 83 23
REMARK SMILES IDX 36 25 70 26 49 27 69 28 50 29 53 30 68 31 88 32 51 33 52 34
REMARK SMILES IDX 67 36 89 37 54 38 37 39 38 40 47 41 39 42 40 43 46 44 48 45
REMARK SMILES IDX 41 46 42 47 43 48 44 49 45 50 71 51 72 52 81 53 73 54 74 55
REMARK SMILES IDX 80 56 82 57 75 58 76 59 77 60 78 61 79 62 55 63 56 64 65 65
REMARK SMILES IDX 57 66 58 67 64 68 66 69 59 70 60 71 61 72 62 73 63 74 6 75
REMARK SMILES IDX 7 76 8 77 9 78 10 80 11 81 12 82 26 83 13 84 25 85 27 86
REMARK SMILES IDX 23 87 24 88 14 89 15 90 16 91 17 92 18 93 22 94 19 95 21 96
REMARK SMILES IDX 20 97
REMARK H PARENT 3 6 87 24 53 35 8 79
REMARK Flexibility Score: inf
ROOT
ATOM      1  C   UNL A   1      34.008  29.488  26.837  1.00  0.00     0.023 C 
ENDROOT
BRANCH   1   2
ATOM      2  C   UNL A   1      35.265  29.361  27.686  1.00  0.00     0.116 C 
BRANCH   2   3
ATOM      3  N   UNL A   1      35.209  30.139  28.913  1.00  0.00    -0.352 N 
ATOM      4  O   UNL A   1      35.985  31.025  30.834  1.00  0.00    -0.269 OA
ATOM      5  C   UNL A   1      36.232  30.456  29.776  1.00  0.00     0.251 C 
ATOM      6  H   UNL A   1      34.320  30.484  29.158  1.00  0.00     0.163 HD
BRANCH   5   7
ATOM      7  C   UNL A   1      37.623  30.081  29.438  1.00  0.00     0.039 A 
ATOM      8  C   UNL A   1      38.057  30.057  28.110  1.00  0.00     0.014 A 
ATOM      9  C   UNL A   1      38.507  29.753  30.470  1.00  0.00     0.014 A 
ATOM     10  C   UNL A   1      39.334  29.593  27.806  1.00  0.00     0.010 A 
ATOM     11  C   UNL A   1      39.814  29.356  30.168  1.00  0.00     0.010 A 
ATOM     12  C   UNL A   1      40.231  29.254  28.833  1.00  0.00    -0.014 A 
BRANCH  12  13
ATOM     13  C   UNL A   1      41.627  28.888  28.486  1.00  0.00     0.031 A 
ATOM     14  C   UNL A   1      42.731  29.908  28.493  1.00  0.00     0.074 A 
ATOM     15  C   UNL A   1      41.889  27.604  28.171  1.00  0.00     0.049 A 
ATOM     16  N   UNL A   1      43.999  29.744  28.221  1.00  0.00    -0.248 NA
ATOM     17  C   UNL A   1      42.368  31.291  28.842  1.00  0.00     0.031 C 
ATOM     18  C   UNL A   1      40.889  26.534  28.103  1.00  0.00     0.029 A 
ATOM     19  N   UNL A   1      43.065  26.976  27.856  1.00  0.00    -0.354 N 
ATOM     20  C   UNL A   1      44.586  30.998  28.344  1.00  0.00     0.074 A 
ATOM     21  C   UNL A   1      43.530  31.920  28.706  1.00  0.00     0.031 C 
ATOM     22  C   UNL A   1      41.497  25.379  27.795  1.00  0.00     0.029 A 
ATOM     23  C   UNL A   1      42.919  25.634  27.597  1.00  0.00     0.049 A 
ATOM     24  H   UNL A   1      43.932  27.441  27.818  1.00  0.00     0.167 HD
ATOM     25  C   UNL A   1      45.885  31.341  28.175  1.00  0.00     0.037 A 
ATOM     26  C   UNL A   1      43.824  24.711  27.222  1.00  0.00     0.037 A 
ATOM     27  C   UNL A   1      46.935  30.409  27.845  1.00  0.00     0.049 A 
ATOM     28  C   UNL A   1      45.256  25.123  27.047  1.00  0.00     0.074 A 
ATOM     29  C   UNL A   1      48.292  30.652  27.726  1.00  0.00     0.029 A 
ATOM     30  N   UNL A   1      46.745  29.062  27.578  1.00  0.00    -0.354 N 
ATOM     31  N   UNL A   1      45.798  26.304  27.221  1.00  0.00    -0.248 NA
ATOM     32  C   UNL A   1      46.198  24.082  26.617  1.00  0.00     0.031 C 
ATOM     33  C   UNL A   1      48.920  29.459  27.349  1.00  0.00     0.029 A 
ATOM     34  C   UNL A   1      47.957  28.466  27.266  1.00  0.00     0.049 A 
ATOM     35  H   UNL A   1      45.878  28.597  27.605  1.00  0.00     0.167 HD
ATOM     36  C   UNL A   1      47.144  26.149  26.921  1.00  0.00     0.074 A 
ATOM     37  C   UNL A   1      47.340  24.754  26.581  1.00  0.00     0.031 C 
ATOM     38  C   UNL A   1      48.130  27.079  26.919  1.00  0.00     0.037 A 
BRANCH  25  39
ATOM     39  C   UNL A   1      46.266  32.786  28.337  1.00  0.00     0.058 A 
ATOM     40  C   UNL A   1      46.736  33.290  29.559  1.00  0.00     0.135 A 
ATOM     41  C   UNL A   1      46.254  33.651  27.231  1.00  0.00     0.135 A 
ATOM     42  F   UNL A   1      46.756  32.507  30.650  1.00  0.00    -0.206 F 
ATOM     43  C   UNL A   1      47.182  34.602  29.679  1.00  0.00     0.059 A 
ATOM     44  C   UNL A   1      46.709  34.963  27.324  1.00  0.00     0.059 A 
ATOM     45  F   UNL A   1      45.811  33.218  26.040  1.00  0.00    -0.206 F 
ATOM     46  C   UNL A   1      47.170  35.431  28.555  1.00  0.00     0.060 A 
BRANCH  46  47
ATOM     47  S   UNL A   1      47.793  37.119  28.716  1.00  0.00     0.124 S 
ATOM     48  O   UNL A   1      47.699  37.596  27.339  1.00  0.00    -0.237 OA
ATOM     49  O   UNL A   1      46.851  37.713  29.658  1.00  0.00    -0.237 OA
ATOM     50  O   UNL A   1      49.149  36.932  29.225  1.00  0.00    -0.744 OA
ENDBRANCH  46  47
ENDBRANCH  25  39
BRANCH  26  51
ATOM     51  C   UNL A   1      43.390  23.316  26.962  1.00  0.00     0.058 A 
ATOM     52  C   UNL A   1      43.255  22.830  25.654  1.00  0.00     0.135 A 
ATOM     53  C   UNL A   1      43.115  22.437  28.021  1.00  0.00     0.135 A 
ATOM     54  F   UNL A   1      43.505  23.635  24.610  1.00  0.00    -0.206 F 
ATOM     55  C   UNL A   1      42.845  21.525  25.403  1.00  0.00     0.059 A 
ATOM     56  C   UNL A   1      42.726  21.122  27.796  1.00  0.00     0.059 A 
ATOM     57  F   UNL A   1      43.249  22.852  29.291  1.00  0.00    -0.206 F 
ATOM     58  C   UNL A   1      42.580  20.679  26.482  1.00  0.00     0.060 A 
BRANCH  58  59
ATOM     59  S   UNL A   1      42.086  18.974  26.157  1.00  0.00     0.124 S 
ATOM     60  O   UNL A   1      42.376  18.337  27.437  1.00  0.00    -0.237 OA
ATOM     61  O   UNL A   1      40.672  19.115  25.821  1.00  0.00    -0.237 OA
ATOM     62  O   UNL A   1      42.948  18.585  25.046  1.00  0.00    -0.744 OA
ENDBRANCH  58  59
ENDBRANCH  26  51
BRANCH  38  63
ATOM     63  C   UNL A   1      49.503  26.613  26.534  1.00  0.00     0.058 A 
ATOM     64  C   UNL A   1      50.350  26.001  27.471  1.00  0.00     0.135 A 
ATOM     65  C   UNL A   1      49.964  26.754  25.217  1.00  0.00     0.135 A 
ATOM     66  F   UNL A   1      49.956  25.853  28.745  1.00  0.00    -0.206 F 
ATOM     67  C   UNL A   1      51.623  25.566  27.118  1.00  0.00     0.059 A 
ATOM     68  C   UNL A   1      51.226  26.307  24.838  1.00  0.00     0.059 A 
ATOM     69  F   UNL A   1      49.186  27.327  24.285  1.00  0.00    -0.206 F 
ATOM     70  C   UNL A   1      52.053  25.726  25.799  1.00  0.00     0.060 A 
BRANCH  70  71
ATOM     71  S   UNL A   1      53.698  25.139  25.344  1.00  0.00     0.124 S 
ATOM     72  O   UNL A   1      54.514  25.693  26.418  1.00  0.00    -0.237 OA
ATOM     73  O   UNL A   1      53.531  23.688  25.359  1.00  0.00    -0.237 OA
ATOM     74  O   UNL A   1      53.912  25.724  24.024  1.00  0.00    -0.744 OA
ENDBRANCH  70  71
ENDBRANCH  38  63
ENDBRANCH  12  13
ENDBRANCH   5   7
ENDBRANCH   2   3
ENDBRANCH   1   2
BRANCH   1  75
ATOM     75  C   UNL A   1      32.792  28.705  27.330  1.00  0.00     0.023 C 
BRANCH  75  76
ATOM     76  C   UNL A   1      32.515  27.397  26.596  1.00  0.00     0.116 C 
BRANCH  76  77
ATOM     77  N   UNL A   1      31.186  26.861  26.864  1.00  0.00    -0.352 N 
ATOM     78  C   UNL A   1      30.502  25.839  26.259  1.00  0.00     0.252 C 
ATOM     79  H   UNL A   1      30.704  27.304  27.599  1.00  0.00     0.163 HD
ATOM     80  O   UNL A   1      29.375  25.532  26.627  1.00  0.00    -0.269 OA
BRANCH  78  81
ATOM     81  C   UNL A   1      31.144  25.076  25.176  1.00  0.00     0.059 A 
ATOM     82  C   UNL A   1      31.827  23.898  25.500  1.00  0.00     0.038 A 
ATOM     83  C   UNL A   1      31.079  25.490  23.853  1.00  0.00     0.055 A 
ATOM     84  C   UNL A   1      32.542  23.165  24.529  1.00  0.00     0.102 A 
ATOM     85  C   UNL A   1      31.728  24.733  22.876  1.00  0.00     0.043 A 
ATOM     86  Cl  UNL A   1      30.281  26.934  23.351  1.00  0.00    -0.083 Cl
ATOM     87  C   UNL A   1      32.470  23.580  23.201  1.00  0.00     0.062 A 
ATOM     88  Cl  UNL A   1      33.203  22.841  21.837  1.00  0.00    -0.083 Cl
BRANCH  84  89
ATOM     89  S   UNL A   1      33.508  21.862  25.265  1.00  0.00     0.244 S 
ATOM     90  O   UNL A   1      33.146  21.896  26.668  1.00  0.00    -0.207 OA
ATOM     91  O   UNL A   1      33.221  20.689  24.461  1.00  0.00    -0.207 OA
BRANCH  89  92
ATOM     92  N   UNL A   1      35.170  22.128  25.166  1.00  0.00    -0.198 NA
ATOM     93  C   UNL A   1      35.687  23.377  25.759  1.00  0.00     0.102 C 
ATOM     94  C   UNL A   1      36.036  20.950  24.958  1.00  0.00     0.102 C 
ATOM     95  C   UNL A   1      37.163  23.614  25.489  1.00  0.00     0.017 C 
ATOM     96  C   UNL A   1      37.508  21.286  24.767  1.00  0.00     0.017 C 
ATOM     97  C   UNL A   1      37.989  22.364  25.719  1.00  0.00     0.003 C 
ENDBRANCH  89  92
ENDBRANCH  84  89
ENDBRANCH  78  81
ENDBRANCH  76  77
ENDBRANCH  75  76
ENDBRANCH   1  75
TORSDOF 16
ENDMDL
MODEL 3
REMARK VINA RESULT:     -11.4      1.983      2.755
REMARK SMILES O=C(NCCCCNC(=O)c1cc(S(=O)(=O)N2CCCCC2)c(Cl)cc1Cl)c1ccc(-c2c3nc(c(-c4c(F)cc(S(=O)(=O)[O-])cc4F)c4ccc([nH]4)c(-c4c(F)cc(S(=O)(=O)[O-])cc4F)c4nc(c(-c5c(F)cc(S(=O)(=O)[O-])cc5F)c5ccc2[nH]5)C=C4)C=C3)cc1
REMARK SMILES IDX 5 1 4 2 3 3 1 4 2 5 28 7 29 8 93 9 30 10 92 11 31 12 32 13
REMARK SMILES IDX 33 14 86 15 34 16 91 17 85 18 87 19 35 20 90 21 84 22 83 23
REMARK SMILES IDX 36 25 70 26 49 27 69 28 50 29 53 30 68 31 88 32 51 33 52 34
REMARK SMILES IDX 67 36 89 37 54 38 37 39 38 40 47 41 39 42 40 43 46 44 48 45
REMARK SMILES IDX 41 46 42 47 43 48 44 49 45 50 71 51 72 52 81 53 73 54 74 55
REMARK SMILES IDX 80 56 82 57 75 58 76 59 77 60 78 61 79 62 55 63 56 64 65 65
REMARK SMILES IDX 57 66 58 67 64 68 66 69 59 70 60 71 61 72 62 73 63 74 6 75
REMARK SMILES IDX 7 76 8 77 9 78 10 80 11 81 12 82 26 83 13 84 25 85 27 86
REMARK SMILES IDX 23 87 24 88 14 89 15 90 16 91 17 92 18 93 22 94 19 95 21 96
REMARK SMILES IDX 20 97
REMARK H PARENT 3 6 87 24 53 35 8 79
REMARK Flexibility Score: inf
ROOT
ATOM      1  C   UNL A   1      33.648  27.921  25.574  1.00  0.00     0.023 C 
ENDROOT
BRANCH   1   2
ATOM      2  C   UNL A   1      33.965  28.167  27.043  1.00  0.00     0.116 C 
BRANCH   2   3
ATOM      3  N   UNL A   1      33.678  29.525  27.472  1.00  0.00    -0.352 N 
ATOM      4  O   UNL A   1      34.064  31.492  28.504  1.00  0.00    -0.269 OA
ATOM      5  C   UNL A   1      34.509  30.420  28.104  1.00  0.00     0.251 C 
ATOM      6  H   UNL A   1      32.766  29.847  27.286  1.00  0.00     0.163 HD
BRANCH   5   7
ATOM      7  C   UNL A   1      35.931  30.073  28.326  1.00  0.00     0.039 A 
ATOM      8  C   UNL A   1      36.868  30.193  27.297  1.00  0.00     0.014 A 
ATOM      9  C   UNL A   1      36.331  29.627  29.589  1.00  0.00     0.014 A 
ATOM     10  C   UNL A   1      38.174  29.755  27.494  1.00  0.00     0.010 A 
ATOM     11  C   UNL A   1      37.661  29.255  29.807  1.00  0.00     0.010 A 
ATOM     12  C   UNL A   1      38.589  29.297  28.756  1.00  0.00    -0.014 A 
BRANCH  12  13
ATOM     13  C   UNL A   1      40.018  28.960  28.974  1.00  0.00     0.031 A 
ATOM     14  C   UNL A   1      40.578  27.621  28.580  1.00  0.00     0.074 A 
ATOM     15  C   UNL A   1      40.813  29.894  29.531  1.00  0.00     0.049 A 
ATOM     16  N   UNL A   1      41.803  27.180  28.700  1.00  0.00    -0.248 NA
ATOM     17  C   UNL A   1      39.647  26.651  27.983  1.00  0.00     0.031 C 
ATOM     18  C   UNL A   1      40.370  31.217  29.981  1.00  0.00     0.029 A 
ATOM     19  N   UNL A   1      42.156  29.884  29.810  1.00  0.00    -0.354 N 
ATOM     20  C   UNL A   1      41.792  25.877  28.214  1.00  0.00     0.074 A 
ATOM     21  C   UNL A   1      40.432  25.594  27.807  1.00  0.00     0.031 C 
ATOM     22  C   UNL A   1      41.424  31.900  30.451  1.00  0.00     0.029 A 
ATOM     23  C   UNL A   1      42.606  31.049  30.382  1.00  0.00     0.049 A 
ATOM     24  H   UNL A   1      42.740  29.116  29.618  1.00  0.00     0.167 HD
ATOM     25  C   UNL A   1      42.824  25.007  28.116  1.00  0.00     0.037 A 
ATOM     26  C   UNL A   1      43.830  31.392  30.824  1.00  0.00     0.037 A 
ATOM     27  C   UNL A   1      44.182  25.310  28.495  1.00  0.00     0.049 A 
ATOM     28  C   UNL A   1      44.953  30.404  30.696  1.00  0.00     0.074 A 
ATOM     29  C   UNL A   1      45.308  24.516  28.362  1.00  0.00     0.029 A 
ATOM     30  N   UNL A   1      44.596  26.495  29.084  1.00  0.00    -0.354 N 
ATOM     31  N   UNL A   1      44.932  29.197  30.185  1.00  0.00    -0.248 NA
ATOM     32  C   UNL A   1      46.264  30.820  31.212  1.00  0.00     0.031 C 
ATOM     33  C   UNL A   1      46.398  25.206  28.905  1.00  0.00     0.029 A 
ATOM     34  C   UNL A   1      45.956  26.443  29.346  1.00  0.00     0.049 A 
ATOM     35  H   UNL A   1      44.010  27.260  29.286  1.00  0.00     0.167 HD
ATOM     36  C   UNL A   1      46.224  28.709  30.318  1.00  0.00     0.074 A 
ATOM     37  C   UNL A   1      47.009  29.760  30.932  1.00  0.00     0.031 C 
ATOM     38  C   UNL A   1      46.716  27.495  29.970  1.00  0.00     0.037 A 
BRANCH  25  39
ATOM     39  C   UNL A   1      42.545  23.630  27.579  1.00  0.00     0.058 A 
ATOM     40  C   UNL A   1      42.562  23.361  26.202  1.00  0.00     0.135 A 
ATOM     41  C   UNL A   1      42.356  22.551  28.458  1.00  0.00     0.135 A 
ATOM     42  F   UNL A   1      42.726  24.359  25.320  1.00  0.00    -0.206 F 
ATOM     43  C   UNL A   1      42.402  22.068  25.715  1.00  0.00     0.059 A 
ATOM     44  C   UNL A   1      42.209  21.248  27.992  1.00  0.00     0.059 A 
ATOM     45  F   UNL A   1      42.330  22.757  29.784  1.00  0.00    -0.206 F 
ATOM     46  C   UNL A   1      42.231  21.015  26.617  1.00  0.00     0.060 A 
BRANCH  46  47
ATOM     47  S   UNL A   1      42.070  19.337  25.971  1.00  0.00     0.124 S 
ATOM     48  O   UNL A   1      42.519  18.542  27.110  1.00  0.00    -0.237 OA
ATOM     49  O   UNL A   1      40.646  19.254  25.664  1.00  0.00    -0.237 OA
ATOM     50  O   UNL A   1      42.959  19.332  24.812  1.00  0.00    -0.744 OA
ENDBRANCH  46  47
ENDBRANCH  25  39
BRANCH  26  51
ATOM     51  C   UNL A   1      44.044  32.719  31.452  1.00  0.00     0.058 A 
ATOM     52  C   UNL A   1      43.915  32.897  32.836  1.00  0.00     0.135 A 
ATOM     53  C   UNL A   1      44.395  33.835  30.675  1.00  0.00     0.135 A 
ATOM     54  F   UNL A   1      43.578  31.859  33.617  1.00  0.00    -0.206 F 
ATOM     55  C   UNL A   1      44.110  34.139  33.430  1.00  0.00     0.059 A 
ATOM     56  C   UNL A   1      44.618  35.081  31.249  1.00  0.00     0.059 A 
ATOM     57  F   UNL A   1      44.548  33.709  29.348  1.00  0.00    -0.206 F 
ATOM     58  C   UNL A   1      44.458  35.226  32.626  1.00  0.00     0.060 A 
BRANCH  58  59
ATOM     59  S   UNL A   1      44.749  36.830  33.401  1.00  0.00     0.124 S 
ATOM     60  O   UNL A   1      44.072  37.730  32.474  1.00  0.00    -0.237 OA
ATOM     61  O   UNL A   1      44.118  36.667  34.707  1.00  0.00    -0.237 OA
ATOM     62  O   UNL A   1      46.205  36.926  33.427  1.00  0.00    -0.744 OA
ENDBRANCH  58  59
ENDBRANCH  26  51
BRANCH  38  63
ATOM     63  C   UNL A   1      48.169  27.245  30.251  1.00  0.00     0.058 A 
ATOM     64  C   UNL A   1      49.163  27.657  29.350  1.00  0.00     0.135 A 
ATOM     65  C   UNL A   1      48.570  26.615  31.438  1.00  0.00     0.135 A 
ATOM     66  F   UNL A   1      48.826  28.255  28.198  1.00  0.00    -0.206 F 
ATOM     67  C   UNL A   1      50.511  27.429  29.608  1.00  0.00     0.059 A 
ATOM     68  C   UNL A   1      49.914  26.396  31.725  1.00  0.00     0.059 A 
ATOM     69  F   UNL A   1      47.655  26.210  32.333  1.00  0.00    -0.206 F 
ATOM     70  C   UNL A   1      50.876  26.795  30.797  1.00  0.00     0.060 A 
BRANCH  70  71
ATOM     71  S   UNL A   1      52.628  26.522  31.134  1.00  0.00     0.124 S 
ATOM     72  O   UNL A   1      52.588  25.291  31.915  1.00  0.00    -0.237 OA
ATOM     73  O   UNL A   1      53.193  26.404  29.793  1.00  0.00    -0.237 OA
ATOM     74  O   UNL A   1      53.021  27.722  31.868  1.00  0.00    -0.744 OA
ENDBRANCH  70  71
ENDBRANCH  38  63
ENDBRANCH  12  13
ENDBRANCH   5   7
ENDBRANCH   2   3
ENDBRANCH   1   2
BRANCH   1  75
ATOM     75  C   UNL A   1      32.191  27.586  25.258  1.00  0.00     0.023 C 
BRANCH  75  76
ATOM     76  C   UNL A   1      31.699  26.242  25.786  1.00  0.00     0.116 C 
BRANCH  76  77
ATOM     77  N   UNL A   1      30.780  25.572  24.876  1.00  0.00    -0.352 N 
ATOM     78  C   UNL A   1      31.012  24.610  23.927  1.00  0.00     0.252 C 
ATOM     79  H   UNL A   1      29.841  25.856  24.956  1.00  0.00     0.163 HD
ATOM     80  O   UNL A   1      30.097  24.164  23.246  1.00  0.00    -0.269 OA
BRANCH  78  81
ATOM     81  C   UNL A   1      32.373  24.079  23.751  1.00  0.00     0.059 A 
ATOM     82  C   UNL A   1      32.726  22.902  24.421  1.00  0.00     0.038 A 
ATOM     83  C   UNL A   1      33.302  24.707  22.933  1.00  0.00     0.055 A 
ATOM     84  C   UNL A   1      34.039  22.384  24.371  1.00  0.00     0.102 A 
ATOM     85  C   UNL A   1      34.584  24.164  22.825  1.00  0.00     0.043 A 
ATOM     86  Cl  UNL A   1      32.976  26.169  22.080  1.00  0.00    -0.083 Cl
ATOM     87  C   UNL A   1      34.967  23.015  23.546  1.00  0.00     0.062 A 
ATOM     88  Cl  UNL A   1      36.599  22.560  23.275  1.00  0.00    -0.083 Cl
BRANCH  84  89
ATOM     89  S   UNL A   1      34.258  21.030  25.507  1.00  0.00     0.244 S 
ATOM     90  O   UNL A   1      35.666  21.072  25.847  1.00  0.00    -0.207 OA
ATOM     91  O   UNL A   1      33.249  21.239  26.530  1.00  0.00    -0.207 OA
BRANCH  89  92
ATOM     92  N   UNL A   1      33.949  19.525  24.816  1.00  0.00    -0.198 NA
ATOM     93  C   UNL A   1      32.778  19.422  23.924  1.00  0.00     0.102 C 
ATOM     94  C   UNL A   1      35.074  18.570  24.735  1.00  0.00     0.102 C 
ATOM     95  C   UNL A   1      32.479  18.002  23.472  1.00  0.00     0.017 C 
ATOM     96  C   UNL A   1      34.688  17.197  24.203  1.00  0.00     0.017 C 
ATOM     97  C   UNL A   1      33.732  17.274  23.028  1.00  0.00     0.003 C 
ENDBRANCH  89  92
ENDBRANCH  84  89
ENDBRANCH  78  81
ENDBRANCH  76  77
ENDBRANCH  75  76
ENDBRANCH   1  75
TORSDOF 16
ENDMDL
