MODEL 1
REMARK VINA RESULT:     -11.0      0.000      0.000
REMARK SMILES COc1ccc([C@@H]2C(C#N)=C(N)N3C(=O)[C@H](CC(=O)NCCCCNC(=O)c4ccc(-c5c6nc(c(-c7c(F)cc(S(=O)(=O)[O-])cc7F)c7ccc([nH]7)c(-c7c(F)cc(S(=O)(=O)[O-])cc7F)c7nc(c(-c8c(F)cc(S(=O)(=O)[O-])cc8F)c8ccc5[nH]8)C=C7)C=C6)cc4)SC3=C2C#N)cc1
REMARK SMILES IDX 22 1 21 2 20 3 18 4 19 5 17 7 16 8 7 9 8 10 96 11 11 12
REMARK SMILES IDX 95 13 13 14 94 15 14 16 15 17 6 18 3 19 4 20 100 21 5 22
REMARK SMILES IDX 99 23 2 24 1 25 9 26 10 27 97 28 98 29 12 30 23 33 24 34
REMARK SMILES IDX 25 35 26 36 27 38 28 39 29 40 93 41 30 42 92 43 31 44 32 45
REMARK SMILES IDX 33 46 86 47 34 48 91 49 85 50 87 51 35 52 90 53 84 54 83 55
REMARK SMILES IDX 36 57 70 58 49 59 69 60 50 61 53 62 68 63 88 64 51 65 52 66
REMARK SMILES IDX 67 68 89 69 54 70 37 71 38 72 47 73 39 74 40 75 46 76 48 77
REMARK SMILES IDX 41 78 42 79 43 80 44 81 45 82 71 83 72 84 81 85 73 86 74 87
REMARK SMILES IDX 80 88 82 89 75 90 76 91 77 92 78 93 79 94 55 95 56 96 65 97
REMARK SMILES IDX 57 98 58 99 64 100 66 101 59 102 60 103 61 104 62 105 63 106
REMARK H PARENT 20 6 12 31 12 32 25 37 87 56 53 67
REMARK Flexibility Score: inf
ROOT
ATOM      1  C   UNL A   1      34.452  32.747  28.726  1.00  0.00     0.023 C 
ENDROOT
BRANCH   1   2
ATOM      2  C   UNL A   1      33.971  31.501  27.985  1.00  0.00     0.116 C 
BRANCH   2   3
ATOM      3  N   UNL A   1      32.650  31.722  27.436  1.00  0.00    -0.356 N 
ATOM      4  C   UNL A   1      32.060  31.136  26.357  1.00  0.00     0.221 C 
ATOM      5  O   UNL A   1      31.010  31.605  25.922  1.00  0.00    -0.275 OA
ATOM      6  H   UNL A   1      32.101  32.387  27.908  1.00  0.00     0.163 HD
BRANCH   4   7
ATOM      7  C   UNL A   1      32.679  29.904  25.733  1.00  0.00     0.125 C 
BRANCH   7   8
ATOM      8  C   UNL A   1      31.653  28.799  25.530  1.00  0.00     0.152 C 
ATOM      9  C   UNL A   1      31.997  24.270  23.806  1.00  0.00     0.107 C 
ATOM     10  C   UNL A   1      32.544  25.122  22.634  1.00  0.00     0.083 C 
ATOM     11  C   UNL A   1      32.046  24.991  25.143  1.00  0.00     0.073 C 
ATOM     12  C   UNL A   1      32.710  26.449  22.781  1.00  0.00     0.126 C 
ATOM     13  C   UNL A   1      32.245  26.313  25.151  1.00  0.00     0.099 C 
ATOM     14  N   UNL A   1      32.331  27.048  23.994  1.00  0.00    -0.258 N 
ATOM     15  S   UNL A   1      32.108  27.337  26.544  1.00  0.00    -0.093 SA
ATOM     16  C   UNL A   1      31.620  28.239  24.112  1.00  0.00     0.247 C 
ATOM     17  O   UNL A   1      30.889  28.687  23.242  1.00  0.00    -0.273 OA
BRANCH   9  18
ATOM     18  C   UNL A   1      32.671  22.908  23.964  1.00  0.00    -0.034 A 
ATOM     19  C   UNL A   1      33.782  20.394  24.546  1.00  0.00     0.118 A 
ATOM     20  C   UNL A   1      32.478  20.492  24.060  1.00  0.00     0.047 A 
ATOM     21  C   UNL A   1      34.544  21.550  24.707  1.00  0.00     0.047 A 
ATOM     22  C   UNL A   1      31.919  21.738  23.777  1.00  0.00     0.008 A 
ATOM     23  C   UNL A   1      33.996  22.800  24.415  1.00  0.00     0.008 A 
BRANCH  19  24
ATOM     24  O   UNL A   1      34.216  19.120  24.793  1.00  0.00    -0.497 OA
ATOM     25  C   UNL A   1      33.196  18.153  25.010  1.00  0.00     0.278 C 
ENDBRANCH  19  24
ENDBRANCH   9  18
BRANCH  10  26
ATOM     26  C   UNL A   1      32.964  24.289  21.434  1.00  0.00     0.100 C 
ATOM     27  N   UNL A   1      33.313  23.600  20.437  1.00  0.00    -0.193 NA
ENDBRANCH  10  26
BRANCH  11  28
ATOM     28  C   UNL A   1      31.733  24.283  26.343  1.00  0.00     0.098 C 
ATOM     29  N   UNL A   1      31.470  23.724  27.328  1.00  0.00    -0.193 NA
ENDBRANCH  11  28
BRANCH  12  30
ATOM     30  N   UNL A   1      33.322  27.177  21.799  1.00  0.00    -0.384 N 
ATOM     31  H   UNL A   1      32.825  27.424  20.987  1.00  0.00     0.158 HD
ATOM     32  H   UNL A   1      34.262  27.453  21.906  1.00  0.00     0.158 HD
ENDBRANCH  12  30
ENDBRANCH   7   8
ENDBRANCH   4   7
ENDBRANCH   2   3
ENDBRANCH   1   2
BRANCH   1  33
ATOM     33  C   UNL A   1      33.769  34.044  28.384  1.00  0.00     0.023 C 
BRANCH  33  34
ATOM     34  C   UNL A   1      34.071  35.163  29.348  1.00  0.00     0.116 C 
BRANCH  34  35
ATOM     35  N   UNL A   1      32.987  35.437  30.284  1.00  0.00    -0.352 N 
ATOM     36  C   UNL A   1      32.924  35.152  31.629  1.00  0.00     0.251 C 
ATOM     37  H   UNL A   1      32.198  35.885  29.905  1.00  0.00     0.163 HD
ATOM     38  O   UNL A   1      31.881  35.330  32.249  1.00  0.00    -0.269 OA
BRANCH  36  39
ATOM     39  C   UNL A   1      34.121  34.591  32.287  1.00  0.00     0.039 A 
ATOM     40  C   UNL A   1      34.079  33.295  32.795  1.00  0.00     0.014 A 
ATOM     41  C   UNL A   1      35.316  35.316  32.295  1.00  0.00     0.014 A 
ATOM     42  C   UNL A   1      35.260  32.702  33.236  1.00  0.00     0.010 A 
ATOM     43  C   UNL A   1      36.507  34.668  32.575  1.00  0.00     0.010 A 
ATOM     44  C   UNL A   1      36.492  33.364  33.081  1.00  0.00    -0.014 A 
BRANCH  44  45
ATOM     45  C   UNL A   1      37.769  32.718  33.473  1.00  0.00     0.031 A 
ATOM     46  C   UNL A   1      38.450  33.116  34.756  1.00  0.00     0.074 A 
ATOM     47  C   UNL A   1      38.327  31.800  32.658  1.00  0.00     0.049 A 
ATOM     48  N   UNL A   1      39.557  32.654  35.279  1.00  0.00    -0.248 NA
ATOM     49  C   UNL A   1      37.828  34.195  35.545  1.00  0.00     0.031 C 
ATOM     50  C   UNL A   1      37.800  31.391  31.353  1.00  0.00     0.029 A 
ATOM     51  N   UNL A   1      39.456  31.035  32.810  1.00  0.00    -0.354 N 
ATOM     52  C   UNL A   1      39.759  33.385  36.443  1.00  0.00     0.074 A 
ATOM     53  C   UNL A   1      38.714  34.378  36.511  1.00  0.00     0.031 C 
ATOM     54  C   UNL A   1      38.569  30.412  30.853  1.00  0.00     0.029 A 
ATOM     55  C   UNL A   1      39.671  30.156  31.774  1.00  0.00     0.049 A 
ATOM     56  H   UNL A   1      40.054  31.107  33.588  1.00  0.00     0.167 HD
ATOM     57  C   UNL A   1      40.708  33.219  37.394  1.00  0.00     0.037 A 
ATOM     58  C   UNL A   1      40.647  29.247  31.587  1.00  0.00     0.037 A 
ATOM     59  C   UNL A   1      41.735  32.214  37.323  1.00  0.00     0.049 A 
ATOM     60  C   UNL A   1      41.697  29.087  32.654  1.00  0.00     0.074 A 
ATOM     61  C   UNL A   1      42.713  31.922  38.256  1.00  0.00     0.029 A 
ATOM     62  N   UNL A   1      41.921  31.343  36.259  1.00  0.00    -0.354 N 
ATOM     63  N   UNL A   1      41.823  29.730  33.792  1.00  0.00    -0.248 NA
ATOM     64  C   UNL A   1      42.729  28.071  32.420  1.00  0.00     0.031 C 
ATOM     65  C   UNL A   1      43.535  30.922  37.724  1.00  0.00     0.029 A 
ATOM     66  C   UNL A   1      43.021  30.536  36.496  1.00  0.00     0.049 A 
ATOM     67  H   UNL A   1      41.355  31.306  35.454  1.00  0.00     0.167 HD
ATOM     68  C   UNL A   1      42.932  29.175  34.421  1.00  0.00     0.074 A 
ATOM     69  C   UNL A   1      43.423  28.129  33.547  1.00  0.00     0.031 C 
ATOM     70  C   UNL A   1      43.496  29.500  35.612  1.00  0.00     0.037 A 
BRANCH  57  71
ATOM     71  C   UNL A   1      40.679  34.141  38.584  1.00  0.00     0.058 A 
ATOM     72  C   UNL A   1      41.374  35.363  38.596  1.00  0.00     0.135 A 
ATOM     73  C   UNL A   1      39.913  33.817  39.715  1.00  0.00     0.135 A 
ATOM     74  F   UNL A   1      42.142  35.717  37.552  1.00  0.00    -0.206 F 
ATOM     75  C   UNL A   1      41.333  36.215  39.694  1.00  0.00     0.059 A 
ATOM     76  C   UNL A   1      39.827  34.672  40.810  1.00  0.00     0.059 A 
ATOM     77  F   UNL A   1      39.234  32.661  39.764  1.00  0.00    -0.206 F 
ATOM     78  C   UNL A   1      40.550  35.863  40.796  1.00  0.00     0.060 A 
BRANCH  78  79
ATOM     79  S   UNL A   1      40.491  36.992  42.202  1.00  0.00     0.124 S 
ATOM     80  O   UNL A   1      41.883  37.421  42.292  1.00  0.00    -0.237 OA
ATOM     81  O   UNL A   1      39.543  38.004  41.746  1.00  0.00    -0.237 OA
ATOM     82  O   UNL A   1      40.024  36.148  43.298  1.00  0.00    -0.744 OA
ENDBRANCH  78  79
ENDBRANCH  57  71
BRANCH  58  83
ATOM     83  C   UNL A   1      40.666  28.409  30.357  1.00  0.00     0.058 A 
ATOM     84  C   UNL A   1      41.585  28.649  29.324  1.00  0.00     0.135 A 
ATOM     85  C   UNL A   1      39.764  27.346  30.190  1.00  0.00     0.135 A 
ATOM     86  F   UNL A   1      42.466  29.655  29.431  1.00  0.00    -0.206 F 
ATOM     87  C   UNL A   1      41.595  27.883  28.163  1.00  0.00     0.059 A 
ATOM     88  C   UNL A   1      39.776  26.544  29.054  1.00  0.00     0.059 A 
ATOM     89  F   UNL A   1      38.874  27.061  31.155  1.00  0.00    -0.206 F 
ATOM     90  C   UNL A   1      40.687  26.829  28.039  1.00  0.00     0.060 A 
BRANCH  90  91
ATOM     91  S   UNL A   1      40.735  25.817  26.545  1.00  0.00     0.124 S 
ATOM     92  O   UNL A   1      41.079  26.806  25.530  1.00  0.00    -0.237 OA
ATOM     93  O   UNL A   1      41.775  24.845  26.869  1.00  0.00    -0.237 OA
ATOM     94  O   UNL A   1      39.383  25.273  26.464  1.00  0.00    -0.744 OA
ENDBRANCH  90  91
ENDBRANCH  58  83
BRANCH  70  95
ATOM     95  C   UNL A   1      44.684  28.689  36.056  1.00  0.00     0.058 A 
ATOM     96  C   UNL A   1      46.001  29.076  35.763  1.00  0.00     0.135 A 
ATOM     97  C   UNL A   1      44.500  27.519  36.811  1.00  0.00     0.135 A 
ATOM     98  F   UNL A   1      46.237  30.184  35.043  1.00  0.00    -0.206 F 
ATOM     99  C   UNL A   1      47.090  28.306  36.158  1.00  0.00     0.059 A 
ATOM    100  C   UNL A   1      45.576  26.757  37.254  1.00  0.00     0.059 A 
ATOM    101  F   UNL A   1      43.263  27.109  37.137  1.00  0.00    -0.206 F 
ATOM    102  C   UNL A   1      46.867  27.147  36.904  1.00  0.00     0.060 A 
BRANCH 102 103
ATOM    103  S   UNL A   1      48.288  26.163  37.415  1.00  0.00     0.124 S 
ATOM    104  O   UNL A   1      48.097  24.944  36.635  1.00  0.00    -0.237 OA
ATOM    105  O   UNL A   1      49.411  27.004  37.012  1.00  0.00    -0.237 OA
ATOM    106  O   UNL A   1      48.104  26.020  38.856  1.00  0.00    -0.744 OA
ENDBRANCH 102 103
ENDBRANCH  70  95
ENDBRANCH  44  45
ENDBRANCH  36  39
ENDBRANCH  34  35
ENDBRANCH  33  34
ENDBRANCH   1  33
TORSDOF 20
ENDMDL
MODEL 2
REMARK VINA RESULT:     -10.9      6.085      8.255
REMARK SMILES COc1ccc([C@@H]2C(C#N)=C(N)N3C(=O)[C@H](CC(=O)NCCCCNC(=O)c4ccc(-c5c6nc(c(-c7c(F)cc(S(=O)(=O)[O-])cc7F)c7ccc([nH]7)c(-c7c(F)cc(S(=O)(=O)[O-])cc7F)c7nc(c(-c8c(F)cc(S(=O)(=O)[O-])cc8F)c8ccc5[nH]8)C=C7)C=C6)cc4)SC3=C2C#N)cc1
REMARK SMILES IDX 22 1 21 2 20 3 18 4 19 5 17 7 16 8 7 9 8 10 96 11 11 12
REMARK SMILES IDX 95 13 13 14 94 15 14 16 15 17 6 18 3 19 4 20 100 21 5 22
REMARK SMILES IDX 99 23 2 24 1 25 9 26 10 27 97 28 98 29 12 30 23 33 24 34
REMARK SMILES IDX 25 35 26 36 27 38 28 39 29 40 93 41 30 42 92 43 31 44 32 45
REMARK SMILES IDX 33 46 86 47 34 48 91 49 85 50 87 51 35 52 90 53 84 54 83 55
REMARK SMILES IDX 36 57 70 58 49 59 69 60 50 61 53 62 68 63 88 64 51 65 52 66
REMARK SMILES IDX 67 68 89 69 54 70 37 71 38 72 47 73 39 74 40 75 46 76 48 77
REMARK SMILES IDX 41 78 42 79 43 80 44 81 45 82 71 83 72 84 81 85 73 86 74 87
REMARK SMILES IDX 80 88 82 89 75 90 76 91 77 92 78 93 79 94 55 95 56 96 65 97
REMARK SMILES IDX 57 98 58 99 64 100 66 101 59 102 60 103 61 104 62 105 63 106
REMARK H PARENT 20 6 12 31 12 32 25 37 87 56 53 67
REMARK Flexibility Score: inf
ROOT
ATOM      1  C   UNL A   1      35.665  29.663  28.609  1.00  0.00     0.023 C 
ENDROOT
BRANCH   1   2
ATOM      2  C   UNL A   1      34.864  29.866  27.325  1.00  0.00     0.116 C 
BRANCH   2   3
ATOM      3  N   UNL A   1      33.540  30.362  27.632  1.00  0.00    -0.356 N 
ATOM      4  C   UNL A   1      32.480  30.554  26.798  1.00  0.00     0.221 C 
ATOM      5  O   UNL A   1      31.503  31.179  27.206  1.00  0.00    -0.275 OA
ATOM      6  H   UNL A   1      33.382  30.592  28.576  1.00  0.00     0.163 HD
BRANCH   4   7
ATOM      7  C   UNL A   1      32.502  29.971  25.402  1.00  0.00     0.125 C 
BRANCH   7   8
ATOM      8  C   UNL A   1      31.517  28.821  25.255  1.00  0.00     0.152 C 
ATOM      9  C   UNL A   1      32.020  24.232  23.743  1.00  0.00     0.107 C 
ATOM     10  C   UNL A   1      32.533  25.047  22.531  1.00  0.00     0.083 C 
ATOM     11  C   UNL A   1      32.046  25.016  25.045  1.00  0.00     0.073 C 
ATOM     12  C   UNL A   1      32.651  26.384  22.615  1.00  0.00     0.126 C 
ATOM     13  C   UNL A   1      32.197  26.343  24.990  1.00  0.00     0.099 C 
ATOM     14  N   UNL A   1      32.253  27.025  23.799  1.00  0.00    -0.258 N 
ATOM     15  S   UNL A   1      32.026  27.426  26.335  1.00  0.00    -0.093 SA
ATOM     16  C   UNL A   1      31.500  28.195  23.865  1.00  0.00     0.247 C 
ATOM     17  O   UNL A   1      30.751  28.575  22.978  1.00  0.00    -0.273 OA
BRANCH   9  18
ATOM     18  C   UNL A   1      32.742  22.904  23.962  1.00  0.00    -0.034 A 
ATOM     19  C   UNL A   1      33.971  20.476  24.665  1.00  0.00     0.118 A 
ATOM     20  C   UNL A   1      32.627  20.503  24.292  1.00  0.00     0.047 A 
ATOM     21  C   UNL A   1      34.712  21.658  24.652  1.00  0.00     0.047 A 
ATOM     22  C   UNL A   1      32.010  21.707  23.950  1.00  0.00     0.008 A 
ATOM     23  C   UNL A   1      34.104  22.864  24.299  1.00  0.00     0.008 A 
BRANCH  19  24
ATOM     24  O   UNL A   1      34.460  19.240  24.986  1.00  0.00    -0.497 OA
ATOM     25  C   UNL A   1      33.999  18.165  24.177  1.00  0.00     0.278 C 
ENDBRANCH  19  24
ENDBRANCH   9  18
BRANCH  10  26
ATOM     26  C   UNL A   1      32.980  24.175  21.368  1.00  0.00     0.100 C 
ATOM     27  N   UNL A   1      33.350  23.451  20.405  1.00  0.00    -0.193 NA
ENDBRANCH  10  26
BRANCH  11  28
ATOM     28  C   UNL A   1      31.761  24.354  26.278  1.00  0.00     0.098 C 
ATOM     29  N   UNL A   1      31.548  23.808  27.282  1.00  0.00    -0.193 NA
ENDBRANCH  11  28
BRANCH  12  30
ATOM     30  N   UNL A   1      33.234  27.087  21.597  1.00  0.00    -0.384 N 
ATOM     31  H   UNL A   1      34.181  27.348  21.658  1.00  0.00     0.158 HD
ATOM     32  H   UNL A   1      32.705  27.333  20.804  1.00  0.00     0.158 HD
ENDBRANCH  12  30
ENDBRANCH   7   8
ENDBRANCH   4   7
ENDBRANCH   2   3
ENDBRANCH   1   2
BRANCH   1  33
ATOM     33  C   UNL A   1      35.776  30.846  29.533  1.00  0.00     0.023 C 
BRANCH  33  34
ATOM     34  C   UNL A   1      36.033  30.474  30.971  1.00  0.00     0.116 C 
BRANCH  34  35
ATOM     35  N   UNL A   1      36.530  31.580  31.781  1.00  0.00    -0.352 N 
ATOM     36  C   UNL A   1      37.834  31.942  32.029  1.00  0.00     0.251 C 
ATOM     37  H   UNL A   1      35.843  32.142  32.206  1.00  0.00     0.163 HD
ATOM     38  O   UNL A   1      38.086  32.823  32.844  1.00  0.00    -0.269 OA
BRANCH  36  39
ATOM     39  C   UNL A   1      38.913  31.219  31.325  1.00  0.00     0.039 A 
ATOM     40  C   UNL A   1      39.136  31.470  29.973  1.00  0.00     0.014 A 
ATOM     41  C   UNL A   1      39.770  30.380  32.041  1.00  0.00     0.014 A 
ATOM     42  C   UNL A   1      40.271  30.937  29.365  1.00  0.00     0.010 A 
ATOM     43  C   UNL A   1      40.976  29.995  31.480  1.00  0.00     0.010 A 
ATOM     44  C   UNL A   1      41.227  30.239  30.125  1.00  0.00    -0.014 A 
BRANCH  44  45
ATOM     45  C   UNL A   1      42.479  29.732  29.512  1.00  0.00     0.031 A 
ATOM     46  C   UNL A   1      43.685  30.630  29.412  1.00  0.00     0.074 A 
ATOM     47  C   UNL A   1      42.518  28.477  29.020  1.00  0.00     0.049 A 
ATOM     48  N   UNL A   1      44.871  30.365  28.929  1.00  0.00    -0.248 NA
ATOM     49  C   UNL A   1      43.534  32.018  29.885  1.00  0.00     0.031 C 
ATOM     50  C   UNL A   1      41.389  27.542  28.990  1.00  0.00     0.029 A 
ATOM     51  N   UNL A   1      43.549  27.766  28.459  1.00  0.00    -0.354 N 
ATOM     52  C   UNL A   1      45.596  31.546  29.039  1.00  0.00     0.074 A 
ATOM     53  C   UNL A   1      44.697  32.552  29.551  1.00  0.00     0.031 C 
ATOM     54  C   UNL A   1      41.805  26.365  28.496  1.00  0.00     0.029 A 
ATOM     55  C   UNL A   1      43.211  26.474  28.126  1.00  0.00     0.049 A 
ATOM     56  H   UNL A   1      44.445  28.144  28.310  1.00  0.00     0.167 HD
ATOM     57  C   UNL A   1      46.906  31.763  28.773  1.00  0.00     0.037 A 
ATOM     58  C   UNL A   1      43.953  25.490  27.583  1.00  0.00     0.037 A 
ATOM     59  C   UNL A   1      47.795  30.747  28.279  1.00  0.00     0.049 A 
ATOM     60  C   UNL A   1      45.404  25.759  27.289  1.00  0.00     0.074 A 
ATOM     61  C   UNL A   1      49.152  30.844  28.028  1.00  0.00     0.029 A 
ATOM     62  N   UNL A   1      47.418  29.452  27.954  1.00  0.00    -0.354 N 
ATOM     63  N   UNL A   1      46.096  26.858  27.479  1.00  0.00    -0.248 NA
ATOM     64  C   UNL A   1      46.180  24.651  26.718  1.00  0.00     0.031 C 
ATOM     65  C   UNL A   1      49.580  29.628  27.484  1.00  0.00     0.029 A 
ATOM     66  C   UNL A   1      48.509  28.749  27.471  1.00  0.00     0.049 A 
ATOM     67  H   UNL A   1      46.509  29.087  28.052  1.00  0.00     0.167 HD
ATOM     68  C   UNL A   1      47.395  26.565  27.078  1.00  0.00     0.074 A 
ATOM     69  C   UNL A   1      47.395  25.178  26.659  1.00  0.00     0.031 C 
ATOM     70  C   UNL A   1      48.489  27.368  27.056  1.00  0.00     0.037 A 
BRANCH  57  71
ATOM     71  C   UNL A   1      47.449  33.147  29.012  1.00  0.00     0.058 A 
ATOM     72  C   UNL A   1      47.444  34.132  28.008  1.00  0.00     0.135 A 
ATOM     73  C   UNL A   1      47.949  33.507  30.273  1.00  0.00     0.135 A 
ATOM     74  F   UNL A   1      46.999  33.841  26.774  1.00  0.00    -0.206 F 
ATOM     75  C   UNL A   1      47.936  35.412  28.239  1.00  0.00     0.059 A 
ATOM     76  C   UNL A   1      48.412  34.793  30.538  1.00  0.00     0.059 A 
ATOM     77  F   UNL A   1      47.986  32.607  31.268  1.00  0.00    -0.206 F 
ATOM     78  C   UNL A   1      48.414  35.734  29.511  1.00  0.00     0.060 A 
BRANCH  78  79
ATOM     79  S   UNL A   1      49.028  37.407  29.798  1.00  0.00     0.124 S 
ATOM     80  O   UNL A   1      47.795  38.120  30.119  1.00  0.00    -0.237 OA
ATOM     81  O   UNL A   1      49.954  37.210  30.908  1.00  0.00    -0.237 OA
ATOM     82  O   UNL A   1      49.646  37.766  28.525  1.00  0.00    -0.744 OA
ENDBRANCH  78  79
ENDBRANCH  57  71
BRANCH  58  83
ATOM     83  C   UNL A   1      43.344  24.160  27.304  1.00  0.00     0.058 A 
ATOM     84  C   UNL A   1      43.201  23.196  28.314  1.00  0.00     0.135 A 
ATOM     85  C   UNL A   1      42.889  23.826  26.019  1.00  0.00     0.135 A 
ATOM     86  F   UNL A   1      43.623  23.463  29.560  1.00  0.00    -0.206 F 
ATOM     87  C   UNL A   1      42.653  21.944  28.057  1.00  0.00     0.059 A 
ATOM     88  C   UNL A   1      42.306  22.594  25.743  1.00  0.00     0.059 A 
ATOM     89  F   UNL A   1      42.985  24.717  25.018  1.00  0.00    -0.206 F 
ATOM     90  C   UNL A   1      42.204  21.654  26.767  1.00  0.00     0.060 A 
BRANCH  90  91
ATOM     91  S   UNL A   1      41.458  20.041  26.453  1.00  0.00     0.124 S 
ATOM     92  O   UNL A   1      40.086  20.410  26.123  1.00  0.00    -0.237 OA
ATOM     93  O   UNL A   1      42.268  19.541  25.347  1.00  0.00    -0.237 OA
ATOM     94  O   UNL A   1      41.635  19.335  27.718  1.00  0.00    -0.744 OA
ENDBRANCH  90  91
ENDBRANCH  58  83
BRANCH  70  95
ATOM     95  C   UNL A   1      49.785  26.754  26.599  1.00  0.00     0.058 A 
ATOM     96  C   UNL A   1      50.627  26.053  27.477  1.00  0.00     0.135 A 
ATOM     97  C   UNL A   1      50.177  26.849  25.253  1.00  0.00     0.135 A 
ATOM     98  F   UNL A   1      50.304  25.933  28.774  1.00  0.00    -0.206 F 
ATOM     99  C   UNL A   1      51.834  25.510  27.048  1.00  0.00     0.059 A 
ATOM    100  C   UNL A   1      51.359  26.276  24.794  1.00  0.00     0.059 A 
ATOM    101  F   UNL A   1      49.403  27.493  24.365  1.00  0.00    -0.206 F 
ATOM    102  C   UNL A   1      52.191  25.628  25.704  1.00  0.00     0.060 A 
BRANCH 102 103
ATOM    103  S   UNL A   1      53.755  24.913  25.161  1.00  0.00     0.124 S 
ATOM    104  O   UNL A   1      53.959  25.590  23.883  1.00  0.00    -0.237 OA
ATOM    105  O   UNL A   1      54.664  25.301  26.235  1.00  0.00    -0.237 OA
ATOM    106  O   UNL A   1      53.467  23.485  25.075  1.00  0.00    -0.744 OA
ENDBRANCH 102 103
ENDBRANCH  70  95
ENDBRANCH  44  45
ENDBRANCH  36  39
ENDBRANCH  34  35
ENDBRANCH  33  34
ENDBRANCH   1  33
TORSDOF 20
ENDMDL
MODEL 3
REMARK VINA RESULT:     -10.9      6.435     12.136
REMARK SMILES COc1ccc([C@@H]2C(C#N)=C(N)N3C(=O)[C@H](CC(=O)NCCCCNC(=O)c4ccc(-c5c6nc(c(-c7c(F)cc(S(=O)(=O)[O-])cc7F)c7ccc([nH]7)c(-c7c(F)cc(S(=O)(=O)[O-])cc7F)c7nc(c(-c8c(F)cc(S(=O)(=O)[O-])cc8F)c8ccc5[nH]8)C=C7)C=C6)cc4)SC3=C2C#N)cc1
REMARK SMILES IDX 22 1 21 2 20 3 18 4 19 5 17 7 16 8 7 9 8 10 96 11 11 12
REMARK SMILES IDX 95 13 13 14 94 15 14 16 15 17 6 18 3 19 4 20 100 21 5 22
REMARK SMILES IDX 99 23 2 24 1 25 9 26 10 27 97 28 98 29 12 30 23 33 24 34
REMARK SMILES IDX 25 35 26 36 27 38 28 39 29 40 93 41 30 42 92 43 31 44 32 45
REMARK SMILES IDX 33 46 86 47 34 48 91 49 85 50 87 51 35 52 90 53 84 54 83 55
REMARK SMILES IDX 36 57 70 58 49 59 69 60 50 61 53 62 68 63 88 64 51 65 52 66
REMARK SMILES IDX 67 68 89 69 54 70 37 71 38 72 47 73 39 74 40 75 46 76 48 77
REMARK SMILES IDX 41 78 42 79 43 80 44 81 45 82 71 83 72 84 81 85 73 86 74 87
REMARK SMILES IDX 80 88 82 89 75 90 76 91 77 92 78 93 79 94 55 95 56 96 65 97
REMARK SMILES IDX 57 98 58 99 64 100 66 101 59 102 60 103 61 104 62 105 63 106
REMARK H PARENT 20 6 12 31 12 32 25 37 87 56 53 67
REMARK Flexibility Score: inf
ROOT
ATOM      1  C   UNL A   1      38.381  22.916  25.786  1.00  0.00     0.023 C 
ENDROOT
BRANCH   1   2
ATOM      2  C   UNL A   1      36.919  23.283  25.538  1.00  0.00     0.116 C 
BRANCH   2   3
ATOM      3  N   UNL A   1      36.064  22.617  26.497  1.00  0.00    -0.356 N 
ATOM      4  C   UNL A   1      35.211  21.572  26.306  1.00  0.00     0.221 C 
ATOM      5  O   UNL A   1      34.416  21.279  27.196  1.00  0.00    -0.275 OA
ATOM      6  H   UNL A   1      36.106  22.966  27.415  1.00  0.00     0.163 HD
BRANCH   4   7
ATOM      7  C   UNL A   1      35.274  20.768  25.025  1.00  0.00     0.125 C 
BRANCH   7   8
ATOM      8  C   UNL A   1      34.128  21.112  24.087  1.00  0.00     0.152 C 
ATOM      9  C   UNL A   1      30.961  24.795  23.978  1.00  0.00     0.107 C 
ATOM     10  C   UNL A   1      30.731  24.192  25.385  1.00  0.00     0.083 C 
ATOM     11  C   UNL A   1      32.311  24.431  23.384  1.00  0.00     0.073 C 
ATOM     12  C   UNL A   1      31.519  23.198  25.832  1.00  0.00     0.126 C 
ATOM     13  C   UNL A   1      33.009  23.437  23.943  1.00  0.00     0.099 C 
ATOM     14  N   UNL A   1      32.515  22.689  24.982  1.00  0.00    -0.258 N 
ATOM     15  S   UNL A   1      34.449  22.731  23.281  1.00  0.00    -0.093 SA
ATOM     16  C   UNL A   1      32.796  21.338  24.795  1.00  0.00     0.247 C 
ATOM     17  O   UNL A   1      31.991  20.439  24.991  1.00  0.00    -0.273 OA
BRANCH   9  18
ATOM     18  C   UNL A   1      30.791  26.311  23.906  1.00  0.00    -0.034 A 
ATOM     19  C   UNL A   1      30.312  29.077  24.043  1.00  0.00     0.118 A 
ATOM     20  C   UNL A   1      31.380  28.512  24.741  1.00  0.00     0.047 A 
ATOM     21  C   UNL A   1      29.504  28.265  23.247  1.00  0.00     0.047 A 
ATOM     22  C   UNL A   1      31.617  27.138  24.682  1.00  0.00     0.008 A 
ATOM     23  C   UNL A   1      29.743  26.892  23.175  1.00  0.00     0.008 A 
BRANCH  19  24
ATOM     24  O   UNL A   1      30.176  30.430  24.185  1.00  0.00    -0.497 OA
ATOM     25  C   UNL A   1      29.052  31.009  23.533  1.00  0.00     0.278 C 
ENDBRANCH  19  24
ENDBRANCH   9  18
BRANCH  10  26
ATOM     26  C   UNL A   1      29.659  24.919  26.181  1.00  0.00     0.100 C 
ATOM     27  N   UNL A   1      28.771  25.522  26.842  1.00  0.00    -0.193 NA
ENDBRANCH  10  26
BRANCH  11  28
ATOM     28  C   UNL A   1      32.740  25.043  22.167  1.00  0.00     0.098 C 
ATOM     29  N   UNL A   1      33.081  25.558  21.182  1.00  0.00    -0.193 NA
ENDBRANCH  11  28
BRANCH  12  30
ATOM     30  N   UNL A   1      31.408  22.762  27.124  1.00  0.00    -0.384 N 
ATOM     31  H   UNL A   1      30.783  23.205  27.741  1.00  0.00     0.158 HD
ATOM     32  H   UNL A   1      31.955  22.005  27.436  1.00  0.00     0.158 HD
ENDBRANCH  12  30
ENDBRANCH   7   8
ENDBRANCH   4   7
ENDBRANCH   2   3
ENDBRANCH   1   2
BRANCH   1  33
ATOM     33  C   UNL A   1      38.725  21.451  25.760  1.00  0.00     0.023 C 
BRANCH  33  34
ATOM     34  C   UNL A   1      39.850  21.074  26.689  1.00  0.00     0.116 C 
BRANCH  34  35
ATOM     35  N   UNL A   1      40.716  20.024  26.163  1.00  0.00    -0.352 N 
ATOM     36  C   UNL A   1      42.043  20.106  25.809  1.00  0.00     0.251 C 
ATOM     37  H   UNL A   1      40.296  19.142  26.046  1.00  0.00     0.163 HD
ATOM     38  O   UNL A   1      42.593  19.160  25.256  1.00  0.00    -0.269 OA
BRANCH  36  39
ATOM     39  C   UNL A   1      42.767  21.365  26.073  1.00  0.00     0.039 A 
ATOM     40  C   UNL A   1      42.861  22.324  25.066  1.00  0.00     0.014 A 
ATOM     41  C   UNL A   1      43.249  21.636  27.356  1.00  0.00     0.014 A 
ATOM     42  C   UNL A   1      43.370  23.583  25.377  1.00  0.00     0.010 A 
ATOM     43  C   UNL A   1      43.594  22.933  27.697  1.00  0.00     0.010 A 
ATOM     44  C   UNL A   1      43.691  23.915  26.706  1.00  0.00    -0.014 A 
BRANCH  44  45
ATOM     45  C   UNL A   1      44.160  25.276  27.069  1.00  0.00     0.031 A 
ATOM     46  C   UNL A   1      45.588  25.675  26.802  1.00  0.00     0.074 A 
ATOM     47  C   UNL A   1      43.309  26.135  27.665  1.00  0.00     0.049 A 
ATOM     48  N   UNL A   1      46.179  26.820  27.028  1.00  0.00    -0.248 NA
ATOM     49  C   UNL A   1      46.482  24.649  26.236  1.00  0.00     0.031 C 
ATOM     50  C   UNL A   1      41.925  25.834  28.044  1.00  0.00     0.029 A 
ATOM     51  N   UNL A   1      43.477  27.442  28.048  1.00  0.00    -0.354 N 
ATOM     52  C   UNL A   1      47.501  26.646  26.638  1.00  0.00     0.074 A 
ATOM     53  C   UNL A   1      47.652  25.266  26.242  1.00  0.00     0.031 C 
ATOM     54  C   UNL A   1      41.356  26.939  28.549  1.00  0.00     0.029 A 
ATOM     55  C   UNL A   1      42.342  28.012  28.578  1.00  0.00     0.049 A 
ATOM     56  H   UNL A   1      44.328  27.926  27.951  1.00  0.00     0.167 HD
ATOM     57  C   UNL A   1      48.494  27.564  26.577  1.00  0.00     0.037 A 
ATOM     58  C   UNL A   1      42.124  29.259  29.037  1.00  0.00     0.037 A 
ATOM     59  C   UNL A   1      48.326  28.941  26.958  1.00  0.00     0.049 A 
ATOM     60  C   UNL A   1      43.246  30.260  28.966  1.00  0.00     0.074 A 
ATOM     61  C   UNL A   1      49.249  29.969  26.885  1.00  0.00     0.029 A 
ATOM     62  N   UNL A   1      47.164  29.482  27.490  1.00  0.00    -0.354 N 
ATOM     63  N   UNL A   1      44.468  30.101  28.514  1.00  0.00    -0.248 NA
ATOM     64  C   UNL A   1      42.958  31.613  29.457  1.00  0.00     0.031 C 
ATOM     65  C   UNL A   1      48.667  31.114  27.439  1.00  0.00     0.029 A 
ATOM     66  C   UNL A   1      47.357  30.821  27.783  1.00  0.00     0.049 A 
ATOM     67  H   UNL A   1      46.327  28.985  27.638  1.00  0.00     0.167 HD
ATOM     68  C   UNL A   1      45.085  31.341  28.638  1.00  0.00     0.074 A 
ATOM     69  C   UNL A   1      44.092  32.243  29.186  1.00  0.00     0.031 C 
ATOM     70  C   UNL A   1      46.356  31.703  28.331  1.00  0.00     0.037 A 
BRANCH  57  71
ATOM     71  C   UNL A   1      49.841  27.109  26.082  1.00  0.00     0.058 A 
ATOM     72  C   UNL A   1      50.214  27.222  24.731  1.00  0.00     0.135 A 
ATOM     73  C   UNL A   1      50.789  26.587  26.977  1.00  0.00     0.135 A 
ATOM     74  F   UNL A   1      49.343  27.693  23.824  1.00  0.00    -0.206 F 
ATOM     75  C   UNL A   1      51.465  26.811  24.283  1.00  0.00     0.059 A 
ATOM     76  C   UNL A   1      52.059  26.204  26.557  1.00  0.00     0.059 A 
ATOM     77  F   UNL A   1      50.486  26.449  28.277  1.00  0.00    -0.206 F 
ATOM     78  C   UNL A   1      52.383  26.308  25.206  1.00  0.00     0.060 A 
BRANCH  78  79
ATOM     79  S   UNL A   1      54.009  25.801  24.609  1.00  0.00     0.124 S 
ATOM     80  O   UNL A   1      54.015  24.381  24.947  1.00  0.00    -0.237 OA
ATOM     81  O   UNL A   1      53.928  26.114  23.186  1.00  0.00    -0.237 OA
ATOM     82  O   UNL A   1      54.930  26.631  25.380  1.00  0.00    -0.744 OA
ENDBRANCH  78  79
ENDBRANCH  57  71
BRANCH  58  83
ATOM     83  C   UNL A   1      40.790  29.635  29.580  1.00  0.00     0.058 A 
ATOM     84  C   UNL A   1      39.683  29.818  28.737  1.00  0.00     0.135 A 
ATOM     85  C   UNL A   1      40.593  29.817  30.959  1.00  0.00     0.135 A 
ATOM     86  F   UNL A   1      39.818  29.660  27.411  1.00  0.00    -0.206 F 
ATOM     87  C   UNL A   1      38.439  30.189  29.235  1.00  0.00     0.059 A 
ATOM     88  C   UNL A   1      39.352  30.155  31.484  1.00  0.00     0.059 A 
ATOM     89  F   UNL A   1      41.614  29.639  31.813  1.00  0.00    -0.206 F 
ATOM     90  C   UNL A   1      38.282  30.352  30.612  1.00  0.00     0.060 A 
BRANCH  90  91
ATOM     91  S   UNL A   1      36.654  30.795  31.252  1.00  0.00     0.124 S 
ATOM     92  O   UNL A   1      36.315  29.616  32.039  1.00  0.00    -0.237 OA
ATOM     93  O   UNL A   1      36.945  32.008  32.011  1.00  0.00    -0.237 OA
ATOM     94  O   UNL A   1      35.861  30.997  30.043  1.00  0.00    -0.744 OA
ENDBRANCH  90  91
ENDBRANCH  58  83
BRANCH  70  95
ATOM     95  C   UNL A   1      46.733  33.145  28.543  1.00  0.00     0.058 A 
ATOM     96  C   UNL A   1      46.552  34.117  27.546  1.00  0.00     0.135 A 
ATOM     97  C   UNL A   1      47.261  33.565  29.776  1.00  0.00     0.135 A 
ATOM     98  F   UNL A   1      46.053  33.773  26.348  1.00  0.00    -0.206 F 
ATOM     99  C   UNL A   1      46.926  35.442  27.746  1.00  0.00     0.059 A 
ATOM    100  C   UNL A   1      47.601  34.892  30.012  1.00  0.00     0.059 A 
ATOM    101  F   UNL A   1      47.440  32.682  30.772  1.00  0.00    -0.206 F 
ATOM    102  C   UNL A   1      47.450  35.819  28.983  1.00  0.00     0.060 A 
BRANCH 102 103
ATOM    103  S   UNL A   1      47.923  37.542  29.230  1.00  0.00     0.124 S 
ATOM    104  O   UNL A   1      46.889  38.002  30.151  1.00  0.00    -0.237 OA
ATOM    105  O   UNL A   1      49.264  37.418  29.793  1.00  0.00    -0.237 OA
ATOM    106  O   UNL A   1      47.863  38.109  27.886  1.00  0.00    -0.744 OA
ENDBRANCH 102 103
ENDBRANCH  70  95
ENDBRANCH  44  45
ENDBRANCH  36  39
ENDBRANCH  34  35
ENDBRANCH  33  34
ENDBRANCH   1  33
TORSDOF 20
ENDMDL
