MODEL 1
REMARK VINA RESULT:      -9.1      0.000      0.000
REMARK SMILES Cn1cncc1COc1c(F)cc(C(=O)NCCCCNC(=O)c2ccc(-c3c4nc(c(-c5c(F)cc(S(=O)(=O)[O-])cc5F)c5ccc([nH]5)c(-c5c(F)cc(S(=O)(=O)[O-])cc5F)c5nc(c(-c6c(F)cc(S(=O)(=O)[O-])cc6F)c6ccc3[nH]6)C=C5)C=C4)cc2)cc1F
REMARK SMILES IDX 18 1 17 2 16 3 14 4 15 5 13 7 9 8 10 9 91 10 11 11 12 12
REMARK SMILES IDX 90 13 92 14 8 15 7 16 6 17 1 18 2 19 3 20 4 21 5 22 19 23
REMARK SMILES IDX 20 24 21 25 22 26 23 28 24 29 25 30 89 31 26 32 88 33 27 34
REMARK SMILES IDX 28 35 29 36 82 37 30 38 87 39 81 40 83 41 31 42 86 43 80 44
REMARK SMILES IDX 79 45 32 47 66 48 45 49 65 50 46 51 49 52 64 53 84 54 47 55
REMARK SMILES IDX 48 56 63 58 85 59 50 60 33 61 34 62 43 63 35 64 36 65 42 66
REMARK SMILES IDX 44 67 37 68 38 69 39 70 40 71 41 72 67 73 68 74 77 75 69 76
REMARK SMILES IDX 70 77 76 78 78 79 71 80 72 81 73 82 74 83 75 84 51 85 52 86
REMARK SMILES IDX 61 87 53 88 54 89 60 90 62 91 55 92 56 93 57 94 58 95 59 96
REMARK H PARENT 16 6 21 27 83 46 49 57
REMARK Flexibility Score: inf
ROOT
ATOM      1  C   UNL A   1      42.187  23.090  28.472  1.00  0.00     0.023 C 
ENDROOT
BRANCH   1   2
ATOM      2  C   UNL A   1      43.661  23.049  28.891  1.00  0.00     0.116 C 
BRANCH   2   3
ATOM      3  N   UNL A   1      44.516  22.559  27.824  1.00  0.00    -0.352 N 
ATOM      4  C   UNL A   1      45.205  23.214  26.832  1.00  0.00     0.251 C 
ATOM      5  O   UNL A   1      45.991  22.567  26.140  1.00  0.00    -0.269 OA
ATOM      6  H   UNL A   1      44.621  21.580  27.809  1.00  0.00     0.163 HD
BRANCH   4   7
ATOM      7  C   UNL A   1      45.064  24.672  26.566  1.00  0.00     0.045 A 
ATOM      8  C   UNL A   1      44.925  27.448  26.069  1.00  0.00     0.191 A 
ATOM      9  C   UNL A   1      43.975  26.578  25.552  1.00  0.00     0.168 A 
ATOM     10  C   UNL A   1      45.994  26.909  26.777  1.00  0.00     0.168 A 
ATOM     11  F   UNL A   1      42.982  27.021  24.772  1.00  0.00    -0.203 F 
ATOM     12  C   UNL A   1      44.035  25.213  25.799  1.00  0.00     0.057 A 
ATOM     13  C   UNL A   1      46.071  25.535  27.028  1.00  0.00     0.057 A 
ATOM     14  F   UNL A   1      46.973  27.705  27.227  1.00  0.00    -0.203 F 
BRANCH   8  15
ATOM     15  O   UNL A   1      44.872  28.787  25.788  1.00  0.00    -0.481 OA
BRANCH  15  16
ATOM     16  C   UNL A   1      44.511  29.572  26.939  1.00  0.00     0.285 C 
BRANCH  16  17
ATOM     17  C   UNL A   1      45.365  30.791  26.992  1.00  0.00     0.075 A 
ATOM     18  C   UNL A   1      43.770  32.308  28.230  1.00  0.00     0.151 C 
ATOM     19  N   UNL A   1      44.995  31.998  27.536  1.00  0.00    -0.335 N 
ATOM     20  C   UNL A   1      46.008  32.888  27.309  1.00  0.00     0.199 A 
ATOM     21  N   UNL A   1      47.029  32.315  26.718  1.00  0.00    -0.245 NA
ATOM     22  C   UNL A   1      46.639  31.017  26.509  1.00  0.00     0.138 A 
ENDBRANCH  16  17
ENDBRANCH  15  16
ENDBRANCH   8  15
ENDBRANCH   4   7
ENDBRANCH   2   3
ENDBRANCH   1   2
BRANCH   1  23
ATOM     23  C   UNL A   1      41.723  21.935  27.588  1.00  0.00     0.023 C 
BRANCH  23  24
ATOM     24  C   UNL A   1      41.435  22.303  26.139  1.00  0.00     0.116 C 
BRANCH  24  25
ATOM     25  N   UNL A   1      40.029  22.217  25.783  1.00  0.00    -0.352 N 
ATOM     26  C   UNL A   1      39.022  23.115  26.057  1.00  0.00     0.251 C 
ATOM     27  H   UNL A   1      39.762  21.414  25.280  1.00  0.00     0.163 HD
ATOM     28  O   UNL A   1      37.866  22.852  25.759  1.00  0.00    -0.269 OA
BRANCH  26  29
ATOM     29  C   UNL A   1      39.350  24.377  26.758  1.00  0.00     0.039 A 
ATOM     30  C   UNL A   1      38.932  24.536  28.081  1.00  0.00     0.014 A 
ATOM     31  C   UNL A   1      40.091  25.380  26.128  1.00  0.00     0.014 A 
ATOM     32  C   UNL A   1      39.307  25.679  28.790  1.00  0.00     0.010 A 
ATOM     33  C   UNL A   1      40.530  26.480  26.859  1.00  0.00     0.010 A 
ATOM     34  C   UNL A   1      40.135  26.645  28.195  1.00  0.00    -0.014 A 
BRANCH  34  35
ATOM     35  C   UNL A   1      40.587  27.836  28.957  1.00  0.00     0.031 A 
ATOM     36  C   UNL A   1      41.977  27.884  29.530  1.00  0.00     0.074 A 
ATOM     37  C   UNL A   1      39.731  28.858  29.161  1.00  0.00     0.049 A 
ATOM     38  N   UNL A   1      42.548  28.830  30.229  1.00  0.00    -0.248 NA
ATOM     39  C   UNL A   1      42.829  26.703  29.313  1.00  0.00     0.031 C 
ATOM     40  C   UNL A   1      38.340  28.900  28.707  1.00  0.00     0.029 A 
ATOM     41  N   UNL A   1      39.906  30.058  29.802  1.00  0.00    -0.354 N 
ATOM     42  C   UNL A   1      43.818  28.357  30.541  1.00  0.00     0.074 A 
ATOM     43  C   UNL A   1      43.913  27.017  30.008  1.00  0.00     0.031 C 
ATOM     44  C   UNL A   1      37.800  30.080  29.050  1.00  0.00     0.029 A 
ATOM     45  C   UNL A   1      38.795  30.867  29.771  1.00  0.00     0.049 A 
ATOM     46  H   UNL A   1      40.748  30.315  30.243  1.00  0.00     0.167 HD
ATOM     47  C   UNL A   1      44.824  28.995  31.186  1.00  0.00     0.037 A 
ATOM     48  C   UNL A   1      38.604  32.108  30.260  1.00  0.00     0.037 A 
ATOM     49  C   UNL A   1      44.732  30.340  31.688  1.00  0.00     0.049 A 
ATOM     50  C   UNL A   1      39.746  32.807  30.946  1.00  0.00     0.074 A 
ATOM     51  C   UNL A   1      45.709  31.094  32.317  1.00  0.00     0.029 A 
ATOM     52  N   UNL A   1      43.598  31.137  31.614  1.00  0.00    -0.354 N 
ATOM     53  N   UNL A   1      40.958  32.365  31.185  1.00  0.00    -0.248 NA
ATOM     54  C   UNL A   1      39.500  34.176  31.418  1.00  0.00     0.031 C 
ATOM     55  C   UNL A   1      45.155  32.333  32.653  1.00  0.00     0.029 A 
ATOM     56  C   UNL A   1      43.848  32.371  32.193  1.00  0.00     0.049 A 
ATOM     57  H   UNL A   1      42.743  30.866  31.211  1.00  0.00     0.167 HD
ATOM     58  C   UNL A   1      41.626  33.410  31.812  1.00  0.00     0.074 A 
ATOM     59  C   UNL A   1      40.688  34.510  31.902  1.00  0.00     0.031 C 
ATOM     60  C   UNL A   1      42.902  33.455  32.271  1.00  0.00     0.037 A 
BRANCH  47  61
ATOM     61  C   UNL A   1      46.118  28.249  31.368  1.00  0.00     0.058 A 
ATOM     62  C   UNL A   1      47.189  28.443  30.481  1.00  0.00     0.135 A 
ATOM     63  C   UNL A   1      46.286  27.313  32.401  1.00  0.00     0.135 A 
ATOM     64  F   UNL A   1      47.084  29.329  29.478  1.00  0.00    -0.206 F 
ATOM     65  C   UNL A   1      48.382  27.736  30.609  1.00  0.00     0.059 A 
ATOM     66  C   UNL A   1      47.478  26.615  32.564  1.00  0.00     0.059 A 
ATOM     67  F   UNL A   1      45.302  27.101  33.289  1.00  0.00    -0.206 F 
ATOM     68  C   UNL A   1      48.520  26.832  31.661  1.00  0.00     0.060 A 
BRANCH  68  69
ATOM     69  S   UNL A   1      50.056  25.913  31.887  1.00  0.00     0.124 S 
ATOM     70  O   UNL A   1      49.615  24.813  32.739  1.00  0.00    -0.237 OA
ATOM     71  O   UNL A   1      50.407  25.553  30.517  1.00  0.00    -0.237 OA
ATOM     72  O   UNL A   1      50.943  26.882  32.525  1.00  0.00    -0.744 OA
ENDBRANCH  68  69
ENDBRANCH  47  61
BRANCH  48  73
ATOM     73  C   UNL A   1      37.294  32.786  30.069  1.00  0.00     0.058 A 
ATOM     74  C   UNL A   1      37.090  33.702  29.026  1.00  0.00     0.135 A 
ATOM     75  C   UNL A   1      36.226  32.548  30.949  1.00  0.00     0.135 A 
ATOM     76  F   UNL A   1      38.085  33.977  28.170  1.00  0.00    -0.206 F 
ATOM     77  C   UNL A   1      35.879  34.368  28.864  1.00  0.00     0.059 A 
ATOM     78  C   UNL A   1      34.998  33.184  30.793  1.00  0.00     0.059 A 
ATOM     79  F   UNL A   1      36.370  31.678  31.959  1.00  0.00    -0.206 F 
ATOM     80  C   UNL A   1      34.836  34.097  29.750  1.00  0.00     0.060 A 
BRANCH  80  81
ATOM     81  S   UNL A   1      33.255  34.956  29.592  1.00  0.00     0.124 S 
ATOM     82  O   UNL A   1      32.534  34.081  28.675  1.00  0.00    -0.237 OA
ATOM     83  O   UNL A   1      32.777  34.968  30.971  1.00  0.00    -0.237 OA
ATOM     84  O   UNL A   1      33.633  36.259  29.055  1.00  0.00    -0.744 OA
ENDBRANCH  80  81
ENDBRANCH  48  73
BRANCH  60  85
ATOM     85  C   UNL A   1      43.369  34.746  32.883  1.00  0.00     0.058 A 
ATOM     86  C   UNL A   1      43.966  35.736  32.085  1.00  0.00     0.135 A 
ATOM     87  C   UNL A   1      43.268  34.988  34.262  1.00  0.00     0.135 A 
ATOM     88  F   UNL A   1      44.100  35.549  30.762  1.00  0.00    -0.206 F 
ATOM     89  C   UNL A   1      44.444  36.923  32.630  1.00  0.00     0.059 A 
ATOM     90  C   UNL A   1      43.714  36.180  34.824  1.00  0.00     0.059 A 
ATOM     91  F   UNL A   1      42.703  34.076  35.068  1.00  0.00    -0.206 F 
ATOM     92  C   UNL A   1      44.300  37.141  33.999  1.00  0.00     0.060 A 
BRANCH  92  93
ATOM     93  S   UNL A   1      44.888  38.677  34.746  1.00  0.00     0.124 S 
ATOM     94  O   UNL A   1      43.765  39.574  34.496  1.00  0.00    -0.237 OA
ATOM     95  O   UNL A   1      45.092  38.288  36.138  1.00  0.00    -0.237 OA
ATOM     96  O   UNL A   1      46.107  38.973  33.998  1.00  0.00    -0.744 OA
ENDBRANCH  92  93
ENDBRANCH  60  85
ENDBRANCH  34  35
ENDBRANCH  26  29
ENDBRANCH  24  25
ENDBRANCH  23  24
ENDBRANCH   1  23
TORSDOF 17
ENDMDL
MODEL 2
REMARK VINA RESULT:      -9.0      4.617     11.575
REMARK SMILES Cn1cncc1COc1c(F)cc(C(=O)NCCCCNC(=O)c2ccc(-c3c4nc(c(-c5c(F)cc(S(=O)(=O)[O-])cc5F)c5ccc([nH]5)c(-c5c(F)cc(S(=O)(=O)[O-])cc5F)c5nc(c(-c6c(F)cc(S(=O)(=O)[O-])cc6F)c6ccc3[nH]6)C=C5)C=C4)cc2)cc1F
REMARK SMILES IDX 18 1 17 2 16 3 14 4 15 5 13 7 9 8 10 9 91 10 11 11 12 12
REMARK SMILES IDX 90 13 92 14 8 15 7 16 6 17 1 18 2 19 3 20 4 21 5 22 19 23
REMARK SMILES IDX 20 24 21 25 22 26 23 28 24 29 25 30 89 31 26 32 88 33 27 34
REMARK SMILES IDX 28 35 29 36 82 37 30 38 87 39 81 40 83 41 31 42 86 43 80 44
REMARK SMILES IDX 79 45 32 47 66 48 45 49 65 50 46 51 49 52 64 53 84 54 47 55
REMARK SMILES IDX 48 56 63 58 85 59 50 60 33 61 34 62 43 63 35 64 36 65 42 66
REMARK SMILES IDX 44 67 37 68 38 69 39 70 40 71 41 72 67 73 68 74 77 75 69 76
REMARK SMILES IDX 70 77 76 78 78 79 71 80 72 81 73 82 74 83 75 84 51 85 52 86
REMARK SMILES IDX 61 87 53 88 54 89 60 90 62 91 55 92 56 93 57 94 58 95 59 96
REMARK H PARENT 16 6 21 27 83 46 49 57
REMARK Flexibility Score: inf
ROOT
ATOM      1  C   UNL A   1      33.552  26.800  24.871  1.00  0.00     0.023 C 
ENDROOT
BRANCH   1   2
ATOM      2  C   UNL A   1      32.279  26.493  24.076  1.00  0.00     0.116 C 
BRANCH   2   3
ATOM      3  N   UNL A   1      31.140  26.252  24.945  1.00  0.00    -0.352 N 
ATOM      4  C   UNL A   1      30.801  25.176  25.731  1.00  0.00     0.251 C 
ATOM      5  O   UNL A   1      29.848  25.291  26.500  1.00  0.00    -0.269 OA
ATOM      6  H   UNL A   1      30.494  26.994  24.978  1.00  0.00     0.163 HD
BRANCH   4   7
ATOM      7  C   UNL A   1      31.545  23.886  25.712  1.00  0.00     0.045 A 
ATOM      8  C   UNL A   1      32.983  21.462  25.553  1.00  0.00     0.191 A 
ATOM      9  C   UNL A   1      32.896  22.167  26.745  1.00  0.00     0.168 A 
ATOM     10  C   UNL A   1      32.408  22.019  24.415  1.00  0.00     0.168 A 
ATOM     11  F   UNL A   1      33.518  21.740  27.849  1.00  0.00    -0.203 F 
ATOM     12  C   UNL A   1      32.183  23.356  26.830  1.00  0.00     0.057 A 
ATOM     13  C   UNL A   1      31.694  23.220  24.485  1.00  0.00     0.057 A 
ATOM     14  F   UNL A   1      32.536  21.409  23.229  1.00  0.00    -0.203 F 
BRANCH   8  15
ATOM     15  O   UNL A   1      33.718  20.309  25.476  1.00  0.00    -0.481 OA
BRANCH  15  16
ATOM     16  C   UNL A   1      32.905  19.133  25.639  1.00  0.00     0.285 C 
BRANCH  16  17
ATOM     17  C   UNL A   1      33.075  18.247  24.455  1.00  0.00     0.075 A 
ATOM     18  C   UNL A   1      34.682  16.580  25.466  1.00  0.00     0.151 C 
ATOM     19  N   UNL A   1      33.898  17.147  24.396  1.00  0.00    -0.335 N 
ATOM     20  C   UNL A   1      33.852  16.656  23.121  1.00  0.00     0.199 A 
ATOM     21  N   UNL A   1      33.004  17.327  22.378  1.00  0.00    -0.245 NA
ATOM     22  C   UNL A   1      32.522  18.320  23.191  1.00  0.00     0.138 A 
ENDBRANCH  16  17
ENDBRANCH  15  16
ENDBRANCH   8  15
ENDBRANCH   4   7
ENDBRANCH   2   3
ENDBRANCH   1   2
BRANCH   1  23
ATOM     23  C   UNL A   1      33.660  28.222  25.416  1.00  0.00     0.023 C 
BRANCH  23  24
ATOM     24  C   UNL A   1      33.792  28.328  26.929  1.00  0.00     0.116 C 
BRANCH  24  25
ATOM     25  N   UNL A   1      33.592  29.673  27.441  1.00  0.00    -0.352 N 
ATOM     26  C   UNL A   1      34.493  30.478  28.102  1.00  0.00     0.251 C 
ATOM     27  H   UNL A   1      32.698  30.059  27.296  1.00  0.00     0.163 HD
ATOM     28  O   UNL A   1      34.139  31.560  28.546  1.00  0.00    -0.269 OA
BRANCH  26  29
ATOM     29  C   UNL A   1      35.877  29.996  28.308  1.00  0.00     0.039 A 
ATOM     30  C   UNL A   1      36.779  30.078  27.244  1.00  0.00     0.014 A 
ATOM     31  C   UNL A   1      36.292  29.499  29.546  1.00  0.00     0.014 A 
ATOM     32  C   UNL A   1      38.112  29.713  27.442  1.00  0.00     0.010 A 
ATOM     33  C   UNL A   1      37.635  29.211  29.763  1.00  0.00     0.010 A 
ATOM     34  C   UNL A   1      38.558  29.308  28.712  1.00  0.00    -0.014 A 
BRANCH  34  35
ATOM     35  C   UNL A   1      39.985  28.972  28.947  1.00  0.00     0.031 A 
ATOM     36  C   UNL A   1      40.910  29.990  29.557  1.00  0.00     0.074 A 
ATOM     37  C   UNL A   1      40.453  27.762  28.579  1.00  0.00     0.049 A 
ATOM     38  N   UNL A   1      42.184  29.886  29.831  1.00  0.00    -0.248 NA
ATOM     39  C   UNL A   1      40.335  31.307  29.875  1.00  0.00     0.031 C 
ATOM     40  C   UNL A   1      39.666  26.715  27.924  1.00  0.00     0.029 A 
ATOM     41  N   UNL A   1      41.701  27.208  28.705  1.00  0.00    -0.354 N 
ATOM     42  C   UNL A   1      42.564  31.122  30.345  1.00  0.00     0.074 A 
ATOM     43  C   UNL A   1      41.401  31.978  30.288  1.00  0.00     0.031 C 
ATOM     44  C   UNL A   1      40.440  25.633  27.740  1.00  0.00     0.029 A 
ATOM     45  C   UNL A   1      41.782  25.918  28.238  1.00  0.00     0.049 A 
ATOM     46  H   UNL A   1      42.468  27.690  29.093  1.00  0.00     0.167 HD
ATOM     47  C   UNL A   1      43.764  31.497  30.847  1.00  0.00     0.037 A 
ATOM     48  C   UNL A   1      42.819  25.058  28.222  1.00  0.00     0.037 A 
ATOM     49  C   UNL A   1      44.909  30.629  30.927  1.00  0.00     0.049 A 
ATOM     50  C   UNL A   1      44.134  25.488  28.813  1.00  0.00     0.074 A 
ATOM     51  C   UNL A   1      46.159  30.898  31.459  1.00  0.00     0.029 A 
ATOM     52  N   UNL A   1      44.944  29.320  30.467  1.00  0.00    -0.354 N 
ATOM     53  N   UNL A   1      44.461  26.643  29.343  1.00  0.00    -0.248 NA
ATOM     54  C   UNL A   1      45.219  24.497  28.814  1.00  0.00     0.031 C 
ATOM     55  C   UNL A   1      46.959  29.764  31.290  1.00  0.00     0.029 A 
ATOM     56  C   UNL A   1      46.196  28.772  30.695  1.00  0.00     0.049 A 
ATOM     57  H   UNL A   1      44.192  28.851  30.041  1.00  0.00     0.167 HD
ATOM     58  C   UNL A   1      45.778  26.508  29.765  1.00  0.00     0.074 A 
ATOM     59  C   UNL A   1      46.184  25.156  29.440  1.00  0.00     0.031 C 
ATOM     60  C   UNL A   1      46.580  27.422  30.368  1.00  0.00     0.037 A 
BRANCH  47  61
ATOM     61  C   UNL A   1      43.893  32.903  31.365  1.00  0.00     0.058 A 
ATOM     62  C   UNL A   1      44.271  33.951  30.510  1.00  0.00     0.135 A 
ATOM     63  C   UNL A   1      43.676  33.209  32.719  1.00  0.00     0.135 A 
ATOM     64  F   UNL A   1      44.488  33.716  29.207  1.00  0.00    -0.206 F 
ATOM     65  C   UNL A   1      44.433  35.253  30.977  1.00  0.00     0.059 A 
ATOM     66  C   UNL A   1      43.805  34.508  33.201  1.00  0.00     0.059 A 
ATOM     67  F   UNL A   1      43.294  32.250  33.576  1.00  0.00    -0.206 F 
ATOM     68  C   UNL A   1      44.185  35.523  32.322  1.00  0.00     0.060 A 
BRANCH  68  69
ATOM     69  S   UNL A   1      44.352  37.199  32.969  1.00  0.00     0.124 S 
ATOM     70  O   UNL A   1      43.025  37.428  33.533  1.00  0.00    -0.237 OA
ATOM     71  O   UNL A   1      45.435  37.052  33.937  1.00  0.00    -0.237 OA
ATOM     72  O   UNL A   1      44.674  37.991  31.786  1.00  0.00    -0.744 OA
ENDBRANCH  68  69
ENDBRANCH  47  61
BRANCH  48  73
ATOM     73  C   UNL A   1      42.637  23.688  27.674  1.00  0.00     0.058 A 
ATOM     74  C   UNL A   1      42.379  22.593  28.514  1.00  0.00     0.135 A 
ATOM     75  C   UNL A   1      42.746  23.443  26.296  1.00  0.00     0.135 A 
ATOM     76  F   UNL A   1      42.284  22.772  29.840  1.00  0.00    -0.206 F 
ATOM     77  C   UNL A   1      42.245  21.302  28.012  1.00  0.00     0.059 A 
ATOM     78  C   UNL A   1      42.592  22.165  25.768  1.00  0.00     0.059 A 
ATOM     79  F   UNL A   1      42.988  24.457  25.452  1.00  0.00    -0.206 F 
ATOM     80  C   UNL A   1      42.346  21.099  26.636  1.00  0.00     0.060 A 
BRANCH  80  81
ATOM     81  S   UNL A   1      42.202  19.437  25.943  1.00  0.00     0.124 S 
ATOM     82  O   UNL A   1      42.716  18.617  27.033  1.00  0.00    -0.237 OA
ATOM     83  O   UNL A   1      40.769  19.338  25.689  1.00  0.00    -0.237 OA
ATOM     84  O   UNL A   1      43.040  19.498  24.749  1.00  0.00    -0.744 OA
ENDBRANCH  80  81
ENDBRANCH  48  73
BRANCH  60  85
ATOM     85  C   UNL A   1      47.967  26.981  30.744  1.00  0.00     0.058 A 
ATOM     86  C   UNL A   1      49.033  27.144  29.842  1.00  0.00     0.135 A 
ATOM     87  C   UNL A   1      48.237  26.359  31.973  1.00  0.00     0.135 A 
ATOM     88  F   UNL A   1      48.826  27.720  28.647  1.00  0.00    -0.206 F 
ATOM     89  C   UNL A   1      50.319  26.708  30.146  1.00  0.00     0.059 A 
ATOM     90  C   UNL A   1      49.521  25.942  32.308  1.00  0.00     0.059 A 
ATOM     91  F   UNL A   1      47.255  26.183  32.870  1.00  0.00    -0.206 F 
ATOM     92  C   UNL A   1      50.555  26.122  31.388  1.00  0.00     0.060 A 
BRANCH  92  93
ATOM     93  S   UNL A   1      52.212  25.561  31.832  1.00  0.00     0.124 S 
ATOM     94  O   UNL A   1      52.510  26.406  32.984  1.00  0.00    -0.237 OA
ATOM     95  O   UNL A   1      51.996  24.147  32.121  1.00  0.00    -0.237 OA
ATOM     96  O   UNL A   1      52.998  25.836  30.632  1.00  0.00    -0.744 OA
ENDBRANCH  92  93
ENDBRANCH  60  85
ENDBRANCH  34  35
ENDBRANCH  26  29
ENDBRANCH  24  25
ENDBRANCH  23  24
ENDBRANCH   1  23
TORSDOF 17
ENDMDL
MODEL 3
REMARK VINA RESULT:      -9.0      4.433     11.253
REMARK SMILES Cn1cncc1COc1c(F)cc(C(=O)NCCCCNC(=O)c2ccc(-c3c4nc(c(-c5c(F)cc(S(=O)(=O)[O-])cc5F)c5ccc([nH]5)c(-c5c(F)cc(S(=O)(=O)[O-])cc5F)c5nc(c(-c6c(F)cc(S(=O)(=O)[O-])cc6F)c6ccc3[nH]6)C=C5)C=C4)cc2)cc1F
REMARK SMILES IDX 18 1 17 2 16 3 14 4 15 5 13 7 9 8 10 9 91 10 11 11 12 12
REMARK SMILES IDX 90 13 92 14 8 15 7 16 6 17 1 18 2 19 3 20 4 21 5 22 19 23
REMARK SMILES IDX 20 24 21 25 22 26 23 28 24 29 25 30 89 31 26 32 88 33 27 34
REMARK SMILES IDX 28 35 29 36 82 37 30 38 87 39 81 40 83 41 31 42 86 43 80 44
REMARK SMILES IDX 79 45 32 47 66 48 45 49 65 50 46 51 49 52 64 53 84 54 47 55
REMARK SMILES IDX 48 56 63 58 85 59 50 60 33 61 34 62 43 63 35 64 36 65 42 66
REMARK SMILES IDX 44 67 37 68 38 69 39 70 40 71 41 72 67 73 68 74 77 75 69 76
REMARK SMILES IDX 70 77 76 78 78 79 71 80 72 81 73 82 74 83 75 84 51 85 52 86
REMARK SMILES IDX 61 87 53 88 54 89 60 90 62 91 55 92 56 93 57 94 58 95 59 96
REMARK H PARENT 16 6 21 27 83 46 49 57
REMARK Flexibility Score: inf
ROOT
ATOM      1  C   UNL A   1      32.986  29.582  24.960  1.00  0.00     0.023 C 
ENDROOT
BRANCH   1   2
ATOM      2  C   UNL A   1      31.465  29.405  24.993  1.00  0.00     0.116 C 
BRANCH   2   3
ATOM      3  N   UNL A   1      30.881  29.463  23.664  1.00  0.00    -0.352 N 
ATOM      4  C   UNL A   1      30.689  28.495  22.708  1.00  0.00     0.251 C 
ATOM      5  O   UNL A   1      30.022  28.779  21.714  1.00  0.00    -0.269 OA
ATOM      6  H   UNL A   1      30.566  30.358  23.401  1.00  0.00     0.163 HD
BRANCH   4   7
ATOM      7  C   UNL A   1      31.232  27.113  22.825  1.00  0.00     0.045 A 
ATOM      8  C   UNL A   1      32.373  24.544  23.081  1.00  0.00     0.191 A 
ATOM      9  C   UNL A   1      31.022  24.754  23.316  1.00  0.00     0.168 A 
ATOM     10  C   UNL A   1      33.170  25.646  22.790  1.00  0.00     0.168 A 
ATOM     11  F   UNL A   1      30.222  23.755  23.705  1.00  0.00    -0.203 F 
ATOM     12  C   UNL A   1      30.454  26.015  23.184  1.00  0.00     0.057 A 
ATOM     13  C   UNL A   1      32.613  26.922  22.661  1.00  0.00     0.057 A 
ATOM     14  F   UNL A   1      34.493  25.497  22.633  1.00  0.00    -0.203 F 
BRANCH   8  15
ATOM     15  O   UNL A   1      32.925  23.302  23.248  1.00  0.00    -0.481 OA
BRANCH  15  16
ATOM     16  C   UNL A   1      33.026  22.932  24.636  1.00  0.00     0.285 C 
BRANCH  16  17
ATOM     17  C   UNL A   1      34.187  22.019  24.820  1.00  0.00     0.075 A 
ATOM     18  C   UNL A   1      35.984  23.762  25.152  1.00  0.00     0.151 C 
ATOM     19  N   UNL A   1      35.490  22.415  25.008  1.00  0.00    -0.335 N 
ATOM     20  C   UNL A   1      36.269  21.292  25.042  1.00  0.00     0.199 A 
ATOM     21  N   UNL A   1      35.546  20.201  24.956  1.00  0.00    -0.245 NA
ATOM     22  C   UNL A   1      34.255  20.638  24.810  1.00  0.00     0.138 A 
ENDBRANCH  16  17
ENDBRANCH  15  16
ENDBRANCH   8  15
ENDBRANCH   4   7
ENDBRANCH   2   3
ENDBRANCH   1   2
BRANCH   1  23
ATOM     23  C   UNL A   1      33.791  28.494  25.668  1.00  0.00     0.023 C 
BRANCH  23  24
ATOM     24  C   UNL A   1      33.790  28.574  27.188  1.00  0.00     0.116 C 
BRANCH  24  25
ATOM     25  N   UNL A   1      33.623  29.922  27.703  1.00  0.00    -0.352 N 
ATOM     26  C   UNL A   1      34.549  30.711  28.347  1.00  0.00     0.251 C 
ATOM     27  H   UNL A   1      32.733  30.323  27.574  1.00  0.00     0.163 HD
ATOM     28  O   UNL A   1      34.222  31.800  28.797  1.00  0.00    -0.269 OA
BRANCH  26  29
ATOM     29  C   UNL A   1      35.928  30.206  28.527  1.00  0.00     0.039 A 
ATOM     30  C   UNL A   1      36.799  30.231  27.435  1.00  0.00     0.014 A 
ATOM     31  C   UNL A   1      36.370  29.742  29.769  1.00  0.00     0.014 A 
ATOM     32  C   UNL A   1      38.129  29.844  27.605  1.00  0.00     0.010 A 
ATOM     33  C   UNL A   1      37.713  29.432  29.956  1.00  0.00     0.010 A 
ATOM     34  C   UNL A   1      38.605  29.472  28.874  1.00  0.00    -0.014 A 
BRANCH  34  35
ATOM     35  C   UNL A   1      40.031  29.112  29.078  1.00  0.00     0.031 A 
ATOM     36  C   UNL A   1      40.986  30.115  29.667  1.00  0.00     0.074 A 
ATOM     37  C   UNL A   1      40.471  27.896  28.699  1.00  0.00     0.049 A 
ATOM     38  N   UNL A   1      42.264  29.990  29.912  1.00  0.00    -0.248 NA
ATOM     39  C   UNL A   1      40.440  31.441  29.998  1.00  0.00     0.031 C 
ATOM     40  C   UNL A   1      39.653  26.861  28.062  1.00  0.00     0.029 A 
ATOM     41  N   UNL A   1      41.712  27.321  28.797  1.00  0.00    -0.354 N 
ATOM     42  C   UNL A   1      42.676  31.218  30.418  1.00  0.00     0.074 A 
ATOM     43  C   UNL A   1      41.526  32.094  30.387  1.00  0.00     0.031 C 
ATOM     44  C   UNL A   1      40.404  25.767  27.861  1.00  0.00     0.029 A 
ATOM     45  C   UNL A   1      41.762  26.029  28.329  1.00  0.00     0.049 A 
ATOM     46  H   UNL A   1      42.495  27.790  29.168  1.00  0.00     0.167 HD
ATOM     47  C   UNL A   1      43.893  31.574  30.893  1.00  0.00     0.037 A 
ATOM     48  C   UNL A   1      42.784  25.152  28.290  1.00  0.00     0.037 A 
ATOM     49  C   UNL A   1      45.025  30.687  30.947  1.00  0.00     0.049 A 
ATOM     50  C   UNL A   1      44.118  25.560  28.851  1.00  0.00     0.074 A 
ATOM     51  C   UNL A   1      46.290  30.935  31.452  1.00  0.00     0.029 A 
ATOM     52  N   UNL A   1      45.028  29.378  30.487  1.00  0.00    -0.354 N 
ATOM     53  N   UNL A   1      44.476  26.710  29.374  1.00  0.00    -0.248 NA
ATOM     54  C   UNL A   1      45.186  24.551  28.828  1.00  0.00     0.031 C 
ATOM     55  C   UNL A   1      47.067  29.788  31.265  1.00  0.00     0.029 A 
ATOM     56  C   UNL A   1      46.275  28.809  30.687  1.00  0.00     0.049 A 
ATOM     57  H   UNL A   1      44.259  28.922  30.078  1.00  0.00     0.167 HD
ATOM     58  C   UNL A   1      45.800  26.553  29.766  1.00  0.00     0.074 A 
ATOM     59  C   UNL A   1      46.175  25.194  29.432  1.00  0.00     0.031 C 
ATOM     60  C   UNL A   1      46.630  27.453  30.351  1.00  0.00     0.037 A 
BRANCH  47  61
ATOM     61  C   UNL A   1      44.056  32.977  31.409  1.00  0.00     0.058 A 
ATOM     62  C   UNL A   1      43.805  33.280  32.757  1.00  0.00     0.135 A 
ATOM     63  C   UNL A   1      44.428  34.032  30.560  1.00  0.00     0.135 A 
ATOM     64  F   UNL A   1      43.450  32.310  33.613  1.00  0.00    -0.206 F 
ATOM     65  C   UNL A   1      43.914  34.579  33.246  1.00  0.00     0.059 A 
ATOM     66  C   UNL A   1      44.570  35.332  31.034  1.00  0.00     0.059 A 
ATOM     67  F   UNL A   1      44.699  33.797  29.267  1.00  0.00    -0.206 F 
ATOM     68  C   UNL A   1      44.309  35.596  32.379  1.00  0.00     0.060 A 
BRANCH  68  69
ATOM     69  S   UNL A   1      44.493  37.291  32.972  1.00  0.00     0.124 S 
ATOM     70  O   UNL A   1      45.621  37.158  33.889  1.00  0.00    -0.237 OA
ATOM     71  O   UNL A   1      44.761  38.024  31.739  1.00  0.00    -0.237 OA
ATOM     72  O   UNL A   1      43.206  37.574  33.600  1.00  0.00    -0.744 OA
ENDBRANCH  68  69
ENDBRANCH  47  61
BRANCH  48  73
ATOM     73  C   UNL A   1      42.566  23.785  27.745  1.00  0.00     0.058 A 
ATOM     74  C   UNL A   1      42.374  22.684  28.593  1.00  0.00     0.135 A 
ATOM     75  C   UNL A   1      42.576  23.551  26.362  1.00  0.00     0.135 A 
ATOM     76  F   UNL A   1      42.376  22.852  29.924  1.00  0.00    -0.206 F 
ATOM     77  C   UNL A   1      42.208  21.396  28.093  1.00  0.00     0.059 A 
ATOM     78  C   UNL A   1      42.388  22.277  25.836  1.00  0.00     0.059 A 
ATOM     79  F   UNL A   1      42.752  24.573  25.510  1.00  0.00    -0.206 F 
ATOM     80  C   UNL A   1      42.210  21.204  26.711  1.00  0.00     0.060 A 
BRANCH  80  81
ATOM     81  S   UNL A   1      42.021  19.547  26.017  1.00  0.00     0.124 S 
ATOM     82  O   UNL A   1      42.904  19.610  24.859  1.00  0.00    -0.237 OA
ATOM     83  O   UNL A   1      42.472  18.703  27.119  1.00  0.00    -0.237 OA
ATOM     84  O   UNL A   1      40.594  19.468  25.720  1.00  0.00    -0.744 OA
ENDBRANCH  80  81
ENDBRANCH  48  73
BRANCH  60  85
ATOM     85  C   UNL A   1      48.017  26.988  30.696  1.00  0.00     0.058 A 
ATOM     86  C   UNL A   1      48.279  26.399  31.945  1.00  0.00     0.135 A 
ATOM     87  C   UNL A   1      49.095  27.163  29.815  1.00  0.00     0.135 A 
ATOM     88  F   UNL A   1      47.285  26.221  32.830  1.00  0.00    -0.206 F 
ATOM     89  C   UNL A   1      49.560  25.996  32.308  1.00  0.00     0.059 A 
ATOM     90  C   UNL A   1      50.379  26.742  30.146  1.00  0.00     0.059 A 
ATOM     91  F   UNL A   1      48.898  27.718  28.609  1.00  0.00    -0.206 F 
ATOM     92  C   UNL A   1      50.600  26.159  31.395  1.00  0.00     0.060 A 
BRANCH  92  93
ATOM     93  S   UNL A   1      52.275  25.632  31.817  1.00  0.00     0.124 S 
ATOM     94  O   UNL A   1      52.986  25.884  30.567  1.00  0.00    -0.237 OA
ATOM     95  O   UNL A   1      52.610  26.518  32.927  1.00  0.00    -0.237 OA
ATOM     96  O   UNL A   1      52.110  24.226  32.172  1.00  0.00    -0.744 OA
ENDBRANCH  92  93
ENDBRANCH  60  85
ENDBRANCH  34  35
ENDBRANCH  26  29
ENDBRANCH  24  25
ENDBRANCH  23  24
ENDBRANCH   1  23
TORSDOF 17
ENDMDL
