MODEL 1
REMARK VINA RESULT:     -11.3      0.000      0.000
REMARK SMILES C[NH2+][C@@]1(C(=O)NCCCCNC(=O)c2ccc(-c3c4nc(c(-c5c(F)cc(S(=O)(=O)[O-])cc5F)c5ccc([nH]5)c(-c5c(F)cc(S(=O)(=O)[O-])cc5F)c5nc(c(-c6c(F)cc(S(=O)(=O)[O-])cc6F)c6ccc3[nH]6)C=C5)C=C4)cc2)CC[C@H](Oc2cccc(C)c2)C1
REMARK SMILES IDX 9 1 8 2 7 3 6 4 4 5 5 6 3 8 80 9 91 10 81 11 82 12 2 13 1 14
REMARK SMILES IDX 83 17 84 18 85 19 90 20 86 21 88 22 87 23 89 24 10 25 11 26
REMARK SMILES IDX 12 27 13 29 14 30 15 31 79 32 16 33 78 34 17 35 18 36 19 37
REMARK SMILES IDX 72 38 20 39 77 40 71 41 73 42 21 43 76 44 70 45 69 46 22 48
REMARK SMILES IDX 56 49 35 50 55 51 36 52 39 53 54 54 74 55 37 56 38 57 53 59
REMARK SMILES IDX 75 60 40 61 23 62 24 63 33 64 25 65 26 66 32 67 34 68 27 69
REMARK SMILES IDX 28 70 29 71 30 72 31 73 57 74 58 75 67 76 59 77 60 78 66 79
REMARK SMILES IDX 68 80 61 81 62 82 63 83 64 84 65 85 41 86 42 87 51 88 43 89
REMARK SMILES IDX 44 90 50 91 52 92 45 93 46 94 47 95 48 96 49 97
REMARK H PARENT 6 7 2 15 2 16 11 28 73 47 39 58
REMARK Flexibility Score: inf
ROOT
ATOM      1  C   UNL A   1      32.438  28.183  26.233  1.00  0.00     0.023 C 
ENDROOT
BRANCH   1   2
ATOM      2  C   UNL A   1      31.618  26.935  26.521  1.00  0.00     0.023 C 
BRANCH   2   3
ATOM      3  C   UNL A   1      32.280  25.617  26.156  1.00  0.00     0.116 C 
BRANCH   3   4
ATOM      4  N   UNL A   1      31.375  24.504  26.280  1.00  0.00    -0.351 N 
ATOM      5  C   UNL A   1      31.516  23.183  26.016  1.00  0.00     0.281 C 
ATOM      6  O   UNL A   1      30.489  22.504  26.184  1.00  0.00    -0.268 OA
ATOM      7  H   UNL A   1      30.485  24.751  26.619  1.00  0.00     0.163 HD
BRANCH   5   8
ATOM      8  C   UNL A   1      32.842  22.469  25.501  1.00  0.00     0.179 C 
ATOM      9  C   UNL A   1      34.143  23.141  25.964  1.00  0.00     0.083 C 
ATOM     10  C   UNL A   1      32.893  22.467  23.963  1.00  0.00     0.124 C 
ATOM     11  C   UNL A   1      34.816  23.775  24.750  1.00  0.00     0.052 C 
ATOM     12  C   UNL A   1      34.169  23.195  23.495  1.00  0.00     0.180 C 
BRANCH   8  13
ATOM     13  N   UNL A   1      32.830  21.146  26.205  1.00  0.00    -0.336 N 
ATOM     14  C   UNL A   1      32.830  19.940  25.406  1.00  0.00     0.331 C 
ATOM     15  H   UNL A   1      33.660  21.113  26.799  1.00  0.00     0.346 HD
ATOM     16  H   UNL A   1      31.933  21.126  26.689  1.00  0.00     0.346 HD
ENDBRANCH   8  13
BRANCH  12  17
ATOM     17  O   UNL A   1      33.725  24.072  22.458  1.00  0.00    -0.490 OA
BRANCH  17  18
ATOM     18  C   UNL A   1      32.964  25.183  22.613  1.00  0.00     0.119 A 
ATOM     19  C   UNL A   1      31.583  25.282  22.537  1.00  0.00     0.046 A 
ATOM     20  C   UNL A   1      33.722  26.350  22.799  1.00  0.00     0.049 A 
ATOM     21  C   UNL A   1      30.980  26.545  22.531  1.00  0.00     0.004 A 
ATOM     22  C   UNL A   1      33.137  27.619  22.755  1.00  0.00    -0.047 A 
ATOM     23  C   UNL A   1      31.752  27.706  22.621  1.00  0.00     0.003 A 
ATOM     24  C   UNL A   1      33.981  28.858  22.818  1.00  0.00     0.044 C 
ENDBRANCH  17  18
ENDBRANCH  12  17
ENDBRANCH   5   8
ENDBRANCH   3   4
ENDBRANCH   2   3
ENDBRANCH   1   2
BRANCH   1  25
ATOM     25  C   UNL A   1      33.483  28.534  27.287  1.00  0.00     0.116 C 
BRANCH  25  26
ATOM     26  N   UNL A   1      33.447  29.912  27.770  1.00  0.00    -0.352 N 
ATOM     27  C   UNL A   1      34.495  30.660  28.262  1.00  0.00     0.251 C 
ATOM     28  H   UNL A   1      32.571  30.359  27.741  1.00  0.00     0.163 HD
ATOM     29  O   UNL A   1      34.343  31.824  28.624  1.00  0.00    -0.269 OA
BRANCH  27  30
ATOM     30  C   UNL A   1      35.807  30.009  28.406  1.00  0.00     0.039 A 
ATOM     31  C   UNL A   1      36.708  30.069  27.341  1.00  0.00     0.014 A 
ATOM     32  C   UNL A   1      36.182  29.472  29.639  1.00  0.00     0.014 A 
ATOM     33  C   UNL A   1      38.028  29.668  27.541  1.00  0.00     0.010 A 
ATOM     34  C   UNL A   1      37.514  29.159  29.859  1.00  0.00     0.010 A 
ATOM     35  C   UNL A   1      38.450  29.258  28.815  1.00  0.00    -0.014 A 
BRANCH  35  36
ATOM     36  C   UNL A   1      39.858  28.893  29.098  1.00  0.00     0.031 A 
ATOM     37  C   UNL A   1      40.778  29.943  29.656  1.00  0.00     0.074 A 
ATOM     38  C   UNL A   1      40.329  27.680  28.752  1.00  0.00     0.049 A 
ATOM     39  N   UNL A   1      42.078  29.922  29.781  1.00  0.00    -0.248 NA
ATOM     40  C   UNL A   1      40.150  31.205  30.080  1.00  0.00     0.031 C 
ATOM     41  C   UNL A   1      39.540  26.597  28.158  1.00  0.00     0.029 A 
ATOM     42  N   UNL A   1      41.597  27.159  28.827  1.00  0.00    -0.354 N 
ATOM     43  C   UNL A   1      42.427  31.184  30.248  1.00  0.00     0.074 A 
ATOM     44  C   UNL A   1      41.209  31.956  30.345  1.00  0.00     0.031 C 
ATOM     45  C   UNL A   1      40.338  25.539  27.937  1.00  0.00     0.029 A 
ATOM     46  C   UNL A   1      41.701  25.880  28.335  1.00  0.00     0.049 A 
ATOM     47  H   UNL A   1      42.361  27.657  29.201  1.00  0.00     0.167 HD
ATOM     48  C   UNL A   1      43.653  31.649  30.584  1.00  0.00     0.037 A 
ATOM     49  C   UNL A   1      42.779  25.082  28.207  1.00  0.00     0.037 A 
ATOM     50  C   UNL A   1      44.847  30.848  30.548  1.00  0.00     0.049 A 
ATOM     51  C   UNL A   1      44.120  25.597  28.651  1.00  0.00     0.074 A 
ATOM     52  C   UNL A   1      46.128  31.193  30.934  1.00  0.00     0.029 A 
ATOM     53  N   UNL A   1      44.896  29.530  30.115  1.00  0.00    -0.354 N 
ATOM     54  N   UNL A   1      44.432  26.782  29.122  1.00  0.00    -0.248 NA
ATOM     55  C   UNL A   1      45.255  24.669  28.555  1.00  0.00     0.031 C 
ATOM     56  C   UNL A   1      46.959  30.087  30.718  1.00  0.00     0.029 A 
ATOM     57  C   UNL A   1      46.187  29.045  30.228  1.00  0.00     0.049 A 
ATOM     58  H   UNL A   1      44.126  29.016  29.779  1.00  0.00     0.167 HD
ATOM     59  C   UNL A   1      45.793  26.734  29.397  1.00  0.00     0.074 A 
ATOM     60  C   UNL A   1      46.243  25.401  29.051  1.00  0.00     0.031 C 
ATOM     61  C   UNL A   1      46.600  27.706  29.890  1.00  0.00     0.037 A 
BRANCH  48  62
ATOM     62  C   UNL A   1      43.751  33.081  31.028  1.00  0.00     0.058 A 
ATOM     63  C   UNL A   1      43.914  34.128  30.106  1.00  0.00     0.135 A 
ATOM     64  C   UNL A   1      43.687  33.411  32.391  1.00  0.00     0.135 A 
ATOM     65  F   UNL A   1      44.004  33.865  28.793  1.00  0.00    -0.206 F 
ATOM     66  C   UNL A   1      44.051  35.448  30.522  1.00  0.00     0.059 A 
ATOM     67  C   UNL A   1      43.792  34.728  32.828  1.00  0.00     0.059 A 
ATOM     68  F   UNL A   1      43.534  32.449  33.314  1.00  0.00    -0.206 F 
ATOM     69  C   UNL A   1      43.994  35.738  31.886  1.00  0.00     0.060 A 
BRANCH  69  70
ATOM     70  S   UNL A   1      44.183  37.453  32.414  1.00  0.00     0.124 S 
ATOM     71  O   UNL A   1      45.562  37.460  32.891  1.00  0.00    -0.237 OA
ATOM     72  O   UNL A   1      43.937  38.192  31.179  1.00  0.00    -0.237 OA
ATOM     73  O   UNL A   1      43.160  37.605  33.444  1.00  0.00    -0.744 OA
ENDBRANCH  69  70
ENDBRANCH  48  62
BRANCH  49  74
ATOM     74  C   UNL A   1      42.627  23.707  27.662  1.00  0.00     0.058 A 
ATOM     75  C   UNL A   1      42.504  22.606  28.522  1.00  0.00     0.135 A 
ATOM     76  C   UNL A   1      42.581  23.464  26.280  1.00  0.00     0.135 A 
ATOM     77  F   UNL A   1      42.546  22.787  29.851  1.00  0.00    -0.206 F 
ATOM     78  C   UNL A   1      42.352  21.312  28.035  1.00  0.00     0.059 A 
ATOM     79  C   UNL A   1      42.410  22.181  25.768  1.00  0.00     0.059 A 
ATOM     80  F   UNL A   1      42.678  24.486  25.415  1.00  0.00    -0.206 F 
ATOM     81  C   UNL A   1      42.304  21.109  26.655  1.00  0.00     0.060 A 
BRANCH  81  82
ATOM     82  S   UNL A   1      42.047  19.433  26.033  1.00  0.00     0.124 S 
ATOM     83  O   UNL A   1      42.505  18.628  27.159  1.00  0.00    -0.237 OA
ATOM     84  O   UNL A   1      40.610  19.416  25.778  1.00  0.00    -0.237 OA
ATOM     85  O   UNL A   1      42.887  19.388  24.840  1.00  0.00    -0.744 OA
ENDBRANCH  81  82
ENDBRANCH  49  74
BRANCH  61  86
ATOM     86  C   UNL A   1      48.040  27.352  30.119  1.00  0.00     0.058 A 
ATOM     87  C   UNL A   1      49.002  27.500  29.110  1.00  0.00     0.135 A 
ATOM     88  C   UNL A   1      48.470  26.921  31.385  1.00  0.00     0.135 A 
ATOM     89  F   UNL A   1      48.637  27.905  27.883  1.00  0.00    -0.206 F 
ATOM     90  C   UNL A   1      50.344  27.217  29.342  1.00  0.00     0.059 A 
ATOM     91  C   UNL A   1      49.809  26.653  31.645  1.00  0.00     0.059 A 
ATOM     92  F   UNL A   1      47.588  26.774  32.385  1.00  0.00    -0.206 F 
ATOM     93  C   UNL A   1      50.738  26.795  30.613  1.00  0.00     0.060 A 
BRANCH  93  94
ATOM     94  S   UNL A   1      52.487  26.471  30.917  1.00  0.00     0.124 S 
ATOM     95  O   UNL A   1      52.868  27.638  31.704  1.00  0.00    -0.237 OA
ATOM     96  O   UNL A   1      52.452  25.203  31.639  1.00  0.00    -0.237 OA
ATOM     97  O   UNL A   1      53.057  26.403  29.575  1.00  0.00    -0.744 OA
ENDBRANCH  93  94
ENDBRANCH  61  86
ENDBRANCH  35  36
ENDBRANCH  27  30
ENDBRANCH  25  26
ENDBRANCH   1  25
TORSDOF 17
ENDMDL
MODEL 2
REMARK VINA RESULT:     -11.3      1.090      2.229
REMARK SMILES C[NH2+][C@@]1(C(=O)NCCCCNC(=O)c2ccc(-c3c4nc(c(-c5c(F)cc(S(=O)(=O)[O-])cc5F)c5ccc([nH]5)c(-c5c(F)cc(S(=O)(=O)[O-])cc5F)c5nc(c(-c6c(F)cc(S(=O)(=O)[O-])cc6F)c6ccc3[nH]6)C=C5)C=C4)cc2)CC[C@H](Oc2cccc(C)c2)C1
REMARK SMILES IDX 9 1 8 2 7 3 6 4 4 5 5 6 3 8 80 9 91 10 81 11 82 12 2 13 1 14
REMARK SMILES IDX 83 17 84 18 85 19 90 20 86 21 88 22 87 23 89 24 10 25 11 26
REMARK SMILES IDX 12 27 13 29 14 30 15 31 79 32 16 33 78 34 17 35 18 36 19 37
REMARK SMILES IDX 72 38 20 39 77 40 71 41 73 42 21 43 76 44 70 45 69 46 22 48
REMARK SMILES IDX 56 49 35 50 55 51 36 52 39 53 54 54 74 55 37 56 38 57 53 59
REMARK SMILES IDX 75 60 40 61 23 62 24 63 33 64 25 65 26 66 32 67 34 68 27 69
REMARK SMILES IDX 28 70 29 71 30 72 31 73 57 74 58 75 67 76 59 77 60 78 66 79
REMARK SMILES IDX 68 80 61 81 62 82 63 83 64 84 65 85 41 86 42 87 51 88 43 89
REMARK SMILES IDX 44 90 50 91 52 92 45 93 46 94 47 95 48 96 49 97
REMARK H PARENT 6 7 2 15 2 16 11 28 73 47 39 58
REMARK Flexibility Score: inf
ROOT
ATOM      1  C   UNL A   1      33.683  28.315  25.773  1.00  0.00     0.023 C 
ENDROOT
BRANCH   1   2
ATOM      2  C   UNL A   1      33.243  26.960  25.242  1.00  0.00     0.023 C 
BRANCH   2   3
ATOM      3  C   UNL A   1      34.094  25.778  25.677  1.00  0.00     0.116 C 
BRANCH   3   4
ATOM      4  N   UNL A   1      34.727  25.128  24.559  1.00  0.00    -0.351 N 
ATOM      5  C   UNL A   1      35.304  23.910  24.423  1.00  0.00     0.281 C 
ATOM      6  O   UNL A   1      35.817  23.696  23.311  1.00  0.00    -0.268 OA
ATOM      7  H   UNL A   1      34.745  25.672  23.739  1.00  0.00     0.163 HD
BRANCH   5   8
ATOM      8  C   UNL A   1      35.396  22.787  25.547  1.00  0.00     0.179 C 
ATOM      9  C   UNL A   1      35.723  21.384  25.015  1.00  0.00     0.083 C 
ATOM     10  C   UNL A   1      34.054  22.654  26.288  1.00  0.00     0.124 C 
ATOM     11  C   UNL A   1      34.488  20.504  25.182  1.00  0.00     0.052 C 
ATOM     12  C   UNL A   1      33.534  21.209  26.144  1.00  0.00     0.180 C 
BRANCH   8  13
ATOM     13  N   UNL A   1      36.603  23.179  26.345  1.00  0.00    -0.336 N 
ATOM     14  C   UNL A   1      37.910  22.987  25.755  1.00  0.00     0.331 C 
ATOM     15  H   UNL A   1      36.513  24.173  26.560  1.00  0.00     0.346 HD
ATOM     16  H   UNL A   1      36.593  22.545  27.144  1.00  0.00     0.346 HD
ENDBRANCH   8  13
BRANCH  12  17
ATOM     17  O   UNL A   1      32.156  21.353  25.794  1.00  0.00    -0.490 OA
BRANCH  17  18
ATOM     18  C   UNL A   1      31.614  22.346  25.047  1.00  0.00     0.119 A 
ATOM     19  C   UNL A   1      31.725  22.534  23.679  1.00  0.00     0.046 A 
ATOM     20  C   UNL A   1      30.930  23.302  25.814  1.00  0.00     0.049 A 
ATOM     21  C   UNL A   1      31.259  23.722  23.104  1.00  0.00     0.004 A 
ATOM     22  C   UNL A   1      30.494  24.510  25.261  1.00  0.00    -0.047 A 
ATOM     23  C   UNL A   1      30.665  24.711  23.891  1.00  0.00     0.003 A 
ATOM     24  C   UNL A   1      29.889  25.578  26.123  1.00  0.00     0.044 C 
ENDBRANCH  17  18
ENDBRANCH  12  17
ENDBRANCH   5   8
ENDBRANCH   3   4
ENDBRANCH   2   3
ENDBRANCH   1   2
BRANCH   1  25
ATOM     25  C   UNL A   1      33.465  28.532  27.267  1.00  0.00     0.116 C 
BRANCH  25  26
ATOM     26  N   UNL A   1      33.447  29.926  27.701  1.00  0.00    -0.352 N 
ATOM     27  C   UNL A   1      34.506  30.681  28.158  1.00  0.00     0.251 C 
ATOM     28  H   UNL A   1      32.575  30.382  27.662  1.00  0.00     0.163 HD
ATOM     29  O   UNL A   1      34.369  31.858  28.479  1.00  0.00    -0.269 OA
BRANCH  27  30
ATOM     30  C   UNL A   1      35.812  30.022  28.315  1.00  0.00     0.039 A 
ATOM     31  C   UNL A   1      36.716  30.056  27.252  1.00  0.00     0.014 A 
ATOM     32  C   UNL A   1      36.181  29.503  29.558  1.00  0.00     0.014 A 
ATOM     33  C   UNL A   1      38.032  29.648  27.461  1.00  0.00     0.010 A 
ATOM     34  C   UNL A   1      37.510  29.182  29.786  1.00  0.00     0.010 A 
ATOM     35  C   UNL A   1      38.449  29.257  28.742  1.00  0.00    -0.014 A 
BRANCH  35  36
ATOM     36  C   UNL A   1      39.854  28.885  29.033  1.00  0.00     0.031 A 
ATOM     37  C   UNL A   1      40.779  29.935  29.583  1.00  0.00     0.074 A 
ATOM     38  C   UNL A   1      40.317  27.665  28.702  1.00  0.00     0.049 A 
ATOM     39  N   UNL A   1      42.078  29.907  29.713  1.00  0.00    -0.248 NA
ATOM     40  C   UNL A   1      40.158  31.206  29.992  1.00  0.00     0.031 C 
ATOM     41  C   UNL A   1      39.523  26.581  28.118  1.00  0.00     0.029 A 
ATOM     42  N   UNL A   1      41.581  27.137  28.787  1.00  0.00    -0.354 N 
ATOM     43  C   UNL A   1      42.434  31.171  30.167  1.00  0.00     0.074 A 
ATOM     44  C   UNL A   1      41.221  31.952  30.252  1.00  0.00     0.031 C 
ATOM     45  C   UNL A   1      40.314  25.515  27.910  1.00  0.00     0.029 A 
ATOM     46  C   UNL A   1      41.677  25.852  28.309  1.00  0.00     0.049 A 
ATOM     47  H   UNL A   1      42.347  27.633  29.158  1.00  0.00     0.167 HD
ATOM     48  C   UNL A   1      43.662  31.631  30.503  1.00  0.00     0.037 A 
ATOM     49  C   UNL A   1      42.750  25.045  28.193  1.00  0.00     0.037 A 
ATOM     50  C   UNL A   1      44.850  30.822  30.479  1.00  0.00     0.049 A 
ATOM     51  C   UNL A   1      44.094  25.556  28.637  1.00  0.00     0.074 A 
ATOM     52  C   UNL A   1      46.133  31.162  30.865  1.00  0.00     0.029 A 
ATOM     53  N   UNL A   1      44.892  29.499  30.061  1.00  0.00    -0.354 N 
ATOM     54  N   UNL A   1      44.412  26.743  29.095  1.00  0.00    -0.248 NA
ATOM     55  C   UNL A   1      45.223  24.619  28.554  1.00  0.00     0.031 C 
ATOM     56  C   UNL A   1      46.956  30.048  30.665  1.00  0.00     0.029 A 
ATOM     57  C   UNL A   1      46.179  29.006  30.183  1.00  0.00     0.049 A 
ATOM     58  H   UNL A   1      44.120  28.987  29.727  1.00  0.00     0.167 HD
ATOM     59  C   UNL A   1      45.773  26.690  29.376  1.00  0.00     0.074 A 
ATOM     60  C   UNL A   1      46.215  25.350  29.046  1.00  0.00     0.031 C 
ATOM     61  C   UNL A   1      46.584  27.661  29.861  1.00  0.00     0.037 A 
BRANCH  48  62
ATOM     62  C   UNL A   1      43.768  33.067  30.931  1.00  0.00     0.058 A 
ATOM     63  C   UNL A   1      43.946  34.103  29.999  1.00  0.00     0.135 A 
ATOM     64  C   UNL A   1      43.697  33.413  32.290  1.00  0.00     0.135 A 
ATOM     65  F   UNL A   1      44.043  33.825  28.690  1.00  0.00    -0.206 F 
ATOM     66  C   UNL A   1      44.090  35.426  30.402  1.00  0.00     0.059 A 
ATOM     67  C   UNL A   1      43.810  34.734  32.713  1.00  0.00     0.059 A 
ATOM     68  F   UNL A   1      43.531  32.462  33.223  1.00  0.00    -0.206 F 
ATOM     69  C   UNL A   1      44.026  35.731  31.762  1.00  0.00     0.060 A 
BRANCH  69  70
ATOM     70  S   UNL A   1      44.225  37.451  32.273  1.00  0.00     0.124 S 
ATOM     71  O   UNL A   1      44.037  38.153  31.007  1.00  0.00    -0.237 OA
ATOM     72  O   UNL A   1      43.155  37.615  33.252  1.00  0.00    -0.237 OA
ATOM     73  O   UNL A   1      45.579  37.488  32.816  1.00  0.00    -0.744 OA
ENDBRANCH  69  70
ENDBRANCH  48  62
BRANCH  49  74
ATOM     74  C   UNL A   1      42.591  23.665  27.662  1.00  0.00     0.058 A 
ATOM     75  C   UNL A   1      42.678  23.414  26.286  1.00  0.00     0.135 A 
ATOM     76  C   UNL A   1      42.370  22.571  28.514  1.00  0.00     0.135 A 
ATOM     77  F   UNL A   1      42.883  24.428  25.431  1.00  0.00    -0.206 F 
ATOM     78  C   UNL A   1      42.540  22.130  25.767  1.00  0.00     0.059 A 
ATOM     79  C   UNL A   1      42.249  21.275  28.022  1.00  0.00     0.059 A 
ATOM     80  F   UNL A   1      42.296  22.757  29.841  1.00  0.00    -0.206 F 
ATOM     81  C   UNL A   1      42.328  21.065  26.645  1.00  0.00     0.060 A 
BRANCH  81  82
ATOM     82  S   UNL A   1      42.211  19.394  25.969  1.00  0.00     0.124 S 
ATOM     83  O   UNL A   1      40.779  19.281  25.714  1.00  0.00    -0.237 OA
ATOM     84  O   UNL A   1      43.065  19.479  24.788  1.00  0.00    -0.237 OA
ATOM     85  O   UNL A   1      42.729  18.560  27.048  1.00  0.00    -0.744 OA
ENDBRANCH  81  82
ENDBRANCH  49  74
BRANCH  61  86
ATOM     86  C   UNL A   1      48.021  27.300  30.099  1.00  0.00     0.058 A 
ATOM     87  C   UNL A   1      49.011  27.556  29.139  1.00  0.00     0.135 A 
ATOM     88  C   UNL A   1      48.418  26.750  31.328  1.00  0.00     0.135 A 
ATOM     89  F   UNL A   1      48.678  28.076  27.947  1.00  0.00    -0.206 F 
ATOM     90  C   UNL A   1      50.348  27.264  29.384  1.00  0.00     0.059 A 
ATOM     91  C   UNL A   1      49.752  26.470  31.602  1.00  0.00     0.059 A 
ATOM     92  F   UNL A   1      47.508  26.497  32.282  1.00  0.00    -0.206 F 
ATOM     93  C   UNL A   1      50.709  26.722  30.619  1.00  0.00     0.060 A 
BRANCH  93  94
ATOM     94  S   UNL A   1      52.453  26.387  30.943  1.00  0.00     0.124 S 
ATOM     95  O   UNL A   1      52.996  26.331  29.591  1.00  0.00    -0.237 OA
ATOM     96  O   UNL A   1      52.853  27.543  31.740  1.00  0.00    -0.237 OA
ATOM     97  O   UNL A   1      52.425  25.118  31.664  1.00  0.00    -0.744 OA
ENDBRANCH  93  94
ENDBRANCH  61  86
ENDBRANCH  35  36
ENDBRANCH  27  30
ENDBRANCH  25  26
ENDBRANCH   1  25
TORSDOF 17
ENDMDL
MODEL 3
REMARK VINA RESULT:     -11.0      1.294      3.371
REMARK SMILES C[NH2+][C@@]1(C(=O)NCCCCNC(=O)c2ccc(-c3c4nc(c(-c5c(F)cc(S(=O)(=O)[O-])cc5F)c5ccc([nH]5)c(-c5c(F)cc(S(=O)(=O)[O-])cc5F)c5nc(c(-c6c(F)cc(S(=O)(=O)[O-])cc6F)c6ccc3[nH]6)C=C5)C=C4)cc2)CC[C@H](Oc2cccc(C)c2)C1
REMARK SMILES IDX 9 1 8 2 7 3 6 4 4 5 5 6 3 8 80 9 91 10 81 11 82 12 2 13 1 14
REMARK SMILES IDX 83 17 84 18 85 19 90 20 86 21 88 22 87 23 89 24 10 25 11 26
REMARK SMILES IDX 12 27 13 29 14 30 15 31 79 32 16 33 78 34 17 35 18 36 19 37
REMARK SMILES IDX 72 38 20 39 77 40 71 41 73 42 21 43 76 44 70 45 69 46 22 48
REMARK SMILES IDX 56 49 35 50 55 51 36 52 39 53 54 54 74 55 37 56 38 57 53 59
REMARK SMILES IDX 75 60 40 61 23 62 24 63 33 64 25 65 26 66 32 67 34 68 27 69
REMARK SMILES IDX 28 70 29 71 30 72 31 73 57 74 58 75 67 76 59 77 60 78 66 79
REMARK SMILES IDX 68 80 61 81 62 82 63 83 64 84 65 85 41 86 42 87 51 88 43 89
REMARK SMILES IDX 44 90 50 91 52 92 45 93 46 94 47 95 48 96 49 97
REMARK H PARENT 6 7 2 15 2 16 11 28 73 47 39 58
REMARK Flexibility Score: inf
ROOT
ATOM      1  C   UNL A   1      33.784  28.540  25.745  1.00  0.00     0.023 C 
ENDROOT
BRANCH   1   2
ATOM      2  C   UNL A   1      33.192  27.316  25.065  1.00  0.00     0.023 C 
BRANCH   2   3
ATOM      3  C   UNL A   1      33.400  25.998  25.792  1.00  0.00     0.116 C 
BRANCH   3   4
ATOM      4  N   UNL A   1      34.414  25.189  25.166  1.00  0.00    -0.351 N 
ATOM      5  C   UNL A   1      34.345  24.062  24.418  1.00  0.00     0.281 C 
ATOM      6  O   UNL A   1      35.445  23.588  24.086  1.00  0.00    -0.268 OA
ATOM      7  H   UNL A   1      35.330  25.517  25.310  1.00  0.00     0.163 HD
BRANCH   5   8
ATOM      8  C   UNL A   1      33.012  23.315  23.973  1.00  0.00     0.179 C 
ATOM      9  C   UNL A   1      32.051  22.996  25.127  1.00  0.00     0.083 C 
ATOM     10  C   UNL A   1      33.344  21.963  23.316  1.00  0.00     0.124 C 
ATOM     11  C   UNL A   1      32.030  21.485  25.336  1.00  0.00     0.052 C 
ATOM     12  C   UNL A   1      32.655  20.832  24.106  1.00  0.00     0.180 C 
BRANCH   8  13
ATOM     13  N   UNL A   1      32.288  24.337  23.150  1.00  0.00    -0.336 N 
ATOM     14  C   UNL A   1      32.916  24.817  21.938  1.00  0.00     0.331 C 
ATOM     15  H   UNL A   1      31.391  23.929  22.883  1.00  0.00     0.346 HD
ATOM     16  H   UNL A   1      32.244  25.159  23.752  1.00  0.00     0.346 HD
ENDBRANCH   8  13
BRANCH  12  17
ATOM     17  O   UNL A   1      33.669  19.838  24.271  1.00  0.00    -0.490 OA
BRANCH  17  18
ATOM     18  C   UNL A   1      33.471  18.517  24.503  1.00  0.00     0.119 A 
ATOM     19  C   UNL A   1      32.264  17.854  24.659  1.00  0.00     0.046 A 
ATOM     20  C   UNL A   1      34.668  17.801  24.665  1.00  0.00     0.049 A 
ATOM     21  C   UNL A   1      32.256  16.521  25.086  1.00  0.00     0.004 A 
ATOM     22  C   UNL A   1      34.676  16.482  25.128  1.00  0.00    -0.047 A 
ATOM     23  C   UNL A   1      33.453  15.845  25.336  1.00  0.00     0.003 A 
ATOM     24  C   UNL A   1      35.967  15.778  25.427  1.00  0.00     0.044 C 
ENDBRANCH  17  18
ENDBRANCH  12  17
ENDBRANCH   5   8
ENDBRANCH   3   4
ENDBRANCH   2   3
ENDBRANCH   1   2
BRANCH   1  25
ATOM     25  C   UNL A   1      33.520  28.645  27.244  1.00  0.00     0.116 C 
BRANCH  25  26
ATOM     26  N   UNL A   1      33.483  30.004  27.779  1.00  0.00    -0.352 N 
ATOM     27  C   UNL A   1      34.528  30.730  28.307  1.00  0.00     0.251 C 
ATOM     28  H   UNL A   1      32.608  30.454  27.760  1.00  0.00     0.163 HD
ATOM     29  O   UNL A   1      34.376  31.879  28.712  1.00  0.00    -0.269 OA
BRANCH  27  30
ATOM     30  C   UNL A   1      35.838  30.071  28.437  1.00  0.00     0.039 A 
ATOM     31  C   UNL A   1      36.730  30.130  27.364  1.00  0.00     0.014 A 
ATOM     32  C   UNL A   1      36.220  29.525  29.664  1.00  0.00     0.014 A 
ATOM     33  C   UNL A   1      38.049  29.720  27.551  1.00  0.00     0.010 A 
ATOM     34  C   UNL A   1      37.552  29.203  29.871  1.00  0.00     0.010 A 
ATOM     35  C   UNL A   1      38.480  29.302  28.819  1.00  0.00    -0.014 A 
BRANCH  35  36
ATOM     36  C   UNL A   1      39.888  28.927  29.088  1.00  0.00     0.031 A 
ATOM     37  C   UNL A   1      40.824  29.974  29.624  1.00  0.00     0.074 A 
ATOM     38  C   UNL A   1      40.344  27.706  28.747  1.00  0.00     0.049 A 
ATOM     39  N   UNL A   1      42.125  29.943  29.733  1.00  0.00    -0.248 NA
ATOM     40  C   UNL A   1      40.213  31.246  30.044  1.00  0.00     0.031 C 
ATOM     41  C   UNL A   1      39.539  26.625  28.174  1.00  0.00     0.029 A 
ATOM     42  N   UNL A   1      41.608  27.176  28.812  1.00  0.00    -0.354 N 
ATOM     43  C   UNL A   1      42.491  31.206  30.183  1.00  0.00     0.074 A 
ATOM     44  C   UNL A   1      41.281  31.990  30.288  1.00  0.00     0.031 C 
ATOM     45  C   UNL A   1      40.325  25.558  27.953  1.00  0.00     0.029 A 
ATOM     46  C   UNL A   1      41.694  25.891  28.330  1.00  0.00     0.049 A 
ATOM     47  H   UNL A   1      42.381  27.670  29.171  1.00  0.00     0.167 HD
ATOM     48  C   UNL A   1      43.725  31.663  30.500  1.00  0.00     0.037 A 
ATOM     49  C   UNL A   1      42.764  25.082  28.196  1.00  0.00     0.037 A 
ATOM     50  C   UNL A   1      44.911  30.852  30.457  1.00  0.00     0.049 A 
ATOM     51  C   UNL A   1      44.115  25.589  28.619  1.00  0.00     0.074 A 
ATOM     52  C   UNL A   1      46.200  31.188  30.823  1.00  0.00     0.029 A 
ATOM     53  N   UNL A   1      44.944  29.529  30.036  1.00  0.00    -0.354 N 
ATOM     54  N   UNL A   1      44.443  26.776  29.074  1.00  0.00    -0.248 NA
ATOM     55  C   UNL A   1      45.241  24.651  28.517  1.00  0.00     0.031 C 
ATOM     56  C   UNL A   1      47.018  30.074  30.608  1.00  0.00     0.029 A 
ATOM     57  C   UNL A   1      46.232  29.034  30.137  1.00  0.00     0.049 A 
ATOM     58  H   UNL A   1      44.165  29.019  29.714  1.00  0.00     0.167 HD
ATOM     59  C   UNL A   1      45.808  26.719  29.333  1.00  0.00     0.074 A 
ATOM     60  C   UNL A   1      46.242  25.379  28.994  1.00  0.00     0.031 C 
ATOM     61  C   UNL A   1      46.629  27.688  29.807  1.00  0.00     0.037 A 
BRANCH  48  62
ATOM     62  C   UNL A   1      43.841  33.099  30.929  1.00  0.00     0.058 A 
ATOM     63  C   UNL A   1      44.096  34.125  30.005  1.00  0.00     0.135 A 
ATOM     64  C   UNL A   1      43.701  33.452  32.280  1.00  0.00     0.135 A 
ATOM     65  F   UNL A   1      44.261  33.838  28.704  1.00  0.00    -0.206 F 
ATOM     66  C   UNL A   1      44.249  35.446  30.410  1.00  0.00     0.059 A 
ATOM     67  C   UNL A   1      43.821  34.772  32.704  1.00  0.00     0.059 A 
ATOM     68  F   UNL A   1      43.460  32.511  33.205  1.00  0.00    -0.206 F 
ATOM     69  C   UNL A   1      44.115  35.760  31.764  1.00  0.00     0.060 A 
BRANCH  69  70
ATOM     70  S   UNL A   1      44.326  37.477  32.279  1.00  0.00     0.124 S 
ATOM     71  O   UNL A   1      43.323  37.589  33.333  1.00  0.00    -0.237 OA
ATOM     72  O   UNL A   1      45.716  37.504  32.723  1.00  0.00    -0.237 OA
ATOM     73  O   UNL A   1      44.046  38.231  31.061  1.00  0.00    -0.744 OA
ENDBRANCH  69  70
ENDBRANCH  48  62
BRANCH  49  74
ATOM     74  C   UNL A   1      42.593  23.703  27.666  1.00  0.00     0.058 A 
ATOM     75  C   UNL A   1      42.618  23.460  26.285  1.00  0.00     0.135 A 
ATOM     76  C   UNL A   1      42.423  22.603  28.521  1.00  0.00     0.135 A 
ATOM     77  F   UNL A   1      42.773  24.480  25.428  1.00  0.00    -0.206 F 
ATOM     78  C   UNL A   1      42.469  22.177  25.767  1.00  0.00     0.059 A 
ATOM     79  C   UNL A   1      42.291  21.308  28.028  1.00  0.00     0.059 A 
ATOM     80  F   UNL A   1      42.409  22.782  29.851  1.00  0.00    -0.206 F 
ATOM     81  C   UNL A   1      42.308  21.106  26.648  1.00  0.00     0.060 A 
BRANCH  81  82
ATOM     82  S   UNL A   1      42.176  19.437  25.969  1.00  0.00     0.124 S 
ATOM     83  O   UNL A   1      42.684  18.630  27.072  1.00  0.00    -0.237 OA
ATOM     84  O   UNL A   1      40.745  19.326  25.702  1.00  0.00    -0.237 OA
ATOM     85  O   UNL A   1      43.023  19.492  24.782  1.00  0.00    -0.744 OA
ENDBRANCH  81  82
ENDBRANCH  49  74
BRANCH  61  86
ATOM     86  C   UNL A   1      48.069  27.324  30.021  1.00  0.00     0.058 A 
ATOM     87  C   UNL A   1      49.023  27.473  29.004  1.00  0.00     0.135 A 
ATOM     88  C   UNL A   1      48.507  26.881  31.280  1.00  0.00     0.135 A 
ATOM     89  F   UNL A   1      48.650  27.888  27.783  1.00  0.00    -0.206 F 
ATOM     90  C   UNL A   1      50.365  27.180  29.223  1.00  0.00     0.059 A 
ATOM     91  C   UNL A   1      49.846  26.604  31.527  1.00  0.00     0.059 A 
ATOM     92  F   UNL A   1      47.632  26.734  32.287  1.00  0.00    -0.206 F 
ATOM     93  C   UNL A   1      50.767  26.746  30.488  1.00  0.00     0.060 A 
BRANCH  93  94
ATOM     94  S   UNL A   1      52.517  26.410  30.775  1.00  0.00     0.124 S 
ATOM     95  O   UNL A   1      53.016  26.277  29.411  1.00  0.00    -0.237 OA
ATOM     96  O   UNL A   1      52.953  27.602  31.495  1.00  0.00    -0.237 OA
ATOM     97  O   UNL A   1      52.501  25.181  31.563  1.00  0.00    -0.744 OA
ENDBRANCH  93  94
ENDBRANCH  61  86
ENDBRANCH  35  36
ENDBRANCH  27  30
ENDBRANCH  25  26
ENDBRANCH   1  25
TORSDOF 17
ENDMDL
