MODEL 1
REMARK VINA RESULT:     -12.1      0.000      0.000
REMARK SMILES CCn1cnc(S(=O)(=O)N2CCC(C)(C(=O)NCCCCNC(=O)c3ccc(-c4c5nc(c(-c6c(F)cc(S(=O)(=O)[O-])cc6F)c6ccc([nH]6)c(-c6c(F)cc(S(=O)(=O)[O-])cc6F)c6nc(c(-c7c(F)cc(S(=O)(=O)[O-])cc7F)c7ccc4[nH]7)C=C6)C=C5)cc3)CC2)c1
REMARK SMILES IDX 19 1 18 2 17 3 15 4 16 5 13 7 10 8 11 9 92 10 12 11 91 12
REMARK SMILES IDX 14 13 7 14 8 15 9 16 6 17 3 18 4 19 93 20 5 21 2 22 1 23
REMARK SMILES IDX 20 24 21 25 22 26 23 27 24 29 25 30 26 31 90 32 27 33 89 34
REMARK SMILES IDX 28 35 29 36 30 37 83 38 31 39 88 40 82 41 84 42 32 43 87 44
REMARK SMILES IDX 81 45 80 46 33 48 67 49 46 50 66 51 47 52 50 53 65 54 85 55
REMARK SMILES IDX 48 56 49 57 64 59 86 60 51 61 34 62 35 63 44 64 36 65 37 66
REMARK SMILES IDX 43 67 45 68 38 69 39 70 40 71 41 72 42 73 68 74 69 75 78 76
REMARK SMILES IDX 70 77 71 78 77 79 79 80 72 81 73 82 74 83 75 84 76 85 52 86
REMARK SMILES IDX 53 87 62 88 54 89 55 90 61 91 63 92 56 93 57 94 58 95 59 96
REMARK SMILES IDX 60 97
REMARK H PARENT 17 6 22 28 84 47 50 58
REMARK Flexibility Score: inf
ROOT
ATOM      1  C   UNL A   1      39.040  21.665  26.021  1.00  0.00     0.023 C 
ENDROOT
BRANCH   1   2
ATOM      2  C   UNL A   1      37.545  21.790  25.708  1.00  0.00     0.116 C 
BRANCH   2   3
ATOM      3  N   UNL A   1      37.292  22.417  24.413  1.00  0.00    -0.356 N 
ATOM      4  C   UNL A   1      36.146  22.650  23.708  1.00  0.00     0.226 C 
ATOM      5  O   UNL A   1      36.269  23.110  22.571  1.00  0.00    -0.275 OA
ATOM      6  H   UNL A   1      38.108  22.733  23.961  1.00  0.00     0.163 HD
BRANCH   4   7
ATOM      7  C   UNL A   1      34.758  22.341  24.301  1.00  0.00     0.049 C 
ATOM      8  N   UNL A   1      33.003  24.658  24.726  1.00  0.00    -0.196 NA
ATOM      9  C   UNL A   1      33.311  24.273  23.355  1.00  0.00     0.103 C 
ATOM     10  C   UNL A   1      34.137  24.505  25.643  1.00  0.00     0.103 C 
ATOM     11  C   UNL A   1      33.675  22.795  23.280  1.00  0.00     0.033 C 
ATOM     12  C   UNL A   1      34.584  23.050  25.691  1.00  0.00     0.033 C 
ATOM     13  C   UNL A   1      34.728  20.821  24.628  1.00  0.00     0.022 C 
BRANCH   8  14
ATOM     14  S   UNL A   1      31.411  24.850  25.271  1.00  0.00     0.262 S 
ATOM     15  O   UNL A   1      31.482  25.253  26.671  1.00  0.00    -0.205 OA
ATOM     16  O   UNL A   1      30.639  23.714  24.846  1.00  0.00    -0.205 OA
BRANCH  14  17
ATOM     17  C   UNL A   1      30.629  26.223  24.501  1.00  0.00     0.188 A 
ATOM     18  N   UNL A   1      30.167  28.268  23.850  1.00  0.00    -0.336 N 
ATOM     19  C   UNL A   1      29.150  27.437  23.491  1.00  0.00     0.201 A 
ATOM     20  C   UNL A   1      31.130  27.496  24.420  1.00  0.00     0.129 A 
ATOM     21  N   UNL A   1      29.378  26.199  23.890  1.00  0.00    -0.224 NA
BRANCH  18  22
ATOM     22  C   UNL A   1      30.274  29.704  23.675  1.00  0.00     0.120 C 
ATOM     23  C   UNL A   1      29.006  30.313  23.090  1.00  0.00     0.027 C 
ENDBRANCH  18  22
ENDBRANCH  14  17
ENDBRANCH   8  14
ENDBRANCH   4   7
ENDBRANCH   2   3
ENDBRANCH   1   2
BRANCH   1  24
ATOM     24  C   UNL A   1      39.622  22.747  26.932  1.00  0.00     0.023 C 
BRANCH  24  25
ATOM     25  C   UNL A   1      41.028  22.451  27.428  1.00  0.00     0.116 C 
BRANCH  25  26
ATOM     26  N   UNL A   1      42.008  22.398  26.343  1.00  0.00    -0.352 N 
ATOM     27  C   UNL A   1      42.527  23.455  25.618  1.00  0.00     0.251 C 
ATOM     28  H   UNL A   1      42.340  21.502  26.101  1.00  0.00     0.163 HD
ATOM     29  O   UNL A   1      43.040  23.276  24.520  1.00  0.00    -0.269 OA
BRANCH  27  30
ATOM     30  C   UNL A   1      42.455  24.800  26.208  1.00  0.00     0.039 A 
ATOM     31  C   UNL A   1      41.484  25.725  25.817  1.00  0.00     0.014 A 
ATOM     32  C   UNL A   1      43.354  25.091  27.229  1.00  0.00     0.014 A 
ATOM     33  C   UNL A   1      41.374  26.917  26.530  1.00  0.00     0.010 A 
ATOM     34  C   UNL A   1      43.134  26.178  28.031  1.00  0.00     0.010 A 
ATOM     35  C   UNL A   1      42.190  27.126  27.652  1.00  0.00    -0.014 A 
BRANCH  35  36
ATOM     36  C   UNL A   1      41.999  28.287  28.516  1.00  0.00     0.031 A 
ATOM     37  C   UNL A   1      43.100  29.287  28.443  1.00  0.00     0.074 A 
ATOM     38  C   UNL A   1      40.814  28.551  29.111  1.00  0.00     0.049 A 
ATOM     39  N   UNL A   1      43.981  29.571  29.344  1.00  0.00    -0.248 NA
ATOM     40  C   UNL A   1      43.363  29.933  27.144  1.00  0.00     0.031 C 
ATOM     41  C   UNL A   1      39.548  27.818  28.939  1.00  0.00     0.029 A 
ATOM     42  N   UNL A   1      40.438  29.603  29.888  1.00  0.00    -0.354 N 
ATOM     43  C   UNL A   1      44.724  30.629  28.821  1.00  0.00     0.074 A 
ATOM     44  C   UNL A   1      44.470  30.632  27.408  1.00  0.00     0.031 C 
ATOM     45  C   UNL A   1      38.518  28.585  29.357  1.00  0.00     0.029 A 
ATOM     46  C   UNL A   1      39.061  29.760  30.009  1.00  0.00     0.049 A 
ATOM     47  H   UNL A   1      41.085  30.203  30.327  1.00  0.00     0.167 HD
ATOM     48  C   UNL A   1      45.219  31.604  29.637  1.00  0.00     0.037 A 
ATOM     49  C   UNL A   1      38.402  30.792  30.588  1.00  0.00     0.037 A 
ATOM     50  C   UNL A   1      45.099  31.205  31.016  1.00  0.00     0.049 A 
ATOM     51  C   UNL A   1      39.355  31.450  31.512  1.00  0.00     0.074 A 
ATOM     52  C   UNL A   1      45.695  30.283  31.847  1.00  0.00     0.029 A 
ATOM     53  N   UNL A   1      43.918  31.586  31.601  1.00  0.00    -0.354 N 
ATOM     54  N   UNL A   1      39.884  30.855  32.550  1.00  0.00    -0.248 NA
ATOM     55  C   UNL A   1      40.036  32.665  31.082  1.00  0.00     0.031 C 
ATOM     56  C   UNL A   1      44.717  29.956  32.830  1.00  0.00     0.029 A 
ATOM     57  C   UNL A   1      43.574  30.724  32.605  1.00  0.00     0.049 A 
ATOM     58  H   UNL A   1      43.391  32.373  31.334  1.00  0.00     0.167 HD
ATOM     59  C   UNL A   1      41.167  31.365  32.628  1.00  0.00     0.074 A 
ATOM     60  C   UNL A   1      41.144  32.577  31.820  1.00  0.00     0.031 C 
ATOM     61  C   UNL A   1      42.204  30.593  33.065  1.00  0.00     0.037 A 
BRANCH  48  62
ATOM     62  C   UNL A   1      45.345  33.078  29.284  1.00  0.00     0.058 A 
ATOM     63  C   UNL A   1      44.205  33.762  28.799  1.00  0.00     0.135 A 
ATOM     64  C   UNL A   1      46.570  33.756  29.102  1.00  0.00     0.135 A 
ATOM     65  F   UNL A   1      42.982  33.220  28.912  1.00  0.00    -0.206 F 
ATOM     66  C   UNL A   1      44.289  34.979  28.117  1.00  0.00     0.059 A 
ATOM     67  C   UNL A   1      46.670  34.993  28.472  1.00  0.00     0.059 A 
ATOM     68  F   UNL A   1      47.748  33.217  29.435  1.00  0.00    -0.206 F 
ATOM     69  C   UNL A   1      45.531  35.578  27.946  1.00  0.00     0.060 A 
BRANCH  69  70
ATOM     70  S   UNL A   1      45.663  37.100  26.991  1.00  0.00     0.124 S 
ATOM     71  O   UNL A   1      44.263  37.488  26.866  1.00  0.00    -0.237 OA
ATOM     72  O   UNL A   1      46.485  37.934  27.861  1.00  0.00    -0.237 OA
ATOM     73  O   UNL A   1      46.310  36.665  25.757  1.00  0.00    -0.744 OA
ENDBRANCH  69  70
ENDBRANCH  48  62
BRANCH  49  74
ATOM     74  C   UNL A   1      37.118  31.405  30.159  1.00  0.00     0.058 A 
ATOM     75  C   UNL A   1      36.162  31.845  31.091  1.00  0.00     0.135 A 
ATOM     76  C   UNL A   1      36.922  31.820  28.825  1.00  0.00     0.135 A 
ATOM     77  F   UNL A   1      36.283  31.513  32.385  1.00  0.00    -0.206 F 
ATOM     78  C   UNL A   1      35.099  32.681  30.730  1.00  0.00     0.059 A 
ATOM     79  C   UNL A   1      35.868  32.648  28.441  1.00  0.00     0.059 A 
ATOM     80  F   UNL A   1      37.805  31.498  27.867  1.00  0.00    -0.206 F 
ATOM     81  C   UNL A   1      34.970  33.093  29.404  1.00  0.00     0.060 A 
BRANCH  81  82
ATOM     82  S   UNL A   1      33.688  34.291  28.963  1.00  0.00     0.124 S 
ATOM     83  O   UNL A   1      34.476  35.381  28.397  1.00  0.00    -0.237 OA
ATOM     84  O   UNL A   1      32.872  33.535  28.020  1.00  0.00    -0.237 OA
ATOM     85  O   UNL A   1      33.047  34.587  30.243  1.00  0.00    -0.744 OA
ENDBRANCH  81  82
ENDBRANCH  49  74
BRANCH  61  86
ATOM     86  C   UNL A   1      41.901  29.440  33.977  1.00  0.00     0.058 A 
ATOM     87  C   UNL A   1      41.653  28.121  33.568  1.00  0.00     0.135 A 
ATOM     88  C   UNL A   1      42.021  29.679  35.355  1.00  0.00     0.135 A 
ATOM     89  F   UNL A   1      41.596  27.800  32.267  1.00  0.00    -0.206 F 
ATOM     90  C   UNL A   1      41.521  27.084  34.496  1.00  0.00     0.059 A 
ATOM     91  C   UNL A   1      41.926  28.660  36.293  1.00  0.00     0.059 A 
ATOM     92  F   UNL A   1      42.303  30.915  35.800  1.00  0.00    -0.206 F 
ATOM     93  C   UNL A   1      41.670  27.363  35.857  1.00  0.00     0.060 A 
BRANCH  93  94
ATOM     94  S   UNL A   1      41.606  26.012  37.053  1.00  0.00     0.124 S 
ATOM     95  O   UNL A   1      41.719  24.838  36.195  1.00  0.00    -0.237 OA
ATOM     96  O   UNL A   1      42.759  26.289  37.905  1.00  0.00    -0.237 OA
ATOM     97  O   UNL A   1      40.309  26.189  37.700  1.00  0.00    -0.744 OA
ENDBRANCH  93  94
ENDBRANCH  61  86
ENDBRANCH  35  36
ENDBRANCH  27  30
ENDBRANCH  25  26
ENDBRANCH  24  25
ENDBRANCH   1  24
TORSDOF 17
ENDMDL
MODEL 2
REMARK VINA RESULT:     -12.0      2.648      9.239
REMARK SMILES CCn1cnc(S(=O)(=O)N2CCC(C)(C(=O)NCCCCNC(=O)c3ccc(-c4c5nc(c(-c6c(F)cc(S(=O)(=O)[O-])cc6F)c6ccc([nH]6)c(-c6c(F)cc(S(=O)(=O)[O-])cc6F)c6nc(c(-c7c(F)cc(S(=O)(=O)[O-])cc7F)c7ccc4[nH]7)C=C6)C=C5)cc3)CC2)c1
REMARK SMILES IDX 19 1 18 2 17 3 15 4 16 5 13 7 10 8 11 9 92 10 12 11 91 12
REMARK SMILES IDX 14 13 7 14 8 15 9 16 6 17 3 18 4 19 93 20 5 21 2 22 1 23
REMARK SMILES IDX 20 24 21 25 22 26 23 27 24 29 25 30 26 31 90 32 27 33 89 34
REMARK SMILES IDX 28 35 29 36 30 37 83 38 31 39 88 40 82 41 84 42 32 43 87 44
REMARK SMILES IDX 81 45 80 46 33 48 67 49 46 50 66 51 47 52 50 53 65 54 85 55
REMARK SMILES IDX 48 56 49 57 64 59 86 60 51 61 34 62 35 63 44 64 36 65 37 66
REMARK SMILES IDX 43 67 45 68 38 69 39 70 40 71 41 72 42 73 68 74 69 75 78 76
REMARK SMILES IDX 70 77 71 78 77 79 79 80 72 81 73 82 74 83 75 84 76 85 52 86
REMARK SMILES IDX 53 87 62 88 54 89 55 90 61 91 63 92 56 93 57 94 58 95 59 96
REMARK SMILES IDX 60 97
REMARK H PARENT 17 6 22 28 84 47 50 58
REMARK Flexibility Score: inf
ROOT
ATOM      1  C   UNL A   1      35.144  30.784  27.754  1.00  0.00     0.023 C 
ENDROOT
BRANCH   1   2
ATOM      2  C   UNL A   1      34.571  29.468  27.218  1.00  0.00     0.116 C 
BRANCH   2   3
ATOM      3  N   UNL A   1      34.081  29.584  25.847  1.00  0.00    -0.356 N 
ATOM      4  C   UNL A   1      33.155  28.877  25.134  1.00  0.00     0.226 C 
ATOM      5  O   UNL A   1      33.038  29.151  23.938  1.00  0.00    -0.275 OA
ATOM      6  H   UNL A   1      34.501  30.314  25.339  1.00  0.00     0.163 HD
BRANCH   4   7
ATOM      7  C   UNL A   1      32.301  27.776  25.791  1.00  0.00     0.049 C 
ATOM      8  N   UNL A   1      32.155  25.229  24.335  1.00  0.00    -0.196 NA
ATOM      9  C   UNL A   1      33.432  25.610  24.925  1.00  0.00     0.103 C 
ATOM     10  C   UNL A   1      31.412  26.361  23.772  1.00  0.00     0.103 C 
ATOM     11  C   UNL A   1      33.221  26.559  26.098  1.00  0.00     0.033 C 
ATOM     12  C   UNL A   1      31.101  27.380  24.859  1.00  0.00     0.033 C 
ATOM     13  C   UNL A   1      31.634  28.403  27.047  1.00  0.00     0.022 C 
BRANCH   8  14
ATOM     14  S   UNL A   1      31.432  23.730  24.646  1.00  0.00     0.262 S 
ATOM     15  O   UNL A   1      30.530  23.450  23.535  1.00  0.00    -0.205 OA
ATOM     16  O   UNL A   1      30.984  23.710  26.012  1.00  0.00    -0.205 OA
BRANCH  14  17
ATOM     17  C   UNL A   1      32.600  22.420  24.550  1.00  0.00     0.188 A 
ATOM     18  N   UNL A   1      33.487  20.411  24.508  1.00  0.00    -0.336 N 
ATOM     19  C   UNL A   1      34.477  21.344  24.547  1.00  0.00     0.201 A 
ATOM     20  C   UNL A   1      32.308  21.085  24.436  1.00  0.00     0.129 A 
ATOM     21  N   UNL A   1      33.984  22.567  24.602  1.00  0.00    -0.224 NA
BRANCH  18  22
ATOM     22  C   UNL A   1      33.596  18.965  24.522  1.00  0.00     0.120 C 
ATOM     23  C   UNL A   1      32.697  18.307  23.483  1.00  0.00     0.027 C 
ENDBRANCH  18  22
ENDBRANCH  14  17
ENDBRANCH   8  14
ENDBRANCH   4   7
ENDBRANCH   2   3
ENDBRANCH   1   2
BRANCH   1  24
ATOM     24  C   UNL A   1      34.168  31.959  27.816  1.00  0.00     0.023 C 
BRANCH  24  25
ATOM     25  C   UNL A   1      34.833  33.310  28.020  1.00  0.00     0.116 C 
BRANCH  25  26
ATOM     26  N   UNL A   1      34.349  34.002  29.215  1.00  0.00    -0.352 N 
ATOM     27  C   UNL A   1      34.623  33.702  30.537  1.00  0.00     0.251 C 
ATOM     28  H   UNL A   1      33.757  34.774  29.059  1.00  0.00     0.163 HD
ATOM     29  O   UNL A   1      33.894  34.097  31.438  1.00  0.00    -0.269 OA
BRANCH  27  30
ATOM     30  C   UNL A   1      35.823  32.905  30.830  1.00  0.00     0.039 A 
ATOM     31  C   UNL A   1      35.743  31.559  31.195  1.00  0.00     0.014 A 
ATOM     32  C   UNL A   1      37.055  33.530  30.660  1.00  0.00     0.014 A 
ATOM     33  C   UNL A   1      36.922  30.825  31.301  1.00  0.00     0.010 A 
ATOM     34  C   UNL A   1      38.192  32.772  30.596  1.00  0.00     0.010 A 
ATOM     35  C   UNL A   1      38.144  31.435  30.977  1.00  0.00    -0.014 A 
BRANCH  35  36
ATOM     36  C   UNL A   1      39.381  30.662  30.922  1.00  0.00     0.031 A 
ATOM     37  C   UNL A   1      40.031  30.460  32.246  1.00  0.00     0.074 A 
ATOM     38  C   UNL A   1      39.745  29.970  29.818  1.00  0.00     0.049 A 
ATOM     39  N   UNL A   1      41.133  30.975  32.680  1.00  0.00    -0.248 NA
ATOM     40  C   UNL A   1      39.279  29.731  33.283  1.00  0.00     0.031 C 
ATOM     41  C   UNL A   1      38.972  29.801  28.577  1.00  0.00     0.029 A 
ATOM     42  N   UNL A   1      40.815  29.155  29.608  1.00  0.00    -0.354 N 
ATOM     43  C   UNL A   1      41.345  30.405  33.935  1.00  0.00     0.074 A 
ATOM     44  C   UNL A   1      40.079  29.865  34.343  1.00  0.00     0.031 C 
ATOM     45  C   UNL A   1      39.455  28.750  27.880  1.00  0.00     0.029 A 
ATOM     46  C   UNL A   1      40.681  28.309  28.513  1.00  0.00     0.049 A 
ATOM     47  H   UNL A   1      41.615  29.163  30.183  1.00  0.00     0.167 HD
ATOM     48  C   UNL A   1      42.608  30.142  34.376  1.00  0.00     0.037 A 
ATOM     49  C   UNL A   1      41.508  27.298  28.152  1.00  0.00     0.037 A 
ATOM     50  C   UNL A   1      43.577  30.779  33.521  1.00  0.00     0.049 A 
ATOM     51  C   UNL A   1      42.820  27.567  28.787  1.00  0.00     0.074 A 
ATOM     52  C   UNL A   1      43.993  32.065  33.265  1.00  0.00     0.029 A 
ATOM     53  N   UNL A   1      43.988  29.994  32.473  1.00  0.00    -0.354 N 
ATOM     54  N   UNL A   1      43.552  28.618  28.520  1.00  0.00    -0.248 NA
ATOM     55  C   UNL A   1      43.171  26.864  30.016  1.00  0.00     0.031 C 
ATOM     56  C   UNL A   1      44.463  32.062  31.919  1.00  0.00     0.029 A 
ATOM     57  C   UNL A   1      44.369  30.766  31.411  1.00  0.00     0.049 A 
ATOM     58  H   UNL A   1      44.007  29.010  32.486  1.00  0.00     0.167 HD
ATOM     59  C   UNL A   1      44.144  28.945  29.726  1.00  0.00     0.074 A 
ATOM     60  C   UNL A   1      44.012  27.751  30.551  1.00  0.00     0.031 C 
ATOM     61  C   UNL A   1      44.394  30.245  30.056  1.00  0.00     0.037 A 
BRANCH  48  62
ATOM     62  C   UNL A   1      43.020  28.952  35.231  1.00  0.00     0.058 A 
ATOM     63  C   UNL A   1      43.817  29.181  36.377  1.00  0.00     0.135 A 
ATOM     64  C   UNL A   1      42.938  27.604  34.819  1.00  0.00     0.135 A 
ATOM     65  F   UNL A   1      43.973  30.421  36.866  1.00  0.00    -0.206 F 
ATOM     66  C   UNL A   1      44.539  28.164  37.009  1.00  0.00     0.059 A 
ATOM     67  C   UNL A   1      43.607  26.569  35.465  1.00  0.00     0.059 A 
ATOM     68  F   UNL A   1      42.288  27.227  33.713  1.00  0.00    -0.206 F 
ATOM     69  C   UNL A   1      44.438  26.862  36.533  1.00  0.00     0.060 A 
BRANCH  69  70
ATOM     70  S   UNL A   1      45.433  25.560  37.282  1.00  0.00     0.124 S 
ATOM     71  O   UNL A   1      46.311  26.329  38.155  1.00  0.00    -0.237 OA
ATOM     72  O   UNL A   1      44.419  24.747  37.944  1.00  0.00    -0.237 OA
ATOM     73  O   UNL A   1      46.078  24.931  36.133  1.00  0.00    -0.744 OA
ENDBRANCH  69  70
ENDBRANCH  48  62
BRANCH  49  74
ATOM     74  C   UNL A   1      41.137  25.989  27.555  1.00  0.00     0.058 A 
ATOM     75  C   UNL A   1      41.945  25.361  26.592  1.00  0.00     0.135 A 
ATOM     76  C   UNL A   1      40.115  25.198  28.120  1.00  0.00     0.135 A 
ATOM     77  F   UNL A   1      42.953  26.035  26.018  1.00  0.00    -0.206 F 
ATOM     78  C   UNL A   1      41.778  24.016  26.240  1.00  0.00     0.059 A 
ATOM     79  C   UNL A   1      39.925  23.859  27.782  1.00  0.00     0.059 A 
ATOM     80  F   UNL A   1      39.320  25.686  29.086  1.00  0.00    -0.206 F 
ATOM     81  C   UNL A   1      40.775  23.267  26.855  1.00  0.00     0.060 A 
BRANCH  81  82
ATOM     82  S   UNL A   1      40.652  21.494  26.515  1.00  0.00     0.124 S 
ATOM     83  O   UNL A   1      39.340  21.400  25.883  1.00  0.00    -0.237 OA
ATOM     84  O   UNL A   1      41.798  21.268  25.643  1.00  0.00    -0.237 OA
ATOM     85  O   UNL A   1      40.749  20.887  27.840  1.00  0.00    -0.744 OA
ENDBRANCH  81  82
ENDBRANCH  49  74
BRANCH  61  86
ATOM     86  C   UNL A   1      44.570  31.242  28.949  1.00  0.00     0.058 A 
ATOM     87  C   UNL A   1      45.634  31.266  28.034  1.00  0.00     0.135 A 
ATOM     88  C   UNL A   1      43.504  32.129  28.725  1.00  0.00     0.135 A 
ATOM     89  F   UNL A   1      46.654  30.402  28.138  1.00  0.00    -0.206 F 
ATOM     90  C   UNL A   1      45.640  32.145  26.948  1.00  0.00     0.059 A 
ATOM     91  C   UNL A   1      43.474  32.988  27.635  1.00  0.00     0.059 A 
ATOM     92  F   UNL A   1      42.439  32.117  29.543  1.00  0.00    -0.206 F 
ATOM     93  C   UNL A   1      44.549  32.995  26.751  1.00  0.00     0.060 A 
BRANCH  93  94
ATOM     94  S   UNL A   1      44.502  34.057  25.292  1.00  0.00     0.124 S 
ATOM     95  O   UNL A   1      44.538  33.086  24.205  1.00  0.00    -0.237 OA
ATOM     96  O   UNL A   1      43.241  34.774  25.462  1.00  0.00    -0.237 OA
ATOM     97  O   UNL A   1      45.699  34.883  25.431  1.00  0.00    -0.744 OA
ENDBRANCH  93  94
ENDBRANCH  61  86
ENDBRANCH  35  36
ENDBRANCH  27  30
ENDBRANCH  25  26
ENDBRANCH  24  25
ENDBRANCH   1  24
TORSDOF 17
ENDMDL
MODEL 3
REMARK VINA RESULT:     -11.7      2.948      9.595
REMARK SMILES CCn1cnc(S(=O)(=O)N2CCC(C)(C(=O)NCCCCNC(=O)c3ccc(-c4c5nc(c(-c6c(F)cc(S(=O)(=O)[O-])cc6F)c6ccc([nH]6)c(-c6c(F)cc(S(=O)(=O)[O-])cc6F)c6nc(c(-c7c(F)cc(S(=O)(=O)[O-])cc7F)c7ccc4[nH]7)C=C6)C=C5)cc3)CC2)c1
REMARK SMILES IDX 19 1 18 2 17 3 15 4 16 5 13 7 10 8 11 9 92 10 12 11 91 12
REMARK SMILES IDX 14 13 7 14 8 15 9 16 6 17 3 18 4 19 93 20 5 21 2 22 1 23
REMARK SMILES IDX 20 24 21 25 22 26 23 27 24 29 25 30 26 31 90 32 27 33 89 34
REMARK SMILES IDX 28 35 29 36 30 37 83 38 31 39 88 40 82 41 84 42 32 43 87 44
REMARK SMILES IDX 81 45 80 46 33 48 67 49 46 50 66 51 47 52 50 53 65 54 85 55
REMARK SMILES IDX 48 56 49 57 64 59 86 60 51 61 34 62 35 63 44 64 36 65 37 66
REMARK SMILES IDX 43 67 45 68 38 69 39 70 40 71 41 72 42 73 68 74 69 75 78 76
REMARK SMILES IDX 70 77 71 78 77 79 79 80 72 81 73 82 74 83 75 84 76 85 52 86
REMARK SMILES IDX 53 87 62 88 54 89 55 90 61 91 63 92 56 93 57 94 58 95 59 96
REMARK SMILES IDX 60 97
REMARK H PARENT 17 6 22 28 84 47 50 58
REMARK Flexibility Score: inf
ROOT
ATOM      1  C   UNL A   1      31.968  28.806  26.872  1.00  0.00     0.023 C 
ENDROOT
BRANCH   1   2
ATOM      2  C   UNL A   1      31.429  27.372  26.845  1.00  0.00     0.116 C 
BRANCH   2   3
ATOM      3  N   UNL A   1      30.889  26.998  25.541  1.00  0.00    -0.356 N 
ATOM      4  C   UNL A   1      31.425  26.332  24.475  1.00  0.00     0.226 C 
ATOM      5  O   UNL A   1      30.741  26.266  23.452  1.00  0.00    -0.275 OA
ATOM      6  H   UNL A   1      29.956  27.281  25.404  1.00  0.00     0.163 HD
BRANCH   4   7
ATOM      7  C   UNL A   1      32.829  25.701  24.543  1.00  0.00     0.049 C 
ATOM      8  N   UNL A   1      32.914  22.827  25.144  1.00  0.00    -0.196 NA
ATOM      9  C   UNL A   1      32.363  23.243  23.861  1.00  0.00     0.103 C 
ATOM     10  C   UNL A   1      32.565  23.728  26.248  1.00  0.00     0.103 C 
ATOM     11  C   UNL A   1      32.925  24.599  23.449  1.00  0.00     0.033 C 
ATOM     12  C   UNL A   1      33.105  25.126  25.977  1.00  0.00     0.033 C 
ATOM     13  C   UNL A   1      33.857  26.855  24.377  1.00  0.00     0.022 C 
BRANCH   8  14
ATOM     14  S   UNL A   1      34.154  21.681  25.262  1.00  0.00     0.262 S 
ATOM     15  O   UNL A   1      34.496  21.562  26.674  1.00  0.00    -0.205 OA
ATOM     16  O   UNL A   1      35.146  21.972  24.262  1.00  0.00    -0.205 OA
BRANCH  14  17
ATOM     17  C   UNL A   1      33.582  20.070  24.854  1.00  0.00     0.188 A 
ATOM     18  N   UNL A   1      33.544  17.939  24.322  1.00  0.00    -0.336 N 
ATOM     19  C   UNL A   1      32.284  18.448  24.249  1.00  0.00     0.201 A 
ATOM     20  C   UNL A   1      34.351  18.937  24.772  1.00  0.00     0.129 A 
ATOM     21  N   UNL A   1      32.268  19.737  24.536  1.00  0.00    -0.224 NA
BRANCH  18  22
ATOM     22  C   UNL A   1      34.005  16.600  24.010  1.00  0.00     0.120 C 
ATOM     23  C   UNL A   1      35.048  16.101  25.002  1.00  0.00     0.027 C 
ENDBRANCH  18  22
ENDBRANCH  14  17
ENDBRANCH   8  14
ENDBRANCH   4   7
ENDBRANCH   2   3
ENDBRANCH   1   2
BRANCH   1  24
ATOM     24  C   UNL A   1      33.410  28.967  27.353  1.00  0.00     0.023 C 
BRANCH  24  25
ATOM     25  C   UNL A   1      34.039  30.303  26.996  1.00  0.00     0.116 C 
BRANCH  25  26
ATOM     26  N   UNL A   1      33.906  31.292  28.067  1.00  0.00    -0.352 N 
ATOM     27  C   UNL A   1      34.754  31.499  29.139  1.00  0.00     0.251 C 
ATOM     28  H   UNL A   1      33.118  31.881  28.017  1.00  0.00     0.163 HD
ATOM     29  O   UNL A   1      34.369  32.079  30.146  1.00  0.00    -0.269 OA
BRANCH  27  30
ATOM     30  C   UNL A   1      36.138  31.012  29.029  1.00  0.00     0.039 A 
ATOM     31  C   UNL A   1      37.214  31.885  28.853  1.00  0.00     0.014 A 
ATOM     32  C   UNL A   1      36.340  29.644  29.180  1.00  0.00     0.014 A 
ATOM     33  C   UNL A   1      38.507  31.370  28.919  1.00  0.00     0.010 A 
ATOM     34  C   UNL A   1      37.603  29.171  29.415  1.00  0.00     0.010 A 
ATOM     35  C   UNL A   1      38.693  30.013  29.223  1.00  0.00    -0.014 A 
BRANCH  35  36
ATOM     36  C   UNL A   1      40.027  29.469  29.457  1.00  0.00     0.031 A 
ATOM     37  C   UNL A   1      40.365  29.284  30.896  1.00  0.00     0.074 A 
ATOM     38  C   UNL A   1      40.768  28.934  28.461  1.00  0.00     0.049 A 
ATOM     39  N   UNL A   1      41.215  29.947  31.607  1.00  0.00    -0.248 NA
ATOM     40  C   UNL A   1      39.532  28.362  31.690  1.00  0.00     0.031 C 
ATOM     41  C   UNL A   1      40.362  28.728  27.060  1.00  0.00     0.029 A 
ATOM     42  N   UNL A   1      41.989  28.333  28.502  1.00  0.00    -0.354 N 
ATOM     43  C   UNL A   1      41.220  29.330  32.858  1.00  0.00     0.074 A 
ATOM     44  C   UNL A   1      40.014  28.552  32.920  1.00  0.00     0.031 C 
ATOM     45  C   UNL A   1      41.184  27.830  26.476  1.00  0.00     0.029 A 
ATOM     46  C   UNL A   1      42.282  27.559  27.383  1.00  0.00     0.049 A 
ATOM     47  H   UNL A   1      42.611  28.435  29.259  1.00  0.00     0.167 HD
ATOM     48  C   UNL A   1      42.365  29.255  33.594  1.00  0.00     0.037 A 
ATOM     49  C   UNL A   1      43.343  26.735  27.212  1.00  0.00     0.037 A 
ATOM     50  C   UNL A   1      43.377  30.111  33.027  1.00  0.00     0.049 A 
ATOM     51  C   UNL A   1      44.391  27.177  28.163  1.00  0.00     0.074 A 
ATOM     52  C   UNL A   1      43.598  31.464  32.922  1.00  0.00     0.029 A 
ATOM     53  N   UNL A   1      44.167  29.488  32.093  1.00  0.00    -0.354 N 
ATOM     54  N   UNL A   1      44.957  28.355  28.119  1.00  0.00    -0.248 NA
ATOM     55  C   UNL A   1      44.558  26.456  29.419  1.00  0.00     0.031 C 
ATOM     56  C   UNL A   1      44.370  31.642  31.737  1.00  0.00     0.029 A 
ATOM     57  C   UNL A   1      44.643  30.390  31.184  1.00  0.00     0.049 A 
ATOM     58  H   UNL A   1      44.363  28.524  32.082  1.00  0.00     0.167 HD
ATOM     59  C   UNL A   1      45.171  28.688  29.444  1.00  0.00     0.074 A 
ATOM     60  C   UNL A   1      45.066  27.431  30.174  1.00  0.00     0.031 C 
ATOM     61  C   UNL A   1      45.089  29.984  29.864  1.00  0.00     0.037 A 
BRANCH  48  62
ATOM     62  C   UNL A   1      42.771  28.094  34.489  1.00  0.00     0.058 A 
ATOM     63  C   UNL A   1      43.002  28.341  35.863  1.00  0.00     0.135 A 
ATOM     64  C   UNL A   1      43.238  26.847  34.020  1.00  0.00     0.135 A 
ATOM     65  F   UNL A   1      42.604  29.493  36.427  1.00  0.00    -0.206 F 
ATOM     66  C   UNL A   1      43.712  27.457  36.680  1.00  0.00     0.059 A 
ATOM     67  C   UNL A   1      43.903  25.929  34.829  1.00  0.00     0.059 A 
ATOM     68  F   UNL A   1      43.167  26.489  32.733  1.00  0.00    -0.206 F 
ATOM     69  C   UNL A   1      44.172  26.259  36.146  1.00  0.00     0.060 A 
BRANCH  69  70
ATOM     70  S   UNL A   1      45.165  25.153  37.164  1.00  0.00     0.124 S 
ATOM     71  O   UNL A   1      44.472  25.232  38.444  1.00  0.00    -0.237 OA
ATOM     72  O   UNL A   1      45.045  23.889  36.444  1.00  0.00    -0.237 OA
ATOM     73  O   UNL A   1      46.491  25.765  37.125  1.00  0.00    -0.744 OA
ENDBRANCH  69  70
ENDBRANCH  48  62
BRANCH  49  74
ATOM     74  C   UNL A   1      43.375  25.430  26.503  1.00  0.00     0.058 A 
ATOM     75  C   UNL A   1      44.158  25.233  25.353  1.00  0.00     0.135 A 
ATOM     76  C   UNL A   1      42.845  24.267  27.100  1.00  0.00     0.135 A 
ATOM     77  F   UNL A   1      44.716  26.284  24.733  1.00  0.00    -0.206 F 
ATOM     78  C   UNL A   1      44.435  23.957  24.848  1.00  0.00     0.059 A 
ATOM     79  C   UNL A   1      43.102  22.986  26.613  1.00  0.00     0.059 A 
ATOM     80  F   UNL A   1      42.127  24.340  28.232  1.00  0.00    -0.206 F 
ATOM     81  C   UNL A   1      43.917  22.837  25.497  1.00  0.00     0.060 A 
BRANCH  81  82
ATOM     82  S   UNL A   1      44.394  21.183  24.938  1.00  0.00     0.124 S 
ATOM     83  O   UNL A   1      45.638  20.966  25.670  1.00  0.00    -0.237 OA
ATOM     84  O   UNL A   1      43.256  20.376  25.359  1.00  0.00    -0.237 OA
ATOM     85  O   UNL A   1      44.543  21.344  23.493  1.00  0.00    -0.744 OA
ENDBRANCH  81  82
ENDBRANCH  49  74
BRANCH  61  86
ATOM     86  C   UNL A   1      45.340  31.075  28.865  1.00  0.00     0.058 A 
ATOM     87  C   UNL A   1      44.358  31.722  28.100  1.00  0.00     0.135 A 
ATOM     88  C   UNL A   1      46.647  31.585  28.805  1.00  0.00     0.135 A 
ATOM     89  F   UNL A   1      43.073  31.340  28.159  1.00  0.00    -0.206 F 
ATOM     90  C   UNL A   1      44.668  32.825  27.300  1.00  0.00     0.059 A 
ATOM     91  C   UNL A   1      46.972  32.699  28.042  1.00  0.00     0.059 A 
ATOM     92  F   UNL A   1      47.618  31.032  29.551  1.00  0.00    -0.206 F 
ATOM     93  C   UNL A   1      45.977  33.312  27.286  1.00  0.00     0.060 A 
BRANCH  93  94
ATOM     94  S   UNL A   1      46.361  34.800  26.339  1.00  0.00     0.124 S 
ATOM     95  O   UNL A   1      45.095  35.073  25.669  1.00  0.00    -0.237 OA
ATOM     96  O   UNL A   1      46.746  35.749  27.380  1.00  0.00    -0.237 OA
ATOM     97  O   UNL A   1      47.451  34.376  25.464  1.00  0.00    -0.744 OA
ENDBRANCH  93  94
ENDBRANCH  61  86
ENDBRANCH  35  36
ENDBRANCH  27  30
ENDBRANCH  25  26
ENDBRANCH  24  25
ENDBRANCH   1  24
TORSDOF 17
ENDMDL
