MODEL 1
REMARK VINA RESULT:      -8.9      0.000      0.000
REMARK SMILES CC[N@@H+](C/C(Cl)=C/Cl)C[C@@H](C)C(=O)NCCCCNC(=O)c1ccc(-c2c3nc(c(-c4c(F)cc(S(=O)(=O)[O-])cc4F)c4ccc([nH]4)c(-c4c(F)cc(S(=O)(=O)[O-])cc4F)c4nc(c(-c5c(F)cc(S(=O)(=O)[O-])cc5F)c5ccc2[nH]5)C=C4)C=C3)cc1
REMARK SMILES IDX 16 1 15 2 14 3 12 4 13 5 10 7 11 8 9 9 3 10 2 12 1 13 4 14
REMARK SMILES IDX 5 15 6 16 7 17 8 18 17 19 18 20 19 21 20 22 21 24 22 25
REMARK SMILES IDX 23 26 87 27 24 28 86 29 25 30 26 31 27 32 80 33 28 34 85 35
REMARK SMILES IDX 79 36 81 37 29 38 84 39 78 40 77 41 30 43 64 44 43 45 63 46
REMARK SMILES IDX 44 47 47 48 62 49 82 50 45 51 46 52 61 54 83 55 48 56 31 57
REMARK SMILES IDX 32 58 41 59 33 60 34 61 40 62 42 63 35 64 36 65 37 66 38 67
REMARK SMILES IDX 39 68 65 69 66 70 75 71 67 72 68 73 74 74 76 75 69 76 70 77
REMARK SMILES IDX 71 78 72 79 73 80 49 81 50 82 59 83 51 84 52 85 58 86 60 87
REMARK SMILES IDX 53 88 54 89 55 90 56 91 57 92
REMARK H PARENT 14 6 3 11 19 23 81 42 47 53
REMARK Flexibility Score: inf
ROOT
ATOM      1  C   UNL A   1      41.674  19.561  25.793  1.00  0.00     0.023 C 
ENDROOT
BRANCH   1   2
ATOM      2  C   UNL A   1      42.948  19.483  26.629  1.00  0.00     0.116 C 
BRANCH   2   3
ATOM      3  N   UNL A   1      44.132  19.452  25.796  1.00  0.00    -0.356 N 
ATOM      4  C   UNL A   1      44.735  20.433  25.070  1.00  0.00     0.228 C 
ATOM      5  O   UNL A   1      45.717  20.119  24.393  1.00  0.00    -0.275 OA
ATOM      6  H   UNL A   1      44.576  18.575  25.746  1.00  0.00     0.163 HD
BRANCH   4   7
ATOM      7  C   UNL A   1      44.241  21.879  25.091  1.00  0.00     0.130 C 
ATOM      8  C   UNL A   1      44.674  22.613  23.825  1.00  0.00     0.024 C 
BRANCH   7   9
ATOM      9  C   UNL A   1      44.543  22.534  26.456  1.00  0.00     0.275 C 
BRANCH   9  10
ATOM     10  N   UNL A   1      43.778  23.694  26.920  1.00  0.00    -0.330 N 
ATOM     11  H   UNL A   1      43.090  23.715  26.167  1.00  0.00     0.348 HD
BRANCH  10  12
ATOM     12  C   UNL A   1      42.853  23.538  28.035  1.00  0.00     0.259 C 
ATOM     13  C   UNL A   1      43.452  22.826  29.245  1.00  0.00     0.071 C 
ENDBRANCH  10  12
BRANCH  10  14
ATOM     14  C   UNL A   1      44.439  24.996  26.809  1.00  0.00     0.312 C 
BRANCH  14  15
ATOM     15  C   UNL A   1      45.923  25.084  27.072  1.00  0.00     0.083 C 
ATOM     16  Cl  UNL A   1      46.371  24.946  28.747  1.00  0.00    -0.082 Cl
ATOM     17  C   UNL A   1      46.844  25.199  26.109  1.00  0.00     0.102 C 
ATOM     18  Cl  UNL A   1      48.539  25.307  26.339  1.00  0.00    -0.091 Cl
ENDBRANCH  14  15
ENDBRANCH  10  14
ENDBRANCH   9  10
ENDBRANCH   7   9
ENDBRANCH   4   7
ENDBRANCH   2   3
ENDBRANCH   1   2
BRANCH   1  19
ATOM     19  C   UNL A   1      40.498  20.235  26.498  1.00  0.00     0.023 C 
BRANCH  19  20
ATOM     20  C   UNL A   1      40.427  21.749  26.330  1.00  0.00     0.116 C 
BRANCH  20  21
ATOM     21  N   UNL A   1      39.204  22.199  25.682  1.00  0.00    -0.352 N 
ATOM     22  C   UNL A   1      38.557  23.406  25.829  1.00  0.00     0.251 C 
ATOM     23  H   UNL A   1      38.785  21.559  25.061  1.00  0.00     0.163 HD
ATOM     24  O   UNL A   1      37.477  23.603  25.296  1.00  0.00    -0.269 OA
BRANCH  22  25
ATOM     25  C   UNL A   1      39.184  24.440  26.678  1.00  0.00     0.039 A 
ATOM     26  C   UNL A   1      40.027  25.380  26.082  1.00  0.00     0.014 A 
ATOM     27  C   UNL A   1      38.874  24.519  28.038  1.00  0.00     0.014 A 
ATOM     28  C   UNL A   1      40.507  26.447  26.842  1.00  0.00     0.010 A 
ATOM     29  C   UNL A   1      39.298  25.618  28.774  1.00  0.00     0.010 A 
ATOM     30  C   UNL A   1      40.115  26.595  28.184  1.00  0.00    -0.014 A 
BRANCH  30  31
ATOM     31  C   UNL A   1      40.544  27.766  28.986  1.00  0.00     0.031 A 
ATOM     32  C   UNL A   1      41.872  27.747  29.690  1.00  0.00     0.074 A 
ATOM     33  C   UNL A   1      39.707  28.811  29.141  1.00  0.00     0.049 A 
ATOM     34  N   UNL A   1      42.392  28.634  30.497  1.00  0.00    -0.248 NA
ATOM     35  C   UNL A   1      42.715  26.559  29.481  1.00  0.00     0.031 C 
ATOM     36  C   UNL A   1      38.369  28.919  28.556  1.00  0.00     0.029 A 
ATOM     37  N   UNL A   1      39.853  29.977  29.850  1.00  0.00    -0.354 N 
ATOM     38  C   UNL A   1      43.610  28.105  30.906  1.00  0.00     0.074 A 
ATOM     39  C   UNL A   1      43.729  26.798  30.299  1.00  0.00     0.031 C 
ATOM     40  C   UNL A   1      37.826  30.094  28.912  1.00  0.00     0.029 A 
ATOM     41  C   UNL A   1      38.760  30.808  29.776  1.00  0.00     0.049 A 
ATOM     42  H   UNL A   1      40.664  30.198  30.363  1.00  0.00     0.167 HD
ATOM     43  C   UNL A   1      44.554  28.669  31.697  1.00  0.00     0.037 A 
ATOM     44  C   UNL A   1      38.537  32.009  30.344  1.00  0.00     0.037 A 
ATOM     45  C   UNL A   1      44.442  29.983  32.272  1.00  0.00     0.049 A 
ATOM     46  C   UNL A   1      39.609  32.625  31.201  1.00  0.00     0.074 A 
ATOM     47  C   UNL A   1      45.370  30.671  33.034  1.00  0.00     0.029 A 
ATOM     48  N   UNL A   1      43.335  30.810  32.145  1.00  0.00    -0.354 N 
ATOM     49  N   UNL A   1      40.784  32.139  31.525  1.00  0.00    -0.248 NA
ATOM     50  C   UNL A   1      39.330  33.954  31.762  1.00  0.00     0.031 C 
ATOM     51  C   UNL A   1      44.810  31.902  33.397  1.00  0.00     0.029 A 
ATOM     52  C   UNL A   1      43.552  31.997  32.825  1.00  0.00     0.049 A 
ATOM     53  H   UNL A   1      42.518  30.587  31.644  1.00  0.00     0.167 HD
ATOM     54  C   UNL A   1      41.394  33.112  32.309  1.00  0.00     0.074 A 
ATOM     55  C   UNL A   1      40.463  34.218  32.401  1.00  0.00     0.031 C 
ATOM     56  C   UNL A   1      42.615  33.091  32.898  1.00  0.00     0.037 A 
BRANCH  43  57
ATOM     57  C   UNL A   1      45.793  27.865  31.976  1.00  0.00     0.058 A 
ATOM     58  C   UNL A   1      46.912  27.923  31.130  1.00  0.00     0.135 A 
ATOM     59  C   UNL A   1      45.871  27.040  33.110  1.00  0.00     0.135 A 
ATOM     60  F   UNL A   1      46.884  28.683  30.023  1.00  0.00    -0.206 F 
ATOM     61  C   UNL A   1      48.053  27.167  31.379  1.00  0.00     0.059 A 
ATOM     62  C   UNL A   1      47.013  26.295  33.393  1.00  0.00     0.059 A 
ATOM     63  F   UNL A   1      44.830  26.947  33.952  1.00  0.00    -0.206 F 
ATOM     64  C   UNL A   1      48.092  26.352  32.512  1.00  0.00     0.060 A 
BRANCH  64  65
ATOM     65  S   UNL A   1      49.576  25.373  32.819  1.00  0.00     0.124 S 
ATOM     66  O   UNL A   1      50.468  26.372  33.399  1.00  0.00    -0.237 OA
ATOM     67  O   UNL A   1      49.092  24.347  33.738  1.00  0.00    -0.237 OA
ATOM     68  O   UNL A   1      49.947  24.895  31.491  1.00  0.00    -0.744 OA
ENDBRANCH  64  65
ENDBRANCH  43  57
BRANCH  44  69
ATOM     69  C   UNL A   1      37.256  32.722  30.093  1.00  0.00     0.058 A 
ATOM     70  C   UNL A   1      36.137  32.499  30.909  1.00  0.00     0.135 A 
ATOM     71  C   UNL A   1      37.131  33.653  29.050  1.00  0.00     0.135 A 
ATOM     72  F   UNL A   1      36.209  31.614  31.914  1.00  0.00    -0.206 F 
ATOM     73  C   UNL A   1      34.935  33.163  30.693  1.00  0.00     0.059 A 
ATOM     74  C   UNL A   1      35.945  34.346  28.828  1.00  0.00     0.059 A 
ATOM     75  F   UNL A   1      38.178  33.915  28.253  1.00  0.00    -0.206 F 
ATOM     76  C   UNL A   1      34.849  34.088  29.651  1.00  0.00     0.060 A 
BRANCH  76  77
ATOM     77  S   UNL A   1      33.300  34.986  29.415  1.00  0.00     0.124 S 
ATOM     78  O   UNL A   1      32.624  34.152  28.428  1.00  0.00    -0.237 OA
ATOM     79  O   UNL A   1      32.730  34.975  30.758  1.00  0.00    -0.237 OA
ATOM     80  O   UNL A   1      33.742  36.295  28.943  1.00  0.00    -0.744 OA
ENDBRANCH  76  77
ENDBRANCH  44  69
BRANCH  56  81
ATOM     81  C   UNL A   1      43.030  34.312  33.669  1.00  0.00     0.058 A 
ATOM     82  C   UNL A   1      42.671  34.491  35.013  1.00  0.00     0.135 A 
ATOM     83  C   UNL A   1      43.844  35.287  33.069  1.00  0.00     0.135 A 
ATOM     84  F   UNL A   1      41.889  33.591  35.629  1.00  0.00    -0.206 F 
ATOM     85  C   UNL A   1      43.088  35.606  35.732  1.00  0.00     0.059 A 
ATOM     86  C   UNL A   1      44.292  36.398  33.777  1.00  0.00     0.059 A 
ATOM     87  F   UNL A   1      44.223  35.157  31.787  1.00  0.00    -0.206 F 
ATOM     88  C   UNL A   1      43.901  36.554  35.105  1.00  0.00     0.060 A 
BRANCH  88  89
ATOM     89  S   UNL A   1      44.467  37.977  36.059  1.00  0.00     0.124 S 
ATOM     90  O   UNL A   1      43.904  37.692  37.374  1.00  0.00    -0.237 OA
ATOM     91  O   UNL A   1      45.920  37.867  35.954  1.00  0.00    -0.237 OA
ATOM     92  O   UNL A   1      43.879  39.112  35.356  1.00  0.00    -0.744 OA
ENDBRANCH  88  89
ENDBRANCH  56  81
ENDBRANCH  30  31
ENDBRANCH  22  25
ENDBRANCH  20  21
ENDBRANCH  19  20
ENDBRANCH   1  19
TORSDOF 19
ENDMDL
MODEL 2
REMARK VINA RESULT:      -8.9      3.582      5.742
REMARK SMILES CC[N@@H+](C/C(Cl)=C/Cl)C[C@@H](C)C(=O)NCCCCNC(=O)c1ccc(-c2c3nc(c(-c4c(F)cc(S(=O)(=O)[O-])cc4F)c4ccc([nH]4)c(-c4c(F)cc(S(=O)(=O)[O-])cc4F)c4nc(c(-c5c(F)cc(S(=O)(=O)[O-])cc5F)c5ccc2[nH]5)C=C4)C=C3)cc1
REMARK SMILES IDX 16 1 15 2 14 3 12 4 13 5 10 7 11 8 9 9 3 10 2 12 1 13 4 14
REMARK SMILES IDX 5 15 6 16 7 17 8 18 17 19 18 20 19 21 20 22 21 24 22 25
REMARK SMILES IDX 23 26 87 27 24 28 86 29 25 30 26 31 27 32 80 33 28 34 85 35
REMARK SMILES IDX 79 36 81 37 29 38 84 39 78 40 77 41 30 43 64 44 43 45 63 46
REMARK SMILES IDX 44 47 47 48 62 49 82 50 45 51 46 52 61 54 83 55 48 56 31 57
REMARK SMILES IDX 32 58 41 59 33 60 34 61 40 62 42 63 35 64 36 65 37 66 38 67
REMARK SMILES IDX 39 68 65 69 66 70 75 71 67 72 68 73 74 74 76 75 69 76 70 77
REMARK SMILES IDX 71 78 72 79 73 80 49 81 50 82 59 83 51 84 52 85 58 86 60 87
REMARK SMILES IDX 53 88 54 89 55 90 56 91 57 92
REMARK H PARENT 14 6 3 11 19 23 81 42 47 53
REMARK Flexibility Score: inf
ROOT
ATOM      1  C   UNL A   1      35.421  21.663  25.557  1.00  0.00     0.023 C 
ENDROOT
BRANCH   1   2
ATOM      2  C   UNL A   1      33.946  21.272  25.539  1.00  0.00     0.116 C 
BRANCH   2   3
ATOM      3  N   UNL A   1      33.201  22.047  24.569  1.00  0.00    -0.356 N 
ATOM      4  C   UNL A   1      32.249  23.005  24.738  1.00  0.00     0.228 C 
ATOM      5  O   UNL A   1      31.726  23.473  23.723  1.00  0.00    -0.275 OA
ATOM      6  H   UNL A   1      33.419  21.846  23.630  1.00  0.00     0.163 HD
BRANCH   4   7
ATOM      7  C   UNL A   1      31.841  23.509  26.121  1.00  0.00     0.130 C 
ATOM      8  C   UNL A   1      30.528  22.867  26.561  1.00  0.00     0.024 C 
BRANCH   7   9
ATOM      9  C   UNL A   1      31.963  25.047  26.194  1.00  0.00     0.275 C 
BRANCH   9  10
ATOM     10  N   UNL A   1      31.406  25.898  25.140  1.00  0.00    -0.330 N 
ATOM     11  H   UNL A   1      31.442  25.216  24.381  1.00  0.00     0.348 HD
BRANCH  10  12
ATOM     12  C   UNL A   1      29.972  26.154  25.114  1.00  0.00     0.259 C 
ATOM     13  C   UNL A   1      29.478  26.800  23.823  1.00  0.00     0.071 C 
ENDBRANCH  10  12
BRANCH  10  14
ATOM     14  C   UNL A   1      32.263  26.984  24.659  1.00  0.00     0.312 C 
BRANCH  14  15
ATOM     15  C   UNL A   1      32.742  28.022  25.645  1.00  0.00     0.083 C 
ATOM     16  Cl  UNL A   1      31.603  29.296  25.967  1.00  0.00    -0.082 Cl
ATOM     17  C   UNL A   1      33.920  27.960  26.277  1.00  0.00     0.102 C 
ATOM     18  Cl  UNL A   1      34.525  29.104  27.400  1.00  0.00    -0.091 Cl
ENDBRANCH  14  15
ENDBRANCH  10  14
ENDBRANCH   9  10
ENDBRANCH   7   9
ENDBRANCH   4   7
ENDBRANCH   2   3
ENDBRANCH   1   2
BRANCH   1  19
ATOM     19  C   UNL A   1      35.684  23.115  25.954  1.00  0.00     0.023 C 
BRANCH  19  20
ATOM     20  C   UNL A   1      36.986  23.703  25.422  1.00  0.00     0.116 C 
BRANCH  20  21
ATOM     21  N   UNL A   1      38.119  22.797  25.546  1.00  0.00    -0.352 N 
ATOM     22  C   UNL A   1      39.332  23.032  26.153  1.00  0.00     0.251 C 
ATOM     23  H   UNL A   1      38.003  21.906  25.145  1.00  0.00     0.163 HD
ATOM     24  O   UNL A   1      40.231  22.208  26.088  1.00  0.00    -0.269 OA
BRANCH  22  25
ATOM     25  C   UNL A   1      39.534  24.319  26.851  1.00  0.00     0.039 A 
ATOM     26  C   UNL A   1      39.075  24.452  28.162  1.00  0.00     0.014 A 
ATOM     27  C   UNL A   1      40.239  25.354  26.231  1.00  0.00     0.014 A 
ATOM     28  C   UNL A   1      39.387  25.607  28.881  1.00  0.00     0.010 A 
ATOM     29  C   UNL A   1      40.605  26.471  26.971  1.00  0.00     0.010 A 
ATOM     30  C   UNL A   1      40.186  26.608  28.304  1.00  0.00    -0.014 A 
BRANCH  30  31
ATOM     31  C   UNL A   1      40.601  27.803  29.078  1.00  0.00     0.031 A 
ATOM     32  C   UNL A   1      41.929  27.815  29.783  1.00  0.00     0.074 A 
ATOM     33  C   UNL A   1      39.754  28.842  29.207  1.00  0.00     0.049 A 
ATOM     34  N   UNL A   1      42.439  28.726  30.569  1.00  0.00    -0.248 NA
ATOM     35  C   UNL A   1      42.785  26.631  29.604  1.00  0.00     0.031 C 
ATOM     36  C   UNL A   1      38.415  28.922  28.618  1.00  0.00     0.029 A 
ATOM     37  N   UNL A   1      39.886  30.026  29.887  1.00  0.00    -0.354 N 
ATOM     38  C   UNL A   1      43.662  28.221  30.992  1.00  0.00     0.074 A 
ATOM     39  C   UNL A   1      43.796  26.901  30.416  1.00  0.00     0.031 C 
ATOM     40  C   UNL A   1      37.859  30.099  28.945  1.00  0.00     0.029 A 
ATOM     41  C   UNL A   1      38.785  30.844  29.792  1.00  0.00     0.049 A 
ATOM     42  H   UNL A   1      40.694  30.268  30.395  1.00  0.00     0.167 HD
ATOM     43  C   UNL A   1      44.598  28.813  31.770  1.00  0.00     0.037 A 
ATOM     44  C   UNL A   1      38.548  32.056  30.330  1.00  0.00     0.037 A 
ATOM     45  C   UNL A   1      44.472  30.140  32.312  1.00  0.00     0.049 A 
ATOM     46  C   UNL A   1      39.613  32.704  31.173  1.00  0.00     0.074 A 
ATOM     47  C   UNL A   1      45.392  30.856  33.058  1.00  0.00     0.029 A 
ATOM     48  N   UNL A   1      43.357  30.952  32.164  1.00  0.00    -0.354 N 
ATOM     49  N   UNL A   1      40.792  32.238  31.510  1.00  0.00    -0.248 NA
ATOM     50  C   UNL A   1      39.320  34.043  31.702  1.00  0.00     0.031 C 
ATOM     51  C   UNL A   1      44.819  32.089  33.390  1.00  0.00     0.029 A 
ATOM     52  C   UNL A   1      43.560  32.158  32.816  1.00  0.00     0.049 A 
ATOM     53  H   UNL A   1      42.543  30.709  31.668  1.00  0.00     0.167 HD
ATOM     54  C   UNL A   1      41.391  33.237  32.270  1.00  0.00     0.074 A 
ATOM     55  C   UNL A   1      40.449  34.335  32.334  1.00  0.00     0.031 C 
ATOM     56  C   UNL A   1      42.612  33.243  32.861  1.00  0.00     0.037 A 
BRANCH  43  57
ATOM     57  C   UNL A   1      45.845  28.029  32.069  1.00  0.00     0.058 A 
ATOM     58  C   UNL A   1      46.990  28.133  31.261  1.00  0.00     0.135 A 
ATOM     59  C   UNL A   1      45.906  27.179  33.185  1.00  0.00     0.135 A 
ATOM     60  F   UNL A   1      46.980  28.918  30.173  1.00  0.00    -0.206 F 
ATOM     61  C   UNL A   1      48.138  27.395  31.529  1.00  0.00     0.059 A 
ATOM     62  C   UNL A   1      47.055  26.452  33.487  1.00  0.00     0.059 A 
ATOM     63  F   UNL A   1      44.841  27.043  33.990  1.00  0.00    -0.206 F 
ATOM     64  C   UNL A   1      48.159  26.554  32.643  1.00  0.00     0.060 A 
BRANCH  64  65
ATOM     65  S   UNL A   1      49.655  25.599  32.974  1.00  0.00     0.124 S 
ATOM     66  O   UNL A   1      50.590  26.651  33.363  1.00  0.00    -0.237 OA
ATOM     67  O   UNL A   1      49.227  24.705  34.046  1.00  0.00    -0.237 OA
ATOM     68  O   UNL A   1      49.933  24.952  31.696  1.00  0.00    -0.744 OA
ENDBRANCH  64  65
ENDBRANCH  43  57
BRANCH  44  69
ATOM     69  C   UNL A   1      37.261  32.749  30.061  1.00  0.00     0.058 A 
ATOM     70  C   UNL A   1      37.159  33.707  29.041  1.00  0.00     0.135 A 
ATOM     71  C   UNL A   1      36.104  32.454  30.799  1.00  0.00     0.135 A 
ATOM     72  F   UNL A   1      38.240  34.025  28.312  1.00  0.00    -0.206 F 
ATOM     73  C   UNL A   1      35.961  34.359  28.770  1.00  0.00     0.059 A 
ATOM     74  C   UNL A   1      34.889  33.077  30.532  1.00  0.00     0.059 A 
ATOM     75  F   UNL A   1      36.145  31.532  31.773  1.00  0.00    -0.206 F 
ATOM     76  C   UNL A   1      34.829  34.034  29.520  1.00  0.00     0.060 A 
BRANCH  76  77
ATOM     77  S   UNL A   1      33.264  34.844  29.122  1.00  0.00     0.124 S 
ATOM     78  O   UNL A   1      32.707  33.935  28.127  1.00  0.00    -0.237 OA
ATOM     79  O   UNL A   1      32.590  34.864  30.417  1.00  0.00    -0.237 OA
ATOM     80  O   UNL A   1      33.682  36.151  28.623  1.00  0.00    -0.744 OA
ENDBRANCH  76  77
ENDBRANCH  44  69
BRANCH  56  81
ATOM     81  C   UNL A   1      43.013  34.486  33.602  1.00  0.00     0.058 A 
ATOM     82  C   UNL A   1      42.826  34.610  34.987  1.00  0.00     0.135 A 
ATOM     83  C   UNL A   1      43.642  35.544  32.925  1.00  0.00     0.135 A 
ATOM     84  F   UNL A   1      42.224  33.630  35.678  1.00  0.00    -0.206 F 
ATOM     85  C   UNL A   1      43.233  35.750  35.674  1.00  0.00     0.059 A 
ATOM     86  C   UNL A   1      44.078  36.682  33.596  1.00  0.00     0.059 A 
ATOM     87  F   UNL A   1      43.853  35.470  31.601  1.00  0.00    -0.206 F 
ATOM     88  C   UNL A   1      43.860  36.781  34.969  1.00  0.00     0.060 A 
BRANCH  88  89
ATOM     89  S   UNL A   1      44.417  38.237  35.876  1.00  0.00     0.124 S 
ATOM     90  O   UNL A   1      43.702  38.088  37.139  1.00  0.00    -0.237 OA
ATOM     91  O   UNL A   1      45.862  38.035  35.939  1.00  0.00    -0.237 OA
ATOM     92  O   UNL A   1      43.982  39.348  35.035  1.00  0.00    -0.744 OA
ENDBRANCH  88  89
ENDBRANCH  56  81
ENDBRANCH  30  31
ENDBRANCH  22  25
ENDBRANCH  20  21
ENDBRANCH  19  20
ENDBRANCH   1  19
TORSDOF 19
ENDMDL
MODEL 3
REMARK VINA RESULT:      -8.9      5.453     11.863
REMARK SMILES CC[N@@H+](C/C(Cl)=C/Cl)C[C@@H](C)C(=O)NCCCCNC(=O)c1ccc(-c2c3nc(c(-c4c(F)cc(S(=O)(=O)[O-])cc4F)c4ccc([nH]4)c(-c4c(F)cc(S(=O)(=O)[O-])cc4F)c4nc(c(-c5c(F)cc(S(=O)(=O)[O-])cc5F)c5ccc2[nH]5)C=C4)C=C3)cc1
REMARK SMILES IDX 16 1 15 2 14 3 12 4 13 5 10 7 11 8 9 9 3 10 2 12 1 13 4 14
REMARK SMILES IDX 5 15 6 16 7 17 8 18 17 19 18 20 19 21 20 22 21 24 22 25
REMARK SMILES IDX 23 26 87 27 24 28 86 29 25 30 26 31 27 32 80 33 28 34 85 35
REMARK SMILES IDX 79 36 81 37 29 38 84 39 78 40 77 41 30 43 64 44 43 45 63 46
REMARK SMILES IDX 44 47 47 48 62 49 82 50 45 51 46 52 61 54 83 55 48 56 31 57
REMARK SMILES IDX 32 58 41 59 33 60 34 61 40 62 42 63 35 64 36 65 37 66 38 67
REMARK SMILES IDX 39 68 65 69 66 70 75 71 67 72 68 73 74 74 76 75 69 76 70 77
REMARK SMILES IDX 71 78 72 79 73 80 49 81 50 82 59 83 51 84 52 85 58 86 60 87
REMARK SMILES IDX 53 88 54 89 55 90 56 91 57 92
REMARK H PARENT 14 6 3 11 19 23 81 42 47 53
REMARK Flexibility Score: inf
ROOT
ATOM      1  C   UNL A   1      32.694  28.554  27.232  1.00  0.00     0.023 C 
ENDROOT
BRANCH   1   2
ATOM      2  C   UNL A   1      31.822  27.986  26.116  1.00  0.00     0.116 C 
BRANCH   2   3
ATOM      3  N   UNL A   1      31.105  26.804  26.548  1.00  0.00    -0.356 N 
ATOM      4  C   UNL A   1      30.393  25.888  25.838  1.00  0.00     0.228 C 
ATOM      5  O   UNL A   1      29.827  24.992  26.470  1.00  0.00    -0.275 OA
ATOM      6  H   UNL A   1      31.140  26.635  27.516  1.00  0.00     0.163 HD
BRANCH   4   7
ATOM      7  C   UNL A   1      30.297  25.936  24.314  1.00  0.00     0.130 C 
ATOM      8  C   UNL A   1      29.077  26.743  23.877  1.00  0.00     0.024 C 
BRANCH   7   9
ATOM      9  C   UNL A   1      30.494  24.526  23.714  1.00  0.00     0.275 C 
BRANCH   9  10
ATOM     10  N   UNL A   1      31.720  23.766  23.965  1.00  0.00    -0.330 N 
ATOM     11  H   UNL A   1      31.825  23.997  24.954  1.00  0.00     0.348 HD
BRANCH  10  12
ATOM     12  C   UNL A   1      31.645  22.317  24.103  1.00  0.00     0.259 C 
ATOM     13  C   UNL A   1      32.163  21.549  22.891  1.00  0.00     0.071 C 
ENDBRANCH  10  12
BRANCH  10  14
ATOM     14  C   UNL A   1      32.947  24.293  23.364  1.00  0.00     0.312 C 
BRANCH  14  15
ATOM     15  C   UNL A   1      34.244  24.167  24.127  1.00  0.00     0.083 C 
ATOM     16  Cl  UNL A   1      34.231  24.905  25.702  1.00  0.00    -0.082 Cl
ATOM     17  C   UNL A   1      35.311  23.499  23.676  1.00  0.00     0.102 C 
ATOM     18  Cl  UNL A   1      36.810  23.323  24.488  1.00  0.00    -0.091 Cl
ENDBRANCH  14  15
ENDBRANCH  10  14
ENDBRANCH   9  10
ENDBRANCH   7   9
ENDBRANCH   4   7
ENDBRANCH   2   3
ENDBRANCH   1   2
BRANCH   1  19
ATOM     19  C   UNL A   1      33.884  29.379  26.744  1.00  0.00     0.023 C 
BRANCH  19  20
ATOM     20  C   UNL A   1      35.162  29.210  27.558  1.00  0.00     0.116 C 
BRANCH  20  21
ATOM     21  N   UNL A   1      35.189  30.026  28.763  1.00  0.00    -0.352 N 
ATOM     22  C   UNL A   1      36.248  30.251  29.614  1.00  0.00     0.251 C 
ATOM     23  H   UNL A   1      34.344  30.474  28.999  1.00  0.00     0.163 HD
ATOM     24  O   UNL A   1      36.092  30.880  30.650  1.00  0.00    -0.269 OA
BRANCH  22  25
ATOM     25  C   UNL A   1      37.565  29.681  29.265  1.00  0.00     0.039 A 
ATOM     26  C   UNL A   1      37.991  29.733  27.937  1.00  0.00     0.014 A 
ATOM     27  C   UNL A   1      38.398  29.169  30.264  1.00  0.00     0.014 A 
ATOM     28  C   UNL A   1      39.289  29.333  27.619  1.00  0.00     0.010 A 
ATOM     29  C   UNL A   1      39.712  28.836  29.955  1.00  0.00     0.010 A 
ATOM     30  C   UNL A   1      40.171  28.917  28.631  1.00  0.00    -0.014 A 
BRANCH  30  31
ATOM     31  C   UNL A   1      41.581  28.569  28.328  1.00  0.00     0.031 A 
ATOM     32  C   UNL A   1      42.629  29.647  28.298  1.00  0.00     0.074 A 
ATOM     33  C   UNL A   1      41.901  27.301  28.006  1.00  0.00     0.049 A 
ATOM     34  N   UNL A   1      43.894  29.561  27.981  1.00  0.00    -0.248 NA
ATOM     35  C   UNL A   1      42.189  31.009  28.644  1.00  0.00     0.031 C 
ATOM     36  C   UNL A   1      40.961  26.180  27.943  1.00  0.00     0.029 A 
ATOM     37  N   UNL A   1      43.105  26.742  27.658  1.00  0.00    -0.354 N 
ATOM     38  C   UNL A   1      44.395  30.853  28.070  1.00  0.00     0.074 A 
ATOM     39  C   UNL A   1      43.288  31.714  28.421  1.00  0.00     0.031 C 
ATOM     40  C   UNL A   1      41.626  25.066  27.599  1.00  0.00     0.029 A 
ATOM     41  C   UNL A   1      43.031  25.396  27.385  1.00  0.00     0.049 A 
ATOM     42  H   UNL A   1      43.943  27.256  27.609  1.00  0.00     0.167 HD
ATOM     43  C   UNL A   1      45.669  31.280  27.897  1.00  0.00     0.037 A 
ATOM     44  C   UNL A   1      43.988  24.529  27.003  1.00  0.00     0.037 A 
ATOM     45  C   UNL A   1      46.772  30.413  27.579  1.00  0.00     0.049 A 
ATOM     46  C   UNL A   1      45.400  25.022  26.840  1.00  0.00     0.074 A 
ATOM     47  C   UNL A   1      48.111  30.736  27.446  1.00  0.00     0.029 A 
ATOM     48  N   UNL A   1      46.664  29.049  27.346  1.00  0.00    -0.354 N 
ATOM     49  N   UNL A   1      45.870  26.238  26.991  1.00  0.00    -0.248 NA
ATOM     50  C   UNL A   1      46.412  24.027  26.461  1.00  0.00     0.031 C 
ATOM     51  C   UNL A   1      48.809  29.573  27.100  1.00  0.00     0.029 A 
ATOM     52  C   UNL A   1      47.911  28.518  27.058  1.00  0.00     0.049 A 
ATOM     53  H   UNL A   1      45.826  28.534  27.381  1.00  0.00     0.167 HD
ATOM     54  C   UNL A   1      47.237  26.149  26.750  1.00  0.00     0.074 A 
ATOM     55  C   UNL A   1      47.519  24.759  26.453  1.00  0.00     0.031 C 
ATOM     56  C   UNL A   1      48.173  27.130  26.773  1.00  0.00     0.037 A 
BRANCH  43  57
ATOM     57  C   UNL A   1      45.934  32.750  28.060  1.00  0.00     0.058 A 
ATOM     58  C   UNL A   1      46.311  33.296  29.298  1.00  0.00     0.135 A 
ATOM     59  C   UNL A   1      45.829  33.623  26.965  1.00  0.00     0.135 A 
ATOM     60  F   UNL A   1      46.410  32.509  30.381  1.00  0.00    -0.206 F 
ATOM     61  C   UNL A   1      46.540  34.659  29.453  1.00  0.00     0.059 A 
ATOM     62  C   UNL A   1      46.080  34.986  27.091  1.00  0.00     0.059 A 
ATOM     63  F   UNL A   1      45.472  33.154  25.759  1.00  0.00    -0.206 F 
ATOM     64  C   UNL A   1      46.418  35.497  28.343  1.00  0.00     0.060 A 
BRANCH  64  65
ATOM     65  S   UNL A   1      46.714  37.264  28.561  1.00  0.00     0.124 S 
ATOM     66  O   UNL A   1      47.729  37.261  29.610  1.00  0.00    -0.237 OA
ATOM     67  O   UNL A   1      47.174  37.672  27.236  1.00  0.00    -0.237 OA
ATOM     68  O   UNL A   1      45.407  37.781  28.953  1.00  0.00    -0.744 OA
ENDBRANCH  64  65
ENDBRANCH  43  57
BRANCH  44  69
ATOM     69  C   UNL A   1      43.648  23.099  26.781  1.00  0.00     0.058 A 
ATOM     70  C   UNL A   1      43.268  22.275  27.851  1.00  0.00     0.135 A 
ATOM     71  C   UNL A   1      43.674  22.533  25.497  1.00  0.00     0.135 A 
ATOM     72  F   UNL A   1      43.234  22.771  29.097  1.00  0.00    -0.206 F 
ATOM     73  C   UNL A   1      42.939  20.938  27.660  1.00  0.00     0.059 A 
ATOM     74  C   UNL A   1      43.327  21.203  25.278  1.00  0.00     0.059 A 
ATOM     75  F   UNL A   1      44.014  23.284  24.438  1.00  0.00    -0.206 F 
ATOM     76  C   UNL A   1      42.968  20.412  26.367  1.00  0.00     0.060 A 
BRANCH  76  77
ATOM     77  S   UNL A   1      42.483  18.689  26.123  1.00  0.00     0.124 S 
ATOM     78  O   UNL A   1      41.081  18.829  25.749  1.00  0.00    -0.237 OA
ATOM     79  O   UNL A   1      43.387  18.263  25.059  1.00  0.00    -0.237 OA
ATOM     80  O   UNL A   1      42.734  18.083  27.427  1.00  0.00    -0.744 OA
ENDBRANCH  76  77
ENDBRANCH  44  69
BRANCH  56  81
ATOM     81  C   UNL A   1      49.595  26.731  26.500  1.00  0.00     0.058 A 
ATOM     82  C   UNL A   1      50.482  26.408  27.538  1.00  0.00     0.135 A 
ATOM     83  C   UNL A   1      50.059  26.617  25.179  1.00  0.00     0.135 A 
ATOM     84  F   UNL A   1      50.088  26.507  28.818  1.00  0.00    -0.206 F 
ATOM     85  C   UNL A   1      51.787  26.004  27.277  1.00  0.00     0.059 A 
ATOM     86  C   UNL A   1      51.353  26.193  24.895  1.00  0.00     0.059 A 
ATOM     87  F   UNL A   1      49.247  26.906  24.149  1.00  0.00    -0.206 F 
ATOM     88  C   UNL A   1      52.213  25.898  25.951  1.00  0.00     0.060 A 
BRANCH  88  89
ATOM     89  S   UNL A   1      53.897  25.337  25.624  1.00  0.00     0.124 S 
ATOM     90  O   UNL A   1      54.416  25.161  26.976  1.00  0.00    -0.237 OA
ATOM     91  O   UNL A   1      53.677  24.109  24.865  1.00  0.00    -0.237 OA
ATOM     92  O   UNL A   1      54.480  26.439  24.865  1.00  0.00    -0.744 OA
ENDBRANCH  88  89
ENDBRANCH  56  81
ENDBRANCH  30  31
ENDBRANCH  22  25
ENDBRANCH  20  21
ENDBRANCH  19  20
ENDBRANCH   1  19
TORSDOF 19
ENDMDL
