MODEL 1
REMARK VINA RESULT:     -10.6      0.000      0.000
REMARK SMILES C[C@@H](Sc1ccccc1[N+](=O)[O-])[C@@H](C)C(=O)NCCCCNC(=O)c1ccc(-c2c3nc(c(-c4c(F)cc(S(=O)(=O)[O-])cc4F)c4ccc([nH]4)c(-c4c(F)cc(S(=O)(=O)[O-])cc4F)c4nc(c(-c5c(F)cc(S(=O)(=O)[O-])cc5F)c5ccc2[nH]5)C=C4)C=C3)cc1
REMARK SMILES IDX 19 1 18 2 17 3 15 4 16 5 13 7 14 8 2 9 1 10 3 11 4 12 5 13
REMARK SMILES IDX 9 14 6 15 8 16 7 17 10 18 11 19 12 20 20 21 21 22 22 23
REMARK SMILES IDX 23 24 24 26 25 27 26 28 90 29 27 30 89 31 28 32 29 33 30 34
REMARK SMILES IDX 83 35 31 36 88 37 82 38 84 39 32 40 87 41 81 42 80 43 33 45
REMARK SMILES IDX 67 46 46 47 66 48 47 49 50 50 65 51 85 52 48 53 49 54 64 56
REMARK SMILES IDX 86 57 51 58 34 59 35 60 44 61 36 62 37 63 43 64 45 65 38 66
REMARK SMILES IDX 39 67 40 68 41 69 42 70 68 71 69 72 78 73 70 74 71 75 77 76
REMARK SMILES IDX 79 77 72 78 73 79 74 80 75 81 76 82 52 83 53 84 62 85 54 86
REMARK SMILES IDX 55 87 61 88 63 89 56 90 57 91 58 92 59 93 60 94
REMARK H PARENT 17 6 22 25 84 44 50 55
REMARK Flexibility Score: inf
ROOT
ATOM      1  C   UNL A   1      32.244  27.139  26.189  1.00  0.00     0.023 C 
ENDROOT
BRANCH   1   2
ATOM      2  C   UNL A   1      32.631  25.681  26.423  1.00  0.00     0.116 C 
BRANCH   2   3
ATOM      3  N   UNL A   1      31.510  24.888  26.889  1.00  0.00    -0.356 N 
ATOM      4  C   UNL A   1      31.204  23.572  26.732  1.00  0.00     0.223 C 
ATOM      5  O   UNL A   1      30.188  23.150  27.291  1.00  0.00    -0.275 OA
ATOM      6  H   UNL A   1      30.850  25.394  27.415  1.00  0.00     0.163 HD
BRANCH   4   7
ATOM      7  C   UNL A   1      32.118  22.608  25.982  1.00  0.00     0.088 C 
ATOM      8  C   UNL A   1      33.126  22.009  26.974  1.00  0.00     0.019 C 
BRANCH   7   9
ATOM      9  C   UNL A   1      32.709  23.203  24.676  1.00  0.00     0.061 C 
ATOM     10  C   UNL A   1      33.970  22.464  24.223  1.00  0.00     0.020 C 
BRANCH   9  11
ATOM     11  S   UNL A   1      31.425  23.139  23.324  1.00  0.00    -0.115 SA
BRANCH  11  12
ATOM     12  C   UNL A   1      31.032  24.875  23.104  1.00  0.00     0.085 A 
ATOM     13  C   UNL A   1      29.919  25.367  23.805  1.00  0.00     0.022 A 
ATOM     14  C   UNL A   1      31.794  25.808  22.380  1.00  0.00     0.282 A 
ATOM     15  C   UNL A   1      29.534  26.709  23.726  1.00  0.00     0.002 A 
ATOM     16  C   UNL A   1      31.423  27.165  22.309  1.00  0.00     0.087 A 
ATOM     17  C   UNL A   1      30.282  27.608  22.973  1.00  0.00     0.007 A 
BRANCH  14  18
ATOM     18  N   UNL A   1      33.024  25.436  21.695  1.00  0.00     0.063 N 
ATOM     19  O   UNL A   1      34.057  25.406  22.380  1.00  0.00    -0.258 OA
ATOM     20  O   UNL A   1      32.973  25.248  20.473  1.00  0.00    -0.258 OA
ENDBRANCH  14  18
ENDBRANCH  11  12
ENDBRANCH   9  11
ENDBRANCH   7   9
ENDBRANCH   4   7
ENDBRANCH   2   3
ENDBRANCH   1   2
BRANCH   1  21
ATOM     21  C   UNL A   1      32.991  28.149  27.061  1.00  0.00     0.023 C 
BRANCH  21  22
ATOM     22  C   UNL A   1      33.918  29.096  26.308  1.00  0.00     0.116 C 
BRANCH  22  23
ATOM     23  N   UNL A   1      33.782  30.483  26.734  1.00  0.00    -0.352 N 
ATOM     24  C   UNL A   1      34.557  31.202  27.611  1.00  0.00     0.251 C 
ATOM     25  H   UNL A   1      33.027  30.974  26.337  1.00  0.00     0.163 HD
ATOM     26  O   UNL A   1      34.210  32.331  27.948  1.00  0.00    -0.269 OA
BRANCH  24  27
ATOM     27  C   UNL A   1      35.785  30.600  28.171  1.00  0.00     0.039 A 
ATOM     28  C   UNL A   1      37.018  30.934  27.605  1.00  0.00     0.014 A 
ATOM     29  C   UNL A   1      35.725  29.733  29.265  1.00  0.00     0.014 A 
ATOM     30  C   UNL A   1      38.195  30.458  28.185  1.00  0.00     0.010 A 
ATOM     31  C   UNL A   1      36.901  29.317  29.885  1.00  0.00     0.010 A 
ATOM     32  C   UNL A   1      38.148  29.681  29.354  1.00  0.00    -0.014 A 
BRANCH  32  33
ATOM     33  C   UNL A   1      39.394  29.269  30.051  1.00  0.00     0.031 A 
ATOM     34  C   UNL A   1      39.858  30.001  31.280  1.00  0.00     0.074 A 
ATOM     35  C   UNL A   1      40.144  28.277  29.532  1.00  0.00     0.049 A 
ATOM     36  N   UNL A   1      40.939  29.810  31.994  1.00  0.00    -0.248 NA
ATOM     37  C   UNL A   1      39.013  31.108  31.754  1.00  0.00     0.031 C 
ATOM     38  C   UNL A   1      39.835  27.536  28.306  1.00  0.00     0.029 A 
ATOM     39  N   UNL A   1      41.326  27.727  29.960  1.00  0.00    -0.354 N 
ATOM     40  C   UNL A   1      40.911  30.779  32.990  1.00  0.00     0.074 A 
ATOM     41  C   UNL A   1      39.733  31.588  32.758  1.00  0.00     0.031 C 
ATOM     42  C   UNL A   1      40.789  26.615  28.096  1.00  0.00     0.029 A 
ATOM     43  C   UNL A   1      41.795  26.721  29.149  1.00  0.00     0.049 A 
ATOM     44  H   UNL A   1      41.795  28.025  30.773  1.00  0.00     0.167 HD
ATOM     45  C   UNL A   1      41.775  30.965  34.017  1.00  0.00     0.037 A 
ATOM     46  C   UNL A   1      42.909  25.970  29.238  1.00  0.00     0.037 A 
ATOM     47  C   UNL A   1      42.934  30.142  34.255  1.00  0.00     0.049 A 
ATOM     48  C   UNL A   1      43.844  26.181  30.396  1.00  0.00     0.074 A 
ATOM     49  C   UNL A   1      43.830  30.203  35.306  1.00  0.00     0.029 A 
ATOM     50  N   UNL A   1      43.360  29.114  33.426  1.00  0.00    -0.354 N 
ATOM     51  N   UNL A   1      43.759  27.049  31.376  1.00  0.00    -0.248 NA
ATOM     52  C   UNL A   1      45.021  25.305  30.467  1.00  0.00     0.031 C 
ATOM     53  C   UNL A   1      44.823  29.240  35.092  1.00  0.00     0.029 A 
ATOM     54  C   UNL A   1      44.519  28.548  33.931  1.00  0.00     0.049 A 
ATOM     55  H   UNL A   1      42.905  28.829  32.600  1.00  0.00     0.167 HD
ATOM     56  C   UNL A   1      44.860  26.812  32.191  1.00  0.00     0.074 A 
ATOM     57  C   UNL A   1      45.587  25.708  31.597  1.00  0.00     0.031 C 
ATOM     58  C   UNL A   1      45.235  27.450  33.327  1.00  0.00     0.037 A 
BRANCH  45  59
ATOM     59  C   UNL A   1      41.497  32.102  34.963  1.00  0.00     0.058 A 
ATOM     60  C   UNL A   1      42.114  33.354  34.811  1.00  0.00     0.135 A 
ATOM     61  C   UNL A   1      40.589  31.945  36.023  1.00  0.00     0.135 A 
ATOM     62  F   UNL A   1      43.001  33.556  33.824  1.00  0.00    -0.206 F 
ATOM     63  C   UNL A   1      41.866  34.400  35.695  1.00  0.00     0.059 A 
ATOM     64  C   UNL A   1      40.305  32.985  36.903  1.00  0.00     0.059 A 
ATOM     65  F   UNL A   1      39.970  30.769  36.214  1.00  0.00    -0.206 F 
ATOM     66  C   UNL A   1      40.963  34.204  36.740  1.00  0.00     0.060 A 
BRANCH  66  67
ATOM     67  S   UNL A   1      40.660  35.568  37.885  1.00  0.00     0.124 S 
ATOM     68  O   UNL A   1      39.929  36.503  37.034  1.00  0.00    -0.237 OA
ATOM     69  O   UNL A   1      39.878  34.925  38.937  1.00  0.00    -0.237 OA
ATOM     70  O   UNL A   1      42.002  35.990  38.273  1.00  0.00    -0.744 OA
ENDBRANCH  66  67
ENDBRANCH  45  59
BRANCH  46  71
ATOM     71  C   UNL A   1      43.180  24.927  28.213  1.00  0.00     0.058 A 
ATOM     72  C   UNL A   1      43.787  25.257  26.992  1.00  0.00     0.135 A 
ATOM     73  C   UNL A   1      42.872  23.578  28.447  1.00  0.00     0.135 A 
ATOM     74  F   UNL A   1      44.095  26.534  26.721  1.00  0.00    -0.206 F 
ATOM     75  C   UNL A   1      44.070  24.289  26.035  1.00  0.00     0.059 A 
ATOM     76  C   UNL A   1      43.167  22.588  27.514  1.00  0.00     0.059 A 
ATOM     77  F   UNL A   1      42.307  23.208  29.606  1.00  0.00    -0.206 F 
ATOM     78  C   UNL A   1      43.760  22.956  26.307  1.00  0.00     0.060 A 
BRANCH  78  79
ATOM     79  S   UNL A   1      44.193  21.700  25.082  1.00  0.00     0.124 S 
ATOM     80  O   UNL A   1      45.538  21.329  25.504  1.00  0.00    -0.237 OA
ATOM     81  O   UNL A   1      43.156  20.694  25.296  1.00  0.00    -0.237 OA
ATOM     82  O   UNL A   1      44.103  22.421  23.815  1.00  0.00    -0.744 OA
ENDBRANCH  78  79
ENDBRANCH  46  71
BRANCH  58  83
ATOM     83  C   UNL A   1      46.476  26.957  34.018  1.00  0.00     0.058 A 
ATOM     84  C   UNL A   1      46.429  25.930  34.975  1.00  0.00     0.135 A 
ATOM     85  C   UNL A   1      47.732  27.492  33.691  1.00  0.00     0.135 A 
ATOM     86  F   UNL A   1      45.253  25.389  35.328  1.00  0.00    -0.206 F 
ATOM     87  C   UNL A   1      47.582  25.469  35.603  1.00  0.00     0.059 A 
ATOM     88  C   UNL A   1      48.901  27.028  34.287  1.00  0.00     0.059 A 
ATOM     89  F   UNL A   1      47.835  28.468  32.776  1.00  0.00    -0.206 F 
ATOM     90  C   UNL A   1      48.814  26.025  35.252  1.00  0.00     0.060 A 
BRANCH  90  91
ATOM     91  S   UNL A   1      50.306  25.403  36.056  1.00  0.00     0.124 S 
ATOM     92  O   UNL A   1      49.857  24.101  36.539  1.00  0.00    -0.237 OA
ATOM     93  O   UNL A   1      51.266  25.375  34.958  1.00  0.00    -0.237 OA
ATOM     94  O   UNL A   1      50.574  26.397  37.090  1.00  0.00    -0.744 OA
ENDBRANCH  90  91
ENDBRANCH  58  83
ENDBRANCH  32  33
ENDBRANCH  24  27
ENDBRANCH  22  23
ENDBRANCH  21  22
ENDBRANCH   1  21
TORSDOF 18
ENDMDL
MODEL 2
REMARK VINA RESULT:     -10.6      3.137      9.314
REMARK SMILES C[C@@H](Sc1ccccc1[N+](=O)[O-])[C@@H](C)C(=O)NCCCCNC(=O)c1ccc(-c2c3nc(c(-c4c(F)cc(S(=O)(=O)[O-])cc4F)c4ccc([nH]4)c(-c4c(F)cc(S(=O)(=O)[O-])cc4F)c4nc(c(-c5c(F)cc(S(=O)(=O)[O-])cc5F)c5ccc2[nH]5)C=C4)C=C3)cc1
REMARK SMILES IDX 19 1 18 2 17 3 15 4 16 5 13 7 14 8 2 9 1 10 3 11 4 12 5 13
REMARK SMILES IDX 9 14 6 15 8 16 7 17 10 18 11 19 12 20 20 21 21 22 22 23
REMARK SMILES IDX 23 24 24 26 25 27 26 28 90 29 27 30 89 31 28 32 29 33 30 34
REMARK SMILES IDX 83 35 31 36 88 37 82 38 84 39 32 40 87 41 81 42 80 43 33 45
REMARK SMILES IDX 67 46 46 47 66 48 47 49 50 50 65 51 85 52 48 53 49 54 64 56
REMARK SMILES IDX 86 57 51 58 34 59 35 60 44 61 36 62 37 63 43 64 45 65 38 66
REMARK SMILES IDX 39 67 40 68 41 69 42 70 68 71 69 72 78 73 70 74 71 75 77 76
REMARK SMILES IDX 79 77 72 78 73 79 74 80 75 81 76 82 52 83 53 84 62 85 54 86
REMARK SMILES IDX 55 87 61 88 63 89 56 90 57 91 58 92 59 93 60 94
REMARK H PARENT 17 6 22 25 84 44 50 55
REMARK Flexibility Score: inf
ROOT
ATOM      1  C   UNL A   1      38.496  23.739  26.464  1.00  0.00     0.023 C 
ENDROOT
BRANCH   1   2
ATOM      2  C   UNL A   1      37.151  23.201  25.979  1.00  0.00     0.116 C 
BRANCH   2   3
ATOM      3  N   UNL A   1      37.077  23.141  24.532  1.00  0.00    -0.356 N 
ATOM      4  C   UNL A   1      36.019  23.099  23.680  1.00  0.00     0.223 C 
ATOM      5  O   UNL A   1      36.258  23.101  22.470  1.00  0.00    -0.275 OA
ATOM      6  H   UNL A   1      37.954  23.128  24.086  1.00  0.00     0.163 HD
BRANCH   4   7
ATOM      7  C   UNL A   1      34.575  23.148  24.173  1.00  0.00     0.088 C 
ATOM      8  C   UNL A   1      33.745  22.134  23.373  1.00  0.00     0.019 C 
BRANCH   7   9
ATOM      9  C   UNL A   1      34.001  24.587  24.265  1.00  0.00     0.061 C 
ATOM     10  C   UNL A   1      32.938  24.854  23.198  1.00  0.00     0.020 C 
BRANCH   9  11
ATOM     11  S   UNL A   1      33.269  24.859  25.960  1.00  0.00    -0.115 SA
BRANCH  11  12
ATOM     12  C   UNL A   1      32.910  26.617  25.930  1.00  0.00     0.085 A 
ATOM     13  C   UNL A   1      34.007  27.489  26.023  1.00  0.00     0.022 A 
ATOM     14  C   UNL A   1      31.648  27.197  25.718  1.00  0.00     0.282 A 
ATOM     15  C   UNL A   1      33.847  28.878  25.987  1.00  0.00     0.002 A 
ATOM     16  C   UNL A   1      31.480  28.595  25.664  1.00  0.00     0.087 A 
ATOM     17  C   UNL A   1      32.583  29.433  25.813  1.00  0.00     0.007 A 
BRANCH  14  18
ATOM     18  N   UNL A   1      30.452  26.393  25.508  1.00  0.00     0.063 N 
ATOM     19  O   UNL A   1      30.104  25.657  26.443  1.00  0.00    -0.258 OA
ATOM     20  O   UNL A   1      29.910  26.438  24.397  1.00  0.00    -0.258 OA
ENDBRANCH  14  18
ENDBRANCH  11  12
ENDBRANCH   9  11
ENDBRANCH   7   9
ENDBRANCH   4   7
ENDBRANCH   2   3
ENDBRANCH   1   2
BRANCH   1  21
ATOM     21  C   UNL A   1      39.609  22.694  26.554  1.00  0.00     0.023 C 
BRANCH  21  22
ATOM     22  C   UNL A   1      40.987  23.242  26.908  1.00  0.00     0.116 C 
BRANCH  22  23
ATOM     23  N   UNL A   1      41.558  24.069  25.853  1.00  0.00    -0.352 N 
ATOM     24  C   UNL A   1      41.889  25.401  25.878  1.00  0.00     0.251 C 
ATOM     25  H   UNL A   1      41.729  23.607  25.001  1.00  0.00     0.163 HD
ATOM     26  O   UNL A   1      42.242  25.962  24.843  1.00  0.00    -0.269 OA
BRANCH  24  27
ATOM     27  C   UNL A   1      41.785  26.162  27.141  1.00  0.00     0.039 A 
ATOM     28  C   UNL A   1      42.697  27.192  27.384  1.00  0.00     0.014 A 
ATOM     29  C   UNL A   1      40.778  25.880  28.068  1.00  0.00     0.014 A 
ATOM     30  C   UNL A   1      42.552  27.988  28.522  1.00  0.00     0.010 A 
ATOM     31  C   UNL A   1      40.592  26.719  29.164  1.00  0.00     0.010 A 
ATOM     32  C   UNL A   1      41.474  27.785  29.398  1.00  0.00    -0.014 A 
BRANCH  32  33
ATOM     33  C   UNL A   1      41.236  28.700  30.545  1.00  0.00     0.031 A 
ATOM     34  C   UNL A   1      42.065  28.588  31.795  1.00  0.00     0.074 A 
ATOM     35  C   UNL A   1      40.223  29.587  30.483  1.00  0.00     0.049 A 
ATOM     36  N   UNL A   1      41.973  29.270  32.909  1.00  0.00    -0.248 NA
ATOM     37  C   UNL A   1      43.116  27.559  31.806  1.00  0.00     0.031 C 
ATOM     38  C   UNL A   1      39.305  29.744  29.352  1.00  0.00     0.029 A 
ATOM     39  N   UNL A   1      39.786  30.514  31.395  1.00  0.00    -0.354 N 
ATOM     40  C   UNL A   1      42.941  28.744  33.756  1.00  0.00     0.074 A 
ATOM     41  C   UNL A   1      43.575  27.654  33.046  1.00  0.00     0.031 C 
ATOM     42  C   UNL A   1      38.432  30.725  29.627  1.00  0.00     0.029 A 
ATOM     43  C   UNL A   1      38.702  31.244  30.965  1.00  0.00     0.049 A 
ATOM     44  H   UNL A   1      40.209  30.647  32.274  1.00  0.00     0.167 HD
ATOM     45  C   UNL A   1      43.286  29.147  35.002  1.00  0.00     0.037 A 
ATOM     46  C   UNL A   1      38.001  32.216  31.579  1.00  0.00     0.037 A 
ATOM     47  C   UNL A   1      42.666  30.248  35.695  1.00  0.00     0.049 A 
ATOM     48  C   UNL A   1      38.413  32.660  32.955  1.00  0.00     0.074 A 
ATOM     49  C   UNL A   1      42.992  30.781  36.929  1.00  0.00     0.029 A 
ATOM     50  N   UNL A   1      41.589  30.980  35.215  1.00  0.00    -0.354 N 
ATOM     51  N   UNL A   1      39.385  32.206  33.710  1.00  0.00    -0.248 NA
ATOM     52  C   UNL A   1      37.640  33.753  33.559  1.00  0.00     0.031 C 
ATOM     53  C   UNL A   1      42.084  31.808  37.216  1.00  0.00     0.029 A 
ATOM     54  C   UNL A   1      41.223  31.946  36.140  1.00  0.00     0.049 A 
ATOM     55  H   UNL A   1      41.149  30.835  34.347  1.00  0.00     0.167 HD
ATOM     56  C   UNL A   1      39.354  32.972  34.870  1.00  0.00     0.074 A 
ATOM     57  C   UNL A   1      38.277  33.927  34.710  1.00  0.00     0.031 C 
ATOM     58  C   UNL A   1      40.146  32.890  35.968  1.00  0.00     0.037 A 
BRANCH  45  59
ATOM     59  C   UNL A   1      44.388  28.394  35.697  1.00  0.00     0.058 A 
ATOM     60  C   UNL A   1      45.735  28.769  35.564  1.00  0.00     0.135 A 
ATOM     61  C   UNL A   1      44.094  27.296  36.522  1.00  0.00     0.135 A 
ATOM     62  F   UNL A   1      46.074  29.802  34.777  1.00  0.00    -0.206 F 
ATOM     63  C   UNL A   1      46.753  28.063  36.197  1.00  0.00     0.059 A 
ATOM     64  C   UNL A   1      45.094  26.592  37.188  1.00  0.00     0.059 A 
ATOM     65  F   UNL A   1      42.824  26.894  36.687  1.00  0.00    -0.206 F 
ATOM     66  C   UNL A   1      46.423  26.974  37.003  1.00  0.00     0.060 A 
BRANCH  66  67
ATOM     67  S   UNL A   1      47.757  26.063  37.810  1.00  0.00     0.124 S 
ATOM     68  O   UNL A   1      48.935  26.686  37.215  1.00  0.00    -0.237 OA
ATOM     69  O   UNL A   1      47.529  26.358  39.221  1.00  0.00    -0.237 OA
ATOM     70  O   UNL A   1      47.511  24.679  37.415  1.00  0.00    -0.744 OA
ENDBRANCH  66  67
ENDBRANCH  45  59
BRANCH  46  71
ATOM     71  C   UNL A   1      36.855  32.855  30.878  1.00  0.00     0.058 A 
ATOM     72  C   UNL A   1      35.534  32.486  31.172  1.00  0.00     0.135 A 
ATOM     73  C   UNL A   1      37.056  33.869  29.928  1.00  0.00     0.135 A 
ATOM     74  F   UNL A   1      35.292  31.518  32.068  1.00  0.00    -0.206 F 
ATOM     75  C   UNL A   1      34.452  33.092  30.543  1.00  0.00     0.059 A 
ATOM     76  C   UNL A   1      35.989  34.507  29.304  1.00  0.00     0.059 A 
ATOM     77  F   UNL A   1      38.300  34.270  29.625  1.00  0.00    -0.206 F 
ATOM     78  C   UNL A   1      34.689  34.105  29.612  1.00  0.00     0.060 A 
BRANCH  78  79
ATOM     79  S   UNL A   1      33.273  34.930  28.852  1.00  0.00     0.124 S 
ATOM     80  O   UNL A   1      33.920  36.016  28.125  1.00  0.00    -0.237 OA
ATOM     81  O   UNL A   1      32.702  33.865  28.033  1.00  0.00    -0.237 OA
ATOM     82  O   UNL A   1      32.462  35.330  29.998  1.00  0.00    -0.744 OA
ENDBRANCH  78  79
ENDBRANCH  46  71
BRANCH  58  83
ATOM     83  C   UNL A   1      39.892  33.875  37.076  1.00  0.00     0.058 A 
ATOM     84  C   UNL A   1      40.445  35.165  37.056  1.00  0.00     0.135 A 
ATOM     85  C   UNL A   1      39.056  33.536  38.151  1.00  0.00     0.135 A 
ATOM     86  F   UNL A   1      41.256  35.537  36.054  1.00  0.00    -0.206 F 
ATOM     87  C   UNL A   1      40.198  36.077  38.078  1.00  0.00     0.059 A 
ATOM     88  C   UNL A   1      38.773  34.441  39.170  1.00  0.00     0.059 A 
ATOM     89  F   UNL A   1      38.494  32.319  38.214  1.00  0.00    -0.206 F 
ATOM     90  C   UNL A   1      39.361  35.705  39.132  1.00  0.00     0.060 A 
BRANCH  90  91
ATOM     91  S   UNL A   1      39.028  36.904  40.439  1.00  0.00     0.124 S 
ATOM     92  O   UNL A   1      40.367  37.136  40.972  1.00  0.00    -0.237 OA
ATOM     93  O   UNL A   1      38.438  38.017  39.702  1.00  0.00    -0.237 OA
ATOM     94  O   UNL A   1      38.114  36.194  41.327  1.00  0.00    -0.744 OA
ENDBRANCH  90  91
ENDBRANCH  58  83
ENDBRANCH  32  33
ENDBRANCH  24  27
ENDBRANCH  22  23
ENDBRANCH  21  22
ENDBRANCH   1  21
TORSDOF 18
ENDMDL
MODEL 3
REMARK VINA RESULT:     -10.5      5.051      6.621
REMARK SMILES C[C@@H](Sc1ccccc1[N+](=O)[O-])[C@@H](C)C(=O)NCCCCNC(=O)c1ccc(-c2c3nc(c(-c4c(F)cc(S(=O)(=O)[O-])cc4F)c4ccc([nH]4)c(-c4c(F)cc(S(=O)(=O)[O-])cc4F)c4nc(c(-c5c(F)cc(S(=O)(=O)[O-])cc5F)c5ccc2[nH]5)C=C4)C=C3)cc1
REMARK SMILES IDX 19 1 18 2 17 3 15 4 16 5 13 7 14 8 2 9 1 10 3 11 4 12 5 13
REMARK SMILES IDX 9 14 6 15 8 16 7 17 10 18 11 19 12 20 20 21 21 22 22 23
REMARK SMILES IDX 23 24 24 26 25 27 26 28 90 29 27 30 89 31 28 32 29 33 30 34
REMARK SMILES IDX 83 35 31 36 88 37 82 38 84 39 32 40 87 41 81 42 80 43 33 45
REMARK SMILES IDX 67 46 46 47 66 48 47 49 50 50 65 51 85 52 48 53 49 54 64 56
REMARK SMILES IDX 86 57 51 58 34 59 35 60 44 61 36 62 37 63 43 64 45 65 38 66
REMARK SMILES IDX 39 67 40 68 41 69 42 70 68 71 69 72 78 73 70 74 71 75 77 76
REMARK SMILES IDX 79 77 72 78 73 79 74 80 75 81 76 82 52 83 53 84 62 85 54 86
REMARK SMILES IDX 55 87 61 88 63 89 56 90 57 91 58 92 59 93 60 94
REMARK H PARENT 17 6 22 25 84 44 50 55
REMARK Flexibility Score: inf
ROOT
ATOM      1  C   UNL A   1      33.889  29.909  27.708  1.00  0.00     0.023 C 
ENDROOT
BRANCH   1   2
ATOM      2  C   UNL A   1      32.515  29.943  27.043  1.00  0.00     0.116 C 
BRANCH   2   3
ATOM      3  N   UNL A   1      31.774  28.716  27.258  1.00  0.00    -0.356 N 
ATOM      4  C   UNL A   1      31.422  27.710  26.413  1.00  0.00     0.223 C 
ATOM      5  O   UNL A   1      30.821  26.744  26.892  1.00  0.00    -0.275 OA
ATOM      6  H   UNL A   1      31.470  28.587  28.185  1.00  0.00     0.163 HD
BRANCH   4   7
ATOM      7  C   UNL A   1      31.831  27.702  24.943  1.00  0.00     0.088 C 
ATOM      8  C   UNL A   1      30.689  28.302  24.110  1.00  0.00     0.019 C 
BRANCH   7   9
ATOM      9  C   UNL A   1      32.389  26.336  24.463  1.00  0.00     0.061 C 
ATOM     10  C   UNL A   1      32.983  26.418  23.055  1.00  0.00     0.020 C 
BRANCH   9  11
ATOM     11  S   UNL A   1      33.693  25.739  25.658  1.00  0.00    -0.115 SA
BRANCH  11  12
ATOM     12  C   UNL A   1      33.761  23.986  25.286  1.00  0.00     0.085 A 
ATOM     13  C   UNL A   1      34.926  23.516  24.657  1.00  0.00     0.022 A 
ATOM     14  C   UNL A   1      32.805  23.026  25.658  1.00  0.00     0.282 A 
ATOM     15  C   UNL A   1      35.098  22.165  24.341  1.00  0.00     0.002 A 
ATOM     16  C   UNL A   1      32.977  21.660  25.358  1.00  0.00     0.087 A 
ATOM     17  C   UNL A   1      34.121  21.236  24.685  1.00  0.00     0.007 A 
BRANCH  14  18
ATOM     18  N   UNL A   1      31.603  23.379  26.402  1.00  0.00     0.063 N 
ATOM     19  O   UNL A   1      30.584  23.614  25.736  1.00  0.00    -0.258 OA
ATOM     20  O   UNL A   1      31.694  23.494  27.630  1.00  0.00    -0.258 OA
ENDBRANCH  14  18
ENDBRANCH  11  12
ENDBRANCH   9  11
ENDBRANCH   7   9
ENDBRANCH   4   7
ENDBRANCH   2   3
ENDBRANCH   1   2
BRANCH   1  21
ATOM     21  C   UNL A   1      34.846  31.014  27.260  1.00  0.00     0.023 C 
BRANCH  21  22
ATOM     22  C   UNL A   1      35.758  31.564  28.351  1.00  0.00     0.116 C 
BRANCH  22  23
ATOM     23  N   UNL A   1      35.539  30.936  29.646  1.00  0.00    -0.352 N 
ATOM     24  C   UNL A   1      36.397  30.167  30.394  1.00  0.00     0.251 C 
ATOM     25  H   UNL A   1      34.649  31.082  30.041  1.00  0.00     0.163 HD
ATOM     26  O   UNL A   1      35.989  29.611  31.411  1.00  0.00    -0.269 OA
BRANCH  24  27
ATOM     27  C   UNL A   1      37.795  29.985  29.953  1.00  0.00     0.039 A 
ATOM     28  C   UNL A   1      38.805  29.938  30.918  1.00  0.00     0.014 A 
ATOM     29  C   UNL A   1      38.107  29.832  28.600  1.00  0.00     0.014 A 
ATOM     30  C   UNL A   1      40.118  29.663  30.530  1.00  0.00     0.010 A 
ATOM     31  C   UNL A   1      39.403  29.487  28.222  1.00  0.00     0.010 A 
ATOM     32  C   UNL A   1      40.420  29.394  29.185  1.00  0.00    -0.014 A 
BRANCH  32  33
ATOM     33  C   UNL A   1      41.787  28.980  28.774  1.00  0.00     0.031 A 
ATOM     34  C   UNL A   1      42.900  29.988  28.701  1.00  0.00     0.074 A 
ATOM     35  C   UNL A   1      42.006  27.704  28.400  1.00  0.00     0.049 A 
ATOM     36  N   UNL A   1      44.142  29.820  28.325  1.00  0.00    -0.248 NA
ATOM     37  C   UNL A   1      42.568  31.373  29.074  1.00  0.00     0.031 C 
ATOM     38  C   UNL A   1      40.991  26.648  28.362  1.00  0.00     0.029 A 
ATOM     39  N   UNL A   1      43.148  27.079  27.967  1.00  0.00    -0.354 N 
ATOM     40  C   UNL A   1      44.735  31.074  28.401  1.00  0.00     0.074 A 
ATOM     41  C   UNL A   1      43.704  32.003  28.810  1.00  0.00     0.031 C 
ATOM     42  C   UNL A   1      41.562  25.503  27.954  1.00  0.00     0.029 A 
ATOM     43  C   UNL A   1      42.972  25.748  27.668  1.00  0.00     0.049 A 
ATOM     44  H   UNL A   1      44.014  27.540  27.880  1.00  0.00     0.167 HD
ATOM     45  C   UNL A   1      46.025  31.417  28.172  1.00  0.00     0.037 A 
ATOM     46  C   UNL A   1      43.844  24.830  27.210  1.00  0.00     0.037 A 
ATOM     47  C   UNL A   1      47.052  30.483  27.785  1.00  0.00     0.049 A 
ATOM     48  C   UNL A   1      45.275  25.229  26.980  1.00  0.00     0.074 A 
ATOM     49  C   UNL A   1      48.403  30.717  27.600  1.00  0.00     0.029 A 
ATOM     50  N   UNL A   1      46.840  29.138  27.518  1.00  0.00    -0.354 N 
ATOM     51  N   UNL A   1      45.838  26.403  27.136  1.00  0.00    -0.248 NA
ATOM     52  C   UNL A   1      46.192  24.176  26.522  1.00  0.00     0.031 C 
ATOM     53  C   UNL A   1      49.001  29.523  27.179  1.00  0.00     0.029 A 
ATOM     54  C   UNL A   1      48.031  28.534  27.148  1.00  0.00     0.049 A 
ATOM     55  H   UNL A   1      45.971  28.679  27.582  1.00  0.00     0.167 HD
ATOM     56  C   UNL A   1      47.180  26.227  26.815  1.00  0.00     0.074 A 
ATOM     57  C   UNL A   1      47.346  24.830  26.471  1.00  0.00     0.031 C 
ATOM     58  C   UNL A   1      48.182  27.141  26.805  1.00  0.00     0.037 A 
BRANCH  45  59
ATOM     59  C   UNL A   1      46.401  32.865  28.336  1.00  0.00     0.058 A 
ATOM     60  C   UNL A   1      46.839  33.377  29.569  1.00  0.00     0.135 A 
ATOM     61  C   UNL A   1      46.341  33.748  27.246  1.00  0.00     0.135 A 
ATOM     62  F   UNL A   1      46.901  32.581  30.648  1.00  0.00    -0.206 F 
ATOM     63  C   UNL A   1      47.172  34.719  29.722  1.00  0.00     0.059 A 
ATOM     64  C   UNL A   1      46.697  35.088  27.369  1.00  0.00     0.059 A 
ATOM     65  F   UNL A   1      45.931  33.312  26.044  1.00  0.00    -0.206 F 
ATOM     66  C   UNL A   1      47.094  35.567  28.617  1.00  0.00     0.060 A 
BRANCH  66  67
ATOM     67  S   UNL A   1      47.522  37.309  28.836  1.00  0.00     0.124 S 
ATOM     68  O   UNL A   1      47.904  37.339  30.244  1.00  0.00    -0.237 OA
ATOM     69  O   UNL A   1      48.611  37.485  27.880  1.00  0.00    -0.237 OA
ATOM     70  O   UNL A   1      46.282  38.007  28.506  1.00  0.00    -0.744 OA
ENDBRANCH  66  67
ENDBRANCH  45  59
BRANCH  46  71
ATOM     71  C   UNL A   1      43.388  23.435  26.970  1.00  0.00     0.058 A 
ATOM     72  C   UNL A   1      43.218  22.947  25.665  1.00  0.00     0.135 A 
ATOM     73  C   UNL A   1      43.148  22.553  28.035  1.00  0.00     0.135 A 
ATOM     74  F   UNL A   1      43.429  23.754  24.615  1.00  0.00    -0.206 F 
ATOM     75  C   UNL A   1      42.816  21.637  25.425  1.00  0.00     0.059 A 
ATOM     76  C   UNL A   1      42.769  21.232  27.819  1.00  0.00     0.059 A 
ATOM     77  F   UNL A   1      43.315  22.966  29.300  1.00  0.00    -0.206 F 
ATOM     78  C   UNL A   1      42.599  20.785  26.508  1.00  0.00     0.060 A 
BRANCH  78  79
ATOM     79  S   UNL A   1      42.142  19.068  26.180  1.00  0.00     0.124 S 
ATOM     80  O   UNL A   1      42.407  18.442  27.470  1.00  0.00    -0.237 OA
ATOM     81  O   UNL A   1      40.736  19.191  25.807  1.00  0.00    -0.237 OA
ATOM     82  O   UNL A   1      43.039  18.684  25.094  1.00  0.00    -0.744 OA
ENDBRANCH  78  79
ENDBRANCH  46  71
BRANCH  58  83
ATOM     83  C   UNL A   1      49.554  26.654  26.431  1.00  0.00     0.058 A 
ATOM     84  C   UNL A   1      50.395  26.030  27.367  1.00  0.00     0.135 A 
ATOM     85  C   UNL A   1      50.019  26.779  25.112  1.00  0.00     0.135 A 
ATOM     86  F   UNL A   1      50.002  25.891  28.642  1.00  0.00    -0.206 F 
ATOM     87  C   UNL A   1      51.661  25.571  27.013  1.00  0.00     0.059 A 
ATOM     88  C   UNL A   1      51.270  26.303  24.730  1.00  0.00     0.059 A 
ATOM     89  F   UNL A   1      49.251  27.359  24.177  1.00  0.00    -0.206 F 
ATOM     90  C   UNL A   1      52.090  25.713  25.691  1.00  0.00     0.060 A 
BRANCH  90  91
ATOM     91  S   UNL A   1      53.723  25.092  25.239  1.00  0.00     0.124 S 
ATOM     92  O   UNL A   1      53.900  25.675  23.912  1.00  0.00    -0.237 OA
ATOM     93  O   UNL A   1      54.571  25.643  26.291  1.00  0.00    -0.237 OA
ATOM     94  O   UNL A   1      53.556  23.643  25.272  1.00  0.00    -0.744 OA
ENDBRANCH  90  91
ENDBRANCH  58  83
ENDBRANCH  32  33
ENDBRANCH  24  27
ENDBRANCH  22  23
ENDBRANCH  21  22
ENDBRANCH   1  21
TORSDOF 18
ENDMDL
