MODEL 1
REMARK VINA RESULT:     -13.8      0.000      0.000
REMARK SMILES CC[NH2+][C@@]1(C(=O)NCCCCNC(=O)c2ccc(-c3c4nc(c(-c5c(F)cc(S(=O)(=O)[O-])cc5F)c5ccc([nH]5)c(-c5c(F)cc(S(=O)(=O)[O-])cc5F)c5nc(c(-c6c(F)cc(S(=O)(=O)[O-])cc6F)c6ccc3[nH]6)C=C5)C=C4)cc2)CC[C@H]([NH+]2CCC(C(C)(C)C)CC2)C1
REMARK SMILES IDX 10 1 9 2 8 3 7 4 5 5 6 6 4 8 81 9 94 10 82 11 83 12 3 13
REMARK SMILES IDX 2 16 1 17 84 18 85 19 93 20 86 22 92 23 87 24 88 25 89 26
REMARK SMILES IDX 90 27 91 28 11 29 12 30 13 31 14 33 15 34 16 35 80 36 17 37
REMARK SMILES IDX 79 38 18 39 19 40 20 41 73 42 21 43 78 44 72 45 74 46 22 47
REMARK SMILES IDX 77 48 71 49 70 50 23 52 57 53 36 54 56 55 37 56 40 57 55 58
REMARK SMILES IDX 75 59 38 60 39 61 54 63 76 64 41 65 24 66 25 67 34 68 26 69
REMARK SMILES IDX 27 70 33 71 35 72 28 73 29 74 30 75 31 76 32 77 58 78 59 79
REMARK SMILES IDX 68 80 60 81 61 82 67 83 69 84 62 85 63 86 64 87 65 88 66 89
REMARK SMILES IDX 42 90 43 91 52 92 44 93 45 94 51 95 53 96 46 97 47 98 48 99
REMARK SMILES IDX 49 100 50 101
REMARK H PARENT 7 7 3 14 3 15 84 21 12 32 74 51 40 62
REMARK Flexibility Score: inf
ROOT
ATOM      1  C   UNL A   1      35.626  32.407  28.102  1.00  0.00     0.023 C 
ENDROOT
BRANCH   1   2
ATOM      2  C   UNL A   1      34.127  31.654  27.838  1.00  0.00     0.023 C 
BRANCH   2   3
ATOM      3  C   UNL A   1      33.172  30.241  26.587  1.00  0.00     0.116 C 
BRANCH   3   4
ATOM      4  N   UNL A   1      33.467  29.693  25.141  1.00  0.00    -0.351 N 
ATOM      5  C   UNL A   1      32.808  29.091  24.124  1.00  0.00     0.281 C 
ATOM      6  O   UNL A   1      33.470  28.988  23.079  1.00  0.00    -0.268 OA
ATOM      7  H   UNL A   1      34.413  29.827  24.906  1.00  0.00     0.163 HD
BRANCH   5   8
ATOM      8  C   UNL A   1      31.322  28.649  24.169  1.00  0.00     0.181 C 
ATOM      9  C   UNL A   1      31.093  28.027  25.553  1.00  0.00     0.085 C 
ATOM     10  C   UNL A   1      30.871  27.569  23.181  1.00  0.00     0.144 C 
ATOM     11  C   UNL A   1      30.954  26.526  25.309  1.00  0.00     0.072 C 
ATOM     12  C   UNL A   1      31.276  26.246  23.806  1.00  0.00     0.191 C 
BRANCH   8  13
ATOM     13  N   UNL A   1      30.456  29.866  24.058  1.00  0.00    -0.334 N 
ATOM     14  H   UNL A   1      29.915  29.958  24.918  1.00  0.00     0.347 HD
ATOM     15  H   UNL A   1      31.075  30.661  23.902  1.00  0.00     0.347 HD
BRANCH  13  16
ATOM     16  C   UNL A   1      29.521  29.819  22.926  1.00  0.00     0.257 C 
ATOM     17  C   UNL A   1      28.235  30.540  23.298  1.00  0.00     0.071 C 
ENDBRANCH  13  16
ENDBRANCH   8  13
BRANCH  12  18
ATOM     18  N   UNL A   1      32.595  25.711  23.393  1.00  0.00    -0.332 N 
ATOM     19  C   UNL A   1      32.402  24.207  22.376  1.00  0.00     0.262 C 
ATOM     20  C   UNL A   1      34.047  25.844  24.548  1.00  0.00     0.262 C 
ATOM     21  H   UNL A   1      32.984  26.419  22.770  1.00  0.00     0.348 HD
ATOM     22  C   UNL A   1      33.227  22.542  22.868  1.00  0.00     0.066 C 
ATOM     23  C   UNL A   1      35.087  24.232  25.069  1.00  0.00     0.066 C 
ATOM     24  C   UNL A   1      34.684  22.542  24.163  1.00  0.00     0.005 C 
BRANCH  24  25
ATOM     25  C   UNL A   1      34.603  21.225  25.084  1.00  0.00    -0.035 C 
ATOM     26  C   UNL A   1      36.001  20.565  25.059  1.00  0.00     0.011 C 
ATOM     27  C   UNL A   1      34.240  21.592  26.528  1.00  0.00     0.011 C 
ATOM     28  C   UNL A   1      33.612  20.113  24.645  1.00  0.00     0.011 C 
ENDBRANCH  24  25
ENDBRANCH  12  18
ENDBRANCH   5   8
ENDBRANCH   3   4
ENDBRANCH   2   3
ENDBRANCH   1   2
BRANCH   1  29
ATOM     29  C   UNL A   1      36.277  32.377  29.492  1.00  0.00     0.116 C 
BRANCH  29  30
ATOM     30  N   UNL A   1      35.917  31.208  30.282  1.00  0.00    -0.352 N 
ATOM     31  C   UNL A   1      36.720  30.151  30.652  1.00  0.00     0.251 C 
ATOM     32  H   UNL A   1      34.983  31.167  30.590  1.00  0.00     0.163 HD
ATOM     33  O   UNL A   1      36.311  29.267  31.376  1.00  0.00    -0.269 OA
BRANCH  31  34
ATOM     34  C   UNL A   1      38.061  30.075  30.041  1.00  0.00     0.039 A 
ATOM     35  C   UNL A   1      39.155  30.096  30.905  1.00  0.00     0.014 A 
ATOM     36  C   UNL A   1      38.226  29.854  28.674  1.00  0.00     0.014 A 
ATOM     37  C   UNL A   1      40.420  29.814  30.404  1.00  0.00     0.010 A 
ATOM     38  C   UNL A   1      39.481  29.505  28.186  1.00  0.00     0.010 A 
ATOM     39  C   UNL A   1      40.584  29.471  29.052  1.00  0.00    -0.014 A 
BRANCH  39  40
ATOM     40  C   UNL A   1      41.920  29.067  28.556  1.00  0.00     0.031 A 
ATOM     41  C   UNL A   1      43.029  30.074  28.493  1.00  0.00     0.074 A 
ATOM     42  C   UNL A   1      42.118  27.792  28.168  1.00  0.00     0.049 A 
ATOM     43  N   UNL A   1      44.277  29.902  28.146  1.00  0.00    -0.248 NA
ATOM     44  C   UNL A   1      42.690  31.461  28.851  1.00  0.00     0.031 C 
ATOM     45  C   UNL A   1      41.087  26.749  28.141  1.00  0.00     0.029 A 
ATOM     46  N   UNL A   1      43.247  27.149  27.733  1.00  0.00    -0.354 N 
ATOM     47  C   UNL A   1      44.870  31.153  28.245  1.00  0.00     0.074 A 
ATOM     48  C   UNL A   1      43.834  32.087  28.623  1.00  0.00     0.031 C 
ATOM     49  C   UNL A   1      41.643  25.590  27.749  1.00  0.00     0.029 A 
ATOM     50  C   UNL A   1      43.058  25.813  27.470  1.00  0.00     0.049 A 
ATOM     51  H   UNL A   1      44.114  27.602  27.620  1.00  0.00     0.167 HD
ATOM     52  C   UNL A   1      46.171  31.485  28.062  1.00  0.00     0.037 A 
ATOM     53  C   UNL A   1      43.932  24.873  27.059  1.00  0.00     0.037 A 
ATOM     54  C   UNL A   1      47.190  30.537  27.698  1.00  0.00     0.049 A 
ATOM     55  C   UNL A   1      45.372  25.266  26.867  1.00  0.00     0.074 A 
ATOM     56  C   UNL A   1      48.546  30.753  27.529  1.00  0.00     0.029 A 
ATOM     57  N   UNL A   1      46.962  29.191  27.444  1.00  0.00    -0.354 N 
ATOM     58  N   UNL A   1      45.934  26.440  27.036  1.00  0.00    -0.248 NA
ATOM     59  C   UNL A   1      46.299  24.210  26.442  1.00  0.00     0.031 C 
ATOM     60  C   UNL A   1      49.130  29.547  27.128  1.00  0.00     0.029 A 
ATOM     61  C   UNL A   1      48.148  28.568  27.097  1.00  0.00     0.049 A 
ATOM     62  H   UNL A   1      46.086  28.745  27.501  1.00  0.00     0.167 HD
ATOM     63  C   UNL A   1      47.284  26.260  26.761  1.00  0.00     0.074 A 
ATOM     64  C   UNL A   1      47.456  24.859  26.430  1.00  0.00     0.031 C 
ATOM     65  C   UNL A   1      48.291  27.168  26.778  1.00  0.00     0.037 A 
BRANCH  52  66
ATOM     66  C   UNL A   1      46.551  32.926  28.255  1.00  0.00     0.058 A 
ATOM     67  C   UNL A   1      47.005  33.411  29.492  1.00  0.00     0.135 A 
ATOM     68  C   UNL A   1      46.474  33.835  27.186  1.00  0.00     0.135 A 
ATOM     69  F   UNL A   1      47.080  32.592  30.553  1.00  0.00    -0.206 F 
ATOM     70  C   UNL A   1      47.337  34.749  29.674  1.00  0.00     0.059 A 
ATOM     71  C   UNL A   1      46.829  35.172  27.337  1.00  0.00     0.059 A 
ATOM     72  F   UNL A   1      46.043  33.427  25.982  1.00  0.00    -0.206 F 
ATOM     73  C   UNL A   1      47.243  35.623  28.590  1.00  0.00     0.060 A 
BRANCH  73  74
ATOM     74  S   UNL A   1      47.676  37.358  28.842  1.00  0.00     0.124 S 
ATOM     75  O   UNL A   1      49.134  37.295  28.852  1.00  0.00    -0.237 OA
ATOM     76  O   UNL A   1      47.078  38.000  27.675  1.00  0.00    -0.237 OA
ATOM     77  O   UNL A   1      47.052  37.682  30.121  1.00  0.00    -0.744 OA
ENDBRANCH  73  74
ENDBRANCH  52  66
BRANCH  53  78
ATOM     78  C   UNL A   1      43.475  23.475  26.832  1.00  0.00     0.058 A 
ATOM     79  C   UNL A   1      43.322  22.960  25.535  1.00  0.00     0.135 A 
ATOM     80  C   UNL A   1      43.194  22.618  27.908  1.00  0.00     0.135 A 
ATOM     81  F   UNL A   1      43.574  23.739  24.472  1.00  0.00    -0.206 F 
ATOM     82  C   UNL A   1      42.891  21.656  25.312  1.00  0.00     0.059 A 
ATOM     83  C   UNL A   1      42.787  21.301  27.711  1.00  0.00     0.059 A 
ATOM     84  F   UNL A   1      43.341  23.052  29.169  1.00  0.00    -0.206 F 
ATOM     85  C   UNL A   1      42.628  20.832  26.408  1.00  0.00     0.060 A 
BRANCH  85  86
ATOM     86  S   UNL A   1      42.113  19.127  26.108  1.00  0.00     0.124 S 
ATOM     87  O   UNL A   1      42.985  18.746  25.004  1.00  0.00    -0.237 OA
ATOM     88  O   UNL A   1      42.395  18.493  27.394  1.00  0.00    -0.237 OA
ATOM     89  O   UNL A   1      40.697  19.258  25.781  1.00  0.00    -0.744 OA
ENDBRANCH  85  86
ENDBRANCH  53  78
BRANCH  65  90
ATOM     90  C   UNL A   1      49.673  26.670  26.456  1.00  0.00     0.058 A 
ATOM     91  C   UNL A   1      50.492  26.086  27.434  1.00  0.00     0.135 A 
ATOM     92  C   UNL A   1      50.156  26.723  25.139  1.00  0.00     0.135 A 
ATOM     93  F   UNL A   1      50.078  26.017  28.710  1.00  0.00    -0.206 F 
ATOM     94  C   UNL A   1      51.753  25.592  27.123  1.00  0.00     0.059 A 
ATOM     95  C   UNL A   1      51.402  26.208  24.799  1.00  0.00     0.059 A 
ATOM     96  F   UNL A   1      49.405  27.262  24.165  1.00  0.00    -0.206 F 
ATOM     97  C   UNL A   1      52.197  25.655  25.800  1.00  0.00     0.060 A 
BRANCH  97  98
ATOM     98  S   UNL A   1      53.821  24.975  25.400  1.00  0.00     0.124 S 
ATOM     99  O   UNL A   1      53.499  23.576  25.142  1.00  0.00    -0.237 OA
ATOM    100  O   UNL A   1      54.210  25.762  24.234  1.00  0.00    -0.237 OA
ATOM    101  O   UNL A   1      54.602  25.228  26.608  1.00  0.00    -0.744 OA
ENDBRANCH  97  98
ENDBRANCH  65  90
ENDBRANCH  39  40
ENDBRANCH  31  34
ENDBRANCH  29  30
ENDBRANCH   1  29
TORSDOF 18
ENDMDL
MODEL 2
REMARK VINA RESULT:     -13.7      6.515     12.296
REMARK SMILES CC[NH2+][C@@]1(C(=O)NCCCCNC(=O)c2ccc(-c3c4nc(c(-c5c(F)cc(S(=O)(=O)[O-])cc5F)c5ccc([nH]5)c(-c5c(F)cc(S(=O)(=O)[O-])cc5F)c5nc(c(-c6c(F)cc(S(=O)(=O)[O-])cc6F)c6ccc3[nH]6)C=C5)C=C4)cc2)CC[C@H]([NH+]2CCC(C(C)(C)C)CC2)C1
REMARK SMILES IDX 10 1 9 2 8 3 7 4 5 5 6 6 4 8 81 9 94 10 82 11 83 12 3 13
REMARK SMILES IDX 2 16 1 17 84 18 85 19 93 20 86 22 92 23 87 24 88 25 89 26
REMARK SMILES IDX 90 27 91 28 11 29 12 30 13 31 14 33 15 34 16 35 80 36 17 37
REMARK SMILES IDX 79 38 18 39 19 40 20 41 73 42 21 43 78 44 72 45 74 46 22 47
REMARK SMILES IDX 77 48 71 49 70 50 23 52 57 53 36 54 56 55 37 56 40 57 55 58
REMARK SMILES IDX 75 59 38 60 39 61 54 63 76 64 41 65 24 66 25 67 34 68 26 69
REMARK SMILES IDX 27 70 33 71 35 72 28 73 29 74 30 75 31 76 32 77 58 78 59 79
REMARK SMILES IDX 68 80 60 81 61 82 67 83 69 84 62 85 63 86 64 87 65 88 66 89
REMARK SMILES IDX 42 90 43 91 52 92 44 93 45 94 51 95 53 96 46 97 47 98 48 99
REMARK SMILES IDX 49 100 50 101
REMARK H PARENT 7 7 3 14 3 15 84 21 12 32 74 51 40 62
REMARK Flexibility Score: inf
ROOT
ATOM      1  C   UNL A   1      40.449  22.215  26.763  1.00  0.00     0.023 C 
ENDROOT
BRANCH   1   2
ATOM      2  C   UNL A   1      38.934  22.702  26.170  1.00  0.00     0.023 C 
BRANCH   2   3
ATOM      3  C   UNL A   1      36.987  21.973  25.778  1.00  0.00     0.116 C 
BRANCH   3   4
ATOM      4  N   UNL A   1      35.675  21.855  26.640  1.00  0.00    -0.351 N 
ATOM      5  C   UNL A   1      34.395  21.443  26.498  1.00  0.00     0.281 C 
ATOM      6  O   UNL A   1      33.753  21.402  27.559  1.00  0.00    -0.268 OA
ATOM      7  H   UNL A   1      35.833  22.179  27.556  1.00  0.00     0.163 HD
BRANCH   5   8
ATOM      8  C   UNL A   1      33.766  20.946  25.170  1.00  0.00     0.181 C 
ATOM      9  C   UNL A   1      34.456  21.724  24.042  1.00  0.00     0.085 C 
ATOM     10  C   UNL A   1      32.270  21.198  24.954  1.00  0.00     0.144 C 
ATOM     11  C   UNL A   1      33.409  22.708  23.524  1.00  0.00     0.072 C 
ATOM     12  C   UNL A   1      32.162  22.630  24.461  1.00  0.00     0.191 C 
BRANCH   8  13
ATOM     13  N   UNL A   1      34.090  19.494  24.998  1.00  0.00    -0.334 N 
ATOM     14  H   UNL A   1      34.910  19.415  24.397  1.00  0.00     0.347 HD
ATOM     15  H   UNL A   1      34.255  19.111  25.929  1.00  0.00     0.347 HD
BRANCH  13  16
ATOM     16  C   UNL A   1      32.998  18.716  24.399  1.00  0.00     0.257 C 
ATOM     17  C   UNL A   1      33.579  17.629  23.507  1.00  0.00     0.071 C 
ENDBRANCH  13  16
ENDBRANCH   8  13
BRANCH  12  18
ATOM     18  N   UNL A   1      31.923  23.657  25.503  1.00  0.00    -0.332 N 
ATOM     19  C   UNL A   1      30.278  24.424  25.301  1.00  0.00     0.262 C 
ATOM     20  C   UNL A   1      33.339  24.696  26.117  1.00  0.00     0.262 C 
ATOM     21  H   UNL A   1      31.881  23.139  26.380  1.00  0.00     0.348 HD
ATOM     22  C   UNL A   1      30.068  26.323  25.085  1.00  0.00     0.066 C 
ATOM     23  C   UNL A   1      33.240  26.681  26.074  1.00  0.00     0.066 C 
ATOM     24  C   UNL A   1      31.533  27.509  25.583  1.00  0.00     0.005 C 
BRANCH  24  25
ATOM     25  C   UNL A   1      31.596  28.760  24.573  1.00  0.00    -0.035 C 
ATOM     26  C   UNL A   1      31.889  30.018  25.424  1.00  0.00     0.011 C 
ATOM     27  C   UNL A   1      32.716  28.571  23.542  1.00  0.00     0.011 C 
ATOM     28  C   UNL A   1      30.307  29.091  23.773  1.00  0.00     0.011 C 
ENDBRANCH  24  25
ENDBRANCH  12  18
ENDBRANCH   5   8
ENDBRANCH   3   4
ENDBRANCH   2   3
ENDBRANCH   1   2
BRANCH   1  29
ATOM     29  C   UNL A   1      41.574  23.241  26.957  1.00  0.00     0.116 C 
BRANCH  29  30
ATOM     30  N   UNL A   1      41.673  24.213  25.877  1.00  0.00    -0.352 N 
ATOM     31  C   UNL A   1      41.793  25.582  25.975  1.00  0.00     0.251 C 
ATOM     32  H   UNL A   1      41.651  23.847  24.964  1.00  0.00     0.163 HD
ATOM     33  O   UNL A   1      41.938  26.277  24.990  1.00  0.00    -0.269 OA
BRANCH  31  34
ATOM     34  C   UNL A   1      41.623  26.183  27.312  1.00  0.00     0.039 A 
ATOM     35  C   UNL A   1      42.609  27.070  27.739  1.00  0.00     0.014 A 
ATOM     36  C   UNL A   1      40.462  25.980  28.058  1.00  0.00     0.014 A 
ATOM     37  C   UNL A   1      42.393  27.822  28.889  1.00  0.00     0.010 A 
ATOM     38  C   UNL A   1      40.218  26.780  29.169  1.00  0.00     0.010 A 
ATOM     39  C   UNL A   1      41.178  27.715  29.584  1.00  0.00    -0.014 A 
BRANCH  39  40
ATOM     40  C   UNL A   1      40.917  28.600  30.743  1.00  0.00     0.031 A 
ATOM     41  C   UNL A   1      41.746  28.467  31.985  1.00  0.00     0.074 A 
ATOM     42  C   UNL A   1      39.933  29.517  30.660  1.00  0.00     0.049 A 
ATOM     43  N   UNL A   1      41.711  29.182  33.077  1.00  0.00    -0.248 NA
ATOM     44  C   UNL A   1      42.733  27.375  32.012  1.00  0.00     0.031 C 
ATOM     45  C   UNL A   1      39.035  29.690  29.514  1.00  0.00     0.029 A 
ATOM     46  N   UNL A   1      39.527  30.483  31.544  1.00  0.00    -0.354 N 
ATOM     47  C   UNL A   1      42.668  28.631  33.918  1.00  0.00     0.074 A 
ATOM     48  C   UNL A   1      43.224  27.484  33.237  1.00  0.00     0.031 C 
ATOM     49  C   UNL A   1      38.211  30.724  29.752  1.00  0.00     0.029 A 
ATOM     50  C   UNL A   1      38.502  31.268  31.074  1.00  0.00     0.049 A 
ATOM     51  H   UNL A   1      39.933  30.602  32.434  1.00  0.00     0.167 HD
ATOM     52  C   UNL A   1      43.066  29.063  35.139  1.00  0.00     0.037 A 
ATOM     53  C   UNL A   1      37.874  32.316  31.645  1.00  0.00     0.037 A 
ATOM     54  C   UNL A   1      42.509  30.217  35.795  1.00  0.00     0.049 A 
ATOM     55  C   UNL A   1      38.337  32.779  33.000  1.00  0.00     0.074 A 
ATOM     56  C   UNL A   1      42.864  30.771  37.011  1.00  0.00     0.029 A 
ATOM     57  N   UNL A   1      41.474  30.991  35.287  1.00  0.00    -0.354 N 
ATOM     58  N   UNL A   1      39.296  32.292  33.753  1.00  0.00    -0.248 NA
ATOM     59  C   UNL A   1      37.646  33.937  33.579  1.00  0.00     0.031 C 
ATOM     60  C   UNL A   1      42.013  31.853  37.260  1.00  0.00     0.029 A 
ATOM     61  C   UNL A   1      41.162  32.005  36.175  1.00  0.00     0.049 A 
ATOM     62  H   UNL A   1      41.027  30.840  34.423  1.00  0.00     0.167 HD
ATOM     63  C   UNL A   1      39.339  33.098  34.884  1.00  0.00     0.074 A 
ATOM     64  C   UNL A   1      38.319  34.114  34.708  1.00  0.00     0.031 C 
ATOM     65  C   UNL A   1      40.145  33.008  35.970  1.00  0.00     0.037 A 
BRANCH  52  66
ATOM     66  C   UNL A   1      44.149  28.284  35.831  1.00  0.00     0.058 A 
ATOM     67  C   UNL A   1      43.852  27.238  36.721  1.00  0.00     0.135 A 
ATOM     68  C   UNL A   1      45.502  28.575  35.594  1.00  0.00     0.135 A 
ATOM     69  F   UNL A   1      42.575  26.930  36.999  1.00  0.00    -0.206 F 
ATOM     70  C   UNL A   1      44.854  26.532  37.376  1.00  0.00     0.059 A 
ATOM     71  C   UNL A   1      46.523  27.862  36.217  1.00  0.00     0.059 A 
ATOM     72  F   UNL A   1      45.843  29.566  34.757  1.00  0.00    -0.206 F 
ATOM     73  C   UNL A   1      46.188  26.853  37.119  1.00  0.00     0.060 A 
BRANCH  73  74
ATOM     74  S   UNL A   1      47.478  25.928  37.979  1.00  0.00     0.124 S 
ATOM     75  O   UNL A   1      47.791  26.827  39.086  1.00  0.00    -0.237 OA
ATOM     76  O   UNL A   1      46.788  24.694  38.341  1.00  0.00    -0.237 OA
ATOM     77  O   UNL A   1      48.525  25.786  36.971  1.00  0.00    -0.744 OA
ENDBRANCH  73  74
ENDBRANCH  52  66
BRANCH  53  78
ATOM     78  C   UNL A   1      36.769  33.007  30.927  1.00  0.00     0.058 A 
ATOM     79  C   UNL A   1      35.436  32.882  31.347  1.00  0.00     0.135 A 
ATOM     80  C   UNL A   1      37.024  33.821  29.811  1.00  0.00     0.135 A 
ATOM     81  F   UNL A   1      35.138  32.113  32.406  1.00  0.00    -0.206 F 
ATOM     82  C   UNL A   1      34.395  33.521  30.680  1.00  0.00     0.059 A 
ATOM     83  C   UNL A   1      36.004  34.492  29.143  1.00  0.00     0.059 A 
ATOM     84  F   UNL A   1      38.282  33.991  29.376  1.00  0.00    -0.206 F 
ATOM     85  C   UNL A   1      34.690  34.326  29.579  1.00  0.00     0.060 A 
BRANCH  85  86
ATOM     86  S   UNL A   1      33.338  35.188  28.747  1.00  0.00     0.124 S 
ATOM     87  O   UNL A   1      34.057  36.213  28.001  1.00  0.00    -0.237 OA
ATOM     88  O   UNL A   1      32.738  34.120  27.952  1.00  0.00    -0.237 OA
ATOM     89  O   UNL A   1      32.517  35.670  29.854  1.00  0.00    -0.744 OA
ENDBRANCH  85  86
ENDBRANCH  53  78
BRANCH  65  90
ATOM     90  C   UNL A   1      39.977  34.051  37.041  1.00  0.00     0.058 A 
ATOM     91  C   UNL A   1      40.608  35.301  36.957  1.00  0.00     0.135 A 
ATOM     92  C   UNL A   1      39.125  33.814  38.132  1.00  0.00     0.135 A 
ATOM     93  F   UNL A   1      41.437  35.573  35.937  1.00  0.00    -0.206 F 
ATOM     94  C   UNL A   1      40.417  36.276  37.930  1.00  0.00     0.059 A 
ATOM     95  C   UNL A   1      38.896  34.785  39.101  1.00  0.00     0.059 A 
ATOM     96  F   UNL A   1      38.489  32.638  38.251  1.00  0.00    -0.206 F 
ATOM     97  C   UNL A   1      39.556  36.008  38.997  1.00  0.00     0.060 A 
BRANCH  97  98
ATOM     98  S   UNL A   1      39.288  37.295  40.234  1.00  0.00     0.124 S 
ATOM     99  O   UNL A   1      38.549  36.567  41.260  1.00  0.00    -0.237 OA
ATOM    100  O   UNL A   1      40.652  37.678  40.586  1.00  0.00    -0.237 OA
ATOM    101  O   UNL A   1      38.526  38.308  39.509  1.00  0.00    -0.744 OA
ENDBRANCH  97  98
ENDBRANCH  65  90
ENDBRANCH  39  40
ENDBRANCH  31  34
ENDBRANCH  29  30
ENDBRANCH   1  29
TORSDOF 18
ENDMDL
MODEL 3
REMARK VINA RESULT:     -13.3      2.319      9.069
REMARK SMILES CC[NH2+][C@@]1(C(=O)NCCCCNC(=O)c2ccc(-c3c4nc(c(-c5c(F)cc(S(=O)(=O)[O-])cc5F)c5ccc([nH]5)c(-c5c(F)cc(S(=O)(=O)[O-])cc5F)c5nc(c(-c6c(F)cc(S(=O)(=O)[O-])cc6F)c6ccc3[nH]6)C=C5)C=C4)cc2)CC[C@H]([NH+]2CCC(C(C)(C)C)CC2)C1
REMARK SMILES IDX 10 1 9 2 8 3 7 4 5 5 6 6 4 8 81 9 94 10 82 11 83 12 3 13
REMARK SMILES IDX 2 16 1 17 84 18 85 19 93 20 86 22 92 23 87 24 88 25 89 26
REMARK SMILES IDX 90 27 91 28 11 29 12 30 13 31 14 33 15 34 16 35 80 36 17 37
REMARK SMILES IDX 79 38 18 39 19 40 20 41 73 42 21 43 78 44 72 45 74 46 22 47
REMARK SMILES IDX 77 48 71 49 70 50 23 52 57 53 36 54 56 55 37 56 40 57 55 58
REMARK SMILES IDX 75 59 38 60 39 61 54 63 76 64 41 65 24 66 25 67 34 68 26 69
REMARK SMILES IDX 27 70 33 71 35 72 28 73 29 74 30 75 31 76 32 77 58 78 59 79
REMARK SMILES IDX 68 80 60 81 61 82 67 83 69 84 62 85 63 86 64 87 65 88 66 89
REMARK SMILES IDX 42 90 43 91 52 92 44 93 45 94 51 95 53 96 46 97 47 98 48 99
REMARK SMILES IDX 49 100 50 101
REMARK H PARENT 7 7 3 14 3 15 84 21 12 32 74 51 40 62
REMARK Flexibility Score: inf
ROOT
ATOM      1  C   UNL A   1      38.287  21.211  25.353  1.00  0.00     0.023 C 
ENDROOT
BRANCH   1   2
ATOM      2  C   UNL A   1      37.288  22.579  25.461  1.00  0.00     0.023 C 
BRANCH   2   3
ATOM      3  C   UNL A   1      35.877  23.700  24.353  1.00  0.00     0.116 C 
BRANCH   3   4
ATOM      4  N   UNL A   1      34.539  23.335  23.607  1.00  0.00    -0.351 N 
ATOM      5  C   UNL A   1      33.242  23.093  23.899  1.00  0.00     0.281 C 
ATOM      6  O   UNL A   1      32.506  22.994  22.904  1.00  0.00    -0.268 OA
ATOM      7  H   UNL A   1      34.695  23.258  22.638  1.00  0.00     0.163 HD
BRANCH   5   8
ATOM      8  C   UNL A   1      32.649  23.046  25.332  1.00  0.00     0.181 C 
ATOM      9  C   UNL A   1      31.125  22.992  25.173  1.00  0.00     0.085 C 
ATOM     10  C   UNL A   1      32.901  24.250  26.246  1.00  0.00     0.144 C 
ATOM     11  C   UNL A   1      30.619  24.366  25.609  1.00  0.00     0.072 C 
ATOM     12  C   UNL A   1      31.859  25.283  25.857  1.00  0.00     0.191 C 
BRANCH   8  13
ATOM     13  N   UNL A   1      33.092  21.776  25.993  1.00  0.00    -0.334 N 
ATOM     14  H   UNL A   1      34.106  21.804  26.099  1.00  0.00     0.347 HD
ATOM     15  H   UNL A   1      32.610  21.721  26.890  1.00  0.00     0.347 HD
BRANCH  13  16
ATOM     16  C   UNL A   1      32.737  20.568  25.238  1.00  0.00     0.257 C 
ATOM     17  C   UNL A   1      33.994  19.760  24.952  1.00  0.00     0.071 C 
ENDBRANCH  13  16
ENDBRANCH   8  13
BRANCH  12  18
ATOM     18  N   UNL A   1      32.284  26.285  24.850  1.00  0.00    -0.332 N 
ATOM     19  C   UNL A   1      32.326  27.961  25.570  1.00  0.00     0.262 C 
ATOM     20  C   UNL A   1      31.781  26.074  23.071  1.00  0.00     0.262 C 
ATOM     21  H   UNL A   1      33.253  26.050  24.637  1.00  0.00     0.348 HD
ATOM     22  C   UNL A   1      31.310  29.410  24.818  1.00  0.00     0.066 C 
ATOM     23  C   UNL A   1      30.824  27.523  22.104  1.00  0.00     0.066 C 
ATOM     24  C   UNL A   1      30.626  29.256  22.999  1.00  0.00     0.005 C 
BRANCH  24  25
ATOM     25  C   UNL A   1      29.190  29.971  22.889  1.00  0.00    -0.035 C 
ATOM     26  C   UNL A   1      29.069  30.533  21.453  1.00  0.00     0.011 C 
ATOM     27  C   UNL A   1      28.059  28.964  23.137  1.00  0.00     0.011 C 
ATOM     28  C   UNL A   1      28.924  31.178  23.829  1.00  0.00     0.011 C 
ENDBRANCH  24  25
ENDBRANCH  12  18
ENDBRANCH   5   8
ENDBRANCH   3   4
ENDBRANCH   2   3
ENDBRANCH   1   2
BRANCH   1  29
ATOM     29  C   UNL A   1      39.498  21.056  26.284  1.00  0.00     0.116 C 
BRANCH  29  30
ATOM     30  N   UNL A   1      40.309  19.881  25.998  1.00  0.00    -0.352 N 
ATOM     31  C   UNL A   1      41.668  19.724  26.167  1.00  0.00     0.251 C 
ATOM     32  H   UNL A   1      39.827  19.101  25.640  1.00  0.00     0.163 HD
ATOM     33  O   UNL A   1      42.214  18.661  25.955  1.00  0.00    -0.269 OA
BRANCH  31  34
ATOM     34  C   UNL A   1      42.451  20.928  26.505  1.00  0.00     0.039 A 
ATOM     35  C   UNL A   1      42.839  21.751  25.450  1.00  0.00     0.014 A 
ATOM     36  C   UNL A   1      42.675  21.300  27.831  1.00  0.00     0.014 A 
ATOM     37  C   UNL A   1      43.388  22.998  25.729  1.00  0.00     0.010 A 
ATOM     38  C   UNL A   1      43.161  22.573  28.109  1.00  0.00     0.010 A 
ATOM     39  C   UNL A   1      43.509  23.435  27.058  1.00  0.00    -0.014 A 
BRANCH  39  40
ATOM     40  C   UNL A   1      43.994  24.807  27.336  1.00  0.00     0.031 A 
ATOM     41  C   UNL A   1      45.440  25.144  27.129  1.00  0.00     0.074 A 
ATOM     42  C   UNL A   1      43.121  25.735  27.773  1.00  0.00     0.049 A 
ATOM     43  N   UNL A   1      46.042  26.295  27.261  1.00  0.00    -0.248 NA
ATOM     44  C   UNL A   1      46.331  24.039  26.740  1.00  0.00     0.031 C 
ATOM     45  C   UNL A   1      41.702  25.492  28.056  1.00  0.00     0.029 A 
ATOM     46  N   UNL A   1      43.286  27.069  28.044  1.00  0.00    -0.354 N 
ATOM     47  C   UNL A   1      47.379  26.056  26.970  1.00  0.00     0.074 A 
ATOM     48  C   UNL A   1      47.512  24.639  26.716  1.00  0.00     0.031 C 
ATOM     49  C   UNL A   1      41.123  26.647  28.425  1.00  0.00     0.029 A 
ATOM     50  C   UNL A   1      42.129  27.703  28.431  1.00  0.00     0.049 A 
ATOM     51  H   UNL A   1      44.154  27.529  27.969  1.00  0.00     0.167 HD
ATOM     52  C   UNL A   1      48.397  26.946  26.894  1.00  0.00     0.037 A 
ATOM     53  C   UNL A   1      41.908  28.995  28.746  1.00  0.00     0.037 A 
ATOM     54  C   UNL A   1      48.241  28.355  27.137  1.00  0.00     0.049 A 
ATOM     55  C   UNL A   1      43.055  29.965  28.651  1.00  0.00     0.074 A 
ATOM     56  C   UNL A   1      49.193  29.355  27.047  1.00  0.00     0.029 A 
ATOM     57  N   UNL A   1      47.054  28.963  27.523  1.00  0.00    -0.354 N 
ATOM     58  N   UNL A   1      44.299  29.736  28.301  1.00  0.00    -0.248 NA
ATOM     59  C   UNL A   1      42.769  31.367  28.979  1.00  0.00     0.031 C 
ATOM     60  C   UNL A   1      48.591  30.561  27.423  1.00  0.00     0.029 A 
ATOM     61  C   UNL A   1      47.253  30.322  27.697  1.00  0.00     0.049 A 
ATOM     62  H   UNL A   1      46.197  28.497  27.655  1.00  0.00     0.167 HD
ATOM     63  C   UNL A   1      44.940  30.968  28.345  1.00  0.00     0.074 A 
ATOM     64  C   UNL A   1      43.940  31.941  28.739  1.00  0.00     0.031 C 
ATOM     65  C   UNL A   1      46.236  31.270  28.084  1.00  0.00     0.037 A 
BRANCH  52  66
ATOM     66  C   UNL A   1      49.757  26.414  26.535  1.00  0.00     0.058 A 
ATOM     67  C   UNL A   1      50.202  26.364  25.204  1.00  0.00     0.135 A 
ATOM     68  C   UNL A   1      50.633  25.960  27.535  1.00  0.00     0.135 A 
ATOM     69  F   UNL A   1      49.398  26.766  24.207  1.00  0.00    -0.206 F 
ATOM     70  C   UNL A   1      51.451  25.852  24.872  1.00  0.00     0.059 A 
ATOM     71  C   UNL A   1      51.900  25.472  27.228  1.00  0.00     0.059 A 
ATOM     72  F   UNL A   1      50.258  25.982  28.823  1.00  0.00    -0.206 F 
ATOM     73  C   UNL A   1      52.293  25.406  25.892  1.00  0.00     0.060 A 
BRANCH  73  74
ATOM     74  S   UNL A   1      53.912  24.744  25.445  1.00  0.00     0.124 S 
ATOM     75  O   UNL A   1      54.288  25.618  24.339  1.00  0.00    -0.237 OA
ATOM     76  O   UNL A   1      54.672  24.921  26.678  1.00  0.00    -0.237 OA
ATOM     77  O   UNL A   1      53.625  23.359  25.081  1.00  0.00    -0.744 OA
ENDBRANCH  73  74
ENDBRANCH  52  66
BRANCH  53  78
ATOM     78  C   UNL A   1      40.547  29.443  29.150  1.00  0.00     0.058 A 
ATOM     79  C   UNL A   1      39.523  29.605  28.204  1.00  0.00     0.135 A 
ATOM     80  C   UNL A   1      40.238  29.707  30.493  1.00  0.00     0.135 A 
ATOM     81  F   UNL A   1      39.767  29.370  26.906  1.00  0.00    -0.206 F 
ATOM     82  C   UNL A   1      38.249  30.028  28.571  1.00  0.00     0.059 A 
ATOM     83  C   UNL A   1      38.964  30.105  30.889  1.00  0.00     0.059 A 
ATOM     84  F   UNL A   1      41.174  29.551  31.443  1.00  0.00    -0.206 F 
ATOM     85  C   UNL A   1      37.978  30.274  29.918  1.00  0.00     0.060 A 
BRANCH  85  86
ATOM     86  S   UNL A   1      36.309  30.778  30.391  1.00  0.00     0.124 S 
ATOM     87  O   UNL A   1      35.557  30.478  29.179  1.00  0.00    -0.237 OA
ATOM     88  O   UNL A   1      36.043  29.917  31.539  1.00  0.00    -0.237 OA
ATOM     89  O   UNL A   1      36.465  32.195  30.704  1.00  0.00    -0.744 OA
ENDBRANCH  85  86
ENDBRANCH  53  78
BRANCH  65  90
ATOM     90  C   UNL A   1      46.642  32.714  28.190  1.00  0.00     0.058 A 
ATOM     91  C   UNL A   1      47.256  33.224  29.344  1.00  0.00     0.135 A 
ATOM     92  C   UNL A   1      46.469  33.580  27.098  1.00  0.00     0.135 A 
ATOM     93  F   UNL A   1      47.439  32.437  30.417  1.00  0.00    -0.206 F 
ATOM     94  C   UNL A   1      47.665  34.550  29.421  1.00  0.00     0.059 A 
ATOM     95  C   UNL A   1      46.897  34.902  27.143  1.00  0.00     0.059 A 
ATOM     96  F   UNL A   1      45.897  33.137  25.967  1.00  0.00    -0.206 F 
ATOM     97  C   UNL A   1      47.483  35.380  28.313  1.00  0.00     0.060 A 
BRANCH  97  98
ATOM     98  S   UNL A   1      48.053  37.090  28.412  1.00  0.00     0.124 S 
ATOM     99  O   UNL A   1      49.474  36.911  28.686  1.00  0.00    -0.237 OA
ATOM    100  O   UNL A   1      47.723  37.606  27.087  1.00  0.00    -0.237 OA
ATOM    101  O   UNL A   1      47.265  37.647  29.508  1.00  0.00    -0.744 OA
ENDBRANCH  97  98
ENDBRANCH  65  90
ENDBRANCH  39  40
ENDBRANCH  31  34
ENDBRANCH  29  30
ENDBRANCH   1  29
TORSDOF 18
ENDMDL
