MODEL 1
REMARK VINA RESULT:     -10.4      0.000      0.000
REMARK SMILES CC[C@H](C(=O)NCCCCNC(=O)c1ccc(-c2c3nc(c(-c4c(F)cc(S(=O)(=O)[O-])cc4F)c4ccc([nH]4)c(-c4c(F)cc(S(=O)(=O)[O-])cc4F)c4nc(c(-c5c(F)cc(S(=O)(=O)[O-])cc5F)c5ccc2[nH]5)C=C4)C=C3)cc1)[N@@H+](C)[C@H]1CC[C@@H]([NH2+]C)CC1
REMARK SMILES IDX 8 1 7 2 6 3 4 4 5 5 3 7 2 8 1 9 80 10 81 11 82 13 89 14
REMARK SMILES IDX 83 15 88 16 84 17 85 18 86 19 87 20 9 23 10 24 11 25 12 26
REMARK SMILES IDX 13 28 14 29 15 30 79 31 16 32 78 33 17 34 18 35 19 36 72 37
REMARK SMILES IDX 20 38 77 39 71 40 73 41 21 42 76 43 70 44 69 45 22 47 56 48
REMARK SMILES IDX 35 49 55 50 36 51 39 52 54 53 74 54 37 55 38 56 53 58 75 59
REMARK SMILES IDX 40 60 23 61 24 62 33 63 25 64 26 65 32 66 34 67 27 68 28 69
REMARK SMILES IDX 29 70 30 71 31 72 57 73 58 74 67 75 59 76 60 77 66 78 68 79
REMARK SMILES IDX 61 80 62 81 63 82 64 83 65 84 41 85 42 86 51 87 43 88 44 89
REMARK SMILES IDX 50 90 52 91 45 92 46 93 47 94 48 95 49 96
REMARK H PARENT 6 6 80 12 86 21 86 22 11 27 73 46 39 57
REMARK Flexibility Score: inf
ROOT
ATOM      1  C   UNL A   1      33.137  29.189  24.786  1.00  0.00     0.023 C 
ENDROOT
BRANCH   1   2
ATOM      2  C   UNL A   1      33.358  28.961  23.296  1.00  0.00     0.116 C 
BRANCH   2   3
ATOM      3  N   UNL A   1      32.115  28.755  22.580  1.00  0.00    -0.351 N 
ATOM      4  C   UNL A   1      31.210  27.738  22.576  1.00  0.00     0.278 C 
ATOM      5  O   UNL A   1      30.159  27.974  21.963  1.00  0.00    -0.268 OA
ATOM      6  H   UNL A   1      31.879  29.495  21.976  1.00  0.00     0.163 HD
BRANCH   4   7
ATOM      7  C   UNL A   1      31.408  26.353  23.264  1.00  0.00     0.273 C 
BRANCH   7   8
ATOM      8  C   UNL A   1      30.315  25.716  24.145  1.00  0.00     0.072 C 
ATOM      9  C   UNL A   1      30.621  25.725  25.639  1.00  0.00     0.011 C 
ENDBRANCH   7   8
BRANCH   7  10
ATOM     10  N   UNL A   1      32.118  25.376  22.387  1.00  0.00    -0.325 N 
ATOM     11  C   UNL A   1      32.275  25.856  21.020  1.00  0.00     0.333 C 
ATOM     12  H   UNL A   1      31.426  24.627  22.406  1.00  0.00     0.348 HD
BRANCH  10  13
ATOM     13  C   UNL A   1      33.112  24.399  22.895  1.00  0.00     0.184 C 
ATOM     14  C   UNL A   1      33.989  24.953  24.054  1.00  0.00     0.071 C 
ATOM     15  C   UNL A   1      32.572  22.994  23.224  1.00  0.00     0.071 C 
ATOM     16  C   UNL A   1      34.937  23.934  24.686  1.00  0.00     0.071 C 
ATOM     17  C   UNL A   1      33.561  22.049  23.909  1.00  0.00     0.071 C 
ATOM     18  C   UNL A   1      34.210  22.668  25.148  1.00  0.00     0.182 C 
BRANCH  18  19
ATOM     19  N   UNL A   1      33.171  22.886  26.164  1.00  0.00    -0.346 N 
ATOM     20  C   UNL A   1      33.581  22.526  27.511  1.00  0.00     0.331 C 
ATOM     21  H   UNL A   1      32.356  22.327  25.917  1.00  0.00     0.346 HD
ATOM     22  H   UNL A   1      32.970  23.886  26.174  1.00  0.00     0.346 HD
ENDBRANCH  18  19
ENDBRANCH  10  13
ENDBRANCH   7  10
ENDBRANCH   4   7
ENDBRANCH   2   3
ENDBRANCH   1   2
BRANCH   1  23
ATOM     23  C   UNL A   1      34.004  28.317  25.690  1.00  0.00     0.023 C 
BRANCH  23  24
ATOM     24  C   UNL A   1      33.721  28.440  27.183  1.00  0.00     0.116 C 
BRANCH  24  25
ATOM     25  N   UNL A   1      33.602  29.816  27.644  1.00  0.00    -0.352 N 
ATOM     26  C   UNL A   1      34.554  30.602  28.246  1.00  0.00     0.251 C 
ATOM     27  H   UNL A   1      32.723  30.239  27.506  1.00  0.00     0.163 HD
ATOM     28  O   UNL A   1      34.259  31.715  28.672  1.00  0.00    -0.269 OA
BRANCH  26  29
ATOM     29  C   UNL A   1      35.923  30.075  28.410  1.00  0.00     0.039 A 
ATOM     30  C   UNL A   1      36.804  30.136  27.329  1.00  0.00     0.014 A 
ATOM     31  C   UNL A   1      36.348  29.574  29.644  1.00  0.00     0.014 A 
ATOM     32  C   UNL A   1      38.134  29.757  27.507  1.00  0.00     0.010 A 
ATOM     33  C   UNL A   1      37.693  29.277  29.840  1.00  0.00     0.010 A 
ATOM     34  C   UNL A   1      38.597  29.358  28.773  1.00  0.00    -0.014 A 
BRANCH  34  35
ATOM     35  C   UNL A   1      40.026  29.022  28.988  1.00  0.00     0.031 A 
ATOM     36  C   UNL A   1      40.961  30.039  29.583  1.00  0.00     0.074 A 
ATOM     37  C   UNL A   1      40.489  27.816  28.602  1.00  0.00     0.049 A 
ATOM     38  N   UNL A   1      42.237  29.932  29.849  1.00  0.00    -0.248 NA
ATOM     39  C   UNL A   1      40.395  31.363  29.890  1.00  0.00     0.031 C 
ATOM     40  C   UNL A   1      39.696  26.776  27.940  1.00  0.00     0.029 A 
ATOM     41  N   UNL A   1      41.736  27.259  28.713  1.00  0.00    -0.354 N 
ATOM     42  C   UNL A   1      42.626  31.171  30.342  1.00  0.00     0.074 A 
ATOM     43  C   UNL A   1      41.469  32.036  30.275  1.00  0.00     0.031 C 
ATOM     44  C   UNL A   1      40.467  25.694  27.740  1.00  0.00     0.029 A 
ATOM     45  C   UNL A   1      41.810  25.970  28.238  1.00  0.00     0.049 A 
ATOM     46  H   UNL A   1      42.508  27.736  29.095  1.00  0.00     0.167 HD
ATOM     47  C   UNL A   1      43.831  31.547  30.834  1.00  0.00     0.037 A 
ATOM     48  C   UNL A   1      42.841  25.104  28.223  1.00  0.00     0.037 A 
ATOM     49  C   UNL A   1      44.969  30.671  30.926  1.00  0.00     0.049 A 
ATOM     50  C   UNL A   1      44.154  25.524  28.826  1.00  0.00     0.074 A 
ATOM     51  C   UNL A   1      46.219  30.932  31.458  1.00  0.00     0.029 A 
ATOM     52  N   UNL A   1      44.992  29.358  30.477  1.00  0.00    -0.354 N 
ATOM     53  N   UNL A   1      44.486  26.679  29.353  1.00  0.00    -0.248 NA
ATOM     54  C   UNL A   1      45.224  24.519  28.851  1.00  0.00     0.031 C 
ATOM     55  C   UNL A   1      47.007  29.784  31.307  1.00  0.00     0.029 A 
ATOM     56  C   UNL A   1      46.234  28.797  30.716  1.00  0.00     0.049 A 
ATOM     57  H   UNL A   1      44.236  28.893  30.051  1.00  0.00     0.167 HD
ATOM     58  C   UNL A   1      45.795  26.532  29.796  1.00  0.00     0.074 A 
ATOM     59  C   UNL A   1      46.187  25.170  29.489  1.00  0.00     0.031 C 
ATOM     60  C   UNL A   1      46.601  27.439  30.403  1.00  0.00     0.037 A 
BRANCH  47  61
ATOM     61  C   UNL A   1      43.966  32.963  31.325  1.00  0.00     0.058 A 
ATOM     62  C   UNL A   1      43.709  33.303  32.664  1.00  0.00     0.135 A 
ATOM     63  C   UNL A   1      44.360  33.991  30.454  1.00  0.00     0.135 A 
ATOM     64  F   UNL A   1      43.311  32.364  33.536  1.00  0.00    -0.206 F 
ATOM     65  C   UNL A   1      43.804  34.616  33.114  1.00  0.00     0.059 A 
ATOM     66  C   UNL A   1      44.489  35.307  30.889  1.00  0.00     0.059 A 
ATOM     67  F   UNL A   1      44.615  33.723  29.164  1.00  0.00    -0.206 F 
ATOM     68  C   UNL A   1      44.191  35.612  32.216  1.00  0.00     0.060 A 
BRANCH  68  69
ATOM     69  S   UNL A   1      44.304  37.313  32.812  1.00  0.00     0.124 S 
ATOM     70  O   UNL A   1      44.261  38.063  31.560  1.00  0.00    -0.237 OA
ATOM     71  O   UNL A   1      43.122  37.428  33.660  1.00  0.00    -0.237 OA
ATOM     72  O   UNL A   1      45.582  37.341  33.517  1.00  0.00    -0.744 OA
ENDBRANCH  68  69
ENDBRANCH  47  61
BRANCH  48  73
ATOM     73  C   UNL A   1      42.654  23.735  27.675  1.00  0.00     0.058 A 
ATOM     74  C   UNL A   1      42.401  22.648  28.524  1.00  0.00     0.135 A 
ATOM     75  C   UNL A   1      42.704  23.487  26.295  1.00  0.00     0.135 A 
ATOM     76  F   UNL A   1      42.346  22.834  29.853  1.00  0.00    -0.206 F 
ATOM     77  C   UNL A   1      42.221  21.360  28.030  1.00  0.00     0.059 A 
ATOM     78  C   UNL A   1      42.505  22.212  25.773  1.00  0.00     0.059 A 
ATOM     79  F   UNL A   1      42.922  24.497  25.438  1.00  0.00    -0.206 F 
ATOM     80  C   UNL A   1      42.274  21.153  26.651  1.00  0.00     0.060 A 
BRANCH  80  81
ATOM     81  S   UNL A   1      41.987  19.487  26.013  1.00  0.00     0.124 S 
ATOM     82  O   UNL A   1      40.549  19.509  25.772  1.00  0.00    -0.237 OA
ATOM     83  O   UNL A   1      42.834  19.462  24.823  1.00  0.00    -0.237 OA
ATOM     84  O   UNL A   1      42.432  18.630  27.107  1.00  0.00    -0.744 OA
ENDBRANCH  80  81
ENDBRANCH  48  73
BRANCH  60  85
ATOM     85  C   UNL A   1      47.973  26.971  30.802  1.00  0.00     0.058 A 
ATOM     86  C   UNL A   1      48.218  26.387  32.054  1.00  0.00     0.135 A 
ATOM     87  C   UNL A   1      49.052  27.100  29.914  1.00  0.00     0.135 A 
ATOM     88  F   UNL A   1      47.220  26.243  32.941  1.00  0.00    -0.206 F 
ATOM     89  C   UNL A   1      49.496  25.983  32.429  1.00  0.00     0.059 A 
ATOM     90  C   UNL A   1      50.333  26.678  30.256  1.00  0.00     0.059 A 
ATOM     91  F   UNL A   1      48.868  27.639  28.698  1.00  0.00    -0.206 F 
ATOM     92  C   UNL A   1      50.547  26.139  31.525  1.00  0.00     0.060 A 
BRANCH  92  93
ATOM     93  S   UNL A   1      52.204  25.618  32.019  1.00  0.00     0.124 S 
ATOM     94  O   UNL A   1      52.980  25.942  30.826  1.00  0.00    -0.237 OA
ATOM     95  O   UNL A   1      52.462  26.452  33.189  1.00  0.00    -0.237 OA
ATOM     96  O   UNL A   1      52.041  24.194  32.296  1.00  0.00    -0.744 OA
ENDBRANCH  92  93
ENDBRANCH  60  85
ENDBRANCH  34  35
ENDBRANCH  26  29
ENDBRANCH  24  25
ENDBRANCH  23  24
ENDBRANCH   1  23
TORSDOF 18
ENDMDL
MODEL 2
REMARK VINA RESULT:     -10.1      3.012      9.255
REMARK SMILES CC[C@H](C(=O)NCCCCNC(=O)c1ccc(-c2c3nc(c(-c4c(F)cc(S(=O)(=O)[O-])cc4F)c4ccc([nH]4)c(-c4c(F)cc(S(=O)(=O)[O-])cc4F)c4nc(c(-c5c(F)cc(S(=O)(=O)[O-])cc5F)c5ccc2[nH]5)C=C4)C=C3)cc1)[N@@H+](C)[C@H]1CC[C@@H]([NH2+]C)CC1
REMARK SMILES IDX 8 1 7 2 6 3 4 4 5 5 3 7 2 8 1 9 80 10 81 11 82 13 89 14
REMARK SMILES IDX 83 15 88 16 84 17 85 18 86 19 87 20 9 23 10 24 11 25 12 26
REMARK SMILES IDX 13 28 14 29 15 30 79 31 16 32 78 33 17 34 18 35 19 36 72 37
REMARK SMILES IDX 20 38 77 39 71 40 73 41 21 42 76 43 70 44 69 45 22 47 56 48
REMARK SMILES IDX 35 49 55 50 36 51 39 52 54 53 74 54 37 55 38 56 53 58 75 59
REMARK SMILES IDX 40 60 23 61 24 62 33 63 25 64 26 65 32 66 34 67 27 68 28 69
REMARK SMILES IDX 29 70 30 71 31 72 57 73 58 74 67 75 59 76 60 77 66 78 68 79
REMARK SMILES IDX 61 80 62 81 63 82 64 83 65 84 41 85 42 86 51 87 43 88 44 89
REMARK SMILES IDX 50 90 52 91 45 92 46 93 47 94 48 95 49 96
REMARK H PARENT 6 6 80 12 86 21 86 22 11 27 73 46 39 57
REMARK Flexibility Score: inf
ROOT
ATOM      1  C   UNL A   1      34.987  24.098  23.981  1.00  0.00     0.023 C 
ENDROOT
BRANCH   1   2
ATOM      2  C   UNL A   1      33.509  24.250  23.647  1.00  0.00     0.116 C 
BRANCH   2   3
ATOM      3  N   UNL A   1      33.292  24.603  22.257  1.00  0.00    -0.351 N 
ATOM      4  C   UNL A   1      32.780  25.713  21.656  1.00  0.00     0.278 C 
ATOM      5  O   UNL A   1      32.904  25.744  20.423  1.00  0.00    -0.268 OA
ATOM      6  H   UNL A   1      33.568  23.903  21.624  1.00  0.00     0.163 HD
BRANCH   4   7
ATOM      7  C   UNL A   1      32.076  26.892  22.392  1.00  0.00     0.273 C 
BRANCH   7   8
ATOM      8  C   UNL A   1      30.624  26.785  22.899  1.00  0.00     0.072 C 
ATOM      9  C   UNL A   1      30.269  25.440  23.524  1.00  0.00     0.011 C 
ENDBRANCH   7   8
BRANCH   7  10
ATOM     10  N   UNL A   1      32.989  27.608  23.330  1.00  0.00    -0.325 N 
ATOM     11  C   UNL A   1      34.020  28.372  22.639  1.00  0.00     0.333 C 
ATOM     12  H   UNL A   1      33.411  26.795  23.777  1.00  0.00     0.348 HD
BRANCH  10  13
ATOM     13  C   UNL A   1      32.573  28.068  24.678  1.00  0.00     0.184 C 
ATOM     14  C   UNL A   1      33.546  27.628  25.810  1.00  0.00     0.071 C 
ATOM     15  C   UNL A   1      32.210  29.560  24.801  1.00  0.00     0.071 C 
ATOM     16  C   UNL A   1      33.218  28.190  27.192  1.00  0.00     0.071 C 
ATOM     17  C   UNL A   1      31.953  30.064  26.223  1.00  0.00     0.071 C 
ATOM     18  C   UNL A   1      33.088  29.716  27.187  1.00  0.00     0.182 C 
BRANCH  18  19
ATOM     19  N   UNL A   1      34.298  30.440  26.771  1.00  0.00    -0.346 N 
ATOM     20  C   UNL A   1      34.858  31.291  27.807  1.00  0.00     0.331 C 
ATOM     21  H   UNL A   1      34.065  31.022  25.968  1.00  0.00     0.346 HD
ATOM     22  H   UNL A   1      35.004  29.737  26.552  1.00  0.00     0.346 HD
ENDBRANCH  18  19
ENDBRANCH  10  13
ENDBRANCH   7  10
ENDBRANCH   4   7
ENDBRANCH   2   3
ENDBRANCH   1   2
BRANCH   1  23
ATOM     23  C   UNL A   1      35.269  23.209  25.190  1.00  0.00     0.023 C 
BRANCH  23  24
ATOM     24  C   UNL A   1      36.454  23.633  26.050  1.00  0.00     0.116 C 
BRANCH  24  25
ATOM     25  N   UNL A   1      37.496  22.620  26.149  1.00  0.00    -0.352 N 
ATOM     26  C   UNL A   1      38.815  22.781  26.499  1.00  0.00     0.251 C 
ATOM     27  H   UNL A   1      37.219  21.699  25.936  1.00  0.00     0.163 HD
ATOM     28  O   UNL A   1      39.593  21.834  26.432  1.00  0.00    -0.269 OA
BRANCH  26  29
ATOM     29  C   UNL A   1      39.290  24.115  26.918  1.00  0.00     0.039 A 
ATOM     30  C   UNL A   1      39.267  24.444  28.274  1.00  0.00     0.014 A 
ATOM     31  C   UNL A   1      39.807  25.011  25.979  1.00  0.00     0.014 A 
ATOM     32  C   UNL A   1      39.828  25.650  28.695  1.00  0.00     0.010 A 
ATOM     33  C   UNL A   1      40.439  26.173  26.409  1.00  0.00     0.010 A 
ATOM     34  C   UNL A   1      40.450  26.507  27.771  1.00  0.00    -0.014 A 
BRANCH  34  35
ATOM     35  C   UNL A   1      41.111  27.757  28.219  1.00  0.00     0.031 A 
ATOM     36  C   UNL A   1      42.602  27.912  28.089  1.00  0.00     0.074 A 
ATOM     37  C   UNL A   1      40.373  28.731  28.787  1.00  0.00     0.049 A 
ATOM     38  N   UNL A   1      43.359  28.926  28.421  1.00  0.00    -0.248 NA
ATOM     39  C   UNL A   1      43.345  26.764  27.545  1.00  0.00     0.031 C 
ATOM     40  C   UNL A   1      38.931  28.663  29.040  1.00  0.00     0.029 A 
ATOM     41  N   UNL A   1      40.731  29.970  29.251  1.00  0.00    -0.354 N 
ATOM     42  C   UNL A   1      44.661  28.535  28.136  1.00  0.00     0.074 A 
ATOM     43  C   UNL A   1      44.600  27.168  27.669  1.00  0.00     0.031 C 
ATOM     44  C   UNL A   1      38.522  29.824  29.578  1.00  0.00     0.029 A 
ATOM     45  C   UNL A   1      39.673  30.709  29.726  1.00  0.00     0.049 A 
ATOM     46  H   UNL A   1      41.658  30.301  29.246  1.00  0.00     0.167 HD
ATOM     47  C   UNL A   1      45.803  29.258  28.227  1.00  0.00     0.037 A 
ATOM     48  C   UNL A   1      39.634  31.965  30.211  1.00  0.00     0.037 A 
ATOM     49  C   UNL A   1      45.851  30.629  28.664  1.00  0.00     0.049 A 
ATOM     50  C   UNL A   1      40.905  32.770  30.250  1.00  0.00     0.074 A 
ATOM     51  C   UNL A   1      46.944  31.473  28.740  1.00  0.00     0.029 A 
ATOM     52  N   UNL A   1      44.752  31.359  29.093  1.00  0.00    -0.354 N 
ATOM     53  N   UNL A   1      42.119  32.408  29.910  1.00  0.00    -0.248 NA
ATOM     54  C   UNL A   1      40.796  34.157  30.717  1.00  0.00     0.031 C 
ATOM     55  C   UNL A   1      46.510  32.706  29.243  1.00  0.00     0.029 A 
ATOM     56  C   UNL A   1      45.140  32.642  29.440  1.00  0.00     0.049 A 
ATOM     57  H   UNL A   1      43.830  31.016  29.144  1.00  0.00     0.167 HD
ATOM     58  C   UNL A   1      42.916  33.531  30.099  1.00  0.00     0.074 A 
ATOM     59  C   UNL A   1      42.042  34.588  30.567  1.00  0.00     0.031 C 
ATOM     60  C   UNL A   1      44.251  33.678  29.902  1.00  0.00     0.037 A 
BRANCH  47  61
ATOM     61  C   UNL A   1      47.085  28.580  27.828  1.00  0.00     0.058 A 
ATOM     62  C   UNL A   1      47.520  28.560  26.492  1.00  0.00     0.135 A 
ATOM     63  C   UNL A   1      47.893  27.949  28.788  1.00  0.00     0.135 A 
ATOM     64  F   UNL A   1      46.779  29.132  25.531  1.00  0.00    -0.206 F 
ATOM     65  C   UNL A   1      48.690  27.908  26.117  1.00  0.00     0.059 A 
ATOM     66  C   UNL A   1      49.082  27.315  28.439  1.00  0.00     0.059 A 
ATOM     67  F   UNL A   1      47.524  27.936  30.079  1.00  0.00    -0.206 F 
ATOM     68  C   UNL A   1      49.463  27.284  27.098  1.00  0.00     0.060 A 
BRANCH  68  69
ATOM     69  S   UNL A   1      50.975  26.437  26.595  1.00  0.00     0.124 S 
ATOM     70  O   UNL A   1      50.999  26.712  25.162  1.00  0.00    -0.237 OA
ATOM     71  O   UNL A   1      51.994  27.117  27.388  1.00  0.00    -0.237 OA
ATOM     72  O   UNL A   1      50.724  25.048  26.963  1.00  0.00    -0.744 OA
ENDBRANCH  68  69
ENDBRANCH  47  61
BRANCH  48  73
ATOM     73  C   UNL A   1      38.339  32.558  30.636  1.00  0.00     0.058 A 
ATOM     74  C   UNL A   1      37.531  33.252  29.724  1.00  0.00     0.135 A 
ATOM     75  C   UNL A   1      37.874  32.428  31.954  1.00  0.00     0.135 A 
ATOM     76  F   UNL A   1      37.934  33.405  28.453  1.00  0.00    -0.206 F 
ATOM     77  C   UNL A   1      36.315  33.812  30.103  1.00  0.00     0.059 A 
ATOM     78  C   UNL A   1      36.650  32.958  32.353  1.00  0.00     0.059 A 
ATOM     79  F   UNL A   1      38.600  31.754  32.860  1.00  0.00    -0.206 F 
ATOM     80  C   UNL A   1      35.883  33.658  31.422  1.00  0.00     0.060 A 
BRANCH  80  81
ATOM     81  S   UNL A   1      34.279  34.343  31.893  1.00  0.00     0.124 S 
ATOM     82  O   UNL A   1      33.735  33.272  32.722  1.00  0.00    -0.237 OA
ATOM     83  O   UNL A   1      34.659  35.564  32.597  1.00  0.00    -0.237 OA
ATOM     84  O   UNL A   1      33.614  34.549  30.610  1.00  0.00    -0.744 OA
ENDBRANCH  80  81
ENDBRANCH  48  73
BRANCH  60  85
ATOM     85  C   UNL A   1      44.833  35.039  30.163  1.00  0.00     0.058 A 
ATOM     86  C   UNL A   1      44.925  36.007  29.151  1.00  0.00     0.135 A 
ATOM     87  C   UNL A   1      45.292  35.381  31.444  1.00  0.00     0.135 A 
ATOM     88  F   UNL A   1      44.502  35.729  27.908  1.00  0.00    -0.206 F 
ATOM     89  C   UNL A   1      45.491  37.255  29.391  1.00  0.00     0.059 A 
ATOM     90  C   UNL A   1      45.837  36.631  31.714  1.00  0.00     0.059 A 
ATOM     91  F   UNL A   1      45.213  34.495  32.450  1.00  0.00    -0.206 F 
ATOM     92  C   UNL A   1      45.950  37.555  30.674  1.00  0.00     0.060 A 
BRANCH  92  93
ATOM     93  S   UNL A   1      46.688  39.174  30.978  1.00  0.00     0.124 S 
ATOM     94  O   UNL A   1      46.330  39.892  29.759  1.00  0.00    -0.237 OA
ATOM     95  O   UNL A   1      46.005  39.609  32.193  1.00  0.00    -0.237 OA
ATOM     96  O   UNL A   1      48.108  38.875  31.139  1.00  0.00    -0.744 OA
ENDBRANCH  92  93
ENDBRANCH  60  85
ENDBRANCH  34  35
ENDBRANCH  26  29
ENDBRANCH  24  25
ENDBRANCH  23  24
ENDBRANCH   1  23
TORSDOF 18
ENDMDL
MODEL 3
REMARK VINA RESULT:     -10.1      1.130      8.511
REMARK SMILES CC[C@H](C(=O)NCCCCNC(=O)c1ccc(-c2c3nc(c(-c4c(F)cc(S(=O)(=O)[O-])cc4F)c4ccc([nH]4)c(-c4c(F)cc(S(=O)(=O)[O-])cc4F)c4nc(c(-c5c(F)cc(S(=O)(=O)[O-])cc5F)c5ccc2[nH]5)C=C4)C=C3)cc1)[N@@H+](C)[C@H]1CC[C@@H]([NH2+]C)CC1
REMARK SMILES IDX 8 1 7 2 6 3 4 4 5 5 3 7 2 8 1 9 80 10 81 11 82 13 89 14
REMARK SMILES IDX 83 15 88 16 84 17 85 18 86 19 87 20 9 23 10 24 11 25 12 26
REMARK SMILES IDX 13 28 14 29 15 30 79 31 16 32 78 33 17 34 18 35 19 36 72 37
REMARK SMILES IDX 20 38 77 39 71 40 73 41 21 42 76 43 70 44 69 45 22 47 56 48
REMARK SMILES IDX 35 49 55 50 36 51 39 52 54 53 74 54 37 55 38 56 53 58 75 59
REMARK SMILES IDX 40 60 23 61 24 62 33 63 25 64 26 65 32 66 34 67 27 68 28 69
REMARK SMILES IDX 29 70 30 71 31 72 57 73 58 74 67 75 59 76 60 77 66 78 68 79
REMARK SMILES IDX 61 80 62 81 63 82 64 83 65 84 41 85 42 86 51 87 43 88 44 89
REMARK SMILES IDX 50 90 52 91 45 92 46 93 47 94 48 95 49 96
REMARK H PARENT 6 6 80 12 86 21 86 22 11 27 73 46 39 57
REMARK Flexibility Score: inf
ROOT
ATOM      1  C   UNL A   1      32.924  28.513  24.538  1.00  0.00     0.023 C 
ENDROOT
BRANCH   1   2
ATOM      2  C   UNL A   1      33.222  28.936  23.106  1.00  0.00     0.116 C 
BRANCH   2   3
ATOM      3  N   UNL A   1      33.574  27.811  22.261  1.00  0.00    -0.351 N 
ATOM      4  C   UNL A   1      33.169  26.512  22.238  1.00  0.00     0.278 C 
ATOM      5  O   UNL A   1      33.555  25.861  21.256  1.00  0.00    -0.268 OA
ATOM      6  H   UNL A   1      34.239  28.030  21.569  1.00  0.00     0.163 HD
BRANCH   4   7
ATOM      7  C   UNL A   1      32.289  25.823  23.325  1.00  0.00     0.273 C 
BRANCH   7   8
ATOM      8  C   UNL A   1      30.755  25.737  23.198  1.00  0.00     0.072 C 
ATOM      9  C   UNL A   1      29.989  26.290  24.396  1.00  0.00     0.011 C 
ENDBRANCH   7   8
BRANCH   7  10
ATOM     10  N   UNL A   1      32.918  24.583  23.867  1.00  0.00    -0.325 N 
ATOM     11  C   UNL A   1      32.110  23.393  23.632  1.00  0.00     0.333 C 
ATOM     12  H   UNL A   1      32.891  24.822  24.858  1.00  0.00     0.348 HD
BRANCH  10  13
ATOM     13  C   UNL A   1      34.385  24.407  24.004  1.00  0.00     0.184 C 
ATOM     14  C   UNL A   1      34.875  24.420  25.480  1.00  0.00     0.071 C 
ATOM     15  C   UNL A   1      35.001  23.233  23.220  1.00  0.00     0.071 C 
ATOM     16  C   UNL A   1      36.361  24.116  25.666  1.00  0.00     0.071 C 
ATOM     17  C   UNL A   1      36.478  22.951  23.503  1.00  0.00     0.071 C 
ATOM     18  C   UNL A   1      36.776  22.803  24.995  1.00  0.00     0.182 C 
BRANCH  18  19
ATOM     19  N   UNL A   1      36.088  21.605  25.497  1.00  0.00    -0.346 N 
ATOM     20  C   UNL A   1      36.613  20.360  24.963  1.00  0.00     0.331 C 
ATOM     21  H   UNL A   1      35.102  21.672  25.247  1.00  0.00     0.346 HD
ATOM     22  H   UNL A   1      36.234  21.580  26.506  1.00  0.00     0.346 HD
ENDBRANCH  18  19
ENDBRANCH  10  13
ENDBRANCH   7  10
ENDBRANCH   4   7
ENDBRANCH   2   3
ENDBRANCH   1   2
BRANCH   1  23
ATOM     23  C   UNL A   1      34.166  28.252  25.387  1.00  0.00     0.023 C 
BRANCH  23  24
ATOM     24  C   UNL A   1      33.945  28.279  26.894  1.00  0.00     0.116 C 
BRANCH  24  25
ATOM     25  N   UNL A   1      33.727  29.616  27.429  1.00  0.00    -0.352 N 
ATOM     26  C   UNL A   1      34.608  30.416  28.118  1.00  0.00     0.251 C 
ATOM     27  H   UNL A   1      32.832  29.997  27.278  1.00  0.00     0.163 HD
ATOM     28  O   UNL A   1      34.232  31.483  28.594  1.00  0.00    -0.269 OA
BRANCH  26  29
ATOM     29  C   UNL A   1      35.998  29.956  28.310  1.00  0.00     0.039 A 
ATOM     30  C   UNL A   1      36.904  30.088  27.256  1.00  0.00     0.014 A 
ATOM     31  C   UNL A   1      36.413  29.450  29.544  1.00  0.00     0.014 A 
ATOM     32  C   UNL A   1      38.247  29.773  27.465  1.00  0.00     0.010 A 
ATOM     33  C   UNL A   1      37.765  29.217  29.774  1.00  0.00     0.010 A 
ATOM     34  C   UNL A   1      38.694  29.370  28.736  1.00  0.00    -0.014 A 
BRANCH  34  35
ATOM     35  C   UNL A   1      40.132  29.103  28.985  1.00  0.00     0.031 A 
ATOM     36  C   UNL A   1      40.724  27.765  28.635  1.00  0.00     0.074 A 
ATOM     37  C   UNL A   1      40.891  30.051  29.569  1.00  0.00     0.049 A 
ATOM     38  N   UNL A   1      41.954  27.344  28.775  1.00  0.00    -0.248 NA
ATOM     39  C   UNL A   1      39.805  26.754  28.087  1.00  0.00     0.031 C 
ATOM     40  C   UNL A   1      40.411  31.358  30.026  1.00  0.00     0.029 A 
ATOM     41  N   UNL A   1      42.227  30.064  29.877  1.00  0.00    -0.354 N 
ATOM     42  C   UNL A   1      41.954  26.024  28.344  1.00  0.00     0.074 A 
ATOM     43  C   UNL A   1      40.589  25.690  28.001  1.00  0.00     0.031 C 
ATOM     44  C   UNL A   1      41.445  32.059  30.520  1.00  0.00     0.029 A 
ATOM     45  C   UNL A   1      42.654  31.247  30.434  1.00  0.00     0.049 A 
ATOM     46  H   UNL A   1      42.825  29.299  29.715  1.00  0.00     0.167 HD
ATOM     47  C   UNL A   1      43.000  25.174  28.215  1.00  0.00     0.037 A 
ATOM     48  C   UNL A   1      43.885  31.636  30.815  1.00  0.00     0.037 A 
ATOM     49  C   UNL A   1      44.361  25.523  28.528  1.00  0.00     0.049 A 
ATOM     50  C   UNL A   1      45.042  30.697  30.611  1.00  0.00     0.074 A 
ATOM     51  C   UNL A   1      45.505  24.759  28.383  1.00  0.00     0.029 A 
ATOM     52  N   UNL A   1      44.762  26.747  29.046  1.00  0.00    -0.354 N 
ATOM     53  N   UNL A   1      45.036  29.474  30.136  1.00  0.00    -0.248 NA
ATOM     54  C   UNL A   1      46.374  31.195  30.976  1.00  0.00     0.031 C 
ATOM     55  C   UNL A   1      46.594  25.511  28.839  1.00  0.00     0.029 A 
ATOM     56  C   UNL A   1      46.134  26.758  29.231  1.00  0.00     0.049 A 
ATOM     57  H   UNL A   1      44.159  27.497  29.253  1.00  0.00     0.167 HD
ATOM     58  C   UNL A   1      46.364  29.066  30.119  1.00  0.00     0.074 A 
ATOM     59  C   UNL A   1      47.147  30.179  30.618  1.00  0.00     0.031 C 
ATOM     60  C   UNL A   1      46.892  27.878  29.727  1.00  0.00     0.037 A 
BRANCH  47  61
ATOM     61  C   UNL A   1      42.710  23.791  27.697  1.00  0.00     0.058 A 
ATOM     62  C   UNL A   1      42.601  23.531  26.321  1.00  0.00     0.135 A 
ATOM     63  C   UNL A   1      42.543  22.713  28.581  1.00  0.00     0.135 A 
ATOM     64  F   UNL A   1      42.734  24.527  25.431  1.00  0.00    -0.206 F 
ATOM     65  C   UNL A   1      42.303  22.260  25.841  1.00  0.00     0.059 A 
ATOM     66  C   UNL A   1      42.271  21.428  28.122  1.00  0.00     0.059 A 
ATOM     67  F   UNL A   1      42.633  22.905  29.907  1.00  0.00    -0.206 F 
ATOM     68  C   UNL A   1      42.135  21.215  26.751  1.00  0.00     0.060 A 
BRANCH  68  69
ATOM     69  S   UNL A   1      41.742  19.572  26.114  1.00  0.00     0.124 S 
ATOM     70  O   UNL A   1      40.329  19.722  25.776  1.00  0.00    -0.237 OA
ATOM     71  O   UNL A   1      42.654  19.448  24.982  1.00  0.00    -0.237 OA
ATOM     72  O   UNL A   1      42.027  18.693  27.244  1.00  0.00    -0.744 OA
ENDBRANCH  68  69
ENDBRANCH  47  61
BRANCH  48  73
ATOM     73  C   UNL A   1      44.095  33.000  31.369  1.00  0.00     0.058 A 
ATOM     74  C   UNL A   1      44.052  33.230  32.752  1.00  0.00     0.135 A 
ATOM     75  C   UNL A   1      44.361  34.095  30.533  1.00  0.00     0.135 A 
ATOM     76  F   UNL A   1      43.798  32.214  33.592  1.00  0.00    -0.206 F 
ATOM     77  C   UNL A   1      44.247  34.498  33.289  1.00  0.00     0.059 A 
ATOM     78  C   UNL A   1      44.583  35.370  31.046  1.00  0.00     0.059 A 
ATOM     79  F   UNL A   1      44.433  33.924  29.203  1.00  0.00    -0.206 F 
ATOM     80  C   UNL A   1      44.513  35.563  32.426  1.00  0.00     0.060 A 
BRANCH  80  81
ATOM     81  S   UNL A   1      44.818  37.197  33.134  1.00  0.00     0.124 S 
ATOM     82  O   UNL A   1      45.575  37.843  32.066  1.00  0.00    -0.237 OA
ATOM     83  O   UNL A   1      43.464  37.697  33.350  1.00  0.00    -0.237 OA
ATOM     84  O   UNL A   1      45.569  36.899  34.349  1.00  0.00    -0.744 OA
ENDBRANCH  80  81
ENDBRANCH  48  73
BRANCH  60  85
ATOM     85  C   UNL A   1      48.387  27.743  29.793  1.00  0.00     0.058 A 
ATOM     86  C   UNL A   1      49.208  28.095  28.710  1.00  0.00     0.135 A 
ATOM     87  C   UNL A   1      49.005  27.263  30.958  1.00  0.00     0.135 A 
ATOM     88  F   UNL A   1      48.666  28.556  27.572  1.00  0.00    -0.206 F 
ATOM     89  C   UNL A   1      50.589  27.940  28.767  1.00  0.00     0.059 A 
ATOM     90  C   UNL A   1      50.386  27.125  31.047  1.00  0.00     0.059 A 
ATOM     91  F   UNL A   1      48.266  26.926  32.027  1.00  0.00    -0.206 F 
ATOM     92  C   UNL A   1      51.168  27.447  29.937  1.00  0.00     0.060 A 
BRANCH  92  93
ATOM     93  S   UNL A   1      52.960  27.243  30.002  1.00  0.00     0.124 S 
ATOM     94  O   UNL A   1      53.243  26.717  28.670  1.00  0.00    -0.237 OA
ATOM     95  O   UNL A   1      53.424  28.604  30.257  1.00  0.00    -0.237 OA
ATOM     96  O   UNL A   1      53.155  26.305  31.103  1.00  0.00    -0.744 OA
ENDBRANCH  92  93
ENDBRANCH  60  85
ENDBRANCH  34  35
ENDBRANCH  26  29
ENDBRANCH  24  25
ENDBRANCH  23  24
ENDBRANCH   1  23
TORSDOF 18
ENDMDL
