MODEL 1
REMARK VINA RESULT:     -11.6      0.000      0.000
REMARK SMILES CCOc1cc(C[NH+]2CCC3(CC2)[C@H](C(=O)NCCCCNC(=O)c2ccc(-c4c5nc(c(-c6c(F)cc(S(=O)(=O)[O-])cc6F)c6ccc([nH]6)c(-c6c(F)cc(S(=O)(=O)[O-])cc6F)c6nc(c(-c7c(F)cc(S(=O)(=O)[O-])cc7F)c7ccc4[nH]7)C=C6)C=C5)cc2)CC(=O)N3C)ccc1OC
REMARK SMILES IDX 19 1 18 2 17 3 15 4 16 5 14 7 8 8 9 9 13 10 10 12 12 13
REMARK SMILES IDX 11 14 94 15 91 16 92 17 95 18 93 19 7 20 6 21 4 22 5 23
REMARK SMILES IDX 98 24 97 25 96 26 3 27 2 28 1 29 99 30 100 31 20 32 21 33
REMARK SMILES IDX 22 34 23 35 24 37 25 38 26 39 90 40 27 41 89 42 28 43 29 44
REMARK SMILES IDX 30 45 83 46 31 47 88 48 82 49 84 50 32 51 87 52 81 53 80 54
REMARK SMILES IDX 33 56 67 57 46 58 66 59 47 60 50 61 65 62 85 63 48 64 49 65
REMARK SMILES IDX 64 67 86 68 51 69 34 70 35 71 44 72 36 73 37 74 43 75 45 76
REMARK SMILES IDX 38 77 39 78 40 79 41 80 42 81 68 82 69 83 78 84 70 85 71 86
REMARK SMILES IDX 77 87 79 88 72 89 73 90 74 91 75 92 76 93 52 94 53 95 62 96
REMARK SMILES IDX 54 97 55 98 61 99 63 100 56 101 57 102 58 103 59 104 60 105
REMARK H PARENT 17 6 8 11 22 36 84 55 50 66
REMARK Flexibility Score: inf
ROOT
ATOM      1  C   UNL A   1      37.382  19.514  25.002  1.00  0.00     0.023 C 
ENDROOT
BRANCH   1   2
ATOM      2  C   UNL A   1      36.323  20.624  24.998  1.00  0.00     0.116 C 
BRANCH   2   3
ATOM      3  N   UNL A   1      36.877  21.951  24.836  1.00  0.00    -0.356 N 
ATOM      4  C   UNL A   1      36.426  23.197  25.084  1.00  0.00     0.226 C 
ATOM      5  O   UNL A   1      37.289  24.076  24.990  1.00  0.00    -0.275 OA
ATOM      6  H   UNL A   1      37.787  21.942  24.461  1.00  0.00     0.163 HD
BRANCH   4   7
ATOM      7  C   UNL A   1      35.007  23.576  25.523  1.00  0.00     0.114 C 
ATOM      8  N   UNL A   1      32.392  24.372  22.215  1.00  0.00    -0.331 N 
ATOM      9  C   UNL A   1      33.232  23.201  22.063  1.00  0.00     0.265 C 
ATOM     10  C   UNL A   1      31.748  24.412  23.518  1.00  0.00     0.265 C 
ATOM     11  H   UNL A   1      31.608  24.256  21.573  1.00  0.00     0.348 HD
ATOM     12  C   UNL A   1      34.252  23.061  23.175  1.00  0.00     0.091 C 
ATOM     13  C   UNL A   1      32.649  24.261  24.755  1.00  0.00     0.091 C 
ATOM     14  C   UNL A   1      33.781  23.209  24.632  1.00  0.00     0.065 C 
ATOM     15  N   UNL A   1      33.325  21.986  25.316  1.00  0.00    -0.339 N 
ATOM     16  C   UNL A   1      34.717  23.026  26.908  1.00  0.00     0.116 C 
ATOM     17  C   UNL A   1      33.775  21.890  26.635  1.00  0.00     0.223 C 
ATOM     18  C   UNL A   1      32.302  21.083  24.841  1.00  0.00     0.147 C 
ATOM     19  O   UNL A   1      33.450  21.048  27.448  1.00  0.00    -0.275 OA
BRANCH   8  20
ATOM     20  C   UNL A   1      32.892  25.623  21.624  1.00  0.00     0.299 C 
BRANCH  20  21
ATOM     21  C   UNL A   1      32.748  26.894  22.440  1.00  0.00     0.010 A 
ATOM     22  C   UNL A   1      31.295  28.569  23.442  1.00  0.00     0.161 A 
ATOM     23  C   UNL A   1      31.549  27.623  22.441  1.00  0.00     0.060 A 
ATOM     24  C   UNL A   1      32.314  28.948  24.323  1.00  0.00     0.160 A 
ATOM     25  C   UNL A   1      33.573  28.355  24.193  1.00  0.00     0.051 A 
ATOM     26  C   UNL A   1      33.780  27.307  23.293  1.00  0.00     0.013 A 
BRANCH  22  27
ATOM     27  O   UNL A   1      30.007  28.857  23.785  1.00  0.00    -0.490 OA
BRANCH  27  28
ATOM     28  C   UNL A   1      29.461  30.125  23.470  1.00  0.00     0.226 C 
ATOM     29  C   UNL A   1      29.301  30.103  21.954  1.00  0.00     0.049 C 
ENDBRANCH  27  28
ENDBRANCH  22  27
BRANCH  24  30
ATOM     30  O   UNL A   1      32.248  29.851  25.349  1.00  0.00    -0.493 OA
ATOM     31  C   UNL A   1      32.047  29.373  26.673  1.00  0.00     0.278 C 
ENDBRANCH  24  30
ENDBRANCH  20  21
ENDBRANCH   8  20
ENDBRANCH   4   7
ENDBRANCH   2   3
ENDBRANCH   1   2
BRANCH   1  32
ATOM     32  C   UNL A   1      38.810  20.011  24.838  1.00  0.00     0.023 C 
BRANCH  32  33
ATOM     33  C   UNL A   1      39.550  20.101  26.158  1.00  0.00     0.116 C 
BRANCH  33  34
ATOM     34  N   UNL A   1      40.746  19.262  26.152  1.00  0.00    -0.352 N 
ATOM     35  C   UNL A   1      42.058  19.640  26.108  1.00  0.00     0.251 C 
ATOM     36  H   UNL A   1      40.585  18.292  26.185  1.00  0.00     0.163 HD
ATOM     37  O   UNL A   1      42.933  18.837  25.809  1.00  0.00    -0.269 OA
BRANCH  35  38
ATOM     38  C   UNL A   1      42.375  21.037  26.422  1.00  0.00     0.039 A 
ATOM     39  C   UNL A   1      42.615  21.403  27.743  1.00  0.00     0.014 A 
ATOM     40  C   UNL A   1      42.504  21.955  25.375  1.00  0.00     0.014 A 
ATOM     41  C   UNL A   1      43.035  22.701  28.010  1.00  0.00     0.010 A 
ATOM     42  C   UNL A   1      43.040  23.202  25.630  1.00  0.00     0.010 A 
ATOM     43  C   UNL A   1      43.280  23.594  26.952  1.00  0.00    -0.014 A 
BRANCH  43  44
ATOM     44  C   UNL A   1      43.764  24.963  27.213  1.00  0.00     0.031 A 
ATOM     45  C   UNL A   1      45.214  25.289  26.993  1.00  0.00     0.074 A 
ATOM     46  C   UNL A   1      42.905  25.880  27.696  1.00  0.00     0.049 A 
ATOM     47  N   UNL A   1      45.838  26.422  27.174  1.00  0.00    -0.248 NA
ATOM     48  C   UNL A   1      46.089  24.189  26.547  1.00  0.00     0.031 C 
ATOM     49  C   UNL A   1      41.497  25.633  28.023  1.00  0.00     0.029 A 
ATOM     50  N   UNL A   1      43.089  27.202  27.997  1.00  0.00    -0.354 N 
ATOM     51  C   UNL A   1      47.172  26.167  26.881  1.00  0.00     0.074 A 
ATOM     52  C   UNL A   1      47.283  24.760  26.581  1.00  0.00     0.031 C 
ATOM     53  C   UNL A   1      40.937  26.778  28.442  1.00  0.00     0.029 A 
ATOM     54  C   UNL A   1      41.951  27.826  28.448  1.00  0.00     0.049 A 
ATOM     55  H   UNL A   1      43.954  27.663  27.901  1.00  0.00     0.167 HD
ATOM     56  C   UNL A   1      48.203  27.040  26.834  1.00  0.00     0.037 A 
ATOM     57  C   UNL A   1      41.753  29.104  28.822  1.00  0.00     0.037 A 
ATOM     58  C   UNL A   1      48.061  28.446  27.106  1.00  0.00     0.049 A 
ATOM     59  C   UNL A   1      42.906  30.064  28.728  1.00  0.00     0.074 A 
ATOM     60  C   UNL A   1      49.015  29.440  27.011  1.00  0.00     0.029 A 
ATOM     61  N   UNL A   1      46.886  29.052  27.529  1.00  0.00    -0.354 N 
ATOM     62  N   UNL A   1      44.144  29.831  28.355  1.00  0.00    -0.248 NA
ATOM     63  C   UNL A   1      42.638  31.461  29.091  1.00  0.00     0.031 C 
ATOM     64  C   UNL A   1      48.432  30.641  27.429  1.00  0.00     0.029 A 
ATOM     65  C   UNL A   1      47.099  30.405  27.729  1.00  0.00     0.049 A 
ATOM     66  H   UNL A   1      46.029  28.588  27.667  1.00  0.00     0.167 HD
ATOM     67  C   UNL A   1      44.798  31.054  28.424  1.00  0.00     0.074 A 
ATOM     68  C   UNL A   1      43.812  32.028  28.850  1.00  0.00     0.031 C 
ATOM     69  C   UNL A   1      46.097  31.349  28.162  1.00  0.00     0.037 A 
BRANCH  56  70
ATOM     70  C   UNL A   1      49.560  26.499  26.477  1.00  0.00     0.058 A 
ATOM     71  C   UNL A   1      50.467  26.062  27.457  1.00  0.00     0.135 A 
ATOM     72  C   UNL A   1      49.955  26.400  25.133  1.00  0.00     0.135 A 
ATOM     73  F   UNL A   1      50.152  26.153  28.759  1.00  0.00    -0.206 F 
ATOM     74  C   UNL A   1      51.726  25.576  27.121  1.00  0.00     0.059 A 
ATOM     75  C   UNL A   1      51.197  25.887  24.772  1.00  0.00     0.059 A 
ATOM     76  F   UNL A   1      49.132  26.809  24.155  1.00  0.00    -0.206 F 
ATOM     77  C   UNL A   1      52.081  25.491  25.775  1.00  0.00     0.060 A 
BRANCH  77  78
ATOM     78  S   UNL A   1      53.714  24.847  25.354  1.00  0.00     0.124 S 
ATOM     79  O   UNL A   1      54.436  25.046  26.607  1.00  0.00    -0.237 OA
ATOM     80  O   UNL A   1      53.421  23.459  25.007  1.00  0.00    -0.237 OA
ATOM     81  O   UNL A   1      54.139  25.692  24.243  1.00  0.00    -0.744 OA
ENDBRANCH  77  78
ENDBRANCH  56  70
BRANCH  57  82
ATOM     82  C   UNL A   1      40.409  29.541  29.283  1.00  0.00     0.058 A 
ATOM     83  C   UNL A   1      40.149  29.779  30.639  1.00  0.00     0.135 A 
ATOM     84  C   UNL A   1      39.369  29.769  28.368  1.00  0.00     0.135 A 
ATOM     85  F   UNL A   1      41.110  29.576  31.553  1.00  0.00    -0.206 F 
ATOM     86  C   UNL A   1      38.901  30.212  31.078  1.00  0.00     0.059 A 
ATOM     87  C   UNL A   1      38.121  30.228  28.778  1.00  0.00     0.059 A 
ATOM     88  F   UNL A   1      39.573  29.579  27.056  1.00  0.00    -0.206 F 
ATOM     89  C   UNL A   1      37.894  30.439  30.137  1.00  0.00     0.060 A 
BRANCH  89  90
ATOM     90  S   UNL A   1      36.296  31.057  30.709  1.00  0.00     0.124 S 
ATOM     91  O   UNL A   1      35.952  30.078  31.734  1.00  0.00    -0.237 OA
ATOM     92  O   UNL A   1      36.641  32.392  31.191  1.00  0.00    -0.237 OA
ATOM     93  O   UNL A   1      35.474  31.027  29.504  1.00  0.00    -0.744 OA
ENDBRANCH  89  90
ENDBRANCH  57  82
BRANCH  69  94
ATOM     94  C   UNL A   1      46.517  32.784  28.316  1.00  0.00     0.058 A 
ATOM     95  C   UNL A   1      47.065  33.266  29.515  1.00  0.00     0.135 A 
ATOM     96  C   UNL A   1      46.409  33.675  27.237  1.00  0.00     0.135 A 
ATOM     97  F   UNL A   1      47.184  32.454  30.578  1.00  0.00    -0.206 F 
ATOM     98  C   UNL A   1      47.460  34.591  29.649  1.00  0.00     0.059 A 
ATOM     99  C   UNL A   1      46.829  34.996  27.338  1.00  0.00     0.059 A 
ATOM    100  F   UNL A   1      45.904  33.260  26.064  1.00  0.00    -0.206 F 
ATOM    101  C   UNL A   1      47.339  35.449  28.555  1.00  0.00     0.060 A 
BRANCH 101 102
ATOM    102  S   UNL A   1      47.874  37.162  28.737  1.00  0.00     0.124 S 
ATOM    103  O   UNL A   1      48.172  37.226  30.164  1.00  0.00    -0.237 OA
ATOM    104  O   UNL A   1      49.026  37.226  27.844  1.00  0.00    -0.237 OA
ATOM    105  O   UNL A   1      46.709  37.930  28.305  1.00  0.00    -0.744 OA
ENDBRANCH 101 102
ENDBRANCH  69  94
ENDBRANCH  43  44
ENDBRANCH  35  38
ENDBRANCH  33  34
ENDBRANCH  32  33
ENDBRANCH   1  32
TORSDOF 19
ENDMDL
MODEL 2
REMARK VINA RESULT:     -11.5      5.781      7.897
REMARK SMILES CCOc1cc(C[NH+]2CCC3(CC2)[C@H](C(=O)NCCCCNC(=O)c2ccc(-c4c5nc(c(-c6c(F)cc(S(=O)(=O)[O-])cc6F)c6ccc([nH]6)c(-c6c(F)cc(S(=O)(=O)[O-])cc6F)c6nc(c(-c7c(F)cc(S(=O)(=O)[O-])cc7F)c7ccc4[nH]7)C=C6)C=C5)cc2)CC(=O)N3C)ccc1OC
REMARK SMILES IDX 19 1 18 2 17 3 15 4 16 5 14 7 8 8 9 9 13 10 10 12 12 13
REMARK SMILES IDX 11 14 94 15 91 16 92 17 95 18 93 19 7 20 6 21 4 22 5 23
REMARK SMILES IDX 98 24 97 25 96 26 3 27 2 28 1 29 99 30 100 31 20 32 21 33
REMARK SMILES IDX 22 34 23 35 24 37 25 38 26 39 90 40 27 41 89 42 28 43 29 44
REMARK SMILES IDX 30 45 83 46 31 47 88 48 82 49 84 50 32 51 87 52 81 53 80 54
REMARK SMILES IDX 33 56 67 57 46 58 66 59 47 60 50 61 65 62 85 63 48 64 49 65
REMARK SMILES IDX 64 67 86 68 51 69 34 70 35 71 44 72 36 73 37 74 43 75 45 76
REMARK SMILES IDX 38 77 39 78 40 79 41 80 42 81 68 82 69 83 78 84 70 85 71 86
REMARK SMILES IDX 77 87 79 88 72 89 73 90 74 91 75 92 76 93 52 94 53 95 62 96
REMARK SMILES IDX 54 97 55 98 61 99 63 100 56 101 57 102 58 103 59 104 60 105
REMARK H PARENT 17 6 8 11 22 36 84 55 50 66
REMARK Flexibility Score: inf
ROOT
ATOM      1  C   UNL A   1      39.505  21.315  26.132  1.00  0.00     0.023 C 
ENDROOT
BRANCH   1   2
ATOM      2  C   UNL A   1      38.303  22.256  25.978  1.00  0.00     0.116 C 
BRANCH   2   3
ATOM      3  N   UNL A   1      37.788  22.321  24.628  1.00  0.00    -0.356 N 
ATOM      4  C   UNL A   1      36.623  22.724  24.082  1.00  0.00     0.226 C 
ATOM      5  O   UNL A   1      36.643  22.807  22.850  1.00  0.00    -0.275 OA
ATOM      6  H   UNL A   1      38.431  21.997  23.957  1.00  0.00     0.163 HD
BRANCH   4   7
ATOM      7  C   UNL A   1      35.360  23.138  24.847  1.00  0.00     0.114 C 
ATOM      8  N   UNL A   1      32.471  25.106  22.359  1.00  0.00    -0.331 N 
ATOM      9  C   UNL A   1      33.080  23.928  21.775  1.00  0.00     0.265 C 
ATOM     10  C   UNL A   1      32.031  24.869  23.724  1.00  0.00     0.265 C 
ATOM     11  H   UNL A   1      31.596  25.262  21.858  1.00  0.00     0.348 HD
ATOM     12  C   UNL A   1      34.210  23.371  22.618  1.00  0.00     0.091 C 
ATOM     13  C   UNL A   1      33.060  24.282  24.705  1.00  0.00     0.091 C 
ATOM     14  C   UNL A   1      33.978  23.174  24.126  1.00  0.00     0.065 C 
ATOM     15  N   UNL A   1      33.430  21.877  24.556  1.00  0.00    -0.339 N 
ATOM     16  C   UNL A   1      35.183  22.272  26.082  1.00  0.00     0.116 C 
ATOM     17  C   UNL A   1      34.039  21.374  25.709  1.00  0.00     0.223 C 
ATOM     18  C   UNL A   1      32.218  21.264  24.063  1.00  0.00     0.147 C 
ATOM     19  O   UNL A   1      33.700  20.389  26.333  1.00  0.00    -0.275 OA
BRANCH   8  20
ATOM     20  C   UNL A   1      33.079  26.400  22.016  1.00  0.00     0.299 C 
BRANCH  20  21
ATOM     21  C   UNL A   1      32.751  27.588  22.900  1.00  0.00     0.010 A 
ATOM     22  C   UNL A   1      31.115  29.212  23.681  1.00  0.00     0.161 A 
ATOM     23  C   UNL A   1      31.600  28.360  22.680  1.00  0.00     0.060 A 
ATOM     24  C   UNL A   1      31.885  29.461  24.823  1.00  0.00     0.160 A 
ATOM     25  C   UNL A   1      33.128  28.835  24.949  1.00  0.00     0.051 A 
ATOM     26  C   UNL A   1      33.540  27.875  24.022  1.00  0.00     0.013 A 
BRANCH  22  27
ATOM     27  O   UNL A   1      29.786  29.515  23.722  1.00  0.00    -0.490 OA
BRANCH  27  28
ATOM     28  C   UNL A   1      28.877  28.806  22.900  1.00  0.00     0.226 C 
ATOM     29  C   UNL A   1      28.011  29.890  22.269  1.00  0.00     0.049 C 
ENDBRANCH  27  28
ENDBRANCH  22  27
BRANCH  24  30
ATOM     30  O   UNL A   1      31.574  30.259  25.890  1.00  0.00    -0.493 OA
ATOM     31  C   UNL A   1      32.604  30.619  26.802  1.00  0.00     0.278 C 
ENDBRANCH  24  30
ENDBRANCH  20  21
ENDBRANCH   8  20
ENDBRANCH   4   7
ENDBRANCH   2   3
ENDBRANCH   1   2
BRANCH   1  32
ATOM     32  C   UNL A   1      40.582  21.825  27.077  1.00  0.00     0.023 C 
BRANCH  32  33
ATOM     33  C   UNL A   1      40.532  23.330  27.259  1.00  0.00     0.116 C 
BRANCH  33  34
ATOM     34  N   UNL A   1      41.262  24.016  26.196  1.00  0.00    -0.352 N 
ATOM     35  C   UNL A   1      41.583  25.340  26.092  1.00  0.00     0.251 C 
ATOM     36  H   UNL A   1      41.564  23.447  25.452  1.00  0.00     0.163 HD
ATOM     37  O   UNL A   1      41.929  25.820  25.020  1.00  0.00    -0.269 OA
BRANCH  35  38
ATOM     38  C   UNL A   1      41.492  26.159  27.305  1.00  0.00     0.039 A 
ATOM     39  C   UNL A   1      42.360  27.234  27.471  1.00  0.00     0.014 A 
ATOM     40  C   UNL A   1      40.481  25.886  28.232  1.00  0.00     0.014 A 
ATOM     41  C   UNL A   1      42.180  28.074  28.564  1.00  0.00     0.010 A 
ATOM     42  C   UNL A   1      40.228  26.792  29.244  1.00  0.00     0.010 A 
ATOM     43  C   UNL A   1      41.094  27.875  29.435  1.00  0.00    -0.014 A 
BRANCH  43  44
ATOM     44  C   UNL A   1      40.865  28.780  30.577  1.00  0.00     0.031 A 
ATOM     45  C   UNL A   1      41.714  28.645  31.809  1.00  0.00     0.074 A 
ATOM     46  C   UNL A   1      39.861  29.674  30.513  1.00  0.00     0.049 A 
ATOM     47  N   UNL A   1      41.665  29.330  32.919  1.00  0.00    -0.248 NA
ATOM     48  C   UNL A   1      42.727  27.574  31.811  1.00  0.00     0.031 C 
ATOM     49  C   UNL A   1      38.927  29.821  29.392  1.00  0.00     0.029 A 
ATOM     50  N   UNL A   1      39.457  30.627  31.409  1.00  0.00    -0.354 N 
ATOM     51  C   UNL A   1      42.624  28.765  33.751  1.00  0.00     0.074 A 
ATOM     52  C   UNL A   1      43.190  27.638  33.049  1.00  0.00     0.031 C 
ATOM     53  C   UNL A   1      38.085  30.833  29.652  1.00  0.00     0.029 A 
ATOM     54  C   UNL A   1      38.395  31.379  30.968  1.00  0.00     0.049 A 
ATOM     55  H   UNL A   1      39.886  30.760  32.285  1.00  0.00     0.167 HD
ATOM     56  C   UNL A   1      43.019  29.176  34.978  1.00  0.00     0.037 A 
ATOM     57  C   UNL A   1      37.747  32.397  31.565  1.00  0.00     0.037 A 
ATOM     58  C   UNL A   1      42.463  30.323  35.643  1.00  0.00     0.049 A 
ATOM     59  C   UNL A   1      38.226  32.858  32.913  1.00  0.00     0.074 A 
ATOM     60  C   UNL A   1      42.837  30.883  36.850  1.00  0.00     0.029 A 
ATOM     61  N   UNL A   1      41.409  31.083  35.156  1.00  0.00    -0.354 N 
ATOM     62  N   UNL A   1      39.201  32.376  33.650  1.00  0.00    -0.248 NA
ATOM     63  C   UNL A   1      37.532  34.006  33.508  1.00  0.00     0.031 C 
ATOM     64  C   UNL A   1      41.975  31.950  37.118  1.00  0.00     0.029 A 
ATOM     65  C   UNL A   1      41.100  32.091  36.052  1.00  0.00     0.049 A 
ATOM     66  H   UNL A   1      40.949  30.929  34.299  1.00  0.00     0.167 HD
ATOM     67  C   UNL A   1      39.247  33.171  34.788  1.00  0.00     0.074 A 
ATOM     68  C   UNL A   1      38.217  34.180  34.629  1.00  0.00     0.031 C 
ATOM     69  C   UNL A   1      40.062  33.078  35.869  1.00  0.00     0.037 A 
BRANCH  56  70
ATOM     70  C   UNL A   1      44.096  28.383  35.666  1.00  0.00     0.058 A 
ATOM     71  C   UNL A   1      43.795  27.327  36.543  1.00  0.00     0.135 A 
ATOM     72  C   UNL A   1      45.450  28.672  35.434  1.00  0.00     0.135 A 
ATOM     73  F   UNL A   1      42.518  27.020  36.819  1.00  0.00    -0.206 F 
ATOM     74  C   UNL A   1      44.796  26.607  37.187  1.00  0.00     0.059 A 
ATOM     75  C   UNL A   1      46.468  27.944  36.043  1.00  0.00     0.059 A 
ATOM     76  F   UNL A   1      45.796  29.675  34.611  1.00  0.00    -0.206 F 
ATOM     77  C   UNL A   1      46.130  26.923  36.929  1.00  0.00     0.060 A 
BRANCH  77  78
ATOM     78  S   UNL A   1      47.416  25.971  37.764  1.00  0.00     0.124 S 
ATOM     79  O   UNL A   1      47.691  24.928  36.781  1.00  0.00    -0.237 OA
ATOM     80  O   UNL A   1      48.472  26.964  37.943  1.00  0.00    -0.237 OA
ATOM     81  O   UNL A   1      46.766  25.522  38.992  1.00  0.00    -0.744 OA
ENDBRANCH  77  78
ENDBRANCH  56  70
BRANCH  57  82
ATOM     82  C   UNL A   1      36.608  33.056  30.874  1.00  0.00     0.058 A 
ATOM     83  C   UNL A   1      35.288  32.866  31.308  1.00  0.00     0.135 A 
ATOM     84  C   UNL A   1      36.821  33.923  29.791  1.00  0.00     0.135 A 
ATOM     85  F   UNL A   1      35.031  32.048  32.340  1.00  0.00    -0.206 F 
ATOM     86  C   UNL A   1      34.217  33.499  30.684  1.00  0.00     0.059 A 
ATOM     87  C   UNL A   1      35.771  34.587  29.167  1.00  0.00     0.059 A 
ATOM     88  F   UNL A   1      38.067  34.157  29.352  1.00  0.00    -0.206 F 
ATOM     89  C   UNL A   1      34.470  34.362  29.616  1.00  0.00     0.060 A 
BRANCH  89  90
ATOM     90  S   UNL A   1      33.079  35.223  28.849  1.00  0.00     0.124 S 
ATOM     91  O   UNL A   1      32.589  34.217  27.916  1.00  0.00    -0.237 OA
ATOM     92  O   UNL A   1      32.223  35.501  29.998  1.00  0.00    -0.237 OA
ATOM     93  O   UNL A   1      33.703  36.396  28.245  1.00  0.00    -0.744 OA
ENDBRANCH  89  90
ENDBRANCH  57  82
BRANCH  69  94
ATOM     94  C   UNL A   1      39.880  34.102  36.954  1.00  0.00     0.058 A 
ATOM     95  C   UNL A   1      39.084  33.846  38.082  1.00  0.00     0.135 A 
ATOM     96  C   UNL A   1      40.544  35.337  36.883  1.00  0.00     0.135 A 
ATOM     97  F   UNL A   1      38.424  32.682  38.194  1.00  0.00    -0.206 F 
ATOM     98  C   UNL A   1      38.927  34.793  39.086  1.00  0.00     0.059 A 
ATOM     99  C   UNL A   1      40.427  36.286  37.891  1.00  0.00     0.059 A 
ATOM    100  F   UNL A   1      41.328  35.625  35.831  1.00  0.00    -0.206 F 
ATOM    101  C   UNL A   1      39.603  36.011  38.982  1.00  0.00     0.060 A 
BRANCH 101 102
ATOM    102  S   UNL A   1      39.405  37.223  40.303  1.00  0.00     0.124 S 
ATOM    103  O   UNL A   1      38.659  36.456  41.296  1.00  0.00    -0.237 OA
ATOM    104  O   UNL A   1      40.787  37.535  40.650  1.00  0.00    -0.237 OA
ATOM    105  O   UNL A   1      38.665  38.307  39.662  1.00  0.00    -0.744 OA
ENDBRANCH 101 102
ENDBRANCH  69  94
ENDBRANCH  43  44
ENDBRANCH  35  38
ENDBRANCH  33  34
ENDBRANCH  32  33
ENDBRANCH   1  32
TORSDOF 19
ENDMDL
MODEL 3
REMARK VINA RESULT:     -11.5      5.868      8.079
REMARK SMILES CCOc1cc(C[NH+]2CCC3(CC2)[C@H](C(=O)NCCCCNC(=O)c2ccc(-c4c5nc(c(-c6c(F)cc(S(=O)(=O)[O-])cc6F)c6ccc([nH]6)c(-c6c(F)cc(S(=O)(=O)[O-])cc6F)c6nc(c(-c7c(F)cc(S(=O)(=O)[O-])cc7F)c7ccc4[nH]7)C=C6)C=C5)cc2)CC(=O)N3C)ccc1OC
REMARK SMILES IDX 19 1 18 2 17 3 15 4 16 5 14 7 8 8 9 9 13 10 10 12 12 13
REMARK SMILES IDX 11 14 94 15 91 16 92 17 95 18 93 19 7 20 6 21 4 22 5 23
REMARK SMILES IDX 98 24 97 25 96 26 3 27 2 28 1 29 99 30 100 31 20 32 21 33
REMARK SMILES IDX 22 34 23 35 24 37 25 38 26 39 90 40 27 41 89 42 28 43 29 44
REMARK SMILES IDX 30 45 83 46 31 47 88 48 82 49 84 50 32 51 87 52 81 53 80 54
REMARK SMILES IDX 33 56 67 57 46 58 66 59 47 60 50 61 65 62 85 63 48 64 49 65
REMARK SMILES IDX 64 67 86 68 51 69 34 70 35 71 44 72 36 73 37 74 43 75 45 76
REMARK SMILES IDX 38 77 39 78 40 79 41 80 42 81 68 82 69 83 78 84 70 85 71 86
REMARK SMILES IDX 77 87 79 88 72 89 73 90 74 91 75 92 76 93 52 94 53 95 62 96
REMARK SMILES IDX 54 97 55 98 61 99 63 100 56 101 57 102 58 103 59 104 60 105
REMARK H PARENT 17 6 8 11 22 36 84 55 50 66
REMARK Flexibility Score: inf
ROOT
ATOM      1  C   UNL A   1      38.641  22.037  25.762  1.00  0.00     0.023 C 
ENDROOT
BRANCH   1   2
ATOM      2  C   UNL A   1      37.785  23.310  25.789  1.00  0.00     0.116 C 
BRANCH   2   3
ATOM      3  N   UNL A   1      36.937  23.462  24.627  1.00  0.00    -0.356 N 
ATOM      4  C   UNL A   1      35.656  23.151  24.348  1.00  0.00     0.226 C 
ATOM      5  O   UNL A   1      35.238  23.629  23.288  1.00  0.00    -0.275 OA
ATOM      6  H   UNL A   1      37.400  23.888  23.870  1.00  0.00     0.163 HD
BRANCH   4   7
ATOM      7  C   UNL A   1      34.703  22.349  25.242  1.00  0.00     0.114 C 
ATOM      8  N   UNL A   1      30.674  23.820  25.136  1.00  0.00    -0.331 N 
ATOM      9  C   UNL A   1      31.327  23.729  23.845  1.00  0.00     0.265 C 
ATOM     10  C   UNL A   1      30.855  22.610  25.922  1.00  0.00     0.265 C 
ATOM     11  H   UNL A   1      29.670  23.831  24.956  1.00  0.00     0.348 HD
ATOM     12  C   UNL A   1      32.795  23.369  23.953  1.00  0.00     0.091 C 
ATOM     13  C   UNL A   1      32.294  22.098  26.107  1.00  0.00     0.091 C 
ATOM     14  C   UNL A   1      33.202  22.190  24.854  1.00  0.00     0.065 C 
ATOM     15  N   UNL A   1      33.237  20.854  24.235  1.00  0.00    -0.339 N 
ATOM     16  C   UNL A   1      35.244  20.948  25.467  1.00  0.00     0.116 C 
ATOM     17  C   UNL A   1      34.344  20.094  24.623  1.00  0.00     0.223 C 
ATOM     18  C   UNL A   1      32.151  20.224  23.520  1.00  0.00     0.147 C 
ATOM     19  O   UNL A   1      34.548  18.928  24.352  1.00  0.00    -0.275 OA
BRANCH   8  20
ATOM     20  C   UNL A   1      30.725  25.127  25.809  1.00  0.00     0.299 C 
BRANCH  20  21
ATOM     21  C   UNL A   1      30.506  26.365  24.961  1.00  0.00     0.010 A 
ATOM     22  C   UNL A   1      31.413  28.390  23.962  1.00  0.00     0.161 A 
ATOM     23  C   UNL A   1      31.420  27.429  24.981  1.00  0.00     0.060 A 
ATOM     24  C   UNL A   1      30.366  28.419  23.034  1.00  0.00     0.160 A 
ATOM     25  C   UNL A   1      29.347  27.467  23.135  1.00  0.00     0.051 A 
ATOM     26  C   UNL A   1      29.435  26.423  24.059  1.00  0.00     0.013 A 
BRANCH  22  27
ATOM     27  O   UNL A   1      32.562  29.057  23.657  1.00  0.00    -0.490 OA
BRANCH  27  28
ATOM     28  C   UNL A   1      33.782  28.346  23.555  1.00  0.00     0.226 C 
ATOM     29  C   UNL A   1      34.011  28.198  22.055  1.00  0.00     0.049 C 
ENDBRANCH  27  28
ENDBRANCH  22  27
BRANCH  24  30
ATOM     30  O   UNL A   1      30.194  29.279  21.983  1.00  0.00    -0.493 OA
ATOM     31  C   UNL A   1      28.994  30.036  21.903  1.00  0.00     0.278 C 
ENDBRANCH  24  30
ENDBRANCH  20  21
ENDBRANCH   8  20
ENDBRANCH   4   7
ENDBRANCH   2   3
ENDBRANCH   1   2
BRANCH   1  32
ATOM     32  C   UNL A   1      39.837  22.068  26.701  1.00  0.00     0.023 C 
BRANCH  32  33
ATOM     33  C   UNL A   1      40.233  23.478  27.094  1.00  0.00     0.116 C 
BRANCH  33  34
ATOM     34  N   UNL A   1      41.217  24.030  26.167  1.00  0.00    -0.352 N 
ATOM     35  C   UNL A   1      41.616  25.327  26.011  1.00  0.00     0.251 C 
ATOM     36  H   UNL A   1      41.655  23.378  25.573  1.00  0.00     0.163 HD
ATOM     37  O   UNL A   1      42.220  25.682  25.007  1.00  0.00    -0.269 OA
BRANCH  35  38
ATOM     38  C   UNL A   1      41.289  26.273  27.083  1.00  0.00     0.039 A 
ATOM     39  C   UNL A   1      40.225  25.997  27.937  1.00  0.00     0.014 A 
ATOM     40  C   UNL A   1      42.103  27.394  27.270  1.00  0.00     0.014 A 
ATOM     41  C   UNL A   1      40.005  26.838  29.022  1.00  0.00     0.010 A 
ATOM     42  C   UNL A   1      41.959  28.153  28.415  1.00  0.00     0.010 A 
ATOM     43  C   UNL A   1      40.891  27.899  29.283  1.00  0.00    -0.014 A 
BRANCH  43  44
ATOM     44  C   UNL A   1      40.696  28.778  30.452  1.00  0.00     0.031 A 
ATOM     45  C   UNL A   1      41.555  28.588  31.670  1.00  0.00     0.074 A 
ATOM     46  C   UNL A   1      39.715  29.699  30.423  1.00  0.00     0.049 A 
ATOM     47  N   UNL A   1      41.535  29.244  32.799  1.00  0.00    -0.248 NA
ATOM     48  C   UNL A   1      42.540  27.492  31.632  1.00  0.00     0.031 C 
ATOM     49  C   UNL A   1      38.774  29.899  29.316  1.00  0.00     0.029 A 
ATOM     50  N   UNL A   1      39.344  30.636  31.348  1.00  0.00    -0.354 N 
ATOM     51  C   UNL A   1      42.488  28.633  33.605  1.00  0.00     0.074 A 
ATOM     52  C   UNL A   1      43.017  27.512  32.866  1.00  0.00     0.031 C 
ATOM     53  C   UNL A   1      37.960  30.924  29.612  1.00  0.00     0.029 A 
ATOM     54  C   UNL A   1      38.297  31.427  30.939  1.00  0.00     0.049 A 
ATOM     55  H   UNL A   1      39.786  30.735  32.222  1.00  0.00     0.167 HD
ATOM     56  C   UNL A   1      42.905  29.001  34.837  1.00  0.00     0.037 A 
ATOM     57  C   UNL A   1      37.682  32.444  31.570  1.00  0.00     0.037 A 
ATOM     58  C   UNL A   1      42.385  30.143  35.539  1.00  0.00     0.049 A 
ATOM     59  C   UNL A   1      38.186  32.856  32.925  1.00  0.00     0.074 A 
ATOM     60  C   UNL A   1      42.786  30.661  36.756  1.00  0.00     0.029 A 
ATOM     61  N   UNL A   1      41.346  30.942  35.084  1.00  0.00    -0.354 N 
ATOM     62  N   UNL A   1      39.156  32.330  33.638  1.00  0.00    -0.248 NA
ATOM     63  C   UNL A   1      37.527  34.004  33.558  1.00  0.00     0.031 C 
ATOM     64  C   UNL A   1      41.954  31.742  37.063  1.00  0.00     0.029 A 
ATOM     65  C   UNL A   1      41.072  31.933  36.010  1.00  0.00     0.049 A 
ATOM     66  H   UNL A   1      40.874  30.822  34.228  1.00  0.00     0.167 HD
ATOM     67  C   UNL A   1      39.234  33.093  34.796  1.00  0.00     0.074 A 
ATOM     68  C   UNL A   1      38.228  34.131  34.675  1.00  0.00     0.031 C 
ATOM     69  C   UNL A   1      40.057  32.950  35.865  1.00  0.00     0.037 A 
BRANCH  56  70
ATOM     70  C   UNL A   1      43.969  28.163  35.492  1.00  0.00     0.058 A 
ATOM     71  C   UNL A   1      45.337  28.413  35.293  1.00  0.00     0.135 A 
ATOM     72  C   UNL A   1      43.617  27.104  36.344  1.00  0.00     0.135 A 
ATOM     73  F   UNL A   1      45.734  29.398  34.472  1.00  0.00    -0.206 F 
ATOM     74  C   UNL A   1      46.316  27.625  35.890  1.00  0.00     0.059 A 
ATOM     75  C   UNL A   1      44.579  26.323  36.977  1.00  0.00     0.059 A 
ATOM     76  F   UNL A   1      42.324  26.815  36.564  1.00  0.00    -0.206 F 
ATOM     77  C   UNL A   1      45.926  26.583  36.732  1.00  0.00     0.060 A 
BRANCH  77  78
ATOM     78  S   UNL A   1      47.209  25.578  37.509  1.00  0.00     0.124 S 
ATOM     79  O   UNL A   1      48.225  25.543  36.461  1.00  0.00    -0.237 OA
ATOM     80  O   UNL A   1      47.548  26.366  38.691  1.00  0.00    -0.237 OA
ATOM     81  O   UNL A   1      46.536  24.311  37.774  1.00  0.00    -0.744 OA
ENDBRANCH  77  78
ENDBRANCH  56  70
BRANCH  57  82
ATOM     82  C   UNL A   1      36.552  33.149  30.910  1.00  0.00     0.058 A 
ATOM     83  C   UNL A   1      36.756  33.937  29.768  1.00  0.00     0.135 A 
ATOM     84  C   UNL A   1      35.237  33.015  31.385  1.00  0.00     0.135 A 
ATOM     85  F   UNL A   1      37.993  34.096  29.275  1.00  0.00    -0.206 F 
ATOM     86  C   UNL A   1      35.702  34.580  29.128  1.00  0.00     0.059 A 
ATOM     87  C   UNL A   1      34.163  33.627  30.747  1.00  0.00     0.059 A 
ATOM     88  F   UNL A   1      34.985  32.254  32.460  1.00  0.00    -0.206 F 
ATOM     89  C   UNL A   1      34.407  34.415  29.623  1.00  0.00     0.060 A 
BRANCH  89  90
ATOM     90  S   UNL A   1      33.037  35.207  28.751  1.00  0.00     0.124 S 
ATOM     91  O   UNL A   1      32.156  35.570  29.854  1.00  0.00    -0.237 OA
ATOM     92  O   UNL A   1      33.707  36.315  28.076  1.00  0.00    -0.237 OA
ATOM     93  O   UNL A   1      32.546  34.152  27.870  1.00  0.00    -0.744 OA
ENDBRANCH  89  90
ENDBRANCH  57  82
BRANCH  69  94
ATOM     94  C   UNL A   1      39.913  33.949  36.978  1.00  0.00     0.058 A 
ATOM     95  C   UNL A   1      40.543  35.202  36.928  1.00  0.00     0.135 A 
ATOM     96  C   UNL A   1      39.102  33.664  38.088  1.00  0.00     0.135 A 
ATOM     97  F   UNL A   1      41.334  35.521  35.891  1.00  0.00    -0.206 F 
ATOM     98  C   UNL A   1      40.399  36.127  37.956  1.00  0.00     0.059 A 
ATOM     99  C   UNL A   1      38.917  34.586  39.112  1.00  0.00     0.059 A 
ATOM    100  F   UNL A   1      38.467  32.484  38.178  1.00  0.00    -0.206 F 
ATOM    101  C   UNL A   1      39.584  35.809  39.044  1.00  0.00     0.060 A 
BRANCH 101 102
ATOM    102  S   UNL A   1      39.391  37.026  40.362  1.00  0.00     0.124 S 
ATOM    103  O   UNL A   1      40.744  37.083  40.908  1.00  0.00    -0.237 OA
ATOM    104  O   UNL A   1      38.951  38.210  39.632  1.00  0.00    -0.237 OA
ATOM    105  O   UNL A   1      38.387  36.425  41.235  1.00  0.00    -0.744 OA
ENDBRANCH 101 102
ENDBRANCH  69  94
ENDBRANCH  43  44
ENDBRANCH  35  38
ENDBRANCH  33  34
ENDBRANCH  32  33
ENDBRANCH   1  32
TORSDOF 19
ENDMDL
