MODEL 1
REMARK VINA RESULT:     -10.8      0.000      0.000
REMARK SMILES Cc1ccc(O)c(C(=O)CCCC(=O)NCCCCNC(=O)c2ccc(-c3c4nc(c(-c5c(F)cc(S(=O)(=O)[O-])cc5F)c5ccc([nH]5)c(-c5c(F)cc(S(=O)(=O)[O-])cc5F)c5nc(c(-c6c(F)cc(S(=O)(=O)[O-])cc6F)c6ccc3[nH]6)C=C5)C=C4)cc2)c1
REMARK SMILES IDX 16 1 15 2 13 3 14 4 12 6 11 7 10 8 8 9 9 10 7 11 1 12 2 13
REMARK SMILES IDX 3 14 89 15 4 16 5 17 6 18 17 20 18 21 19 22 20 23 21 24
REMARK SMILES IDX 22 26 23 27 24 28 88 29 25 30 87 31 26 32 27 33 28 34 81 35
REMARK SMILES IDX 29 36 86 37 80 38 82 39 30 40 85 41 79 42 78 43 31 45 65 46
REMARK SMILES IDX 44 47 64 48 45 49 48 50 63 51 83 52 46 53 47 54 62 56 84 57
REMARK SMILES IDX 49 58 32 59 33 60 42 61 34 62 35 63 41 64 43 65 36 66 37 67
REMARK SMILES IDX 38 68 39 69 40 70 66 71 67 72 76 73 68 74 69 75 75 76 77 77
REMARK SMILES IDX 70 78 71 79 72 80 73 81 74 82 50 83 51 84 60 85 52 86 53 87
REMARK SMILES IDX 59 88 61 89 54 90 55 91 56 92 57 93 58 94
REMARK H PARENT 15 5 6 19 20 25 82 44 48 55
REMARK Flexibility Score: inf
ROOT
ATOM      1  C   UNL A   1      31.099  29.884  24.909  1.00  0.00     0.116 C 
ENDROOT
BRANCH   1   2
ATOM      2  N   UNL A   1      30.706  29.846  23.517  1.00  0.00    -0.356 N 
ATOM      3  C   UNL A   1      29.900  29.059  22.768  1.00  0.00     0.220 C 
ATOM      4  O   UNL A   1      29.835  29.356  21.568  1.00  0.00    -0.275 OA
ATOM      5  H   UNL A   1      31.126  30.562  22.988  1.00  0.00     0.163 HD
BRANCH   3   6
ATOM      6  C   UNL A   1      28.987  27.952  23.291  1.00  0.00     0.100 C 
BRANCH   6   7
ATOM      7  C   UNL A   1      29.493  26.587  23.763  1.00  0.00     0.018 C 
BRANCH   7   8
ATOM      8  C   UNL A   1      30.022  26.317  25.166  1.00  0.00     0.082 C 
BRANCH   8   9
ATOM      9  C   UNL A   1      30.726  25.019  25.582  1.00  0.00     0.166 C 
ATOM     10  O   UNL A   1      30.199  24.323  26.463  1.00  0.00    -0.294 OA
BRANCH   9  11
ATOM     11  C   UNL A   1      31.940  24.429  24.915  1.00  0.00     0.060 A 
ATOM     12  C   UNL A   1      35.723  24.152  25.405  1.00  0.00     0.044 C 
ATOM     13  C   UNL A   1      34.357  23.987  24.801  1.00  0.00    -0.050 A 
ATOM     14  C   UNL A   1      34.172  23.210  23.662  1.00  0.00     0.007 A 
ATOM     15  C   UNL A   1      33.237  24.589  25.399  1.00  0.00     0.019 A 
ATOM     16  C   UNL A   1      32.895  23.063  23.126  1.00  0.00     0.047 A 
ATOM     17  C   UNL A   1      31.794  23.664  23.745  1.00  0.00     0.126 A 
BRANCH  17  18
ATOM     18  O   UNL A   1      30.591  23.463  23.120  1.00  0.00    -0.507 OA
ATOM     19  H   UNL A   1      30.539  23.485  22.185  1.00  0.00     0.293 HD
ENDBRANCH  17  18
ENDBRANCH   9  11
ENDBRANCH   8   9
ENDBRANCH   7   8
ENDBRANCH   6   7
ENDBRANCH   3   6
ENDBRANCH   1   2
BRANCH   1  20
ATOM     20  C   UNL A   1      32.492  29.281  25.115  1.00  0.00     0.023 C 
BRANCH  20  21
ATOM     21  C   UNL A   1      32.557  28.278  26.262  1.00  0.00     0.023 C 
BRANCH  21  22
ATOM     22  C   UNL A   1      33.626  28.595  27.303  1.00  0.00     0.116 C 
BRANCH  22  23
ATOM     23  N   UNL A   1      33.622  29.986  27.741  1.00  0.00    -0.352 N 
ATOM     24  C   UNL A   1      34.660  30.706  28.289  1.00  0.00     0.251 C 
ATOM     25  H   UNL A   1      32.772  30.471  27.630  1.00  0.00     0.163 HD
ATOM     26  O   UNL A   1      34.487  31.851  28.692  1.00  0.00    -0.269 OA
BRANCH  24  27
ATOM     27  C   UNL A   1      35.976  30.050  28.429  1.00  0.00     0.039 A 
ATOM     28  C   UNL A   1      36.874  30.102  27.362  1.00  0.00     0.014 A 
ATOM     29  C   UNL A   1      36.352  29.488  29.652  1.00  0.00     0.014 A 
ATOM     30  C   UNL A   1      38.188  29.670  27.552  1.00  0.00     0.010 A 
ATOM     31  C   UNL A   1      37.680  29.134  29.861  1.00  0.00     0.010 A 
ATOM     32  C   UNL A   1      38.614  29.231  28.818  1.00  0.00    -0.014 A 
BRANCH  32  33
ATOM     33  C   UNL A   1      40.034  28.885  29.079  1.00  0.00     0.031 A 
ATOM     34  C   UNL A   1      40.958  29.908  29.679  1.00  0.00     0.074 A 
ATOM     35  C   UNL A   1      40.510  27.681  28.702  1.00  0.00     0.049 A 
ATOM     36  N   UNL A   1      42.244  29.830  29.902  1.00  0.00    -0.248 NA
ATOM     37  C   UNL A   1      40.363  31.204  30.042  1.00  0.00     0.031 C 
ATOM     38  C   UNL A   1      39.730  26.624  28.052  1.00  0.00     0.029 A 
ATOM     39  N   UNL A   1      41.771  27.146  28.799  1.00  0.00    -0.354 N 
ATOM     40  C   UNL A   1      42.615  31.071  30.406  1.00  0.00     0.074 A 
ATOM     41  C   UNL A   1      41.429  31.899  30.407  1.00  0.00     0.031 C 
ATOM     42  C   UNL A   1      40.521  25.560  27.837  1.00  0.00     0.029 A 
ATOM     43  C   UNL A   1      41.869  25.867  28.302  1.00  0.00     0.049 A 
ATOM     44  H   UNL A   1      42.532  27.632  29.189  1.00  0.00     0.167 HD
ATOM     45  C   UNL A   1      43.828  31.475  30.851  1.00  0.00     0.037 A 
ATOM     46  C   UNL A   1      42.929  25.038  28.228  1.00  0.00     0.037 A 
ATOM     47  C   UNL A   1      44.994  30.633  30.891  1.00  0.00     0.049 A 
ATOM     48  C   UNL A   1      44.259  25.497  28.762  1.00  0.00     0.074 A 
ATOM     49  C   UNL A   1      46.250  30.924  31.394  1.00  0.00     0.029 A 
ATOM     50  N   UNL A   1      45.044  29.331  30.414  1.00  0.00    -0.354 N 
ATOM     51  N   UNL A   1      44.576  26.652  29.297  1.00  0.00    -0.248 NA
ATOM     52  C   UNL A   1      45.372  24.541  28.686  1.00  0.00     0.031 C 
ATOM     53  C   UNL A   1      47.069  29.806  31.194  1.00  0.00     0.029 A 
ATOM     54  C   UNL A   1      46.312  28.809  30.600  1.00  0.00     0.049 A 
ATOM     55  H   UNL A   1      44.289  28.850  30.005  1.00  0.00     0.167 HD
ATOM     56  C   UNL A   1      45.918  26.552  29.646  1.00  0.00     0.074 A 
ATOM     57  C   UNL A   1      46.349  25.222  29.269  1.00  0.00     0.031 C 
ATOM     58  C   UNL A   1      46.720  27.477  30.228  1.00  0.00     0.037 A 
BRANCH  45  59
ATOM     59  C   UNL A   1      43.947  32.892  31.341  1.00  0.00     0.058 A 
ATOM     60  C   UNL A   1      43.804  33.213  32.701  1.00  0.00     0.135 A 
ATOM     61  C   UNL A   1      44.208  33.939  30.444  1.00  0.00     0.135 A 
ATOM     62  F   UNL A   1      43.536  32.252  33.599  1.00  0.00    -0.206 F 
ATOM     63  C   UNL A   1      43.880  34.528  33.148  1.00  0.00     0.059 A 
ATOM     64  C   UNL A   1      44.314  35.258  30.873  1.00  0.00     0.059 A 
ATOM     65  F   UNL A   1      44.352  33.686  29.133  1.00  0.00    -0.206 F 
ATOM     66  C   UNL A   1      44.128  35.545  32.225  1.00  0.00     0.060 A 
BRANCH  66  67
ATOM     67  S   UNL A   1      44.207  37.248  32.817  1.00  0.00     0.124 S 
ATOM     68  O   UNL A   1      45.480  37.248  33.530  1.00  0.00    -0.237 OA
ATOM     69  O   UNL A   1      44.177  38.015  31.575  1.00  0.00    -0.237 OA
ATOM     70  O   UNL A   1      43.017  37.371  33.654  1.00  0.00    -0.744 OA
ENDBRANCH  66  67
ENDBRANCH  45  59
BRANCH  46  71
ATOM     71  C   UNL A   1      42.767  23.672  27.666  1.00  0.00     0.058 A 
ATOM     72  C   UNL A   1      42.499  22.578  28.503  1.00  0.00     0.135 A 
ATOM     73  C   UNL A   1      42.863  23.430  26.287  1.00  0.00     0.135 A 
ATOM     74  F   UNL A   1      42.405  22.759  29.830  1.00  0.00    -0.206 F 
ATOM     75  C   UNL A   1      42.348  21.292  27.999  1.00  0.00     0.059 A 
ATOM     76  C   UNL A   1      42.695  22.156  25.755  1.00  0.00     0.059 A 
ATOM     77  F   UNL A   1      43.100  24.445  25.441  1.00  0.00    -0.206 F 
ATOM     78  C   UNL A   1      42.448  21.090  26.621  1.00  0.00     0.060 A 
BRANCH  78  79
ATOM     79  S   UNL A   1      42.200  19.424  25.969  1.00  0.00     0.124 S 
ATOM     80  O   UNL A   1      40.755  19.395  25.777  1.00  0.00    -0.237 OA
ATOM     81  O   UNL A   1      43.007  19.445  24.753  1.00  0.00    -0.237 OA
ATOM     82  O   UNL A   1      42.714  18.569  27.036  1.00  0.00    -0.744 OA
ENDBRANCH  78  79
ENDBRANCH  46  71
BRANCH  58  83
ATOM     83  C   UNL A   1      48.136  27.074  30.523  1.00  0.00     0.058 A 
ATOM     84  C   UNL A   1      49.174  27.311  29.611  1.00  0.00     0.135 A 
ATOM     85  C   UNL A   1      48.465  26.493  31.759  1.00  0.00     0.135 A 
ATOM     86  F   UNL A   1      48.909  27.858  28.413  1.00  0.00    -0.206 F 
ATOM     87  C   UNL A   1      50.490  26.969  29.904  1.00  0.00     0.059 A 
ATOM     88  C   UNL A   1      49.777  26.162  32.082  1.00  0.00     0.059 A 
ATOM     89  F   UNL A   1      47.509  26.253  32.670  1.00  0.00    -0.206 F 
ATOM     90  C   UNL A   1      50.781  26.396  31.143  1.00  0.00     0.060 A 
BRANCH  90  91
ATOM     91  S   UNL A   1      52.498  25.991  31.531  1.00  0.00     0.124 S 
ATOM     92  O   UNL A   1      53.130  26.108  30.221  1.00  0.00    -0.237 OA
ATOM     93  O   UNL A   1      52.853  27.022  32.501  1.00  0.00    -0.237 OA
ATOM     94  O   UNL A   1      52.413  24.637  32.070  1.00  0.00    -0.744 OA
ENDBRANCH  90  91
ENDBRANCH  58  83
ENDBRANCH  32  33
ENDBRANCH  24  27
ENDBRANCH  22  23
ENDBRANCH  21  22
ENDBRANCH  20  21
ENDBRANCH   1  20
TORSDOF 19
ENDMDL
MODEL 2
REMARK VINA RESULT:     -10.6      1.215      2.776
REMARK SMILES Cc1ccc(O)c(C(=O)CCCC(=O)NCCCCNC(=O)c2ccc(-c3c4nc(c(-c5c(F)cc(S(=O)(=O)[O-])cc5F)c5ccc([nH]5)c(-c5c(F)cc(S(=O)(=O)[O-])cc5F)c5nc(c(-c6c(F)cc(S(=O)(=O)[O-])cc6F)c6ccc3[nH]6)C=C5)C=C4)cc2)c1
REMARK SMILES IDX 16 1 15 2 13 3 14 4 12 6 11 7 10 8 8 9 9 10 7 11 1 12 2 13
REMARK SMILES IDX 3 14 89 15 4 16 5 17 6 18 17 20 18 21 19 22 20 23 21 24
REMARK SMILES IDX 22 26 23 27 24 28 88 29 25 30 87 31 26 32 27 33 28 34 81 35
REMARK SMILES IDX 29 36 86 37 80 38 82 39 30 40 85 41 79 42 78 43 31 45 65 46
REMARK SMILES IDX 44 47 64 48 45 49 48 50 63 51 83 52 46 53 47 54 62 56 84 57
REMARK SMILES IDX 49 58 32 59 33 60 42 61 34 62 35 63 41 64 43 65 36 66 37 67
REMARK SMILES IDX 38 68 39 69 40 70 66 71 67 72 76 73 68 74 69 75 75 76 77 77
REMARK SMILES IDX 70 78 71 79 72 80 73 81 74 82 50 83 51 84 60 85 52 86 53 87
REMARK SMILES IDX 59 88 61 89 54 90 55 91 56 92 57 93 58 94
REMARK H PARENT 15 5 6 19 20 25 82 44 48 55
REMARK Flexibility Score: inf
ROOT
ATOM      1  C   UNL A   1      31.806  25.772  26.507  1.00  0.00     0.116 C 
ENDROOT
BRANCH   1   2
ATOM      2  N   UNL A   1      33.133  25.610  25.952  1.00  0.00    -0.356 N 
ATOM      3  C   UNL A   1      33.910  24.556  25.613  1.00  0.00     0.220 C 
ATOM      4  O   UNL A   1      35.028  24.843  25.166  1.00  0.00    -0.275 OA
ATOM      5  H   UNL A   1      33.576  26.472  25.780  1.00  0.00     0.163 HD
BRANCH   3   6
ATOM      6  C   UNL A   1      33.484  23.089  25.612  1.00  0.00     0.100 C 
BRANCH   6   7
ATOM      7  C   UNL A   1      33.545  22.189  24.376  1.00  0.00     0.018 C 
BRANCH   7   8
ATOM      8  C   UNL A   1      32.709  22.412  23.122  1.00  0.00     0.082 C 
BRANCH   8   9
ATOM      9  C   UNL A   1      32.793  23.669  22.246  1.00  0.00     0.166 C 
ATOM     10  O   UNL A   1      33.394  23.590  21.165  1.00  0.00    -0.294 OA
BRANCH   9  11
ATOM     11  C   UNL A   1      32.086  24.970  22.513  1.00  0.00     0.060 A 
ATOM     12  C   UNL A   1      28.809  26.291  23.979  1.00  0.00     0.044 C 
ATOM     13  C   UNL A   1      30.172  26.272  23.348  1.00  0.00    -0.050 A 
ATOM     14  C   UNL A   1      30.848  27.459  23.080  1.00  0.00     0.007 A 
ATOM     15  C   UNL A   1      30.802  25.052  23.050  1.00  0.00     0.019 A 
ATOM     16  C   UNL A   1      32.115  27.416  22.504  1.00  0.00     0.047 A 
ATOM     17  C   UNL A   1      32.726  26.188  22.225  1.00  0.00     0.126 A 
BRANCH  17  18
ATOM     18  O   UNL A   1      33.965  26.270  21.646  1.00  0.00    -0.507 OA
ATOM     19  H   UNL A   1      34.071  26.070  20.737  1.00  0.00     0.293 HD
ENDBRANCH  17  18
ENDBRANCH   9  11
ENDBRANCH   8   9
ENDBRANCH   7   8
ENDBRANCH   6   7
ENDBRANCH   3   6
ENDBRANCH   1   2
BRANCH   1  20
ATOM     20  C   UNL A   1      31.445  27.251  26.675  1.00  0.00     0.023 C 
BRANCH  20  21
ATOM     21  C   UNL A   1      32.581  28.199  26.306  1.00  0.00     0.023 C 
BRANCH  21  22
ATOM     22  C   UNL A   1      33.454  28.610  27.487  1.00  0.00     0.116 C 
BRANCH  22  23
ATOM     23  N   UNL A   1      33.499  30.050  27.709  1.00  0.00    -0.352 N 
ATOM     24  C   UNL A   1      34.573  30.814  28.111  1.00  0.00     0.251 C 
ATOM     25  H   UNL A   1      32.658  30.538  27.551  1.00  0.00     0.163 HD
ATOM     26  O   UNL A   1      34.442  32.011  28.340  1.00  0.00    -0.269 OA
BRANCH  24  27
ATOM     27  C   UNL A   1      35.876  30.148  28.310  1.00  0.00     0.039 A 
ATOM     28  C   UNL A   1      36.798  30.138  27.261  1.00  0.00     0.014 A 
ATOM     29  C   UNL A   1      36.218  29.638  29.565  1.00  0.00     0.014 A 
ATOM     30  C   UNL A   1      38.101  29.698  27.500  1.00  0.00     0.010 A 
ATOM     31  C   UNL A   1      37.536  29.277  29.820  1.00  0.00     0.010 A 
ATOM     32  C   UNL A   1      38.493  29.313  28.794  1.00  0.00    -0.014 A 
BRANCH  32  33
ATOM     33  C   UNL A   1      39.902  28.960  29.102  1.00  0.00     0.031 A 
ATOM     34  C   UNL A   1      40.811  29.981  29.730  1.00  0.00     0.074 A 
ATOM     35  C   UNL A   1      40.385  27.754  28.742  1.00  0.00     0.049 A 
ATOM     36  N   UNL A   1      42.089  29.898  29.995  1.00  0.00    -0.248 NA
ATOM     37  C   UNL A   1      40.211  31.281  30.070  1.00  0.00     0.031 C 
ATOM     38  C   UNL A   1      39.621  26.699  28.070  1.00  0.00     0.029 A 
ATOM     39  N   UNL A   1      41.639  27.213  28.882  1.00  0.00    -0.354 N 
ATOM     40  C   UNL A   1      42.449  31.138  30.507  1.00  0.00     0.074 A 
ATOM     41  C   UNL A   1      41.268  31.971  30.468  1.00  0.00     0.031 C 
ATOM     42  C   UNL A   1      40.414  25.631  27.883  1.00  0.00     0.029 A 
ATOM     43  C   UNL A   1      41.748  25.933  28.390  1.00  0.00     0.049 A 
ATOM     44  H   UNL A   1      42.389  27.696  29.296  1.00  0.00     0.167 HD
ATOM     45  C   UNL A   1      43.649  31.537  30.992  1.00  0.00     0.037 A 
ATOM     46  C   UNL A   1      42.805  25.098  28.353  1.00  0.00     0.037 A 
ATOM     47  C   UNL A   1      44.809  30.690  31.071  1.00  0.00     0.049 A 
ATOM     48  C   UNL A   1      44.119  25.553  28.929  1.00  0.00     0.074 A 
ATOM     49  C   UNL A   1      46.049  30.975  31.614  1.00  0.00     0.029 A 
ATOM     50  N   UNL A   1      44.869  29.386  30.599  1.00  0.00    -0.354 N 
ATOM     51  N   UNL A   1      44.424  26.707  29.472  1.00  0.00    -0.248 NA
ATOM     52  C   UNL A   1      45.229  24.591  28.891  1.00  0.00     0.031 C 
ATOM     53  C   UNL A   1      46.869  29.853  31.444  1.00  0.00     0.029 A 
ATOM     54  C   UNL A   1      46.127  28.858  30.827  1.00  0.00     0.049 A 
ATOM     55  H   UNL A   1      44.125  28.908  30.166  1.00  0.00     0.167 HD
ATOM     56  C   UNL A   1      45.753  26.601  29.864  1.00  0.00     0.074 A 
ATOM     57  C   UNL A   1      46.191  25.268  29.504  1.00  0.00     0.031 C 
ATOM     58  C   UNL A   1      46.541  27.524  30.471  1.00  0.00     0.037 A 
BRANCH  45  59
ATOM     59  C   UNL A   1      43.758  32.954  31.482  1.00  0.00     0.058 A 
ATOM     60  C   UNL A   1      43.480  33.293  32.817  1.00  0.00     0.135 A 
ATOM     61  C   UNL A   1      44.148  33.984  30.612  1.00  0.00     0.135 A 
ATOM     62  F   UNL A   1      43.087  32.348  33.687  1.00  0.00    -0.206 F 
ATOM     63  C   UNL A   1      43.548  34.609  33.261  1.00  0.00     0.059 A 
ATOM     64  C   UNL A   1      44.248  35.303  31.042  1.00  0.00     0.059 A 
ATOM     65  F   UNL A   1      44.424  33.714  29.326  1.00  0.00    -0.206 F 
ATOM     66  C   UNL A   1      43.926  35.609  32.364  1.00  0.00     0.060 A 
BRANCH  66  67
ATOM     67  S   UNL A   1      43.994  37.314  32.950  1.00  0.00     0.124 S 
ATOM     68  O   UNL A   1      42.831  37.364  33.830  1.00  0.00    -0.237 OA
ATOM     69  O   UNL A   1      45.293  37.368  33.613  1.00  0.00    -0.237 OA
ATOM     70  O   UNL A   1      43.888  38.098  31.723  1.00  0.00    -0.744 OA
ENDBRANCH  66  67
ENDBRANCH  45  59
BRANCH  46  71
ATOM     71  C   UNL A   1      42.655  23.732  27.788  1.00  0.00     0.058 A 
ATOM     72  C   UNL A   1      42.768  23.510  26.407  1.00  0.00     0.135 A 
ATOM     73  C   UNL A   1      42.411  22.621  28.610  1.00  0.00     0.135 A 
ATOM     74  F   UNL A   1      42.996  24.543  25.580  1.00  0.00    -0.206 F 
ATOM     75  C   UNL A   1      42.629  22.241  25.858  1.00  0.00     0.059 A 
ATOM     76  C   UNL A   1      42.289  21.338  28.086  1.00  0.00     0.059 A 
ATOM     77  F   UNL A   1      42.313  22.777  29.940  1.00  0.00    -0.206 F 
ATOM     78  C   UNL A   1      42.389  21.159  26.706  1.00  0.00     0.060 A 
BRANCH  78  79
ATOM     79  S   UNL A   1      42.260  19.507  25.989  1.00  0.00     0.124 S 
ATOM     80  O   UNL A   1      43.130  19.623  24.825  1.00  0.00    -0.237 OA
ATOM     81  O   UNL A   1      42.749  18.660  27.072  1.00  0.00    -0.237 OA
ATOM     82  O   UNL A   1      40.833  19.380  25.702  1.00  0.00    -0.744 OA
ENDBRANCH  78  79
ENDBRANCH  46  71
BRANCH  58  83
ATOM     83  C   UNL A   1      47.944  27.115  30.813  1.00  0.00     0.058 A 
ATOM     84  C   UNL A   1      48.270  26.585  32.070  1.00  0.00     0.135 A 
ATOM     85  C   UNL A   1      48.963  27.206  29.851  1.00  0.00     0.135 A 
ATOM     86  F   UNL A   1      47.333  26.485  33.025  1.00  0.00    -0.206 F 
ATOM     87  C   UNL A   1      49.565  26.175  32.370  1.00  0.00     0.059 A 
ATOM     88  C   UNL A   1      50.261  26.781  30.121  1.00  0.00     0.059 A 
ATOM     89  F   UNL A   1      48.700  27.698  28.630  1.00  0.00    -0.206 F 
ATOM     90  C   UNL A   1      50.553  26.275  31.388  1.00  0.00     0.060 A 
BRANCH  90  91
ATOM     91  S   UNL A   1      52.222  25.703  31.774  1.00  0.00     0.124 S 
ATOM     92  O   UNL A   1      52.933  26.018  30.540  1.00  0.00    -0.237 OA
ATOM     93  O   UNL A   1      52.573  26.518  32.934  1.00  0.00    -0.237 OA
ATOM     94  O   UNL A   1      52.037  24.282  32.049  1.00  0.00    -0.744 OA
ENDBRANCH  90  91
ENDBRANCH  58  83
ENDBRANCH  32  33
ENDBRANCH  24  27
ENDBRANCH  22  23
ENDBRANCH  21  22
ENDBRANCH  20  21
ENDBRANCH   1  20
TORSDOF 19
ENDMDL
MODEL 3
REMARK VINA RESULT:     -10.5      3.032     10.115
REMARK SMILES Cc1ccc(O)c(C(=O)CCCC(=O)NCCCCNC(=O)c2ccc(-c3c4nc(c(-c5c(F)cc(S(=O)(=O)[O-])cc5F)c5ccc([nH]5)c(-c5c(F)cc(S(=O)(=O)[O-])cc5F)c5nc(c(-c6c(F)cc(S(=O)(=O)[O-])cc6F)c6ccc3[nH]6)C=C5)C=C4)cc2)c1
REMARK SMILES IDX 16 1 15 2 13 3 14 4 12 6 11 7 10 8 8 9 9 10 7 11 1 12 2 13
REMARK SMILES IDX 3 14 89 15 4 16 5 17 6 18 17 20 18 21 19 22 20 23 21 24
REMARK SMILES IDX 22 26 23 27 24 28 88 29 25 30 87 31 26 32 27 33 28 34 81 35
REMARK SMILES IDX 29 36 86 37 80 38 82 39 30 40 85 41 79 42 78 43 31 45 65 46
REMARK SMILES IDX 44 47 64 48 45 49 48 50 63 51 83 52 46 53 47 54 62 56 84 57
REMARK SMILES IDX 49 58 32 59 33 60 42 61 34 62 35 63 41 64 43 65 36 66 37 67
REMARK SMILES IDX 38 68 39 69 40 70 66 71 67 72 76 73 68 74 69 75 75 76 77 77
REMARK SMILES IDX 70 78 71 79 72 80 73 81 74 82 50 83 51 84 60 85 52 86 53 87
REMARK SMILES IDX 59 88 61 89 54 90 55 91 56 92 57 93 58 94
REMARK H PARENT 15 5 6 19 20 25 82 44 48 55
REMARK Flexibility Score: inf
ROOT
ATOM      1  C   UNL A   1      34.980  34.323  31.269  1.00  0.00     0.116 C 
ENDROOT
BRANCH   1   2
ATOM      2  N   UNL A   1      36.395  34.632  31.282  1.00  0.00    -0.356 N 
ATOM      3  C   UNL A   1      37.511  33.999  31.709  1.00  0.00     0.220 C 
ATOM      4  O   UNL A   1      38.568  34.623  31.548  1.00  0.00    -0.275 OA
ATOM      5  H   UNL A   1      36.591  35.512  30.888  1.00  0.00     0.163 HD
BRANCH   3   6
ATOM      6  C   UNL A   1      37.588  32.567  32.234  1.00  0.00     0.100 C 
BRANCH   6   7
ATOM      7  C   UNL A   1      36.941  32.108  33.541  1.00  0.00     0.018 C 
BRANCH   7   8
ATOM      8  C   UNL A   1      37.704  31.924  34.848  1.00  0.00     0.082 C 
BRANCH   8   9
ATOM      9  C   UNL A   1      38.472  30.649  35.221  1.00  0.00     0.166 C 
ATOM     10  O   UNL A   1      38.329  30.194  36.365  1.00  0.00    -0.294 OA
BRANCH   9  11
ATOM     11  C   UNL A   1      39.284  29.808  34.273  1.00  0.00     0.060 A 
ATOM     12  C   UNL A   1      42.929  29.085  33.367  1.00  0.00     0.044 C 
ATOM     13  C   UNL A   1      41.428  29.025  33.355  1.00  0.00    -0.050 A 
ATOM     14  C   UNL A   1      40.758  28.124  32.531  1.00  0.00     0.007 A 
ATOM     15  C   UNL A   1      40.676  29.855  34.203  1.00  0.00     0.019 A 
ATOM     16  C   UNL A   1      39.367  28.080  32.545  1.00  0.00     0.047 A 
ATOM     17  C   UNL A   1      38.640  28.910  33.405  1.00  0.00     0.126 A 
BRANCH  17  18
ATOM     18  O   UNL A   1      37.277  28.790  33.320  1.00  0.00    -0.507 OA
ATOM     19  H   UNL A   1      36.832  28.138  33.825  1.00  0.00     0.293 HD
ENDBRANCH  17  18
ENDBRANCH   9  11
ENDBRANCH   8   9
ENDBRANCH   7   8
ENDBRANCH   6   7
ENDBRANCH   3   6
ENDBRANCH   1   2
BRANCH   1  20
ATOM     20  C   UNL A   1      34.487  34.014  29.852  1.00  0.00     0.023 C 
BRANCH  20  21
ATOM     21  C   UNL A   1      34.399  32.522  29.551  1.00  0.00     0.023 C 
BRANCH  21  22
ATOM     22  C   UNL A   1      34.198  32.198  28.074  1.00  0.00     0.116 C 
BRANCH  22  23
ATOM     23  N   UNL A   1      33.741  30.835  27.830  1.00  0.00    -0.352 N 
ATOM     24  C   UNL A   1      34.483  29.675  27.844  1.00  0.00     0.251 C 
ATOM     25  H   UNL A   1      32.782  30.731  27.631  1.00  0.00     0.163 HD
ATOM     26  O   UNL A   1      33.979  28.602  27.534  1.00  0.00    -0.269 OA
BRANCH  24  27
ATOM     27  C   UNL A   1      35.917  29.761  28.190  1.00  0.00     0.039 A 
ATOM     28  C   UNL A   1      36.329  29.375  29.467  1.00  0.00     0.014 A 
ATOM     29  C   UNL A   1      36.853  30.115  27.215  1.00  0.00     0.014 A 
ATOM     30  C   UNL A   1      37.692  29.255  29.738  1.00  0.00     0.010 A 
ATOM     31  C   UNL A   1      38.206  29.916  27.463  1.00  0.00     0.010 A 
ATOM     32  C   UNL A   1      38.640  29.474  28.723  1.00  0.00    -0.014 A 
BRANCH  32  33
ATOM     33  C   UNL A   1      40.087  29.233  28.951  1.00  0.00     0.031 A 
ATOM     34  C   UNL A   1      40.689  27.900  28.599  1.00  0.00     0.074 A 
ATOM     35  C   UNL A   1      40.839  30.179  29.548  1.00  0.00     0.049 A 
ATOM     36  N   UNL A   1      41.906  27.465  28.800  1.00  0.00    -0.248 NA
ATOM     37  C   UNL A   1      39.795  26.915  27.972  1.00  0.00     0.031 C 
ATOM     38  C   UNL A   1      40.358  31.490  29.994  1.00  0.00     0.029 A 
ATOM     39  N   UNL A   1      42.168  30.182  29.893  1.00  0.00    -0.354 N 
ATOM     40  C   UNL A   1      41.915  26.150  28.349  1.00  0.00     0.074 A 
ATOM     41  C   UNL A   1      40.571  25.844  27.912  1.00  0.00     0.031 C 
ATOM     42  C   UNL A   1      41.381  32.178  30.526  1.00  0.00     0.029 A 
ATOM     43  C   UNL A   1      42.582  31.350  30.490  1.00  0.00     0.049 A 
ATOM     44  H   UNL A   1      42.767  29.419  29.729  1.00  0.00     0.167 HD
ATOM     45  C   UNL A   1      42.956  25.287  28.280  1.00  0.00     0.037 A 
ATOM     46  C   UNL A   1      43.794  31.711  30.956  1.00  0.00     0.037 A 
ATOM     47  C   UNL A   1      44.301  25.611  28.674  1.00  0.00     0.049 A 
ATOM     48  C   UNL A   1      44.942  30.746  30.837  1.00  0.00     0.074 A 
ATOM     49  C   UNL A   1      45.440  24.832  28.573  1.00  0.00     0.029 A 
ATOM     50  N   UNL A   1      44.689  26.818  29.237  1.00  0.00    -0.354 N 
ATOM     51  N   UNL A   1      44.948  29.530  30.346  1.00  0.00    -0.248 NA
ATOM     52  C   UNL A   1      46.249  31.203  31.332  1.00  0.00     0.031 C 
ATOM     53  C   UNL A   1      46.513  25.558  29.104  1.00  0.00     0.029 A 
ATOM     54  C   UNL A   1      46.047  26.802  29.501  1.00  0.00     0.049 A 
ATOM     55  H   UNL A   1      44.087  27.575  29.422  1.00  0.00     0.167 HD
ATOM     56  C   UNL A   1      46.262  29.086  30.447  1.00  0.00     0.074 A 
ATOM     57  C   UNL A   1      47.023  30.167  31.038  1.00  0.00     0.031 C 
ATOM     58  C   UNL A   1      46.790  27.893  30.081  1.00  0.00     0.037 A 
BRANCH  45  59
ATOM     59  C   UNL A   1      42.674  23.909  27.750  1.00  0.00     0.058 A 
ATOM     60  C   UNL A   1      42.485  22.814  28.610  1.00  0.00     0.135 A 
ATOM     61  C   UNL A   1      42.588  23.678  26.368  1.00  0.00     0.135 A 
ATOM     62  F   UNL A   1      42.574  22.976  29.940  1.00  0.00    -0.206 F 
ATOM     63  C   UNL A   1      42.259  21.533  28.117  1.00  0.00     0.059 A 
ATOM     64  C   UNL A   1      42.336  22.410  25.854  1.00  0.00     0.059 A 
ATOM     65  F   UNL A   1      42.761  24.689  25.502  1.00  0.00    -0.206 F 
ATOM     66  C   UNL A   1      42.193  21.340  26.736  1.00  0.00     0.060 A 
BRANCH  66  67
ATOM     67  S   UNL A   1      41.915  19.671  26.111  1.00  0.00     0.124 S 
ATOM     68  O   UNL A   1      42.825  19.634  24.970  1.00  0.00    -0.237 OA
ATOM     69  O   UNL A   1      42.294  18.840  27.249  1.00  0.00    -0.237 OA
ATOM     70  O   UNL A   1      40.493  19.665  25.780  1.00  0.00    -0.744 OA
ENDBRANCH  66  67
ENDBRANCH  45  59
BRANCH  46  71
ATOM     71  C   UNL A   1      43.996  33.063  31.538  1.00  0.00     0.058 A 
ATOM     72  C   UNL A   1      44.380  34.143  30.729  1.00  0.00     0.135 A 
ATOM     73  C   UNL A   1      43.798  33.310  32.905  1.00  0.00     0.135 A 
ATOM     74  F   UNL A   1      44.586  33.954  29.416  1.00  0.00    -0.206 F 
ATOM     75  C   UNL A   1      44.577  35.415  31.253  1.00  0.00     0.059 A 
ATOM     76  C   UNL A   1      43.968  34.578  33.451  1.00  0.00     0.059 A 
ATOM     77  F   UNL A   1      43.413  32.315  33.720  1.00  0.00    -0.206 F 
ATOM     78  C   UNL A   1      44.369  35.623  32.617  1.00  0.00     0.060 A 
BRANCH  78  79
ATOM     79  S   UNL A   1      44.579  37.290  33.282  1.00  0.00     0.124 S 
ATOM     80  O   UNL A   1      43.315  37.489  33.980  1.00  0.00    -0.237 OA
ATOM     81  O   UNL A   1      45.759  37.140  34.126  1.00  0.00    -0.237 OA
ATOM     82  O   UNL A   1      44.775  38.103  32.085  1.00  0.00    -0.744 OA
ENDBRANCH  78  79
ENDBRANCH  46  71
BRANCH  58  83
ATOM     83  C   UNL A   1      48.266  27.702  30.278  1.00  0.00     0.058 A 
ATOM     84  C   UNL A   1      49.195  28.081  29.298  1.00  0.00     0.135 A 
ATOM     85  C   UNL A   1      48.759  27.183  31.487  1.00  0.00     0.135 A 
ATOM     86  F   UNL A   1      48.774  28.575  28.123  1.00  0.00    -0.206 F 
ATOM     87  C   UNL A   1      50.563  27.936  29.500  1.00  0.00     0.059 A 
ATOM     88  C   UNL A   1      50.124  27.049  31.720  1.00  0.00     0.059 A 
ATOM     89  F   UNL A   1      47.911  26.814  32.460  1.00  0.00    -0.206 F 
ATOM     90  C   UNL A   1      51.018  27.420  30.716  1.00  0.00     0.060 A 
BRANCH  90  91
ATOM     91  S   UNL A   1      52.798  27.272  30.985  1.00  0.00     0.124 S 
ATOM     92  O   UNL A   1      53.087  25.996  30.340  1.00  0.00    -0.237 OA
ATOM     93  O   UNL A   1      53.318  28.457  30.309  1.00  0.00    -0.237 OA
ATOM     94  O   UNL A   1      52.922  27.285  32.439  1.00  0.00    -0.744 OA
ENDBRANCH  90  91
ENDBRANCH  58  83
ENDBRANCH  32  33
ENDBRANCH  24  27
ENDBRANCH  22  23
ENDBRANCH  21  22
ENDBRANCH  20  21
ENDBRANCH   1  20
TORSDOF 19
ENDMDL
