MODEL 1
REMARK VINA RESULT:     -11.8      0.000      0.000
REMARK SMILES Cc1ccsc1C(=O)NNC(=O)[C@@H]1[C@@H](C(=O)NCCCCNC(=O)c2ccc(-c3c4nc(c(-c5c(F)cc(S(=O)(=O)[O-])cc5F)c5ccc([nH]5)c(-c5c(F)cc(S(=O)(=O)[O-])cc5F)c5nc(c(-c6c(F)cc(S(=O)(=O)[O-])cc6F)c6ccc3[nH]6)C=C5)C=C4)cc2)[C@H]2C=C[C@@H]1C2
REMARK SMILES IDX 19 1 18 2 17 3 15 4 16 5 14 7 13 8 94 9 91 10 93 11 95 12
REMARK SMILES IDX 92 13 11 14 10 15 12 17 9 18 7 19 8 20 6 22 1 23 2 24 3 25
REMARK SMILES IDX 4 26 5 27 20 28 21 29 22 30 23 31 24 33 25 34 26 35 90 36
REMARK SMILES IDX 27 37 89 38 28 39 29 40 30 41 83 42 31 43 88 44 82 45 84 46
REMARK SMILES IDX 32 47 87 48 81 49 80 50 33 52 67 53 46 54 66 55 47 56 50 57
REMARK SMILES IDX 65 58 85 59 48 60 49 61 64 63 86 64 51 65 34 66 35 67 44 68
REMARK SMILES IDX 36 69 37 70 43 71 45 72 38 73 39 74 40 75 41 76 42 77 68 78
REMARK SMILES IDX 69 79 78 80 70 81 71 82 77 83 79 84 72 85 73 86 74 87 75 88
REMARK SMILES IDX 76 89 52 90 53 91 62 92 54 93 55 94 61 95 63 96 56 97 57 98
REMARK SMILES IDX 58 99 59 100 60 101
REMARK H PARENT 17 6 10 16 9 21 22 32 84 51 50 62
REMARK Flexibility Score: inf
ROOT
ATOM      1  C   UNL A   1      33.305  29.938  26.462  1.00  0.00     0.023 C 
ENDROOT
BRANCH   1   2
ATOM      2  C   UNL A   1      33.374  28.633  27.249  1.00  0.00     0.116 C 
BRANCH   2   3
ATOM      3  N   UNL A   1      33.926  27.542  26.470  1.00  0.00    -0.356 N 
ATOM      4  C   UNL A   1      33.376  26.523  25.773  1.00  0.00     0.224 C 
ATOM      5  O   UNL A   1      34.172  25.777  25.185  1.00  0.00    -0.275 OA
ATOM      6  H   UNL A   1      34.910  27.545  26.442  1.00  0.00     0.163 HD
BRANCH   4   7
ATOM      7  C   UNL A   1      31.894  26.186  25.683  1.00  0.00     0.098 C 
ATOM      8  C   UNL A   1      31.451  24.739  25.361  1.00  0.00     0.100 C 
ATOM      9  C   UNL A   1      30.253  24.979  24.399  1.00  0.00     0.025 C 
ATOM     10  C   UNL A   1      31.085  27.050  24.675  1.00  0.00     0.025 C 
ATOM     11  C   UNL A   1      30.855  25.422  23.068  1.00  0.00    -0.027 C 
ATOM     12  C   UNL A   1      29.716  26.371  24.772  1.00  0.00     0.017 C 
ATOM     13  C   UNL A   1      31.357  26.658  23.247  1.00  0.00    -0.027 C 
BRANCH   8  14
ATOM     14  C   UNL A   1      31.334  23.832  26.589  1.00  0.00     0.242 C 
ATOM     15  N   UNL A   1      32.313  23.001  27.043  1.00  0.00    -0.267 N 
ATOM     16  H   UNL A   1      32.052  22.305  27.687  1.00  0.00     0.191 HD
ATOM     17  O   UNL A   1      30.260  23.799  27.203  1.00  0.00    -0.273 OA
BRANCH  15  18
ATOM     18  N   UNL A   1      33.626  23.057  26.675  1.00  0.00    -0.263 N 
ATOM     19  C   UNL A   1      34.267  22.241  25.760  1.00  0.00     0.280 C 
ATOM     20  O   UNL A   1      35.491  22.393  25.683  1.00  0.00    -0.266 OA
ATOM     21  H   UNL A   1      34.175  23.752  27.106  1.00  0.00     0.191 HD
BRANCH  19  22
ATOM     22  C   UNL A   1      33.515  21.368  24.858  1.00  0.00     0.096 A 
ATOM     23  C   UNL A   1      32.975  22.690  22.682  1.00  0.00     0.046 C 
ATOM     24  C   UNL A   1      32.991  21.488  23.572  1.00  0.00    -0.027 A 
ATOM     25  C   UNL A   1      32.391  20.252  23.137  1.00  0.00     0.016 A 
ATOM     26  C   UNL A   1      32.410  19.272  24.097  1.00  0.00     0.066 A 
ATOM     27  S   UNL A   1      33.158  19.804  25.522  1.00  0.00    -0.138 S 
ENDBRANCH  19  22
ENDBRANCH  15  18
ENDBRANCH   8  14
ENDBRANCH   4   7
ENDBRANCH   2   3
ENDBRANCH   1   2
BRANCH   1  28
ATOM     28  C   UNL A   1      32.652  31.098  27.202  1.00  0.00     0.023 C 
BRANCH  28  29
ATOM     29  C   UNL A   1      33.595  32.218  27.627  1.00  0.00     0.116 C 
BRANCH  29  30
ATOM     30  N   UNL A   1      32.948  33.517  27.779  1.00  0.00    -0.352 N 
ATOM     31  C   UNL A   1      33.258  34.528  28.661  1.00  0.00     0.251 C 
ATOM     32  H   UNL A   1      32.192  33.692  27.173  1.00  0.00     0.163 HD
ATOM     33  O   UNL A   1      32.580  35.546  28.716  1.00  0.00    -0.269 OA
BRANCH  31  34
ATOM     34  C   UNL A   1      34.399  34.329  29.574  1.00  0.00     0.039 A 
ATOM     35  C   UNL A   1      34.167  33.776  30.835  1.00  0.00     0.014 A 
ATOM     36  C   UNL A   1      35.701  34.559  29.121  1.00  0.00     0.014 A 
ATOM     37  C   UNL A   1      35.250  33.346  31.600  1.00  0.00     0.010 A 
ATOM     38  C   UNL A   1      36.771  34.056  29.849  1.00  0.00     0.010 A 
ATOM     39  C   UNL A   1      36.555  33.424  31.084  1.00  0.00    -0.014 A 
BRANCH  39  40
ATOM     40  C   UNL A   1      37.708  32.815  31.793  1.00  0.00     0.031 A 
ATOM     41  C   UNL A   1      38.397  31.615  31.209  1.00  0.00     0.074 A 
ATOM     42  C   UNL A   1      38.062  33.279  33.009  1.00  0.00     0.049 A 
ATOM     43  N   UNL A   1      39.335  30.869  31.730  1.00  0.00    -0.248 NA
ATOM     44  C   UNL A   1      37.947  31.177  29.878  1.00  0.00     0.031 C 
ATOM     45  C   UNL A   1      37.427  34.399  33.709  1.00  0.00     0.029 A 
ATOM     46  N   UNL A   1      39.035  32.857  33.880  1.00  0.00    -0.354 N 
ATOM     47  C   UNL A   1      39.571  29.861  30.804  1.00  0.00     0.074 A 
ATOM     48  C   UNL A   1      38.644  30.063  29.711  1.00  0.00     0.031 C 
ATOM     49  C   UNL A   1      38.039  34.586  34.890  1.00  0.00     0.029 A 
ATOM     50  C   UNL A   1      39.082  33.579  35.050  1.00  0.00     0.049 A 
ATOM     51  H   UNL A   1      39.642  32.106  33.686  1.00  0.00     0.167 HD
ATOM     52  C   UNL A   1      40.493  28.871  30.848  1.00  0.00     0.037 A 
ATOM     53  C   UNL A   1      39.870  33.439  36.134  1.00  0.00     0.037 A 
ATOM     54  C   UNL A   1      41.440  28.702  31.918  1.00  0.00     0.049 A 
ATOM     55  C   UNL A   1      40.897  32.339  36.155  1.00  0.00     0.074 A 
ATOM     56  C   UNL A   1      42.469  27.783  32.019  1.00  0.00     0.029 A 
ATOM     57  N   UNL A   1      41.474  29.470  33.073  1.00  0.00    -0.354 N 
ATOM     58  N   UNL A   1      41.152  31.437  35.239  1.00  0.00    -0.248 NA
ATOM     59  C   UNL A   1      41.737  32.236  37.356  1.00  0.00     0.031 C 
ATOM     60  C   UNL A   1      43.106  27.974  33.250  1.00  0.00     0.029 A 
ATOM     61  C   UNL A   1      42.493  29.033  33.902  1.00  0.00     0.049 A 
ATOM     62  H   UNL A   1      40.863  30.214  33.274  1.00  0.00     0.167 HD
ATOM     63  C   UNL A   1      42.191  30.666  35.746  1.00  0.00     0.074 A 
ATOM     64  C   UNL A   1      42.528  31.219  37.043  1.00  0.00     0.031 C 
ATOM     65  C   UNL A   1      42.810  29.596  35.189  1.00  0.00     0.037 A 
BRANCH  52  66
ATOM     66  C   UNL A   1      40.530  27.907  29.697  1.00  0.00     0.058 A 
ATOM     67  C   UNL A   1      39.610  26.851  29.596  1.00  0.00     0.135 A 
ATOM     68  C   UNL A   1      41.482  28.049  28.675  1.00  0.00     0.135 A 
ATOM     69  F   UNL A   1      38.692  26.660  30.556  1.00  0.00    -0.206 F 
ATOM     70  C   UNL A   1      39.654  25.949  28.539  1.00  0.00     0.059 A 
ATOM     71  C   UNL A   1      41.527  27.173  27.595  1.00  0.00     0.059 A 
ATOM     72  F   UNL A   1      42.385  29.040  28.725  1.00  0.00    -0.206 F 
ATOM     73  C   UNL A   1      40.619  26.116  27.544  1.00  0.00     0.060 A 
BRANCH  73  74
ATOM     74  S   UNL A   1      40.664  24.935  26.180  1.00  0.00     0.124 S 
ATOM     75  O   UNL A   1      41.169  25.768  25.092  1.00  0.00    -0.237 OA
ATOM     76  O   UNL A   1      41.584  23.916  26.676  1.00  0.00    -0.237 OA
ATOM     77  O   UNL A   1      39.274  24.511  26.053  1.00  0.00    -0.744 OA
ENDBRANCH  73  74
ENDBRANCH  52  66
BRANCH  53  78
ATOM     78  C   UNL A   1      39.731  34.375  37.281  1.00  0.00     0.058 A 
ATOM     79  C   UNL A   1      39.021  33.998  38.430  1.00  0.00     0.135 A 
ATOM     80  C   UNL A   1      40.317  35.649  37.262  1.00  0.00     0.135 A 
ATOM     81  F   UNL A   1      38.438  32.791  38.492  1.00  0.00    -0.206 F 
ATOM     82  C   UNL A   1      38.886  34.855  39.517  1.00  0.00     0.059 A 
ATOM     83  C   UNL A   1      40.213  36.516  38.345  1.00  0.00     0.059 A 
ATOM     84  F   UNL A   1      41.020  36.050  36.192  1.00  0.00    -0.206 F 
ATOM     85  C   UNL A   1      39.488  36.113  39.466  1.00  0.00     0.060 A 
BRANCH  85  86
ATOM     86  S   UNL A   1      39.356  37.198  40.905  1.00  0.00     0.124 S 
ATOM     87  O   UNL A   1      38.650  36.343  41.852  1.00  0.00    -0.237 OA
ATOM     88  O   UNL A   1      40.756  37.474  41.213  1.00  0.00    -0.237 OA
ATOM     89  O   UNL A   1      38.600  38.337  40.394  1.00  0.00    -0.744 OA
ENDBRANCH  85  86
ENDBRANCH  53  78
BRANCH  65  90
ATOM     90  C   UNL A   1      43.919  28.955  35.973  1.00  0.00     0.058 A 
ATOM     91  C   UNL A   1      45.228  29.457  35.927  1.00  0.00     0.135 A 
ATOM     92  C   UNL A   1      43.657  27.874  36.829  1.00  0.00     0.135 A 
ATOM     93  F   UNL A   1      45.531  30.484  35.116  1.00  0.00    -0.206 F 
ATOM     94  C   UNL A   1      46.243  28.903  36.700  1.00  0.00     0.059 A 
ATOM     95  C   UNL A   1      44.652  27.319  37.626  1.00  0.00     0.059 A 
ATOM     96  F   UNL A   1      42.417  27.364  36.913  1.00  0.00    -0.206 F 
ATOM     97  C   UNL A   1      45.944  27.837  37.550  1.00  0.00     0.060 A 
BRANCH  97  98
ATOM     98  S   UNL A   1      47.257  27.163  38.588  1.00  0.00     0.124 S 
ATOM     99  O   UNL A   1      47.967  28.373  38.986  1.00  0.00    -0.237 OA
ATOM    100  O   UNL A   1      46.508  26.490  39.646  1.00  0.00    -0.237 OA
ATOM    101  O   UNL A   1      47.983  26.276  37.683  1.00  0.00    -0.744 OA
ENDBRANCH  97  98
ENDBRANCH  65  90
ENDBRANCH  39  40
ENDBRANCH  31  34
ENDBRANCH  29  30
ENDBRANCH  28  29
ENDBRANCH   1  28
TORSDOF 17
ENDMDL
MODEL 2
REMARK VINA RESULT:     -11.8      4.917      9.677
REMARK SMILES Cc1ccsc1C(=O)NNC(=O)[C@@H]1[C@@H](C(=O)NCCCCNC(=O)c2ccc(-c3c4nc(c(-c5c(F)cc(S(=O)(=O)[O-])cc5F)c5ccc([nH]5)c(-c5c(F)cc(S(=O)(=O)[O-])cc5F)c5nc(c(-c6c(F)cc(S(=O)(=O)[O-])cc6F)c6ccc3[nH]6)C=C5)C=C4)cc2)[C@H]2C=C[C@@H]1C2
REMARK SMILES IDX 19 1 18 2 17 3 15 4 16 5 14 7 13 8 94 9 91 10 93 11 95 12
REMARK SMILES IDX 92 13 11 14 10 15 12 17 9 18 7 19 8 20 6 22 1 23 2 24 3 25
REMARK SMILES IDX 4 26 5 27 20 28 21 29 22 30 23 31 24 33 25 34 26 35 90 36
REMARK SMILES IDX 27 37 89 38 28 39 29 40 30 41 83 42 31 43 88 44 82 45 84 46
REMARK SMILES IDX 32 47 87 48 81 49 80 50 33 52 67 53 46 54 66 55 47 56 50 57
REMARK SMILES IDX 65 58 85 59 48 60 49 61 64 63 86 64 51 65 34 66 35 67 44 68
REMARK SMILES IDX 36 69 37 70 43 71 45 72 38 73 39 74 40 75 41 76 42 77 68 78
REMARK SMILES IDX 69 79 78 80 70 81 71 82 77 83 79 84 72 85 73 86 74 87 75 88
REMARK SMILES IDX 76 89 52 90 53 91 62 92 54 93 55 94 61 95 63 96 56 97 57 98
REMARK SMILES IDX 58 99 59 100 60 101
REMARK H PARENT 17 6 10 16 9 21 22 32 84 51 50 62
REMARK Flexibility Score: inf
ROOT
ATOM      1  C   UNL A   1      32.937  29.152  24.669  1.00  0.00     0.023 C 
ENDROOT
BRANCH   1   2
ATOM      2  C   UNL A   1      33.409  28.998  23.227  1.00  0.00     0.116 C 
BRANCH   2   3
ATOM      3  N   UNL A   1      32.463  28.269  22.407  1.00  0.00    -0.356 N 
ATOM      4  C   UNL A   1      31.926  27.030  22.481  1.00  0.00     0.224 C 
ATOM      5  O   UNL A   1      31.101  26.744  21.602  1.00  0.00    -0.275 OA
ATOM      6  H   UNL A   1      32.142  28.785  21.632  1.00  0.00     0.163 HD
BRANCH   4   7
ATOM      7  C   UNL A   1      32.272  25.956  23.504  1.00  0.00     0.098 C 
ATOM      8  C   UNL A   1      31.971  24.471  23.191  1.00  0.00     0.100 C 
ATOM      9  C   UNL A   1      31.456  23.954  24.564  1.00  0.00     0.025 C 
ATOM     10  C   UNL A   1      31.649  26.167  24.912  1.00  0.00     0.025 C 
ATOM     11  C   UNL A   1      30.051  24.524  24.737  1.00  0.00    -0.027 C 
ATOM     12  C   UNL A   1      32.104  24.880  25.607  1.00  0.00     0.017 C 
ATOM     13  C   UNL A   1      30.177  25.849  24.935  1.00  0.00    -0.027 C 
BRANCH   8  14
ATOM     14  C   UNL A   1      33.086  23.755  22.424  1.00  0.00     0.242 C 
ATOM     15  N   UNL A   1      33.788  22.683  22.885  1.00  0.00    -0.267 N 
ATOM     16  H   UNL A   1      34.623  22.454  22.417  1.00  0.00     0.191 HD
ATOM     17  O   UNL A   1      33.425  24.197  21.318  1.00  0.00    -0.273 OA
BRANCH  15  18
ATOM     18  N   UNL A   1      33.425  21.901  23.943  1.00  0.00    -0.263 N 
ATOM     19  C   UNL A   1      34.245  21.456  24.966  1.00  0.00     0.280 C 
ATOM     20  O   UNL A   1      33.726  20.652  25.747  1.00  0.00    -0.266 OA
ATOM     21  H   UNL A   1      32.481  21.623  23.983  1.00  0.00     0.191 HD
BRANCH  19  22
ATOM     22  C   UNL A   1      35.580  22.018  25.171  1.00  0.00     0.096 A 
ATOM     23  C   UNL A   1      35.360  24.594  25.470  1.00  0.00     0.046 C 
ATOM     24  C   UNL A   1      36.092  23.291  25.418  1.00  0.00    -0.027 A 
ATOM     25  C   UNL A   1      37.520  23.249  25.615  1.00  0.00     0.016 A 
ATOM     26  C   UNL A   1      38.054  21.996  25.452  1.00  0.00     0.066 A 
ATOM     27  S   UNL A   1      36.861  20.850  25.078  1.00  0.00    -0.138 S 
ENDBRANCH  19  22
ENDBRANCH  15  18
ENDBRANCH   8  14
ENDBRANCH   4   7
ENDBRANCH   2   3
ENDBRANCH   1   2
BRANCH   1  28
ATOM     28  C   UNL A   1      34.023  28.968  25.722  1.00  0.00     0.023 C 
BRANCH  28  29
ATOM     29  C   UNL A   1      33.539  28.959  27.167  1.00  0.00     0.116 C 
BRANCH  29  30
ATOM     30  N   UNL A   1      33.578  30.265  27.817  1.00  0.00    -0.352 N 
ATOM     31  C   UNL A   1      34.627  30.857  28.486  1.00  0.00     0.251 C 
ATOM     32  H   UNL A   1      32.746  30.790  27.774  1.00  0.00     0.163 HD
ATOM     33  O   UNL A   1      34.491  31.939  29.040  1.00  0.00    -0.269 OA
BRANCH  31  34
ATOM     34  C   UNL A   1      35.906  30.124  28.560  1.00  0.00     0.039 A 
ATOM     35  C   UNL A   1      36.764  30.151  27.459  1.00  0.00     0.014 A 
ATOM     36  C   UNL A   1      36.304  29.541  29.766  1.00  0.00     0.014 A 
ATOM     37  C   UNL A   1      38.072  29.689  27.603  1.00  0.00     0.010 A 
ATOM     38  C   UNL A   1      37.630  29.158  29.928  1.00  0.00     0.010 A 
ATOM     39  C   UNL A   1      38.532  29.250  28.856  1.00  0.00    -0.014 A 
BRANCH  39  40
ATOM     40  C   UNL A   1      39.960  28.921  29.087  1.00  0.00     0.031 A 
ATOM     41  C   UNL A   1      40.898  29.977  29.599  1.00  0.00     0.074 A 
ATOM     42  C   UNL A   1      40.429  27.706  28.737  1.00  0.00     0.049 A 
ATOM     43  N   UNL A   1      42.196  29.925  29.748  1.00  0.00    -0.248 NA
ATOM     44  C   UNL A   1      40.302  31.274  29.958  1.00  0.00     0.031 C 
ATOM     45  C   UNL A   1      39.628  26.617  28.170  1.00  0.00     0.029 A 
ATOM     46  N   UNL A   1      41.698  27.185  28.791  1.00  0.00    -0.354 N 
ATOM     47  C   UNL A   1      42.574  31.185  30.193  1.00  0.00     0.074 A 
ATOM     48  C   UNL A   1      41.376  31.995  30.244  1.00  0.00     0.031 C 
ATOM     49  C   UNL A   1      40.419  25.554  27.950  1.00  0.00     0.029 A 
ATOM     50  C   UNL A   1      41.788  25.896  28.320  1.00  0.00     0.049 A 
ATOM     51  H   UNL A   1      42.471  27.688  29.135  1.00  0.00     0.167 HD
ATOM     52  C   UNL A   1      43.804  31.621  30.551  1.00  0.00     0.037 A 
ATOM     53  C   UNL A   1      42.856  25.084  28.192  1.00  0.00     0.037 A 
ATOM     54  C   UNL A   1      44.984  30.797  30.539  1.00  0.00     0.049 A 
ATOM     55  C   UNL A   1      44.211  25.586  28.608  1.00  0.00     0.074 A 
ATOM     56  C   UNL A   1      46.261  31.118  30.962  1.00  0.00     0.029 A 
ATOM     57  N   UNL A   1      45.030  29.489  30.080  1.00  0.00    -0.354 N 
ATOM     58  N   UNL A   1      44.539  26.759  29.093  1.00  0.00    -0.248 NA
ATOM     59  C   UNL A   1      45.340  24.658  28.457  1.00  0.00     0.031 C 
ATOM     60  C   UNL A   1      47.089  30.014  30.729  1.00  0.00     0.029 A 
ATOM     61  C   UNL A   1      46.318  28.994  30.191  1.00  0.00     0.049 A 
ATOM     62  H   UNL A   1      44.261  28.987  29.728  1.00  0.00     0.167 HD
ATOM     63  C   UNL A   1      45.909  26.708  29.317  1.00  0.00     0.074 A 
ATOM     64  C   UNL A   1      46.347  25.381  28.929  1.00  0.00     0.031 C 
ATOM     65  C   UNL A   1      46.732  27.671  29.798  1.00  0.00     0.037 A 
BRANCH  52  66
ATOM     66  C   UNL A   1      43.929  33.048  31.002  1.00  0.00     0.058 A 
ATOM     67  C   UNL A   1      43.714  33.416  32.339  1.00  0.00     0.135 A 
ATOM     68  C   UNL A   1      44.284  34.057  30.092  1.00  0.00     0.135 A 
ATOM     69  F   UNL A   1      43.354  32.493  33.245  1.00  0.00    -0.206 F 
ATOM     70  C   UNL A   1      43.812  34.739  32.753  1.00  0.00     0.059 A 
ATOM     71  C   UNL A   1      44.414  35.384  30.490  1.00  0.00     0.059 A 
ATOM     72  F   UNL A   1      44.499  33.759  28.801  1.00  0.00    -0.206 F 
ATOM     73  C   UNL A   1      44.160  35.717  31.820  1.00  0.00     0.060 A 
BRANCH  73  74
ATOM     74  S   UNL A   1      44.282  37.431  32.373  1.00  0.00     0.124 S 
ATOM     75  O   UNL A   1      43.851  38.153  31.178  1.00  0.00    -0.237 OA
ATOM     76  O   UNL A   1      43.356  37.466  33.500  1.00  0.00    -0.237 OA
ATOM     77  O   UNL A   1      45.693  37.576  32.719  1.00  0.00    -0.744 OA
ENDBRANCH  73  74
ENDBRANCH  52  66
BRANCH  53  78
ATOM     78  C   UNL A   1      42.683  23.706  27.660  1.00  0.00     0.058 A 
ATOM     79  C   UNL A   1      42.505  22.620  28.529  1.00  0.00     0.135 A 
ATOM     80  C   UNL A   1      42.674  23.450  26.281  1.00  0.00     0.135 A 
ATOM     81  F   UNL A   1      42.512  22.817  29.857  1.00  0.00    -0.206 F 
ATOM     82  C   UNL A   1      42.333  21.325  28.052  1.00  0.00     0.059 A 
ATOM     83  C   UNL A   1      42.484  22.166  25.779  1.00  0.00     0.059 A 
ATOM     84  F   UNL A   1      42.825  24.457  25.408  1.00  0.00    -0.206 F 
ATOM     85  C   UNL A   1      42.323  21.108  26.674  1.00  0.00     0.060 A 
BRANCH  85  86
ATOM     86  S   UNL A   1      42.042  19.431  26.061  1.00  0.00     0.124 S 
ATOM     87  O   UNL A   1      42.498  18.628  27.189  1.00  0.00    -0.237 OA
ATOM     88  O   UNL A   1      40.604  19.429  25.814  1.00  0.00    -0.237 OA
ATOM     89  O   UNL A   1      42.874  19.371  24.863  1.00  0.00    -0.744 OA
ENDBRANCH  85  86
ENDBRANCH  53  78
BRANCH  65  90
ATOM     90  C   UNL A   1      48.187  27.328  29.941  1.00  0.00     0.058 A 
ATOM     91  C   UNL A   1      49.109  27.628  28.927  1.00  0.00     0.135 A 
ATOM     92  C   UNL A   1      48.674  26.761  31.129  1.00  0.00     0.135 A 
ATOM     93  F   UNL A   1      48.691  28.163  27.770  1.00  0.00    -0.206 F 
ATOM     94  C   UNL A   1      50.467  27.368  29.084  1.00  0.00     0.059 A 
ATOM     95  C   UNL A   1      50.029  26.512  31.315  1.00  0.00     0.059 A 
ATOM     96  F   UNL A   1      47.830  26.463  32.131  1.00  0.00    -0.206 F 
ATOM     97  C   UNL A   1      50.918  26.813  30.284  1.00  0.00     0.060 A 
BRANCH  97  98
ATOM     98  S   UNL A   1      52.688  26.532  30.496  1.00  0.00     0.124 S 
ATOM     99  O   UNL A   1      53.099  26.211  29.134  1.00  0.00    -0.237 OA
ATOM    100  O   UNL A   1      53.151  27.818  31.011  1.00  0.00    -0.237 OA
ATOM    101  O   UNL A   1      52.743  25.427  31.448  1.00  0.00    -0.744 OA
ENDBRANCH  97  98
ENDBRANCH  65  90
ENDBRANCH  39  40
ENDBRANCH  31  34
ENDBRANCH  29  30
ENDBRANCH  28  29
ENDBRANCH   1  28
TORSDOF 17
ENDMDL
MODEL 3
REMARK VINA RESULT:     -11.8      6.410     10.906
REMARK SMILES Cc1ccsc1C(=O)NNC(=O)[C@@H]1[C@@H](C(=O)NCCCCNC(=O)c2ccc(-c3c4nc(c(-c5c(F)cc(S(=O)(=O)[O-])cc5F)c5ccc([nH]5)c(-c5c(F)cc(S(=O)(=O)[O-])cc5F)c5nc(c(-c6c(F)cc(S(=O)(=O)[O-])cc6F)c6ccc3[nH]6)C=C5)C=C4)cc2)[C@H]2C=C[C@@H]1C2
REMARK SMILES IDX 19 1 18 2 17 3 15 4 16 5 14 7 13 8 94 9 91 10 93 11 95 12
REMARK SMILES IDX 92 13 11 14 10 15 12 17 9 18 7 19 8 20 6 22 1 23 2 24 3 25
REMARK SMILES IDX 4 26 5 27 20 28 21 29 22 30 23 31 24 33 25 34 26 35 90 36
REMARK SMILES IDX 27 37 89 38 28 39 29 40 30 41 83 42 31 43 88 44 82 45 84 46
REMARK SMILES IDX 32 47 87 48 81 49 80 50 33 52 67 53 46 54 66 55 47 56 50 57
REMARK SMILES IDX 65 58 85 59 48 60 49 61 64 63 86 64 51 65 34 66 35 67 44 68
REMARK SMILES IDX 36 69 37 70 43 71 45 72 38 73 39 74 40 75 41 76 42 77 68 78
REMARK SMILES IDX 69 79 78 80 70 81 71 82 77 83 79 84 72 85 73 86 74 87 75 88
REMARK SMILES IDX 76 89 52 90 53 91 62 92 54 93 55 94 61 95 63 96 56 97 57 98
REMARK SMILES IDX 58 99 59 100 60 101
REMARK H PARENT 17 6 10 16 9 21 22 32 84 51 50 62
REMARK Flexibility Score: inf
ROOT
ATOM      1  C   UNL A   1      32.742  28.465  27.328  1.00  0.00     0.023 C 
ENDROOT
BRANCH   1   2
ATOM      2  C   UNL A   1      33.149  27.197  26.584  1.00  0.00     0.116 C 
BRANCH   2   3
ATOM      3  N   UNL A   1      32.090  26.208  26.550  1.00  0.00    -0.356 N 
ATOM      4  C   UNL A   1      31.350  25.669  25.556  1.00  0.00     0.224 C 
ATOM      5  O   UNL A   1      30.535  24.801  25.897  1.00  0.00    -0.275 OA
ATOM      6  H   UNL A   1      31.862  25.853  27.440  1.00  0.00     0.163 HD
BRANCH   4   7
ATOM      7  C   UNL A   1      31.394  26.057  24.084  1.00  0.00     0.098 C 
ATOM      8  C   UNL A   1      32.751  26.378  23.413  1.00  0.00     0.100 C 
ATOM      9  C   UNL A   1      32.382  27.590  22.512  1.00  0.00     0.025 C 
ATOM     10  C   UNL A   1      30.500  27.269  23.699  1.00  0.00     0.025 C 
ATOM     11  C   UNL A   1      32.211  28.783  23.448  1.00  0.00    -0.027 C 
ATOM     12  C   UNL A   1      30.880  27.430  22.224  1.00  0.00     0.017 C 
ATOM     13  C   UNL A   1      31.087  28.577  24.159  1.00  0.00    -0.027 C 
BRANCH   8  14
ATOM     14  C   UNL A   1      33.481  25.151  22.860  1.00  0.00     0.242 C 
ATOM     15  N   UNL A   1      34.335  24.364  23.571  1.00  0.00    -0.267 N 
ATOM     16  H   UNL A   1      34.917  23.755  23.063  1.00  0.00     0.191 HD
ATOM     17  O   UNL A   1      33.336  24.862  21.665  1.00  0.00    -0.273 OA
BRANCH  15  18
ATOM     18  N   UNL A   1      34.448  24.353  24.931  1.00  0.00    -0.263 N 
ATOM     19  C   UNL A   1      34.103  23.319  25.784  1.00  0.00     0.280 C 
ATOM     20  O   UNL A   1      34.172  23.583  26.989  1.00  0.00    -0.266 OA
ATOM     21  H   UNL A   1      34.813  25.166  25.350  1.00  0.00     0.191 HD
BRANCH  19  22
ATOM     22  C   UNL A   1      33.817  21.976  25.278  1.00  0.00     0.096 A 
ATOM     23  C   UNL A   1      36.062  20.678  25.056  1.00  0.00     0.046 C 
ATOM     24  C   UNL A   1      34.577  20.842  24.994  1.00  0.00    -0.027 A 
ATOM     25  C   UNL A   1      33.739  19.745  24.577  1.00  0.00     0.016 A 
ATOM     26  C   UNL A   1      32.412  20.079  24.490  1.00  0.00     0.066 A 
ATOM     27  S   UNL A   1      32.142  21.696  24.920  1.00  0.00    -0.138 S 
ENDBRANCH  19  22
ENDBRANCH  15  18
ENDBRANCH   8  14
ENDBRANCH   4   7
ENDBRANCH   2   3
ENDBRANCH   1   2
BRANCH   1  28
ATOM     28  C   UNL A   1      33.682  29.649  27.136  1.00  0.00     0.023 C 
BRANCH  28  29
ATOM     29  C   UNL A   1      35.032  29.533  27.833  1.00  0.00     0.116 C 
BRANCH  29  30
ATOM     30  N   UNL A   1      35.236  30.503  28.904  1.00  0.00    -0.352 N 
ATOM     31  C   UNL A   1      36.377  30.737  29.640  1.00  0.00     0.251 C 
ATOM     32  H   UNL A   1      34.457  31.061  29.131  1.00  0.00     0.163 HD
ATOM     33  O   UNL A   1      36.380  31.547  30.557  1.00  0.00    -0.269 OA
BRANCH  31  34
ATOM     34  C   UNL A   1      37.583  29.947  29.325  1.00  0.00     0.039 A 
ATOM     35  C   UNL A   1      37.982  29.826  27.992  1.00  0.00     0.014 A 
ATOM     36  C   UNL A   1      38.383  29.456  30.360  1.00  0.00     0.014 A 
ATOM     37  C   UNL A   1      39.244  29.310  27.703  1.00  0.00     0.010 A 
ATOM     38  C   UNL A   1      39.670  29.019  30.074  1.00  0.00     0.010 A 
ATOM     39  C   UNL A   1      40.121  28.963  28.745  1.00  0.00    -0.014 A 
BRANCH  39  40
ATOM     40  C   UNL A   1      41.530  28.581  28.480  1.00  0.00     0.031 A 
ATOM     41  C   UNL A   1      42.602  29.634  28.464  1.00  0.00     0.074 A 
ATOM     42  C   UNL A   1      41.823  27.306  28.150  1.00  0.00     0.049 A 
ATOM     43  N   UNL A   1      43.861  29.523  28.133  1.00  0.00    -0.248 NA
ATOM     44  C   UNL A   1      42.194  30.998  28.837  1.00  0.00     0.031 C 
ATOM     45  C   UNL A   1      40.858  26.206  28.069  1.00  0.00     0.029 A 
ATOM     46  N   UNL A   1      43.016  26.721  27.806  1.00  0.00    -0.354 N 
ATOM     47  C   UNL A   1      44.390  30.803  28.234  1.00  0.00     0.074 A 
ATOM     48  C   UNL A   1      43.305  31.683  28.610  1.00  0.00     0.031 C 
ATOM     49  C   UNL A   1      41.500  25.079  27.720  1.00  0.00     0.029 A 
ATOM     50  C   UNL A   1      42.913  25.382  27.513  1.00  0.00     0.049 A 
ATOM     51  H   UNL A   1      43.867  27.216  27.771  1.00  0.00     0.167 HD
ATOM     52  C   UNL A   1      45.670  31.205  28.054  1.00  0.00     0.037 A 
ATOM     53  C   UNL A   1      43.848  24.498  27.114  1.00  0.00     0.037 A 
ATOM     54  C   UNL A   1      46.752  30.318  27.722  1.00  0.00     0.049 A 
ATOM     55  C   UNL A   1      45.266  24.965  26.933  1.00  0.00     0.074 A 
ATOM     56  C   UNL A   1      48.099  30.611  27.600  1.00  0.00     0.029 A 
ATOM     57  N   UNL A   1      46.612  28.963  27.460  1.00  0.00    -0.354 N 
ATOM     58  N   UNL A   1      45.762  26.167  27.100  1.00  0.00    -0.248 NA
ATOM     59  C   UNL A   1      46.249  23.961  26.506  1.00  0.00     0.031 C 
ATOM     60  C   UNL A   1      48.769  29.440  27.232  1.00  0.00     0.029 A 
ATOM     61  C   UNL A   1      47.844  28.409  27.157  1.00  0.00     0.049 A 
ATOM     62  H   UNL A   1      45.762  28.468  27.485  1.00  0.00     0.167 HD
ATOM     63  C   UNL A   1      47.117  26.062  26.812  1.00  0.00     0.074 A 
ATOM     64  C   UNL A   1      47.366  24.674  26.475  1.00  0.00     0.031 C 
ATOM     65  C   UNL A   1      48.070  27.026  26.823  1.00  0.00     0.037 A 
BRANCH  52  66
ATOM     66  C   UNL A   1      45.967  32.667  28.230  1.00  0.00     0.058 A 
ATOM     67  C   UNL A   1      45.885  33.566  27.155  1.00  0.00     0.135 A 
ATOM     68  C   UNL A   1      46.321  33.179  29.489  1.00  0.00     0.135 A 
ATOM     69  F   UNL A   1      45.569  33.125  25.927  1.00  0.00    -0.206 F 
ATOM     70  C   UNL A   1      46.176  34.916  27.313  1.00  0.00     0.059 A 
ATOM     71  C   UNL A   1      46.591  34.531  29.675  1.00  0.00     0.059 A 
ATOM     72  F   UNL A   1      46.416  32.361  30.548  1.00  0.00    -0.206 F 
ATOM     73  C   UNL A   1      46.531  35.389  28.578  1.00  0.00     0.060 A 
BRANCH  73  74
ATOM     74  S   UNL A   1      46.908  37.144  28.767  1.00  0.00     0.124 S 
ATOM     75  O   UNL A   1      46.160  37.473  29.977  1.00  0.00    -0.237 OA
ATOM     76  O   UNL A   1      48.361  37.141  28.903  1.00  0.00    -0.237 OA
ATOM     77  O   UNL A   1      46.399  37.735  27.533  1.00  0.00    -0.744 OA
ENDBRANCH  73  74
ENDBRANCH  52  66
BRANCH  53  78
ATOM     78  C   UNL A   1      43.476  23.078  26.874  1.00  0.00     0.058 A 
ATOM     79  C   UNL A   1      43.408  22.566  25.571  1.00  0.00     0.135 A 
ATOM     80  C   UNL A   1      43.202  22.204  27.937  1.00  0.00     0.135 A 
ATOM     81  F   UNL A   1      43.657  23.366  24.523  1.00  0.00    -0.206 F 
ATOM     82  C   UNL A   1      43.071  21.239  25.325  1.00  0.00     0.059 A 
ATOM     83  C   UNL A   1      42.882  20.868  27.717  1.00  0.00     0.059 A 
ATOM     84  F   UNL A   1      43.269  22.642  29.203  1.00  0.00    -0.206 F 
ATOM     85  C   UNL A   1      42.811  20.396  26.407  1.00  0.00     0.060 A 
BRANCH  85  86
ATOM     86  S   UNL A   1      42.430  18.660  26.082  1.00  0.00     0.124 S 
ATOM     87  O   UNL A   1      43.353  18.356  24.996  1.00  0.00    -0.237 OA
ATOM     88  O   UNL A   1      42.724  18.034  27.367  1.00  0.00    -0.237 OA
ATOM     89  O   UNL A   1      41.016  18.693  25.721  1.00  0.00    -0.744 OA
ENDBRANCH  85  86
ENDBRANCH  53  78
BRANCH  65  90
ATOM     90  C   UNL A   1      49.471  26.617  26.469  1.00  0.00     0.058 A 
ATOM     91  C   UNL A   1      50.295  25.965  27.397  1.00  0.00     0.135 A 
ATOM     92  C   UNL A   1      49.967  26.818  25.171  1.00  0.00     0.135 A 
ATOM     93  F   UNL A   1      49.869  25.758  28.653  1.00  0.00    -0.206 F 
ATOM     94  C   UNL A   1      51.571  25.530  27.051  1.00  0.00     0.059 A 
ATOM     95  C   UNL A   1      51.230  26.372  24.798  1.00  0.00     0.059 A 
ATOM     96  F   UNL A   1      49.211  27.431  24.246  1.00  0.00    -0.206 F 
ATOM     97  C   UNL A   1      52.028  25.735  25.748  1.00  0.00     0.060 A 
BRANCH  97  98
ATOM     98  S   UNL A   1      53.662  25.117  25.297  1.00  0.00     0.124 S 
ATOM     99  O   UNL A   1      53.811  25.640  23.943  1.00  0.00    -0.237 OA
ATOM    100  O   UNL A   1      54.519  25.726  26.310  1.00  0.00    -0.237 OA
ATOM    101  O   UNL A   1      53.516  23.667  25.399  1.00  0.00    -0.744 OA
ENDBRANCH  97  98
ENDBRANCH  65  90
ENDBRANCH  39  40
ENDBRANCH  31  34
ENDBRANCH  29  30
ENDBRANCH  28  29
ENDBRANCH   1  28
TORSDOF 17
ENDMDL
