MODEL 1
REMARK VINA RESULT:     -10.5      0.000      0.000
REMARK SMILES CC(C)[C@@H](CC(=O)OC(C)(C)C)C(=O)NCCCCNC(=O)c1ccc(-c2c3nc(c(-c4c(F)cc(S(=O)(=O)[O-])cc4F)c4ccc([nH]4)c(-c4c(F)cc(S(=O)(=O)[O-])cc4F)c4nc(c(-c5c(F)cc(S(=O)(=O)[O-])cc5F)c5ccc2[nH]5)C=C4)C=C3)cc1
REMARK SMILES IDX 17 1 16 2 15 3 13 4 14 5 4 7 2 8 1 9 3 10 5 11 6 12 7 13
REMARK SMILES IDX 8 14 9 15 10 16 11 17 12 18 18 19 19 20 20 21 21 22 22 24
REMARK SMILES IDX 23 25 24 26 88 27 25 28 87 29 26 30 27 31 28 32 81 33 29 34
REMARK SMILES IDX 86 35 80 36 82 37 30 38 85 39 79 40 78 41 31 43 65 44 44 45
REMARK SMILES IDX 64 46 45 47 48 48 63 49 83 50 46 51 47 52 62 54 84 55 49 56
REMARK SMILES IDX 32 57 33 58 42 59 34 60 35 61 41 62 43 63 36 64 37 65 38 66
REMARK SMILES IDX 39 67 40 68 66 69 67 70 76 71 68 72 69 73 75 74 77 75 70 76
REMARK SMILES IDX 71 77 72 78 73 79 74 80 50 81 51 82 60 83 52 84 53 85 59 86
REMARK SMILES IDX 61 87 54 88 55 89 56 90 57 91 58 92
REMARK H PARENT 15 6 20 23 82 42 48 53
REMARK Flexibility Score: inf
ROOT
ATOM      1  C   UNL A   1      38.114  21.991  25.370  1.00  0.00     0.023 C 
ENDROOT
BRANCH   1   2
ATOM      2  C   UNL A   1      36.790  22.731  25.531  1.00  0.00     0.116 C 
BRANCH   2   3
ATOM      3  N   UNL A   1      35.965  22.252  26.612  1.00  0.00    -0.356 N 
ATOM      4  C   UNL A   1      34.613  22.196  26.726  1.00  0.00     0.223 C 
ATOM      5  O   UNL A   1      34.153  21.579  27.693  1.00  0.00    -0.275 OA
ATOM      6  H   UNL A   1      36.460  21.911  27.390  1.00  0.00     0.163 HD
BRANCH   4   7
ATOM      7  C   UNL A   1      33.651  22.856  25.728  1.00  0.00     0.092 C 
BRANCH   7   8
ATOM      8  C   UNL A   1      32.542  21.941  25.146  1.00  0.00    -0.004 C 
ATOM      9  C   UNL A   1      31.143  22.533  25.370  1.00  0.00     0.008 C 
ATOM     10  C   UNL A   1      32.738  21.728  23.636  1.00  0.00     0.008 C 
ENDBRANCH   7   8
BRANCH   7  11
ATOM     11  C   UNL A   1      33.276  24.291  26.139  1.00  0.00     0.136 C 
BRANCH  11  12
ATOM     12  C   UNL A   1      33.765  25.464  25.320  1.00  0.00     0.307 C 
ATOM     13  O   UNL A   1      34.081  26.533  25.822  1.00  0.00    -0.252 OA
BRANCH  12  14
ATOM     14  O   UNL A   1      33.886  25.148  24.007  1.00  0.00    -0.460 OA
BRANCH  14  15
ATOM     15  C   UNL A   1      33.045  25.767  22.988  1.00  0.00     0.104 C 
ATOM     16  C   UNL A   1      33.530  27.147  22.524  1.00  0.00     0.056 C 
ATOM     17  C   UNL A   1      32.889  24.821  21.797  1.00  0.00     0.056 C 
ATOM     18  C   UNL A   1      31.684  25.952  23.678  1.00  0.00     0.056 C 
ENDBRANCH  14  15
ENDBRANCH  12  14
ENDBRANCH  11  12
ENDBRANCH   7  11
ENDBRANCH   4   7
ENDBRANCH   2   3
ENDBRANCH   1   2
BRANCH   1  19
ATOM     19  C   UNL A   1      39.130  22.207  26.492  1.00  0.00     0.023 C 
BRANCH  19  20
ATOM     20  C   UNL A   1      39.373  23.655  26.920  1.00  0.00     0.116 C 
BRANCH  20  21
ATOM     21  N   UNL A   1      40.030  24.488  25.923  1.00  0.00    -0.352 N 
ATOM     22  C   UNL A   1      40.746  25.651  26.121  1.00  0.00     0.251 C 
ATOM     23  H   UNL A   1      39.954  24.184  24.990  1.00  0.00     0.163 HD
ATOM     24  O   UNL A   1      41.249  26.235  25.169  1.00  0.00    -0.269 OA
BRANCH  22  25
ATOM     25  C   UNL A   1      40.819  26.228  27.483  1.00  0.00     0.039 A 
ATOM     26  C   UNL A   1      41.933  27.006  27.810  1.00  0.00     0.014 A 
ATOM     27  C   UNL A   1      39.756  26.107  28.381  1.00  0.00     0.014 A 
ATOM     28  C   UNL A   1      41.923  27.767  28.981  1.00  0.00     0.010 A 
ATOM     29  C   UNL A   1      39.720  26.913  29.515  1.00  0.00     0.010 A 
ATOM     30  C   UNL A   1      40.784  27.781  29.803  1.00  0.00    -0.014 A 
BRANCH  30  31
ATOM     31  C   UNL A   1      40.648  28.773  30.899  1.00  0.00     0.031 A 
ATOM     32  C   UNL A   1      41.493  28.677  32.134  1.00  0.00     0.074 A 
ATOM     33  C   UNL A   1      39.688  29.716  30.808  1.00  0.00     0.049 A 
ATOM     34  N   UNL A   1      41.463  29.420  33.211  1.00  0.00    -0.248 NA
ATOM     35  C   UNL A   1      42.486  27.592  32.177  1.00  0.00     0.031 C 
ATOM     36  C   UNL A   1      38.756  29.871  29.687  1.00  0.00     0.029 A 
ATOM     37  N   UNL A   1      39.327  30.717  31.675  1.00  0.00    -0.354 N 
ATOM     38  C   UNL A   1      42.420  28.888  34.065  1.00  0.00     0.074 A 
ATOM     39  C   UNL A   1      42.988  27.735  33.395  1.00  0.00     0.031 C 
ATOM     40  C   UNL A   1      37.951  30.919  29.924  1.00  0.00     0.029 A 
ATOM     41  C   UNL A   1      38.286  31.492  31.221  1.00  0.00     0.049 A 
ATOM     42  H   UNL A   1      39.773  30.867  32.540  1.00  0.00     0.167 HD
ATOM     43  C   UNL A   1      42.804  29.328  35.287  1.00  0.00     0.037 A 
ATOM     44  C   UNL A   1      37.671  32.549  31.787  1.00  0.00     0.037 A 
ATOM     45  C   UNL A   1      42.252  30.485  35.943  1.00  0.00     0.049 A 
ATOM     46  C   UNL A   1      38.135  33.039  33.128  1.00  0.00     0.074 A 
ATOM     47  C   UNL A   1      42.608  31.039  37.161  1.00  0.00     0.029 A 
ATOM     48  N   UNL A   1      41.227  31.270  35.434  1.00  0.00    -0.354 N 
ATOM     49  N   UNL A   1      39.083  32.556  33.895  1.00  0.00    -0.248 NA
ATOM     50  C   UNL A   1      37.451  34.217  33.679  1.00  0.00     0.031 C 
ATOM     51  C   UNL A   1      41.785  32.147  37.396  1.00  0.00     0.029 A 
ATOM     52  C   UNL A   1      40.934  32.298  36.314  1.00  0.00     0.049 A 
ATOM     53  H   UNL A   1      40.775  31.117  34.573  1.00  0.00     0.167 HD
ATOM     54  C   UNL A   1      39.124  33.383  35.011  1.00  0.00     0.074 A 
ATOM     55  C   UNL A   1      38.110  34.401  34.815  1.00  0.00     0.031 C 
ATOM     56  C   UNL A   1      39.927  33.306  36.099  1.00  0.00     0.037 A 
BRANCH  43  57
ATOM     57  C   UNL A   1      43.881  28.553  35.987  1.00  0.00     0.058 A 
ATOM     58  C   UNL A   1      45.237  28.878  35.823  1.00  0.00     0.135 A 
ATOM     59  C   UNL A   1      43.559  27.478  36.830  1.00  0.00     0.135 A 
ATOM     60  F   UNL A   1      45.596  29.889  35.015  1.00  0.00    -0.206 F 
ATOM     61  C   UNL A   1      46.240  28.142  36.444  1.00  0.00     0.059 A 
ATOM     62  C   UNL A   1      44.547  26.740  37.478  1.00  0.00     0.059 A 
ATOM     63  F   UNL A   1      42.278  27.126  37.020  1.00  0.00    -0.206 F 
ATOM     64  C   UNL A   1      45.885  27.069  37.263  1.00  0.00     0.060 A 
BRANCH  64  65
ATOM     65  S   UNL A   1      47.195  26.106  38.045  1.00  0.00     0.124 S 
ATOM     66  O   UNL A   1      46.593  25.794  39.338  1.00  0.00    -0.237 OA
ATOM     67  O   UNL A   1      47.351  24.979  37.132  1.00  0.00    -0.237 OA
ATOM     68  O   UNL A   1      48.320  27.035  38.083  1.00  0.00    -0.744 OA
ENDBRANCH  64  65
ENDBRANCH  43  57
BRANCH  44  69
ATOM     69  C   UNL A   1      36.572  33.238  31.063  1.00  0.00     0.058 A 
ATOM     70  C   UNL A   1      35.240  33.080  31.471  1.00  0.00     0.135 A 
ATOM     71  C   UNL A   1      36.831  34.081  29.973  1.00  0.00     0.135 A 
ATOM     72  F   UNL A   1      34.946  32.281  32.508  1.00  0.00    -0.206 F 
ATOM     73  C   UNL A   1      34.197  33.728  30.817  1.00  0.00     0.059 A 
ATOM     74  C   UNL A   1      35.807  34.753  29.313  1.00  0.00     0.059 A 
ATOM     75  F   UNL A   1      38.092  34.276  29.558  1.00  0.00    -0.206 F 
ATOM     76  C   UNL A   1      34.493  34.564  29.737  1.00  0.00     0.060 A 
BRANCH  76  77
ATOM     77  S   UNL A   1      33.141  35.449  28.929  1.00  0.00     0.124 S 
ATOM     78  O   UNL A   1      32.404  35.967  30.074  1.00  0.00    -0.237 OA
ATOM     79  O   UNL A   1      33.854  36.438  28.126  1.00  0.00    -0.237 OA
ATOM     80  O   UNL A   1      32.471  34.401  28.164  1.00  0.00    -0.744 OA
ENDBRANCH  76  77
ENDBRANCH  44  69
BRANCH  56  81
ATOM     81  C   UNL A   1      39.761  34.364  37.150  1.00  0.00     0.058 A 
ATOM     82  C   UNL A   1      38.956  34.154  38.279  1.00  0.00     0.135 A 
ATOM     83  C   UNL A   1      40.448  35.584  37.047  1.00  0.00     0.135 A 
ATOM     84  F   UNL A   1      38.272  33.006  38.416  1.00  0.00    -0.206 F 
ATOM     85  C   UNL A   1      38.826  35.123  39.267  1.00  0.00     0.059 A 
ATOM     86  C   UNL A   1      40.346  36.561  38.031  1.00  0.00     0.059 A 
ATOM     87  F   UNL A   1      41.234  35.829  35.987  1.00  0.00    -0.206 F 
ATOM     88  C   UNL A   1      39.525  36.325  39.135  1.00  0.00     0.060 A 
BRANCH  88  89
ATOM     89  S   UNL A   1      39.384  37.565  40.438  1.00  0.00     0.124 S 
ATOM     90  O   UNL A   1      40.706  38.179  40.403  1.00  0.00    -0.237 OA
ATOM     91  O   UNL A   1      38.283  38.399  39.966  1.00  0.00    -0.237 OA
ATOM     92  O   UNL A   1      39.090  36.770  41.628  1.00  0.00    -0.744 OA
ENDBRANCH  88  89
ENDBRANCH  56  81
ENDBRANCH  30  31
ENDBRANCH  22  25
ENDBRANCH  20  21
ENDBRANCH  19  20
ENDBRANCH   1  19
TORSDOF 19
ENDMDL
MODEL 2
REMARK VINA RESULT:     -10.5      5.071     10.550
REMARK SMILES CC(C)[C@@H](CC(=O)OC(C)(C)C)C(=O)NCCCCNC(=O)c1ccc(-c2c3nc(c(-c4c(F)cc(S(=O)(=O)[O-])cc4F)c4ccc([nH]4)c(-c4c(F)cc(S(=O)(=O)[O-])cc4F)c4nc(c(-c5c(F)cc(S(=O)(=O)[O-])cc5F)c5ccc2[nH]5)C=C4)C=C3)cc1
REMARK SMILES IDX 17 1 16 2 15 3 13 4 14 5 4 7 2 8 1 9 3 10 5 11 6 12 7 13
REMARK SMILES IDX 8 14 9 15 10 16 11 17 12 18 18 19 19 20 20 21 21 22 22 24
REMARK SMILES IDX 23 25 24 26 88 27 25 28 87 29 26 30 27 31 28 32 81 33 29 34
REMARK SMILES IDX 86 35 80 36 82 37 30 38 85 39 79 40 78 41 31 43 65 44 44 45
REMARK SMILES IDX 64 46 45 47 48 48 63 49 83 50 46 51 47 52 62 54 84 55 49 56
REMARK SMILES IDX 32 57 33 58 42 59 34 60 35 61 41 62 43 63 36 64 37 65 38 66
REMARK SMILES IDX 39 67 40 68 66 69 67 70 76 71 68 72 69 73 75 74 77 75 70 76
REMARK SMILES IDX 71 77 72 78 73 79 74 80 50 81 51 82 60 83 52 84 53 85 59 86
REMARK SMILES IDX 61 87 54 88 55 89 56 90 57 91 58 92
REMARK H PARENT 15 6 20 23 82 42 48 53
REMARK Flexibility Score: inf
ROOT
ATOM      1  C   UNL A   1      32.934  28.989  24.325  1.00  0.00     0.023 C 
ENDROOT
BRANCH   1   2
ATOM      2  C   UNL A   1      33.270  27.518  24.107  1.00  0.00     0.116 C 
BRANCH   2   3
ATOM      3  N   UNL A   1      33.395  27.131  22.724  1.00  0.00    -0.356 N 
ATOM      4  C   UNL A   1      33.226  25.921  22.131  1.00  0.00     0.223 C 
ATOM      5  O   UNL A   1      33.226  25.892  20.896  1.00  0.00    -0.275 OA
ATOM      6  H   UNL A   1      33.642  27.860  22.111  1.00  0.00     0.163 HD
BRANCH   4   7
ATOM      7  C   UNL A   1      33.042  24.613  22.915  1.00  0.00     0.092 C 
BRANCH   7   8
ATOM      8  C   UNL A   1      31.580  24.223  23.252  1.00  0.00    -0.004 C 
ATOM      9  C   UNL A   1      31.390  22.700  23.273  1.00  0.00     0.008 C 
ATOM     10  C   UNL A   1      31.163  24.779  24.624  1.00  0.00     0.008 C 
ENDBRANCH   7   8
BRANCH   7  11
ATOM     11  C   UNL A   1      34.005  23.509  22.443  1.00  0.00     0.136 C 
BRANCH  11  12
ATOM     12  C   UNL A   1      35.244  23.192  23.249  1.00  0.00     0.307 C 
ATOM     13  O   UNL A   1      36.327  22.958  22.731  1.00  0.00    -0.252 OA
BRANCH  12  14
ATOM     14  O   UNL A   1      35.019  23.289  24.583  1.00  0.00    -0.460 OA
BRANCH  14  15
ATOM     15  C   UNL A   1      34.880  22.107  25.425  1.00  0.00     0.104 C 
ATOM     16  C   UNL A   1      34.206  20.915  24.732  1.00  0.00     0.056 C 
ATOM     17  C   UNL A   1      36.245  21.703  25.985  1.00  0.00     0.056 C 
ATOM     18  C   UNL A   1      33.968  22.562  26.575  1.00  0.00     0.056 C 
ENDBRANCH  14  15
ENDBRANCH  12  14
ENDBRANCH  11  12
ENDBRANCH   7  11
ENDBRANCH   4   7
ENDBRANCH   2   3
ENDBRANCH   1   2
BRANCH   1  19
ATOM     19  C   UNL A   1      32.528  29.368  25.750  1.00  0.00     0.023 C 
BRANCH  19  20
ATOM     20  C   UNL A   1      33.647  29.395  26.791  1.00  0.00     0.116 C 
BRANCH  20  21
ATOM     21  N   UNL A   1      33.637  30.552  27.674  1.00  0.00    -0.352 N 
ATOM     22  C   UNL A   1      34.653  31.017  28.484  1.00  0.00     0.251 C 
ATOM     23  H   UNL A   1      32.799  31.069  27.697  1.00  0.00     0.163 HD
ATOM     24  O   UNL A   1      34.487  32.020  29.167  1.00  0.00    -0.269 OA
BRANCH  22  25
ATOM     25  C   UNL A   1      35.908  30.236  28.584  1.00  0.00     0.039 A 
ATOM     26  C   UNL A   1      36.821  30.319  27.529  1.00  0.00     0.014 A 
ATOM     27  C   UNL A   1      36.234  29.531  29.745  1.00  0.00     0.014 A 
ATOM     28  C   UNL A   1      38.110  29.806  27.692  1.00  0.00     0.010 A 
ATOM     29  C   UNL A   1      37.537  29.076  29.929  1.00  0.00     0.010 A 
ATOM     30  C   UNL A   1      38.497  29.247  28.921  1.00  0.00    -0.014 A 
BRANCH  30  31
ATOM     31  C   UNL A   1      39.922  28.940  29.202  1.00  0.00     0.031 A 
ATOM     32  C   UNL A   1      40.827  29.972  29.807  1.00  0.00     0.074 A 
ATOM     33  C   UNL A   1      40.416  27.743  28.826  1.00  0.00     0.049 A 
ATOM     34  N   UNL A   1      42.109  29.894  30.061  1.00  0.00    -0.248 NA
ATOM     35  C   UNL A   1      40.223  31.269  30.146  1.00  0.00     0.031 C 
ATOM     36  C   UNL A   1      39.652  26.680  28.167  1.00  0.00     0.029 A 
ATOM     37  N   UNL A   1      41.681  27.220  28.933  1.00  0.00    -0.354 N 
ATOM     38  C   UNL A   1      42.468  31.131  30.580  1.00  0.00     0.074 A 
ATOM     39  C   UNL A   1      41.276  31.954  30.567  1.00  0.00     0.031 C 
ATOM     40  C   UNL A   1      40.456  25.626  27.953  1.00  0.00     0.029 A 
ATOM     41  C   UNL A   1      41.796  25.945  28.430  1.00  0.00     0.049 A 
ATOM     42  H   UNL A   1      42.435  27.712  29.332  1.00  0.00     0.167 HD
ATOM     43  C   UNL A   1      43.675  31.538  31.040  1.00  0.00     0.037 A 
ATOM     44  C   UNL A   1      42.861  25.124  28.362  1.00  0.00     0.037 A 
ATOM     45  C   UNL A   1      44.853  30.711  31.069  1.00  0.00     0.049 A 
ATOM     46  C   UNL A   1      44.182  25.586  28.908  1.00  0.00     0.074 A 
ATOM     47  C   UNL A   1      46.111  31.018  31.560  1.00  0.00     0.029 A 
ATOM     48  N   UNL A   1      44.921  29.411  30.590  1.00  0.00    -0.354 N 
ATOM     49  N   UNL A   1      44.488  26.741  29.448  1.00  0.00    -0.248 NA
ATOM     50  C   UNL A   1      45.299  24.634  28.840  1.00  0.00     0.031 C 
ATOM     51  C   UNL A   1      46.943  29.910  31.360  1.00  0.00     0.029 A 
ATOM     52  C   UNL A   1      46.197  28.905  30.767  1.00  0.00     0.049 A 
ATOM     53  H   UNL A   1      44.170  28.921  30.183  1.00  0.00     0.167 HD
ATOM     54  C   UNL A   1      45.828  26.649  29.803  1.00  0.00     0.074 A 
ATOM     55  C   UNL A   1      46.272  25.323  29.424  1.00  0.00     0.031 C 
ATOM     56  C   UNL A   1      46.619  27.580  30.389  1.00  0.00     0.037 A 
BRANCH  43  57
ATOM     57  C   UNL A   1      43.772  32.944  31.556  1.00  0.00     0.058 A 
ATOM     58  C   UNL A   1      43.416  33.261  32.876  1.00  0.00     0.135 A 
ATOM     59  C   UNL A   1      44.225  33.982  30.729  1.00  0.00     0.135 A 
ATOM     60  F   UNL A   1      42.962  32.304  33.702  1.00  0.00    -0.206 F 
ATOM     61  C   UNL A   1      43.473  34.567  33.350  1.00  0.00     0.059 A 
ATOM     62  C   UNL A   1      44.310  35.295  31.188  1.00  0.00     0.059 A 
ATOM     63  F   UNL A   1      44.577  33.732  29.458  1.00  0.00    -0.206 F 
ATOM     64  C   UNL A   1      43.913  35.579  32.495  1.00  0.00     0.060 A 
BRANCH  64  65
ATOM     65  S   UNL A   1      43.961  37.274  33.111  1.00  0.00     0.124 S 
ATOM     66  O   UNL A   1      45.255  37.300  33.787  1.00  0.00    -0.237 OA
ATOM     67  O   UNL A   1      43.872  38.061  31.886  1.00  0.00    -0.237 OA
ATOM     68  O   UNL A   1      42.794  37.349  33.984  1.00  0.00    -0.744 OA
ENDBRANCH  64  65
ENDBRANCH  43  57
BRANCH  44  69
ATOM     69  C   UNL A   1      42.709  23.763  27.787  1.00  0.00     0.058 A 
ATOM     70  C   UNL A   1      42.540  22.650  28.623  1.00  0.00     0.135 A 
ATOM     71  C   UNL A   1      42.706  23.552  26.401  1.00  0.00     0.135 A 
ATOM     72  F   UNL A   1      42.540  22.805  29.956  1.00  0.00    -0.206 F 
ATOM     73  C   UNL A   1      42.381  21.369  28.105  1.00  0.00     0.059 A 
ATOM     74  C   UNL A   1      42.532  22.283  25.859  1.00  0.00     0.059 A 
ATOM     75  F   UNL A   1      42.846  24.590  25.562  1.00  0.00    -0.206 F 
ATOM     76  C   UNL A   1      42.379  21.196  26.719  1.00  0.00     0.060 A 
BRANCH  76  77
ATOM     77  S   UNL A   1      42.113  19.539  26.050  1.00  0.00     0.124 S 
ATOM     78  O   UNL A   1      42.572  18.702  27.151  1.00  0.00    -0.237 OA
ATOM     79  O   UNL A   1      40.676  19.533  25.797  1.00  0.00    -0.237 OA
ATOM     80  O   UNL A   1      42.950  19.528  24.853  1.00  0.00    -0.744 OA
ENDBRANCH  76  77
ENDBRANCH  44  69
BRANCH  56  81
ATOM     81  C   UNL A   1      48.038  27.187  30.680  1.00  0.00     0.058 A 
ATOM     82  C   UNL A   1      48.380  26.495  31.850  1.00  0.00     0.135 A 
ATOM     83  C   UNL A   1      49.057  27.469  29.756  1.00  0.00     0.135 A 
ATOM     84  F   UNL A   1      47.441  26.211  32.766  1.00  0.00    -0.206 F 
ATOM     85  C   UNL A   1      49.691  26.104  32.103  1.00  0.00     0.059 A 
ATOM     86  C   UNL A   1      50.371  27.074  29.983  1.00  0.00     0.059 A 
ATOM     87  F   UNL A   1      48.777  28.126  28.621  1.00  0.00    -0.206 F 
ATOM     88  C   UNL A   1      50.681  26.399  31.164  1.00  0.00     0.060 A 
BRANCH  88  89
ATOM     89  S   UNL A   1      52.372  25.857  31.480  1.00  0.00     0.124 S 
ATOM     90  O   UNL A   1      52.994  26.059  30.175  1.00  0.00    -0.237 OA
ATOM     91  O   UNL A   1      52.805  26.767  32.537  1.00  0.00    -0.237 OA
ATOM     92  O   UNL A   1      52.209  24.466  31.891  1.00  0.00    -0.744 OA
ENDBRANCH  88  89
ENDBRANCH  56  81
ENDBRANCH  30  31
ENDBRANCH  22  25
ENDBRANCH  20  21
ENDBRANCH  19  20
ENDBRANCH   1  19
TORSDOF 19
ENDMDL
MODEL 3
REMARK VINA RESULT:     -10.4      2.826      8.812
REMARK SMILES CC(C)[C@@H](CC(=O)OC(C)(C)C)C(=O)NCCCCNC(=O)c1ccc(-c2c3nc(c(-c4c(F)cc(S(=O)(=O)[O-])cc4F)c4ccc([nH]4)c(-c4c(F)cc(S(=O)(=O)[O-])cc4F)c4nc(c(-c5c(F)cc(S(=O)(=O)[O-])cc5F)c5ccc2[nH]5)C=C4)C=C3)cc1
REMARK SMILES IDX 17 1 16 2 15 3 13 4 14 5 4 7 2 8 1 9 3 10 5 11 6 12 7 13
REMARK SMILES IDX 8 14 9 15 10 16 11 17 12 18 18 19 19 20 20 21 21 22 22 24
REMARK SMILES IDX 23 25 24 26 88 27 25 28 87 29 26 30 27 31 28 32 81 33 29 34
REMARK SMILES IDX 86 35 80 36 82 37 30 38 85 39 79 40 78 41 31 43 65 44 44 45
REMARK SMILES IDX 64 46 45 47 48 48 63 49 83 50 46 51 47 52 62 54 84 55 49 56
REMARK SMILES IDX 32 57 33 58 42 59 34 60 35 61 41 62 43 63 36 64 37 65 38 66
REMARK SMILES IDX 39 67 40 68 66 69 67 70 76 71 68 72 69 73 75 74 77 75 70 76
REMARK SMILES IDX 71 77 72 78 73 79 74 80 50 81 51 82 60 83 52 84 53 85 59 86
REMARK SMILES IDX 61 87 54 88 55 89 56 90 57 91 58 92
REMARK H PARENT 15 6 20 23 82 42 48 53
REMARK Flexibility Score: inf
ROOT
ATOM      1  C   UNL A   1      33.694  29.476  27.265  1.00  0.00     0.023 C 
ENDROOT
BRANCH   1   2
ATOM      2  C   UNL A   1      33.258  28.462  26.212  1.00  0.00     0.116 C 
BRANCH   2   3
ATOM      3  N   UNL A   1      32.251  27.532  26.658  1.00  0.00    -0.356 N 
ATOM      4  C   UNL A   1      31.460  26.687  25.947  1.00  0.00     0.223 C 
ATOM      5  O   UNL A   1      30.794  25.866  26.587  1.00  0.00    -0.275 OA
ATOM      6  H   UNL A   1      32.116  27.504  27.632  1.00  0.00     0.163 HD
BRANCH   4   7
ATOM      7  C   UNL A   1      31.356  26.710  24.416  1.00  0.00     0.092 C 
BRANCH   7   8
ATOM      8  C   UNL A   1      31.638  25.366  23.696  1.00  0.00    -0.004 C 
ATOM      9  C   UNL A   1      30.337  24.638  23.327  1.00  0.00     0.008 C 
ATOM     10  C   UNL A   1      32.446  25.589  22.407  1.00  0.00     0.008 C 
ENDBRANCH   7   8
BRANCH   7  11
ATOM     11  C   UNL A   1      30.182  27.574  23.922  1.00  0.00     0.136 C 
BRANCH  11  12
ATOM     12  C   UNL A   1      30.442  28.957  23.370  1.00  0.00     0.307 C 
ATOM     13  O   UNL A   1      31.385  29.207  22.632  1.00  0.00    -0.252 OA
BRANCH  12  14
ATOM     14  O   UNL A   1      29.470  29.834  23.722  1.00  0.00    -0.460 OA
BRANCH  14  15
ATOM     15  C   UNL A   1      28.274  30.021  22.908  1.00  0.00     0.104 C 
ATOM     16  C   UNL A   1      28.557  30.242  21.416  1.00  0.00     0.056 C 
ATOM     17  C   UNL A   1      27.320  28.842  23.107  1.00  0.00     0.056 C 
ATOM     18  C   UNL A   1      27.631  31.302  23.462  1.00  0.00     0.056 C 
ENDBRANCH  14  15
ENDBRANCH  12  14
ENDBRANCH  11  12
ENDBRANCH   7  11
ENDBRANCH   4   7
ENDBRANCH   2   3
ENDBRANCH   1   2
BRANCH   1  19
ATOM     19  C   UNL A   1      32.948  30.811  27.241  1.00  0.00     0.023 C 
BRANCH  19  20
ATOM     20  C   UNL A   1      33.803  32.070  27.386  1.00  0.00     0.116 C 
BRANCH  20  21
ATOM     21  N   UNL A   1      33.057  33.292  27.651  1.00  0.00    -0.352 N 
ATOM     22  C   UNL A   1      33.338  34.282  28.571  1.00  0.00     0.251 C 
ATOM     23  H   UNL A   1      32.250  33.431  27.104  1.00  0.00     0.163 HD
ATOM     24  O   UNL A   1      32.608  35.261  28.665  1.00  0.00    -0.269 OA
BRANCH  22  25
ATOM     25  C   UNL A   1      34.476  34.098  29.500  1.00  0.00     0.039 A 
ATOM     26  C   UNL A   1      34.219  33.537  30.754  1.00  0.00     0.014 A 
ATOM     27  C   UNL A   1      35.789  34.362  29.101  1.00  0.00     0.014 A 
ATOM     28  C   UNL A   1      35.285  33.119  31.553  1.00  0.00     0.010 A 
ATOM     29  C   UNL A   1      36.848  33.888  29.870  1.00  0.00     0.010 A 
ATOM     30  C   UNL A   1      36.604  33.225  31.083  1.00  0.00    -0.014 A 
BRANCH  30  31
ATOM     31  C   UNL A   1      37.722  32.555  31.792  1.00  0.00     0.031 A 
ATOM     32  C   UNL A   1      38.212  33.065  33.115  1.00  0.00     0.074 A 
ATOM     33  C   UNL A   1      38.353  31.527  31.188  1.00  0.00     0.049 A 
ATOM     34  N   UNL A   1      39.214  32.639  33.841  1.00  0.00    -0.248 NA
ATOM     35  C   UNL A   1      37.501  34.219  33.686  1.00  0.00     0.031 C 
ATOM     36  C   UNL A   1      38.014  30.981  29.870  1.00  0.00     0.029 A 
ATOM     37  N   UNL A   1      39.418  30.762  31.596  1.00  0.00    -0.354 N 
ATOM     38  C   UNL A   1      39.263  33.476  34.947  1.00  0.00     0.074 A 
ATOM     39  C   UNL A   1      38.213  34.460  34.777  1.00  0.00     0.031 C 
ATOM     40  C   UNL A   1      38.836  29.957  29.592  1.00  0.00     0.029 A 
ATOM     41  C   UNL A   1      39.777  29.790  30.692  1.00  0.00     0.049 A 
ATOM     42  H   UNL A   1      39.880  30.897  32.455  1.00  0.00     0.167 HD
ATOM     43  C   UNL A   1      40.095  33.421  36.015  1.00  0.00     0.037 A 
ATOM     44  C   UNL A   1      40.755  28.865  30.745  1.00  0.00     0.037 A 
ATOM     45  C   UNL A   1      41.125  32.431  36.191  1.00  0.00     0.049 A 
ATOM     46  C   UNL A   1      41.645  28.803  31.953  1.00  0.00     0.074 A 
ATOM     47  C   UNL A   1      41.988  32.264  37.261  1.00  0.00     0.029 A 
ATOM     48  N   UNL A   1      41.432  31.437  35.274  1.00  0.00    -0.354 N 
ATOM     49  N   UNL A   1      41.637  29.569  33.018  1.00  0.00    -0.248 NA
ATOM     50  C   UNL A   1      42.670  27.751  31.971  1.00  0.00     0.031 C 
ATOM     51  C   UNL A   1      42.828  31.180  36.982  1.00  0.00     0.029 A 
ATOM     52  C   UNL A   1      42.474  30.657  35.749  1.00  0.00     0.049 A 
ATOM     53  H   UNL A   1      40.977  31.305  34.411  1.00  0.00     0.167 HD
ATOM     54  C   UNL A   1      42.643  29.080  33.842  1.00  0.00     0.074 A 
ATOM     55  C   UNL A   1      43.233  27.947  33.156  1.00  0.00     0.031 C 
ATOM     56  C   UNL A   1      43.042  29.529  35.056  1.00  0.00     0.037 A 
BRANCH  43  57
ATOM     57  C   UNL A   1      39.913  34.464  37.079  1.00  0.00     0.058 A 
ATOM     58  C   UNL A   1      39.086  34.234  38.190  1.00  0.00     0.135 A 
ATOM     59  C   UNL A   1      40.569  35.701  36.992  1.00  0.00     0.135 A 
ATOM     60  F   UNL A   1      38.425  33.071  38.311  1.00  0.00    -0.206 F 
ATOM     61  C   UNL A   1      38.888  35.208  39.162  1.00  0.00     0.059 A 
ATOM     62  C   UNL A   1      40.401  36.684  37.964  1.00  0.00     0.059 A 
ATOM     63  F   UNL A   1      41.370  35.970  35.949  1.00  0.00    -0.206 F 
ATOM     64  C   UNL A   1      39.544  36.434  39.035  1.00  0.00     0.060 A 
BRANCH  64  65
ATOM     65  S   UNL A   1      39.262  37.701  40.289  1.00  0.00     0.124 S 
ATOM     66  O   UNL A   1      38.204  38.493  39.668  1.00  0.00    -0.237 OA
ATOM     67  O   UNL A   1      38.863  36.915  41.452  1.00  0.00    -0.237 OA
ATOM     68  O   UNL A   1      40.560  38.360  40.399  1.00  0.00    -0.744 OA
ENDBRANCH  64  65
ENDBRANCH  43  57
BRANCH  44  69
ATOM     69  C   UNL A   1      40.917  27.897  29.630  1.00  0.00     0.058 A 
ATOM     70  C   UNL A   1      41.989  28.013  28.734  1.00  0.00     0.135 A 
ATOM     71  C   UNL A   1      40.025  26.830  29.454  1.00  0.00     0.135 A 
ATOM     72  F   UNL A   1      42.866  29.021  28.863  1.00  0.00    -0.206 F 
ATOM     73  C   UNL A   1      42.168  27.109  27.692  1.00  0.00     0.059 A 
ATOM     74  C   UNL A   1      40.192  25.903  28.430  1.00  0.00     0.059 A 
ATOM     75  F   UNL A   1      38.995  26.668  30.298  1.00  0.00    -0.206 F 
ATOM     76  C   UNL A   1      41.262  26.056  27.549  1.00  0.00     0.060 A 
BRANCH  76  77
ATOM     77  S   UNL A   1      41.532  24.850  26.231  1.00  0.00     0.124 S 
ATOM     78  O   UNL A   1      40.323  24.041  26.322  1.00  0.00    -0.237 OA
ATOM     79  O   UNL A   1      41.646  25.699  25.050  1.00  0.00    -0.237 OA
ATOM     80  O   UNL A   1      42.770  24.189  26.637  1.00  0.00    -0.744 OA
ENDBRANCH  76  77
ENDBRANCH  44  69
BRANCH  56  81
ATOM     81  C   UNL A   1      44.152  28.779  35.732  1.00  0.00     0.058 A 
ATOM     82  C   UNL A   1      43.890  27.710  36.601  1.00  0.00     0.135 A 
ATOM     83  C   UNL A   1      45.493  29.106  35.474  1.00  0.00     0.135 A 
ATOM     84  F   UNL A   1      42.624  27.366  36.885  1.00  0.00    -0.206 F 
ATOM     85  C   UNL A   1      44.920  26.996  37.203  1.00  0.00     0.059 A 
ATOM     86  C   UNL A   1      46.539  28.395  36.053  1.00  0.00     0.059 A 
ATOM     87  F   UNL A   1      45.794  30.119  34.646  1.00  0.00    -0.206 F 
ATOM     88  C   UNL A   1      46.243  27.347  36.924  1.00  0.00     0.060 A 
BRANCH  88  89
ATOM     89  S   UNL A   1      47.576  26.393  37.678  1.00  0.00     0.124 S 
ATOM     90  O   UNL A   1      47.703  25.278  36.745  1.00  0.00    -0.237 OA
ATOM     91  O   UNL A   1      48.683  27.344  37.684  1.00  0.00    -0.237 OA
ATOM     92  O   UNL A   1      47.045  26.054  38.995  1.00  0.00    -0.744 OA
ENDBRANCH  88  89
ENDBRANCH  56  81
ENDBRANCH  30  31
ENDBRANCH  22  25
ENDBRANCH  20  21
ENDBRANCH  19  20
ENDBRANCH   1  19
TORSDOF 19
ENDMDL
