MODEL 1
REMARK VINA RESULT:     -11.0      0.000      0.000
REMARK SMILES [NH3+][C@@]1(C(=O)NCCCCNC(=O)c2ccc(-c3c4nc(c(-c5c(F)cc(S(=O)(=O)[O-])cc5F)c5ccc([nH]5)c(-c5c(F)cc(S(=O)(=O)[O-])cc5F)c5nc(c(-c6c(F)cc(S(=O)(=O)[O-])cc6F)c6ccc3[nH]6)C=C5)C=C4)cc2)CCC[C@H]1CCOc1ccccc1
REMARK SMILES IDX 7 1 6 2 5 3 3 4 4 5 2 7 79 8 82 9 80 10 81 11 1 12 83 16
REMARK SMILES IDX 84 17 85 18 86 19 87 20 91 21 88 22 90 23 89 24 8 25 9 26
REMARK SMILES IDX 10 27 11 28 12 30 13 31 14 32 78 33 15 34 77 35 16 36 17 37
REMARK SMILES IDX 18 38 71 39 19 40 76 41 70 42 72 43 20 44 75 45 69 46 68 47
REMARK SMILES IDX 21 49 55 50 34 51 54 52 35 53 38 54 53 55 73 56 36 57 37 58
REMARK SMILES IDX 52 60 74 61 39 62 22 63 23 64 32 65 24 66 25 67 31 68 33 69
REMARK SMILES IDX 26 70 27 71 28 72 29 73 30 74 56 75 57 76 66 77 58 78 59 79
REMARK SMILES IDX 65 80 67 81 60 82 61 83 62 84 63 85 64 86 40 87 41 88 50 89
REMARK SMILES IDX 42 90 43 91 49 92 51 93 44 94 45 95 46 96 47 97 48 98
REMARK H PARENT 5 6 1 13 1 14 1 15 10 29 72 48 38 59
REMARK Flexibility Score: inf
ROOT
ATOM      1  C   UNL A   1      32.060  28.405  24.330  1.00  0.00     0.023 C 
ENDROOT
BRANCH   1   2
ATOM      2  C   UNL A   1      31.398  27.406  23.391  1.00  0.00     0.116 C 
BRANCH   2   3
ATOM      3  N   UNL A   1      32.161  27.120  22.199  1.00  0.00    -0.351 N 
ATOM      4  C   UNL A   1      32.686  25.956  21.727  1.00  0.00     0.281 C 
ATOM      5  O   UNL A   1      33.257  26.023  20.628  1.00  0.00    -0.268 OA
ATOM      6  H   UNL A   1      32.331  27.904  21.628  1.00  0.00     0.163 HD
BRANCH   4   7
ATOM      7  C   UNL A   1      32.648  24.580  22.515  1.00  0.00     0.176 C 
ATOM      8  C   UNL A   1      31.303  24.298  23.208  1.00  0.00     0.079 C 
ATOM      9  C   UNL A   1      33.744  24.542  23.619  1.00  0.00     0.064 C 
ATOM     10  C   UNL A   1      31.509  24.356  24.711  1.00  0.00     0.008 C 
ATOM     11  C   UNL A   1      33.007  24.315  24.958  1.00  0.00     0.011 C 
BRANCH   7  12
ATOM     12  N   UNL A   1      32.739  23.514  21.484  1.00  0.00    -0.345 N 
ATOM     13  H   UNL A   1      32.016  22.815  21.654  1.00  0.00     0.345 HD
ATOM     14  H   UNL A   1      33.658  23.072  21.532  1.00  0.00     0.345 HD
ATOM     15  H   UNL A   1      32.606  23.923  20.560  1.00  0.00     0.345 HD
ENDBRANCH   7  12
BRANCH   9  16
ATOM     16  C   UNL A   1      34.900  23.516  23.506  1.00  0.00     0.052 C 
BRANCH  16  17
ATOM     17  C   UNL A   1      35.187  22.634  24.728  1.00  0.00     0.230 C 
BRANCH  17  18
ATOM     18  O   UNL A   1      36.378  21.860  24.537  1.00  0.00    -0.494 OA
BRANCH  18  19
ATOM     19  C   UNL A   1      37.415  22.316  25.299  1.00  0.00     0.119 A 
ATOM     20  C   UNL A   1      37.445  23.614  25.805  1.00  0.00     0.046 A 
ATOM     21  C   UNL A   1      38.484  21.452  25.507  1.00  0.00     0.046 A 
ATOM     22  C   UNL A   1      38.521  24.017  26.596  1.00  0.00     0.004 A 
ATOM     23  C   UNL A   1      39.556  21.856  26.297  1.00  0.00     0.004 A 
ATOM     24  C   UNL A   1      39.566  23.131  26.858  1.00  0.00     0.000 A 
ENDBRANCH  18  19
ENDBRANCH  17  18
ENDBRANCH  16  17
ENDBRANCH   9  16
ENDBRANCH   4   7
ENDBRANCH   2   3
ENDBRANCH   1   2
BRANCH   1  25
ATOM     25  C   UNL A   1      33.560  28.209  24.514  1.00  0.00     0.023 C 
BRANCH  25  26
ATOM     26  C   UNL A   1      34.056  28.516  25.921  1.00  0.00     0.116 C 
BRANCH  26  27
ATOM     27  N   UNL A   1      33.801  29.896  26.313  1.00  0.00    -0.352 N 
ATOM     28  C   UNL A   1      34.436  30.652  27.269  1.00  0.00     0.251 C 
ATOM     29  H   UNL A   1      33.074  30.348  25.827  1.00  0.00     0.163 HD
ATOM     30  O   UNL A   1      33.972  31.729  27.618  1.00  0.00    -0.269 OA
BRANCH  28  31
ATOM     31  C   UNL A   1      35.677  30.132  27.878  1.00  0.00     0.039 A 
ATOM     32  C   UNL A   1      36.872  30.205  27.161  1.00  0.00     0.014 A 
ATOM     33  C   UNL A   1      35.655  29.612  29.174  1.00  0.00     0.014 A 
ATOM     34  C   UNL A   1      38.062  29.810  27.776  1.00  0.00     0.010 A 
ATOM     35  C   UNL A   1      36.849  29.310  29.814  1.00  0.00     0.010 A 
ATOM     36  C   UNL A   1      38.064  29.394  29.118  1.00  0.00    -0.014 A 
BRANCH  36  37
ATOM     37  C   UNL A   1      39.324  29.029  29.812  1.00  0.00     0.031 A 
ATOM     38  C   UNL A   1      39.767  29.818  31.015  1.00  0.00     0.074 A 
ATOM     39  C   UNL A   1      40.096  28.041  29.316  1.00  0.00     0.049 A 
ATOM     40  N   UNL A   1      40.867  29.706  31.714  1.00  0.00    -0.248 NA
ATOM     41  C   UNL A   1      38.877  30.900  31.475  1.00  0.00     0.031 C 
ATOM     42  C   UNL A   1      39.799  27.253  28.115  1.00  0.00     0.029 A 
ATOM     43  N   UNL A   1      41.298  27.538  29.749  1.00  0.00    -0.354 N 
ATOM     44  C   UNL A   1      40.811  30.711  32.673  1.00  0.00     0.074 A 
ATOM     45  C   UNL A   1      39.595  31.454  32.441  1.00  0.00     0.031 C 
ATOM     46  C   UNL A   1      40.780  26.358  27.921  1.00  0.00     0.029 A 
ATOM     47  C   UNL A   1      41.795  26.531  28.953  1.00  0.00     0.049 A 
ATOM     48  H   UNL A   1      41.759  27.866  30.553  1.00  0.00     0.167 HD
ATOM     49  C   UNL A   1      41.686  30.973  33.670  1.00  0.00     0.037 A 
ATOM     50  C   UNL A   1      42.948  25.838  29.040  1.00  0.00     0.037 A 
ATOM     51  C   UNL A   1      42.868  30.191  33.922  1.00  0.00     0.049 A 
ATOM     52  C   UNL A   1      43.888  26.135  30.179  1.00  0.00     0.074 A 
ATOM     53  C   UNL A   1      43.767  30.311  34.967  1.00  0.00     0.029 A 
ATOM     54  N   UNL A   1      43.315  29.149  33.124  1.00  0.00    -0.354 N 
ATOM     55  N   UNL A   1      43.767  27.023  31.138  1.00  0.00    -0.248 NA
ATOM     56  C   UNL A   1      45.116  25.331  30.258  1.00  0.00     0.031 C 
ATOM     57  C   UNL A   1      44.792  29.383  34.766  1.00  0.00     0.029 A 
ATOM     58  C   UNL A   1      44.496  28.640  33.635  1.00  0.00     0.049 A 
ATOM     59  H   UNL A   1      42.861  28.821  32.314  1.00  0.00     0.167 HD
ATOM     60  C   UNL A   1      44.886  26.862  31.948  1.00  0.00     0.074 A 
ATOM     61  C   UNL A   1      45.661  25.780  31.380  1.00  0.00     0.031 C 
ATOM     62  C   UNL A   1      45.243  27.548  33.062  1.00  0.00     0.037 A 
BRANCH  49  63
ATOM     63  C   UNL A   1      41.410  32.138  34.578  1.00  0.00     0.058 A 
ATOM     64  C   UNL A   1      41.856  33.435  34.278  1.00  0.00     0.135 A 
ATOM     65  C   UNL A   1      40.602  31.970  35.716  1.00  0.00     0.135 A 
ATOM     66  F   UNL A   1      42.649  33.648  33.216  1.00  0.00    -0.206 F 
ATOM     67  C   UNL A   1      41.510  34.523  35.071  1.00  0.00     0.059 A 
ATOM     68  C   UNL A   1      40.221  33.048  36.507  1.00  0.00     0.059 A 
ATOM     69  F   UNL A   1      40.157  30.750  36.053  1.00  0.00    -0.206 F 
ATOM     70  C   UNL A   1      40.680  34.322  36.176  1.00  0.00     0.060 A 
BRANCH  70  71
ATOM     71  S   UNL A   1      40.183  35.758  37.151  1.00  0.00     0.124 S 
ATOM     72  O   UNL A   1      41.426  36.085  37.842  1.00  0.00    -0.237 OA
ATOM     73  O   UNL A   1      39.763  36.701  36.120  1.00  0.00    -0.237 OA
ATOM     74  O   UNL A   1      39.112  35.241  37.997  1.00  0.00    -0.744 OA
ENDBRANCH  70  71
ENDBRANCH  49  63
BRANCH  50  75
ATOM     75  C   UNL A   1      43.289  24.804  28.024  1.00  0.00     0.058 A 
ATOM     76  C   UNL A   1      42.948  23.456  28.212  1.00  0.00     0.135 A 
ATOM     77  C   UNL A   1      43.999  25.138  26.859  1.00  0.00     0.135 A 
ATOM     78  F   UNL A   1      42.271  23.084  29.309  1.00  0.00    -0.206 F 
ATOM     79  C   UNL A   1      43.338  22.470  27.311  1.00  0.00     0.059 A 
ATOM     80  C   UNL A   1      44.369  24.175  25.926  1.00  0.00     0.059 A 
ATOM     81  F   UNL A   1      44.329  26.416  26.615  1.00  0.00    -0.206 F 
ATOM     82  C   UNL A   1      44.055  22.841  26.172  1.00  0.00     0.060 A 
BRANCH  82  83
ATOM     83  S   UNL A   1      44.563  21.554  25.011  1.00  0.00     0.124 S 
ATOM     84  O   UNL A   1      44.473  22.259  23.737  1.00  0.00    -0.237 OA
ATOM     85  O   UNL A   1      45.910  21.238  25.472  1.00  0.00    -0.237 OA
ATOM     86  O   UNL A   1      43.571  20.503  25.222  1.00  0.00    -0.744 OA
ENDBRANCH  82  83
ENDBRANCH  50  75
BRANCH  62  87
ATOM     87  C   UNL A   1      46.499  27.121  33.770  1.00  0.00     0.058 A 
ATOM     88  C   UNL A   1      47.743  27.707  33.488  1.00  0.00     0.135 A 
ATOM     89  C   UNL A   1      46.445  26.150  34.783  1.00  0.00     0.135 A 
ATOM     90  F   UNL A   1      47.849  28.637  32.526  1.00  0.00    -0.206 F 
ATOM     91  C   UNL A   1      48.894  27.325  34.168  1.00  0.00     0.059 A 
ATOM     92  C   UNL A   1      47.576  25.778  35.499  1.00  0.00     0.059 A 
ATOM     93  F   UNL A   1      45.278  25.568  35.100  1.00  0.00    -0.206 F 
ATOM     94  C   UNL A   1      48.800  26.362  35.174  1.00  0.00     0.060 A 
BRANCH  94  95
ATOM     95  S   UNL A   1      50.296  25.900  36.071  1.00  0.00     0.124 S 
ATOM     96  O   UNL A   1      51.262  26.858  35.542  1.00  0.00    -0.237 OA
ATOM     97  O   UNL A   1      49.901  26.100  37.461  1.00  0.00    -0.237 OA
ATOM     98  O   UNL A   1      50.514  24.511  35.680  1.00  0.00    -0.744 OA
ENDBRANCH  94  95
ENDBRANCH  62  87
ENDBRANCH  36  37
ENDBRANCH  28  31
ENDBRANCH  26  27
ENDBRANCH  25  26
ENDBRANCH   1  25
TORSDOF 19
ENDMDL
MODEL 2
REMARK VINA RESULT:     -10.8      1.102      1.985
REMARK SMILES [NH3+][C@@]1(C(=O)NCCCCNC(=O)c2ccc(-c3c4nc(c(-c5c(F)cc(S(=O)(=O)[O-])cc5F)c5ccc([nH]5)c(-c5c(F)cc(S(=O)(=O)[O-])cc5F)c5nc(c(-c6c(F)cc(S(=O)(=O)[O-])cc6F)c6ccc3[nH]6)C=C5)C=C4)cc2)CCC[C@H]1CCOc1ccccc1
REMARK SMILES IDX 7 1 6 2 5 3 3 4 4 5 2 7 79 8 82 9 80 10 81 11 1 12 83 16
REMARK SMILES IDX 84 17 85 18 86 19 87 20 91 21 88 22 90 23 89 24 8 25 9 26
REMARK SMILES IDX 10 27 11 28 12 30 13 31 14 32 78 33 15 34 77 35 16 36 17 37
REMARK SMILES IDX 18 38 71 39 19 40 76 41 70 42 72 43 20 44 75 45 69 46 68 47
REMARK SMILES IDX 21 49 55 50 34 51 54 52 35 53 38 54 53 55 73 56 36 57 37 58
REMARK SMILES IDX 52 60 74 61 39 62 22 63 23 64 32 65 24 66 25 67 31 68 33 69
REMARK SMILES IDX 26 70 27 71 28 72 29 73 30 74 56 75 57 76 66 77 58 78 59 79
REMARK SMILES IDX 65 80 67 81 60 82 61 83 62 84 63 85 64 86 40 87 41 88 50 89
REMARK SMILES IDX 42 90 43 91 49 92 51 93 44 94 45 95 46 96 47 97 48 98
REMARK H PARENT 5 6 1 13 1 14 1 15 10 29 72 48 38 59
REMARK Flexibility Score: inf
ROOT
ATOM      1  C   UNL A   1      32.786  28.900  23.686  1.00  0.00     0.023 C 
ENDROOT
BRANCH   1   2
ATOM      2  C   UNL A   1      31.920  27.750  23.190  1.00  0.00     0.116 C 
BRANCH   2   3
ATOM      3  N   UNL A   1      32.417  27.108  21.996  1.00  0.00    -0.351 N 
ATOM      4  C   UNL A   1      32.850  25.835  21.777  1.00  0.00     0.281 C 
ATOM      5  O   UNL A   1      33.174  25.565  20.610  1.00  0.00    -0.268 OA
ATOM      6  H   UNL A   1      32.448  27.691  21.204  1.00  0.00     0.163 HD
BRANCH   4   7
ATOM      7  C   UNL A   1      33.004  24.740  22.913  1.00  0.00     0.176 C 
ATOM      8  C   UNL A   1      33.561  23.396  22.409  1.00  0.00     0.079 C 
ATOM      9  C   UNL A   1      31.632  24.438  23.584  1.00  0.00     0.064 C 
ATOM     10  C   UNL A   1      32.468  22.348  22.510  1.00  0.00     0.008 C 
ATOM     11  C   UNL A   1      31.374  22.928  23.389  1.00  0.00     0.011 C 
BRANCH   7  12
ATOM     12  N   UNL A   1      34.067  25.238  23.823  1.00  0.00    -0.345 N 
ATOM     13  H   UNL A   1      34.335  24.497  24.470  1.00  0.00     0.345 HD
ATOM     14  H   UNL A   1      33.716  26.039  24.349  1.00  0.00     0.345 HD
ATOM     15  H   UNL A   1      34.879  25.521  23.275  1.00  0.00     0.345 HD
ENDBRANCH   7  12
BRANCH   9  16
ATOM     16  C   UNL A   1      31.425  24.791  25.078  1.00  0.00     0.052 C 
BRANCH  16  17
ATOM     17  C   UNL A   1      31.060  23.647  26.033  1.00  0.00     0.230 C 
BRANCH  17  18
ATOM     18  O   UNL A   1      32.069  23.468  27.034  1.00  0.00    -0.494 OA
BRANCH  18  19
ATOM     19  C   UNL A   1      33.142  22.767  26.563  1.00  0.00     0.119 A 
ATOM     20  C   UNL A   1      33.024  21.459  26.099  1.00  0.00     0.046 A 
ATOM     21  C   UNL A   1      34.385  23.388  26.618  1.00  0.00     0.046 A 
ATOM     22  C   UNL A   1      34.152  20.800  25.609  1.00  0.00     0.004 A 
ATOM     23  C   UNL A   1      35.509  22.728  26.128  1.00  0.00     0.004 A 
ATOM     24  C   UNL A   1      35.389  21.443  25.605  1.00  0.00     0.000 A 
ENDBRANCH  18  19
ENDBRANCH  17  18
ENDBRANCH  16  17
ENDBRANCH   9  16
ENDBRANCH   4   7
ENDBRANCH   2   3
ENDBRANCH   1   2
BRANCH   1  25
ATOM     25  C   UNL A   1      34.048  28.472  24.427  1.00  0.00     0.023 C 
BRANCH  25  26
ATOM     26  C   UNL A   1      33.948  28.595  25.941  1.00  0.00     0.116 C 
BRANCH  26  27
ATOM     27  N   UNL A   1      33.679  29.960  26.373  1.00  0.00    -0.352 N 
ATOM     28  C   UNL A   1      34.313  30.697  27.345  1.00  0.00     0.251 C 
ATOM     29  H   UNL A   1      32.943  30.417  25.905  1.00  0.00     0.163 HD
ATOM     30  O   UNL A   1      33.838  31.758  27.727  1.00  0.00    -0.269 OA
BRANCH  28  31
ATOM     31  C   UNL A   1      35.564  30.175  27.931  1.00  0.00     0.039 A 
ATOM     32  C   UNL A   1      36.759  30.315  27.224  1.00  0.00     0.014 A 
ATOM     33  C   UNL A   1      35.551  29.586  29.197  1.00  0.00     0.014 A 
ATOM     34  C   UNL A   1      37.956  29.917  27.822  1.00  0.00     0.010 A 
ATOM     35  C   UNL A   1      36.750  29.280  29.825  1.00  0.00     0.010 A 
ATOM     36  C   UNL A   1      37.965  29.430  29.140  1.00  0.00    -0.014 A 
BRANCH  36  37
ATOM     37  C   UNL A   1      39.231  29.059  29.819  1.00  0.00     0.031 A 
ATOM     38  C   UNL A   1      39.695  29.849  31.014  1.00  0.00     0.074 A 
ATOM     39  C   UNL A   1      39.990  28.064  29.316  1.00  0.00     0.049 A 
ATOM     40  N   UNL A   1      40.802  29.731  31.699  1.00  0.00    -0.248 NA
ATOM     41  C   UNL A   1      38.818  30.938  31.482  1.00  0.00     0.031 C 
ATOM     42  C   UNL A   1      39.672  27.275  28.122  1.00  0.00     0.029 A 
ATOM     43  N   UNL A   1      41.194  27.554  29.735  1.00  0.00    -0.354 N 
ATOM     44  C   UNL A   1      40.765  30.739  32.655  1.00  0.00     0.074 A 
ATOM     45  C   UNL A   1      39.552  31.491  32.437  1.00  0.00     0.031 C 
ATOM     46  C   UNL A   1      40.645  26.372  27.918  1.00  0.00     0.029 A 
ATOM     47  C   UNL A   1      41.674  26.542  28.937  1.00  0.00     0.049 A 
ATOM     48  H   UNL A   1      41.668  27.882  30.533  1.00  0.00     0.167 HD
ATOM     49  C   UNL A   1      41.655  30.999  33.640  1.00  0.00     0.037 A 
ATOM     50  C   UNL A   1      42.824  25.842  29.011  1.00  0.00     0.037 A 
ATOM     51  C   UNL A   1      42.835  30.210  33.880  1.00  0.00     0.049 A 
ATOM     52  C   UNL A   1      43.780  26.136  30.137  1.00  0.00     0.074 A 
ATOM     53  C   UNL A   1      43.748  30.328  34.912  1.00  0.00     0.029 A 
ATOM     54  N   UNL A   1      43.265  29.163  33.079  1.00  0.00    -0.354 N 
ATOM     55  N   UNL A   1      43.678  27.028  31.094  1.00  0.00    -0.248 NA
ATOM     56  C   UNL A   1      45.004  25.324  30.203  1.00  0.00     0.031 C 
ATOM     57  C   UNL A   1      44.764  29.392  34.701  1.00  0.00     0.029 A 
ATOM     58  C   UNL A   1      44.449  28.648  33.576  1.00  0.00     0.049 A 
ATOM     59  H   UNL A   1      42.798  28.836  32.276  1.00  0.00     0.167 HD
ATOM     60  C   UNL A   1      44.806  26.862  31.891  1.00  0.00     0.074 A 
ATOM     61  C   UNL A   1      45.566  25.773  31.316  1.00  0.00     0.031 C 
ATOM     62  C   UNL A   1      45.181  27.549  32.998  1.00  0.00     0.037 A 
BRANCH  49  63
ATOM     63  C   UNL A   1      41.399  32.169  34.548  1.00  0.00     0.058 A 
ATOM     64  C   UNL A   1      41.880  33.455  34.255  1.00  0.00     0.135 A 
ATOM     65  C   UNL A   1      40.574  32.019  35.676  1.00  0.00     0.135 A 
ATOM     66  F   UNL A   1      42.690  33.651  33.203  1.00  0.00    -0.206 F 
ATOM     67  C   UNL A   1      41.553  34.550  35.047  1.00  0.00     0.059 A 
ATOM     68  C   UNL A   1      40.212  33.105  36.465  1.00  0.00     0.059 A 
ATOM     69  F   UNL A   1      40.095  30.810  36.006  1.00  0.00    -0.206 F 
ATOM     70  C   UNL A   1      40.706  34.368  36.143  1.00  0.00     0.060 A 
BRANCH  70  71
ATOM     71  S   UNL A   1      40.235  35.813  37.115  1.00  0.00     0.124 S 
ATOM     72  O   UNL A   1      39.802  36.737  36.072  1.00  0.00    -0.237 OA
ATOM     73  O   UNL A   1      39.178  35.280  37.969  1.00  0.00    -0.237 OA
ATOM     74  O   UNL A   1      41.468  36.178  37.805  1.00  0.00    -0.744 OA
ENDBRANCH  70  71
ENDBRANCH  49  63
BRANCH  50  75
ATOM     75  C   UNL A   1      43.145  24.802  27.994  1.00  0.00     0.058 A 
ATOM     76  C   UNL A   1      42.801  23.456  28.193  1.00  0.00     0.135 A 
ATOM     77  C   UNL A   1      43.839  25.128  26.817  1.00  0.00     0.135 A 
ATOM     78  F   UNL A   1      42.138  23.091  29.301  1.00  0.00    -0.206 F 
ATOM     79  C   UNL A   1      43.172  22.465  27.289  1.00  0.00     0.059 A 
ATOM     80  C   UNL A   1      44.191  24.160  25.882  1.00  0.00     0.059 A 
ATOM     81  F   UNL A   1      44.172  26.404  26.563  1.00  0.00    -0.206 F 
ATOM     82  C   UNL A   1      43.874  22.828  26.138  1.00  0.00     0.060 A 
BRANCH  82  83
ATOM     83  S   UNL A   1      44.359  21.535  24.975  1.00  0.00     0.124 S 
ATOM     84  O   UNL A   1      43.408  20.478  25.300  1.00  0.00    -0.237 OA
ATOM     85  O   UNL A   1      44.168  22.192  23.687  1.00  0.00    -0.237 OA
ATOM     86  O   UNL A   1      45.749  21.267  25.334  1.00  0.00    -0.744 OA
ENDBRANCH  82  83
ENDBRANCH  50  75
BRANCH  62  87
ATOM     87  C   UNL A   1      46.444  27.116  33.690  1.00  0.00     0.058 A 
ATOM     88  C   UNL A   1      46.444  26.115  34.673  1.00  0.00     0.135 A 
ATOM     89  C   UNL A   1      47.679  27.675  33.322  1.00  0.00     0.135 A 
ATOM     90  F   UNL A   1      45.289  25.552  35.065  1.00  0.00    -0.206 F 
ATOM     91  C   UNL A   1      47.620  25.703  35.287  1.00  0.00     0.059 A 
ATOM     92  C   UNL A   1      48.871  27.253  33.898  1.00  0.00     0.059 A 
ATOM     93  F   UNL A   1      47.736  28.626  32.377  1.00  0.00    -0.206 F 
ATOM     94  C   UNL A   1      48.830  26.275  34.891  1.00  0.00     0.060 A 
BRANCH  94  95
ATOM     95  S   UNL A   1      50.354  25.706  35.672  1.00  0.00     0.124 S 
ATOM     96  O   UNL A   1      50.444  26.599  36.824  1.00  0.00    -0.237 OA
ATOM     97  O   UNL A   1      50.048  24.312  35.974  1.00  0.00    -0.237 OA
ATOM     98  O   UNL A   1      51.365  25.911  34.640  1.00  0.00    -0.744 OA
ENDBRANCH  94  95
ENDBRANCH  62  87
ENDBRANCH  36  37
ENDBRANCH  28  31
ENDBRANCH  26  27
ENDBRANCH  25  26
ENDBRANCH   1  25
TORSDOF 19
ENDMDL
MODEL 3
REMARK VINA RESULT:     -10.7      5.209     10.298
REMARK SMILES [NH3+][C@@]1(C(=O)NCCCCNC(=O)c2ccc(-c3c4nc(c(-c5c(F)cc(S(=O)(=O)[O-])cc5F)c5ccc([nH]5)c(-c5c(F)cc(S(=O)(=O)[O-])cc5F)c5nc(c(-c6c(F)cc(S(=O)(=O)[O-])cc6F)c6ccc3[nH]6)C=C5)C=C4)cc2)CCC[C@H]1CCOc1ccccc1
REMARK SMILES IDX 7 1 6 2 5 3 3 4 4 5 2 7 79 8 82 9 80 10 81 11 1 12 83 16
REMARK SMILES IDX 84 17 85 18 86 19 87 20 91 21 88 22 90 23 89 24 8 25 9 26
REMARK SMILES IDX 10 27 11 28 12 30 13 31 14 32 78 33 15 34 77 35 16 36 17 37
REMARK SMILES IDX 18 38 71 39 19 40 76 41 70 42 72 43 20 44 75 45 69 46 68 47
REMARK SMILES IDX 21 49 55 50 34 51 54 52 35 53 38 54 53 55 73 56 36 57 37 58
REMARK SMILES IDX 52 60 74 61 39 62 22 63 23 64 32 65 24 66 25 67 31 68 33 69
REMARK SMILES IDX 26 70 27 71 28 72 29 73 30 74 56 75 57 76 66 77 58 78 59 79
REMARK SMILES IDX 65 80 67 81 60 82 61 83 62 84 63 85 64 86 40 87 41 88 50 89
REMARK SMILES IDX 42 90 43 91 49 92 51 93 44 94 45 95 46 96 47 97 48 98
REMARK H PARENT 5 6 1 13 1 14 1 15 10 29 72 48 38 59
REMARK Flexibility Score: inf
ROOT
ATOM      1  C   UNL A   1      33.992  31.436  27.765  1.00  0.00     0.023 C 
ENDROOT
BRANCH   1   2
ATOM      2  C   UNL A   1      33.655  30.146  27.029  1.00  0.00     0.116 C 
BRANCH   2   3
ATOM      3  N   UNL A   1      32.561  29.404  27.608  1.00  0.00    -0.351 N 
ATOM      4  C   UNL A   1      31.953  28.250  27.216  1.00  0.00     0.281 C 
ATOM      5  O   UNL A   1      31.058  27.827  27.962  1.00  0.00    -0.268 OA
ATOM      6  H   UNL A   1      32.190  29.801  28.429  1.00  0.00     0.163 HD
BRANCH   4   7
ATOM      7  C   UNL A   1      32.290  27.480  25.871  1.00  0.00     0.176 C 
ATOM      8  C   UNL A   1      33.789  27.460  25.525  1.00  0.00     0.079 C 
ATOM      9  C   UNL A   1      31.554  28.128  24.661  1.00  0.00     0.064 C 
ATOM     10  C   UNL A   1      34.014  28.304  24.284  1.00  0.00     0.008 C 
ATOM     11  C   UNL A   1      32.651  28.549  23.659  1.00  0.00     0.011 C 
BRANCH   7  12
ATOM     12  N   UNL A   1      31.971  26.052  26.124  1.00  0.00    -0.345 N 
ATOM     13  H   UNL A   1      31.387  25.977  26.958  1.00  0.00     0.345 HD
ATOM     14  H   UNL A   1      32.836  25.530  26.266  1.00  0.00     0.345 HD
ATOM     15  H   UNL A   1      31.470  25.668  25.324  1.00  0.00     0.345 HD
ENDBRANCH   7  12
BRANCH   9  16
ATOM     16  C   UNL A   1      30.474  27.314  23.907  1.00  0.00     0.052 C 
BRANCH  16  17
ATOM     17  C   UNL A   1      29.208  28.058  23.461  1.00  0.00     0.230 C 
BRANCH  17  18
ATOM     18  O   UNL A   1      29.423  28.744  22.221  1.00  0.00    -0.494 OA
BRANCH  18  19
ATOM     19  C   UNL A   1      29.079  30.063  22.297  1.00  0.00     0.119 A 
ATOM     20  C   UNL A   1      29.141  30.776  23.493  1.00  0.00     0.046 A 
ATOM     21  C   UNL A   1      28.598  30.666  21.140  1.00  0.00     0.046 A 
ATOM     22  C   UNL A   1      28.798  32.128  23.505  1.00  0.00     0.004 A 
ATOM     23  C   UNL A   1      28.256  32.016  21.155  1.00  0.00     0.004 A 
ATOM     24  C   UNL A   1      28.375  32.752  22.331  1.00  0.00     0.000 A 
ENDBRANCH  18  19
ENDBRANCH  17  18
ENDBRANCH  16  17
ENDBRANCH   9  16
ENDBRANCH   4   7
ENDBRANCH   2   3
ENDBRANCH   1   2
BRANCH   1  25
ATOM     25  C   UNL A   1      35.445  31.880  27.639  1.00  0.00     0.023 C 
BRANCH  25  26
ATOM     26  C   UNL A   1      36.103  32.229  28.968  1.00  0.00     0.116 C 
BRANCH  26  27
ATOM     27  N   UNL A   1      35.783  31.269  30.016  1.00  0.00    -0.352 N 
ATOM     28  C   UNL A   1      36.506  30.177  30.435  1.00  0.00     0.251 C 
ATOM     29  H   UNL A   1      34.933  31.422  30.488  1.00  0.00     0.163 HD
ATOM     30  O   UNL A   1      36.006  29.355  31.190  1.00  0.00    -0.269 OA
BRANCH  28  31
ATOM     31  C   UNL A   1      37.889  30.009  29.943  1.00  0.00     0.039 A 
ATOM     32  C   UNL A   1      38.951  30.111  30.842  1.00  0.00     0.014 A 
ATOM     33  C   UNL A   1      38.121  29.711  28.599  1.00  0.00     0.014 A 
ATOM     34  C   UNL A   1      40.248  29.849  30.398  1.00  0.00     0.010 A 
ATOM     35  C   UNL A   1      39.397  29.359  28.183  1.00  0.00     0.010 A 
ATOM     36  C   UNL A   1      40.477  29.436  29.075  1.00  0.00    -0.014 A 
BRANCH  36  37
ATOM     37  C   UNL A   1      41.839  29.092  28.597  1.00  0.00     0.031 A 
ATOM     38  C   UNL A   1      42.136  27.687  28.143  1.00  0.00     0.074 A 
ATOM     39  C   UNL A   1      42.816  30.020  28.642  1.00  0.00     0.049 A 
ATOM     40  N   UNL A   1      43.274  27.169  27.760  1.00  0.00    -0.248 NA
ATOM     41  C   UNL A   1      41.017  26.727  28.151  1.00  0.00     0.031 C 
ATOM     42  C   UNL A   1      42.658  31.395  29.128  1.00  0.00     0.029 A 
ATOM     43  N   UNL A   1      44.140  29.947  28.289  1.00  0.00    -0.354 N 
ATOM     44  C   UNL A   1      43.014  25.827  27.508  1.00  0.00     0.074 A 
ATOM     45  C   UNL A   1      41.624  25.595  27.824  1.00  0.00     0.031 C 
ATOM     46  C   UNL A   1      43.833  32.037  29.025  1.00  0.00     0.029 A 
ATOM     47  C   UNL A   1      44.836  31.115  28.506  1.00  0.00     0.049 A 
ATOM     48  H   UNL A   1      44.553  29.136  27.915  1.00  0.00     0.167 HD
ATOM     49  C   UNL A   1      43.856  24.881  27.034  1.00  0.00     0.037 A 
ATOM     50  C   UNL A   1      46.140  31.402  28.321  1.00  0.00     0.037 A 
ATOM     51  C   UNL A   1      45.225  25.137  26.674  1.00  0.00     0.049 A 
ATOM     52  C   UNL A   1      47.045  30.333  27.765  1.00  0.00     0.074 A 
ATOM     53  C   UNL A   1      46.134  24.272  26.090  1.00  0.00     0.029 A 
ATOM     54  N   UNL A   1      45.882  26.344  26.863  1.00  0.00    -0.354 N 
ATOM     55  N   UNL A   1      46.756  29.096  27.436  1.00  0.00    -0.248 NA
ATOM     56  C   UNL A   1      48.452  30.699  27.544  1.00  0.00     0.031 C 
ATOM     57  C   UNL A   1      47.358  24.936  25.984  1.00  0.00     0.029 A 
ATOM     58  C   UNL A   1      47.195  26.234  26.439  1.00  0.00     0.049 A 
ATOM     59  H   UNL A   1      45.477  27.156  27.244  1.00  0.00     0.167 HD
ATOM     60  C   UNL A   1      47.935  28.549  26.941  1.00  0.00     0.074 A 
ATOM     61  C   UNL A   1      48.935  29.593  26.996  1.00  0.00     0.031 C 
ATOM     62  C   UNL A   1      48.171  27.294  26.484  1.00  0.00     0.037 A 
BRANCH  49  63
ATOM     63  C   UNL A   1      43.336  23.481  26.861  1.00  0.00     0.058 A 
ATOM     64  C   UNL A   1      43.011  22.962  25.598  1.00  0.00     0.135 A 
ATOM     65  C   UNL A   1      43.258  22.616  27.965  1.00  0.00     0.135 A 
ATOM     66  F   UNL A   1      43.047  23.751  24.513  1.00  0.00    -0.206 F 
ATOM     67  C   UNL A   1      42.627  21.635  25.435  1.00  0.00     0.059 A 
ATOM     68  C   UNL A   1      42.904  21.278  27.821  1.00  0.00     0.059 A 
ATOM     69  F   UNL A   1      43.549  23.064  29.196  1.00  0.00    -0.206 F 
ATOM     70  C   UNL A   1      42.590  20.797  26.552  1.00  0.00     0.060 A 
BRANCH  70  71
ATOM     71  S   UNL A   1      42.162  19.061  26.310  1.00  0.00     0.124 S 
ATOM     72  O   UNL A   1      40.805  19.166  25.783  1.00  0.00    -0.237 OA
ATOM     73  O   UNL A   1      43.178  18.621  25.360  1.00  0.00    -0.237 OA
ATOM     74  O   UNL A   1      42.272  18.492  27.649  1.00  0.00    -0.744 OA
ENDBRANCH  70  71
ENDBRANCH  49  63
BRANCH  50  75
ATOM     75  C   UNL A   1      46.677  32.747  28.668  1.00  0.00     0.058 A 
ATOM     76  C   UNL A   1      46.667  33.798  27.738  1.00  0.00     0.135 A 
ATOM     77  C   UNL A   1      47.247  32.998  29.926  1.00  0.00     0.135 A 
ATOM     78  F   UNL A   1      46.134  33.610  26.521  1.00  0.00    -0.206 F 
ATOM     79  C   UNL A   1      47.244  35.032  28.023  1.00  0.00     0.059 A 
ATOM     80  C   UNL A   1      47.798  34.234  30.247  1.00  0.00     0.059 A 
ATOM     81  F   UNL A   1      47.261  32.037  30.863  1.00  0.00    -0.206 F 
ATOM     82  C   UNL A   1      47.813  35.238  29.281  1.00  0.00     0.060 A 
BRANCH  82  83
ATOM     83  S   UNL A   1      48.566  36.840  29.640  1.00  0.00     0.124 S 
ATOM     84  O   UNL A   1      47.548  37.758  29.144  1.00  0.00    -0.237 OA
ATOM     85  O   UNL A   1      48.728  36.786  31.088  1.00  0.00    -0.237 OA
ATOM     86  O   UNL A   1      49.809  36.803  28.875  1.00  0.00    -0.744 OA
ENDBRANCH  82  83
ENDBRANCH  50  75
BRANCH  62  87
ATOM     87  C   UNL A   1      49.548  26.992  25.961  1.00  0.00     0.058 A 
ATOM     88  C   UNL A   1      50.576  26.538  26.802  1.00  0.00     0.135 A 
ATOM     89  C   UNL A   1      49.824  27.107  24.588  1.00  0.00     0.135 A 
ATOM     90  F   UNL A   1      50.365  26.416  28.122  1.00  0.00    -0.206 F 
ATOM     91  C   UNL A   1      51.838  26.234  26.303  1.00  0.00     0.059 A 
ATOM     92  C   UNL A   1      51.067  26.775  24.064  1.00  0.00     0.059 A 
ATOM     93  F   UNL A   1      48.871  27.524  23.740  1.00  0.00    -0.206 F 
ATOM     94  C   UNL A   1      52.073  26.353  24.932  1.00  0.00     0.060 A 
BRANCH  94  95
ATOM     95  S   UNL A   1      53.706  25.924  24.295  1.00  0.00     0.124 S 
ATOM     96  O   UNL A   1      53.848  24.547  24.759  1.00  0.00    -0.237 OA
ATOM     97  O   UNL A   1      53.534  26.093  22.856  1.00  0.00    -0.237 OA
ATOM     98  O   UNL A   1      54.588  26.895  24.934  1.00  0.00    -0.744 OA
ENDBRANCH  94  95
ENDBRANCH  62  87
ENDBRANCH  36  37
ENDBRANCH  28  31
ENDBRANCH  26  27
ENDBRANCH  25  26
ENDBRANCH   1  25
TORSDOF 19
ENDMDL
