MODEL 1
REMARK VINA RESULT:     -14.1      0.000      0.000
REMARK SMILES O=C(NCCCCNC(=O)c1ccc(-c2c3nc(c(-c4c(F)cc(S(=O)(=O)[O-])cc4F)c4ccc([nH]4)c(-c4c(F)cc(S(=O)(=O)[O-])cc4F)c4nc(c(-c5c(F)cc(S(=O)(=O)[O-])cc5F)c5ccc2[nH]5)C=C4)C=C3)cc1)c1ccc(NC(=O)[C@@H]2CC=CC[C@H]2C(=O)Nc2cccc([N+](=O)[O-])c2)cc1
REMARK SMILES IDX 4 1 3 2 1 3 2 4 77 6 78 7 103 8 79 9 102 10 80 11 81 12
REMARK SMILES IDX 82 13 83 15 84 16 85 17 89 18 86 19 88 20 87 21 90 22 91 23
REMARK SMILES IDX 92 24 93 26 94 27 101 28 95 29 97 30 96 31 98 32 99 33
REMARK SMILES IDX 100 34 5 35 6 36 7 37 8 38 9 39 10 41 11 42 12 43 76 44
REMARK SMILES IDX 13 45 75 46 14 47 15 48 16 49 69 50 17 51 74 52 68 53 70 54
REMARK SMILES IDX 18 55 73 56 67 57 66 58 19 60 53 61 32 62 52 63 33 64 36 65
REMARK SMILES IDX 51 66 71 67 34 68 35 69 50 71 72 72 37 73 20 74 21 75 30 76
REMARK SMILES IDX 22 77 23 78 29 79 31 80 24 81 25 82 26 83 27 84 28 85 54 86
REMARK SMILES IDX 55 87 64 88 56 89 57 90 63 91 65 92 58 93 59 94 60 95 61 96
REMARK SMILES IDX 62 97 38 98 39 99 48 100 40 101 41 102 47 103 49 104 42 105
REMARK SMILES IDX 43 106 44 107 45 108 46 109
REMARK H PARENT 3 5 81 14 92 25 8 40 70 59 36 70
REMARK Flexibility Score: inf
ROOT
ATOM      1  C   UNL A   1      33.494  28.743  27.270  1.00  0.00     0.116 C 
ENDROOT
BRANCH   1   2
ATOM      2  N   UNL A   1      32.484  29.540  26.583  1.00  0.00    -0.352 N 
ATOM      3  O   UNL A   1      30.995  30.037  24.943  1.00  0.00    -0.269 OA
ATOM      4  C   UNL A   1      31.739  29.215  25.470  1.00  0.00     0.251 C 
ATOM      5  H   UNL A   1      32.311  30.430  26.967  1.00  0.00     0.163 HD
BRANCH   4   6
ATOM      6  C   UNL A   1      31.861  27.861  24.892  1.00  0.00     0.039 A 
ATOM      7  C   UNL A   1      32.803  27.624  23.901  1.00  0.00     0.016 A 
ATOM      8  C   UNL A   1      30.983  26.844  25.271  1.00  0.00     0.016 A 
ATOM      9  C   UNL A   1      32.736  26.460  23.158  1.00  0.00     0.027 A 
ATOM     10  C   UNL A   1      31.040  25.607  24.614  1.00  0.00     0.027 A 
ATOM     11  C   UNL A   1      31.936  25.405  23.556  1.00  0.00     0.041 A 
BRANCH  11  12
ATOM     12  N   UNL A   1      32.003  24.134  22.981  1.00  0.00    -0.326 N 
ATOM     13  C   UNL A   1      32.838  23.075  23.120  1.00  0.00     0.228 C 
ATOM     14  H   UNL A   1      31.286  23.972  22.328  1.00  0.00     0.169 HD
ATOM     15  O   UNL A   1      32.554  22.082  22.429  1.00  0.00    -0.274 OA
BRANCH  13  16
ATOM     16  C   UNL A   1      34.086  22.981  24.008  1.00  0.00     0.095 C 
ATOM     17  C   UNL A   1      35.341  23.774  23.594  1.00  0.00     0.041 C 
ATOM     18  C   UNL A   1      34.259  21.547  24.541  1.00  0.00     0.095 C 
ATOM     19  C   UNL A   1      36.655  23.072  23.779  1.00  0.00    -0.030 C 
ATOM     20  C   UNL A   1      35.668  21.120  24.985  1.00  0.00     0.041 C 
ATOM     21  C   UNL A   1      36.798  21.890  24.389  1.00  0.00    -0.030 C 
BRANCH  18  22
ATOM     22  C   UNL A   1      33.232  21.158  25.627  1.00  0.00     0.228 C 
ATOM     23  O   UNL A   1      32.862  22.022  26.434  1.00  0.00    -0.274 OA
ATOM     24  N   UNL A   1      32.584  19.948  25.680  1.00  0.00    -0.326 N 
ATOM     25  H   UNL A   1      31.894  19.875  26.378  1.00  0.00     0.169 HD
BRANCH  24  26
ATOM     26  C   UNL A   1      32.753  18.800  24.897  1.00  0.00     0.048 A 
ATOM     27  C   UNL A   1      32.542  18.885  23.520  1.00  0.00     0.026 A 
ATOM     28  C   UNL A   1      33.106  17.577  25.456  1.00  0.00     0.111 A 
ATOM     29  C   UNL A   1      32.868  17.804  22.695  1.00  0.00     0.009 A 
ATOM     30  C   UNL A   1      33.503  16.522  24.631  1.00  0.00     0.271 A 
ATOM     31  C   UNL A   1      33.394  16.633  23.243  1.00  0.00     0.086 A 
BRANCH  30  32
ATOM     32  N   UNL A   1      34.101  15.324  25.233  1.00  0.00     0.062 N 
ATOM     33  O   UNL A   1      33.335  14.432  25.622  1.00  0.00    -0.258 OA
ATOM     34  O   UNL A   1      35.337  15.264  25.293  1.00  0.00    -0.258 OA
ENDBRANCH  30  32
ENDBRANCH  24  26
ENDBRANCH  18  22
ENDBRANCH  13  16
ENDBRANCH  11  12
ENDBRANCH   4   6
ENDBRANCH   1   2
BRANCH   1  35
ATOM     35  C   UNL A   1      34.840  29.429  27.405  1.00  0.00     0.023 C 
BRANCH  35  36
ATOM     36  C   UNL A   1      34.775  30.937  27.578  1.00  0.00     0.023 C 
BRANCH  36  37
ATOM     37  C   UNL A   1      35.749  31.516  28.594  1.00  0.00     0.116 C 
BRANCH  37  38
ATOM     38  N   UNL A   1      35.564  30.994  29.942  1.00  0.00    -0.352 N 
ATOM     39  C   UNL A   1      36.467  30.332  30.742  1.00  0.00     0.251 C 
ATOM     40  H   UNL A   1      34.671  31.132  30.333  1.00  0.00     0.163 HD
ATOM     41  O   UNL A   1      36.114  29.868  31.821  1.00  0.00    -0.269 OA
BRANCH  39  42
ATOM     42  C   UNL A   1      37.856  30.155  30.268  1.00  0.00     0.039 A 
ATOM     43  C   UNL A   1      38.887  30.077  31.206  1.00  0.00     0.014 A 
ATOM     44  C   UNL A   1      38.125  30.000  28.905  1.00  0.00     0.014 A 
ATOM     45  C   UNL A   1      40.179  29.760  30.781  1.00  0.00     0.010 A 
ATOM     46  C   UNL A   1      39.392  29.602  28.495  1.00  0.00     0.010 A 
ATOM     47  C   UNL A   1      40.433  29.477  29.429  1.00  0.00    -0.014 A 
BRANCH  47  48
ATOM     48  C   UNL A   1      41.779  29.057  28.967  1.00  0.00     0.031 A 
ATOM     49  C   UNL A   1      42.894  30.064  28.889  1.00  0.00     0.074 A 
ATOM     50  C   UNL A   1      41.982  27.789  28.554  1.00  0.00     0.049 A 
ATOM     51  N   UNL A   1      44.114  29.915  28.443  1.00  0.00    -0.248 NA
ATOM     52  C   UNL A   1      42.586  31.430  29.343  1.00  0.00     0.031 C 
ATOM     53  C   UNL A   1      40.966  26.733  28.523  1.00  0.00     0.029 A 
ATOM     54  N   UNL A   1      43.110  27.174  28.071  1.00  0.00    -0.354 N 
ATOM     55  C   UNL A   1      44.712  31.164  28.548  1.00  0.00     0.074 A 
ATOM     56  C   UNL A   1      43.704  32.074  29.045  1.00  0.00     0.031 C 
ATOM     57  C   UNL A   1      41.524  25.599  28.069  1.00  0.00     0.029 A 
ATOM     58  C   UNL A   1      42.925  25.851  27.749  1.00  0.00     0.049 A 
ATOM     59  H   UNL A   1      43.972  27.639  27.966  1.00  0.00     0.167 HD
ATOM     60  C   UNL A   1      45.992  31.518  28.283  1.00  0.00     0.037 A 
ATOM     61  C   UNL A   1      43.788  24.944  27.251  1.00  0.00     0.037 A 
ATOM     62  C   UNL A   1      47.002  30.602  27.821  1.00  0.00     0.049 A 
ATOM     63  C   UNL A   1      45.213  25.352  26.993  1.00  0.00     0.074 A 
ATOM     64  C   UNL A   1      48.339  30.852  27.566  1.00  0.00     0.029 A 
ATOM     65  N   UNL A   1      46.786  29.259  27.552  1.00  0.00    -0.354 N 
ATOM     66  N   UNL A   1      45.774  26.528  27.149  1.00  0.00    -0.248 NA
ATOM     67  C   UNL A   1      46.124  24.311  26.502  1.00  0.00     0.031 C 
ATOM     68  C   UNL A   1      48.928  29.663  27.120  1.00  0.00     0.029 A 
ATOM     69  C   UNL A   1      47.964  28.666  27.131  1.00  0.00     0.049 A 
ATOM     70  H   UNL A   1      45.923  28.796  27.646  1.00  0.00     0.167 HD
ATOM     71  C   UNL A   1      47.110  26.360  26.803  1.00  0.00     0.074 A 
ATOM     72  C   UNL A   1      47.275  24.967  26.440  1.00  0.00     0.031 C 
ATOM     73  C   UNL A   1      48.111  27.274  26.788  1.00  0.00     0.037 A 
BRANCH  60  74
ATOM     74  C   UNL A   1      46.372  32.954  28.509  1.00  0.00     0.058 A 
ATOM     75  C   UNL A   1      46.270  33.908  27.483  1.00  0.00     0.135 A 
ATOM     76  C   UNL A   1      46.829  33.388  29.764  1.00  0.00     0.135 A 
ATOM     77  F   UNL A   1      45.858  33.543  26.259  1.00  0.00    -0.206 F 
ATOM     78  C   UNL A   1      46.640  35.234  27.683  1.00  0.00     0.059 A 
ATOM     79  C   UNL A   1      47.178  34.716  29.994  1.00  0.00     0.059 A 
ATOM     80  F   UNL A   1      46.946  32.518  30.779  1.00  0.00    -0.206 F 
ATOM     81  C   UNL A   1      47.097  35.627  28.941  1.00  0.00     0.060 A 
BRANCH  81  82
ATOM     82  S   UNL A   1      47.578  37.350  29.184  1.00  0.00     0.124 S 
ATOM     83  O   UNL A   1      47.887  37.760  27.817  1.00  0.00    -0.237 OA
ATOM     84  O   UNL A   1      46.372  37.934  29.763  1.00  0.00    -0.237 OA
ATOM     85  O   UNL A   1      48.721  37.259  30.087  1.00  0.00    -0.744 OA
ENDBRANCH  81  82
ENDBRANCH  60  74
BRANCH  61  86
ATOM     86  C   UNL A   1      43.341  23.549  26.997  1.00  0.00     0.058 A 
ATOM     87  C   UNL A   1      43.097  23.099  25.691  1.00  0.00     0.135 A 
ATOM     88  C   UNL A   1      43.149  22.640  28.049  1.00  0.00     0.135 A 
ATOM     89  F   UNL A   1      43.263  23.933  24.652  1.00  0.00    -0.206 F 
ATOM     90  C   UNL A   1      42.656  21.804  25.436  1.00  0.00     0.059 A 
ATOM     91  C   UNL A   1      42.731  21.333  27.818  1.00  0.00     0.059 A 
ATOM     92  F   UNL A   1      43.387  23.017  29.314  1.00  0.00    -0.206 F 
ATOM     93  C   UNL A   1      42.475  20.929  26.508  1.00  0.00     0.060 A 
BRANCH  93  94
ATOM     94  S   UNL A   1      41.940  19.238  26.166  1.00  0.00     0.124 S 
ATOM     95  O   UNL A   1      40.509  19.420  25.958  1.00  0.00    -0.237 OA
ATOM     96  O   UNL A   1      42.721  18.900  24.979  1.00  0.00    -0.237 OA
ATOM     97  O   UNL A   1      42.317  18.517  27.378  1.00  0.00    -0.744 OA
ENDBRANCH  93  94
ENDBRANCH  61  86
BRANCH  73  98
ATOM     98  C   UNL A   1      49.480  26.789  26.406  1.00  0.00     0.058 A 
ATOM     99  C   UNL A   1      50.313  26.130  27.324  1.00  0.00     0.135 A 
ATOM    100  C   UNL A   1      49.950  26.956  25.094  1.00  0.00     0.135 A 
ATOM    101  F   UNL A   1      49.911  25.950  28.592  1.00  0.00    -0.206 F 
ATOM    102  C   UNL A   1      51.576  25.674  26.960  1.00  0.00     0.059 A 
ATOM    103  C   UNL A   1      51.200  26.488  24.703  1.00  0.00     0.059 A 
ATOM    104  F   UNL A   1      49.188  27.571  24.176  1.00  0.00    -0.206 F 
ATOM    105  C   UNL A   1      52.011  25.861  25.647  1.00  0.00     0.060 A 
BRANCH 105 106
ATOM    106  S   UNL A   1      53.645  25.249  25.178  1.00  0.00     0.124 S 
ATOM    107  O   UNL A   1      54.504  25.951  26.126  1.00  0.00    -0.237 OA
ATOM    108  O   UNL A   1      53.513  23.811  25.386  1.00  0.00    -0.237 OA
ATOM    109  O   UNL A   1      53.774  25.665  23.785  1.00  0.00    -0.744 OA
ENDBRANCH 105 106
ENDBRANCH  73  98
ENDBRANCH  47  48
ENDBRANCH  39  42
ENDBRANCH  37  38
ENDBRANCH  36  37
ENDBRANCH  35  36
ENDBRANCH   1  35
TORSDOF 19
ENDMDL
MODEL 2
REMARK VINA RESULT:     -13.7      5.658      7.704
REMARK SMILES O=C(NCCCCNC(=O)c1ccc(-c2c3nc(c(-c4c(F)cc(S(=O)(=O)[O-])cc4F)c4ccc([nH]4)c(-c4c(F)cc(S(=O)(=O)[O-])cc4F)c4nc(c(-c5c(F)cc(S(=O)(=O)[O-])cc5F)c5ccc2[nH]5)C=C4)C=C3)cc1)c1ccc(NC(=O)[C@@H]2CC=CC[C@H]2C(=O)Nc2cccc([N+](=O)[O-])c2)cc1
REMARK SMILES IDX 4 1 3 2 1 3 2 4 77 6 78 7 103 8 79 9 102 10 80 11 81 12
REMARK SMILES IDX 82 13 83 15 84 16 85 17 89 18 86 19 88 20 87 21 90 22 91 23
REMARK SMILES IDX 92 24 93 26 94 27 101 28 95 29 97 30 96 31 98 32 99 33
REMARK SMILES IDX 100 34 5 35 6 36 7 37 8 38 9 39 10 41 11 42 12 43 76 44
REMARK SMILES IDX 13 45 75 46 14 47 15 48 16 49 69 50 17 51 74 52 68 53 70 54
REMARK SMILES IDX 18 55 73 56 67 57 66 58 19 60 53 61 32 62 52 63 33 64 36 65
REMARK SMILES IDX 51 66 71 67 34 68 35 69 50 71 72 72 37 73 20 74 21 75 30 76
REMARK SMILES IDX 22 77 23 78 29 79 31 80 24 81 25 82 26 83 27 84 28 85 54 86
REMARK SMILES IDX 55 87 64 88 56 89 57 90 63 91 65 92 58 93 59 94 60 95 61 96
REMARK SMILES IDX 62 97 38 98 39 99 48 100 40 101 41 102 47 103 49 104 42 105
REMARK SMILES IDX 43 106 44 107 45 108 46 109
REMARK H PARENT 3 5 81 14 92 25 8 40 70 59 36 70
REMARK Flexibility Score: inf
ROOT
ATOM      1  C   UNL A   1      32.153  29.212  25.584  1.00  0.00     0.116 C 
ENDROOT
BRANCH   1   2
ATOM      2  N   UNL A   1      31.142  29.879  24.772  1.00  0.00    -0.352 N 
ATOM      3  O   UNL A   1      29.651  30.088  23.072  1.00  0.00    -0.269 OA
ATOM      4  C   UNL A   1      30.397  29.368  23.731  1.00  0.00     0.251 C 
ATOM      5  H   UNL A   1      30.968  30.821  24.997  1.00  0.00     0.163 HD
BRANCH   4   6
ATOM      6  C   UNL A   1      30.520  27.936  23.393  1.00  0.00     0.039 A 
ATOM      7  C   UNL A   1      29.792  26.999  24.114  1.00  0.00     0.016 A 
ATOM      8  C   UNL A   1      31.423  27.509  22.418  1.00  0.00     0.016 A 
ATOM      9  C   UNL A   1      30.109  25.657  24.006  1.00  0.00     0.027 A 
ATOM     10  C   UNL A   1      31.612  26.137  22.208  1.00  0.00     0.027 A 
ATOM     11  C   UNL A   1      30.935  25.198  23.000  1.00  0.00     0.041 A 
BRANCH  11  12
ATOM     12  N   UNL A   1      31.103  23.843  22.706  1.00  0.00    -0.326 N 
ATOM     13  C   UNL A   1      32.032  22.911  23.033  1.00  0.00     0.228 C 
ATOM     14  H   UNL A   1      30.389  23.485  22.132  1.00  0.00     0.169 HD
ATOM     15  O   UNL A   1      31.823  21.773  22.581  1.00  0.00    -0.274 OA
BRANCH  13  16
ATOM     16  C   UNL A   1      33.302  23.114  23.870  1.00  0.00     0.095 C 
ATOM     17  C   UNL A   1      34.363  24.110  23.361  1.00  0.00     0.041 C 
ATOM     18  C   UNL A   1      33.771  21.775  24.469  1.00  0.00     0.095 C 
ATOM     19  C   UNL A   1      35.795  23.689  23.525  1.00  0.00    -0.030 C 
ATOM     20  C   UNL A   1      35.250  21.658  24.872  1.00  0.00     0.041 C 
ATOM     21  C   UNL A   1      36.187  22.595  24.188  1.00  0.00    -0.030 C 
BRANCH  18  22
ATOM     22  C   UNL A   1      32.876  21.260  25.617  1.00  0.00     0.228 C 
ATOM     23  O   UNL A   1      32.445  22.072  26.447  1.00  0.00    -0.274 OA
ATOM     24  N   UNL A   1      32.401  19.974  25.709  1.00  0.00    -0.326 N 
ATOM     25  H   UNL A   1      31.773  19.815  26.450  1.00  0.00     0.169 HD
BRANCH  24  26
ATOM     26  C   UNL A   1      32.673  18.854  24.916  1.00  0.00     0.048 A 
ATOM     27  C   UNL A   1      32.498  18.946  23.534  1.00  0.00     0.026 A 
ATOM     28  C   UNL A   1      33.094  17.649  25.468  1.00  0.00     0.111 A 
ATOM     29  C   UNL A   1      32.923  17.904  22.704  1.00  0.00     0.009 A 
ATOM     30  C   UNL A   1      33.588  16.638  24.641  1.00  0.00     0.271 A 
ATOM     31  C   UNL A   1      33.513  16.764  23.251  1.00  0.00     0.086 A 
BRANCH  30  32
ATOM     32  N   UNL A   1      34.250  15.475  25.244  1.00  0.00     0.062 N 
ATOM     33  O   UNL A   1      33.563  14.466  25.454  1.00  0.00    -0.258 OA
ATOM     34  O   UNL A   1      35.463  15.560  25.482  1.00  0.00    -0.258 OA
ENDBRANCH  30  32
ENDBRANCH  24  26
ENDBRANCH  18  22
ENDBRANCH  13  16
ENDBRANCH  11  12
ENDBRANCH   4   6
ENDBRANCH   1   2
BRANCH   1  35
ATOM     35  C   UNL A   1      32.467  29.920  26.888  1.00  0.00     0.023 C 
BRANCH  35  36
ATOM     36  C   UNL A   1      32.139  31.404  26.906  1.00  0.00     0.023 C 
BRANCH  36  37
ATOM     37  C   UNL A   1      33.257  32.308  27.405  1.00  0.00     0.116 C 
BRANCH  37  38
ATOM     38  N   UNL A   1      32.811  33.654  27.740  1.00  0.00    -0.352 N 
ATOM     39  C   UNL A   1      33.270  34.494  28.730  1.00  0.00     0.251 C 
ATOM     40  H   UNL A   1      32.082  34.012  27.184  1.00  0.00     0.163 HD
ATOM     41  O   UNL A   1      32.710  35.564  28.942  1.00  0.00    -0.269 OA
BRANCH  39  42
ATOM     42  C   UNL A   1      34.418  34.071  29.559  1.00  0.00     0.039 A 
ATOM     43  C   UNL A   1      34.181  33.337  30.722  1.00  0.00     0.014 A 
ATOM     44  C   UNL A   1      35.726  34.345  29.149  1.00  0.00     0.014 A 
ATOM     45  C   UNL A   1      35.259  32.804  31.431  1.00  0.00     0.010 A 
ATOM     46  C   UNL A   1      36.793  33.743  29.808  1.00  0.00     0.010 A 
ATOM     47  C   UNL A   1      36.571  32.967  30.955  1.00  0.00    -0.014 A 
BRANCH  47  48
ATOM     48  C   UNL A   1      37.727  32.339  31.645  1.00  0.00     0.031 A 
ATOM     49  C   UNL A   1      38.197  32.885  32.966  1.00  0.00     0.074 A 
ATOM     50  C   UNL A   1      38.392  31.327  31.054  1.00  0.00     0.049 A 
ATOM     51  N   UNL A   1      39.228  32.528  33.688  1.00  0.00    -0.248 NA
ATOM     52  C   UNL A   1      37.426  34.002  33.535  1.00  0.00     0.031 C 
ATOM     53  C   UNL A   1      38.072  30.747  29.747  1.00  0.00     0.029 A 
ATOM     54  N   UNL A   1      39.485  30.609  31.473  1.00  0.00    -0.354 N 
ATOM     55  C   UNL A   1      39.238  33.383  34.783  1.00  0.00     0.074 A 
ATOM     56  C   UNL A   1      38.146  34.313  34.602  1.00  0.00     0.031 C 
ATOM     57  C   UNL A   1      38.933  29.751  29.483  1.00  0.00     0.029 A 
ATOM     58  C   UNL A   1      39.883  29.639  30.584  1.00  0.00     0.049 A 
ATOM     59  H   UNL A   1      39.941  30.774  32.330  1.00  0.00     0.167 HD
ATOM     60  C   UNL A   1      40.062  33.377  35.857  1.00  0.00     0.037 A 
ATOM     61  C   UNL A   1      40.901  28.757  30.651  1.00  0.00     0.037 A 
ATOM     62  C   UNL A   1      41.127  32.428  36.050  1.00  0.00     0.049 A 
ATOM     63  C   UNL A   1      41.785  28.750  31.868  1.00  0.00     0.074 A 
ATOM     64  C   UNL A   1      41.990  32.309  37.125  1.00  0.00     0.029 A 
ATOM     65  N   UNL A   1      41.469  31.430  35.149  1.00  0.00    -0.354 N 
ATOM     66  N   UNL A   1      41.746  29.532  32.920  1.00  0.00    -0.248 NA
ATOM     67  C   UNL A   1      42.845  27.734  31.913  1.00  0.00     0.031 C 
ATOM     68  C   UNL A   1      42.871  31.252  36.864  1.00  0.00     0.029 A 
ATOM     69  C   UNL A   1      42.531  30.692  35.642  1.00  0.00     0.049 A 
ATOM     70  H   UNL A   1      41.021  31.271  34.287  1.00  0.00     0.167 HD
ATOM     71  C   UNL A   1      42.755  29.085  33.765  1.00  0.00     0.074 A 
ATOM     72  C   UNL A   1      43.381  27.957  33.106  1.00  0.00     0.031 C 
ATOM     73  C   UNL A   1      43.131  29.563  34.977  1.00  0.00     0.037 A 
BRANCH  60  74
ATOM     74  C   UNL A   1      39.826  34.419  36.914  1.00  0.00     0.058 A 
ATOM     75  C   UNL A   1      40.419  35.689  36.834  1.00  0.00     0.135 A 
ATOM     76  C   UNL A   1      38.990  34.153  38.011  1.00  0.00     0.135 A 
ATOM     77  F   UNL A   1      41.243  35.989  35.818  1.00  0.00    -0.206 F 
ATOM     78  C   UNL A   1      40.219  36.649  37.821  1.00  0.00     0.059 A 
ATOM     79  C   UNL A   1      38.754  35.109  38.996  1.00  0.00     0.059 A 
ATOM     80  F   UNL A   1      38.399  32.955  38.136  1.00  0.00    -0.206 F 
ATOM     81  C   UNL A   1      39.387  36.347  38.900  1.00  0.00     0.060 A 
BRANCH  81  82
ATOM     82  S   UNL A   1      39.141  37.601  40.176  1.00  0.00     0.124 S 
ATOM     83  O   UNL A   1      40.489  38.145  40.311  1.00  0.00    -0.237 OA
ATOM     84  O   UNL A   1      38.159  38.488  39.559  1.00  0.00    -0.237 OA
ATOM     85  O   UNL A   1      38.655  36.832  41.317  1.00  0.00    -0.744 OA
ENDBRANCH  81  82
ENDBRANCH  60  74
BRANCH  61  86
ATOM     86  C   UNL A   1      41.119  27.784  29.549  1.00  0.00     0.058 A 
ATOM     87  C   UNL A   1      42.194  27.934  28.660  1.00  0.00     0.135 A 
ATOM     88  C   UNL A   1      40.262  26.689  29.361  1.00  0.00     0.135 A 
ATOM     89  F   UNL A   1      43.038  28.968  28.796  1.00  0.00    -0.206 F 
ATOM     90  C   UNL A   1      42.399  27.045  27.609  1.00  0.00     0.059 A 
ATOM     91  C   UNL A   1      40.461  25.773  28.332  1.00  0.00     0.059 A 
ATOM     92  F   UNL A   1      39.231  26.491  30.197  1.00  0.00    -0.206 F 
ATOM     93  C   UNL A   1      41.526  25.969  27.453  1.00  0.00     0.060 A 
BRANCH  93  94
ATOM     94  S   UNL A   1      41.823  24.798  26.110  1.00  0.00     0.124 S 
ATOM     95  O   UNL A   1      43.029  24.122  26.572  1.00  0.00    -0.237 OA
ATOM     96  O   UNL A   1      40.600  24.001  26.118  1.00  0.00    -0.237 OA
ATOM     97  O   UNL A   1      41.988  25.662  24.945  1.00  0.00    -0.744 OA
ENDBRANCH  93  94
ENDBRANCH  61  86
BRANCH  73  98
ATOM     98  C   UNL A   1      44.241  28.842  35.686  1.00  0.00     0.058 A 
ATOM     99  C   UNL A   1      43.988  27.775  36.562  1.00  0.00     0.135 A 
ATOM    100  C   UNL A   1      45.579  29.204  35.458  1.00  0.00     0.135 A 
ATOM    101  F   UNL A   1      42.726  27.395  36.817  1.00  0.00    -0.206 F 
ATOM    102  C   UNL A   1      45.023  27.106  37.209  1.00  0.00     0.059 A 
ATOM    103  C   UNL A   1      46.630  28.533  36.076  1.00  0.00     0.059 A 
ATOM    104  F   UNL A   1      45.873  30.210  34.621  1.00  0.00    -0.206 F 
ATOM    105  C   UNL A   1      46.341  27.495  36.960  1.00  0.00     0.060 A 
BRANCH 105 106
ATOM    106  S   UNL A   1      47.678  26.608  37.787  1.00  0.00     0.124 S 
ATOM    107  O   UNL A   1      47.146  26.469  39.139  1.00  0.00    -0.237 OA
ATOM    108  O   UNL A   1      47.767  25.376  37.011  1.00  0.00    -0.237 OA
ATOM    109  O   UNL A   1      48.818  27.511  37.650  1.00  0.00    -0.744 OA
ENDBRANCH 105 106
ENDBRANCH  73  98
ENDBRANCH  47  48
ENDBRANCH  39  42
ENDBRANCH  37  38
ENDBRANCH  36  37
ENDBRANCH  35  36
ENDBRANCH   1  35
TORSDOF 19
ENDMDL
MODEL 3
REMARK VINA RESULT:     -13.2      5.731      9.756
REMARK SMILES O=C(NCCCCNC(=O)c1ccc(-c2c3nc(c(-c4c(F)cc(S(=O)(=O)[O-])cc4F)c4ccc([nH]4)c(-c4c(F)cc(S(=O)(=O)[O-])cc4F)c4nc(c(-c5c(F)cc(S(=O)(=O)[O-])cc5F)c5ccc2[nH]5)C=C4)C=C3)cc1)c1ccc(NC(=O)[C@@H]2CC=CC[C@H]2C(=O)Nc2cccc([N+](=O)[O-])c2)cc1
REMARK SMILES IDX 4 1 3 2 1 3 2 4 77 6 78 7 103 8 79 9 102 10 80 11 81 12
REMARK SMILES IDX 82 13 83 15 84 16 85 17 89 18 86 19 88 20 87 21 90 22 91 23
REMARK SMILES IDX 92 24 93 26 94 27 101 28 95 29 97 30 96 31 98 32 99 33
REMARK SMILES IDX 100 34 5 35 6 36 7 37 8 38 9 39 10 41 11 42 12 43 76 44
REMARK SMILES IDX 13 45 75 46 14 47 15 48 16 49 69 50 17 51 74 52 68 53 70 54
REMARK SMILES IDX 18 55 73 56 67 57 66 58 19 60 53 61 32 62 52 63 33 64 36 65
REMARK SMILES IDX 51 66 71 67 34 68 35 69 50 71 72 72 37 73 20 74 21 75 30 76
REMARK SMILES IDX 22 77 23 78 29 79 31 80 24 81 25 82 26 83 27 84 28 85 54 86
REMARK SMILES IDX 55 87 64 88 56 89 57 90 63 91 65 92 58 93 59 94 60 95 61 96
REMARK SMILES IDX 62 97 38 98 39 99 48 100 40 101 41 102 47 103 49 104 42 105
REMARK SMILES IDX 43 106 44 107 45 108 46 109
REMARK H PARENT 3 5 81 14 92 25 8 40 70 59 36 70
REMARK Flexibility Score: inf
ROOT
ATOM      1  C   UNL A   1      32.672  29.058  25.612  1.00  0.00     0.116 C 
ENDROOT
BRANCH   1   2
ATOM      2  N   UNL A   1      31.542  29.737  24.989  1.00  0.00    -0.352 N 
ATOM      3  O   UNL A   1      29.814  29.986  23.536  1.00  0.00    -0.269 OA
ATOM      4  C   UNL A   1      30.661  29.256  24.044  1.00  0.00     0.251 C 
ATOM      5  H   UNL A   1      31.387  30.663  25.284  1.00  0.00     0.163 HD
BRANCH   4   6
ATOM      6  C   UNL A   1      30.758  27.844  23.622  1.00  0.00     0.039 A 
ATOM      7  C   UNL A   1      30.164  26.857  24.397  1.00  0.00     0.016 A 
ATOM      8  C   UNL A   1      31.513  27.486  22.504  1.00  0.00     0.016 A 
ATOM      9  C   UNL A   1      30.485  25.530  24.178  1.00  0.00     0.027 A 
ATOM     10  C   UNL A   1      31.693  26.129  22.202  1.00  0.00     0.027 A 
ATOM     11  C   UNL A   1      31.160  25.139  23.038  1.00  0.00     0.041 A 
BRANCH  11  12
ATOM     12  N   UNL A   1      31.307  23.803  22.656  1.00  0.00    -0.326 N 
ATOM     13  C   UNL A   1      32.220  22.836  22.924  1.00  0.00     0.228 C 
ATOM     14  H   UNL A   1      30.588  23.495  22.059  1.00  0.00     0.169 HD
ATOM     15  O   UNL A   1      31.993  21.734  22.398  1.00  0.00    -0.274 OA
BRANCH  13  16
ATOM     16  C   UNL A   1      33.490  22.964  23.775  1.00  0.00     0.095 C 
ATOM     17  C   UNL A   1      34.610  23.900  23.282  1.00  0.00     0.041 C 
ATOM     18  C   UNL A   1      33.877  21.597  24.370  1.00  0.00     0.095 C 
ATOM     19  C   UNL A   1      36.014  23.399  23.458  1.00  0.00    -0.030 C 
ATOM     20  C   UNL A   1      35.343  21.395  24.788  1.00  0.00     0.041 C 
ATOM     21  C   UNL A   1      36.338  22.282  24.119  1.00  0.00    -0.030 C 
BRANCH  18  22
ATOM     22  C   UNL A   1      32.942  21.128  25.507  1.00  0.00     0.228 C 
ATOM     23  O   UNL A   1      32.521  21.965  26.317  1.00  0.00    -0.274 OA
ATOM     24  N   UNL A   1      32.425  19.859  25.607  1.00  0.00    -0.326 N 
ATOM     25  H   UNL A   1      31.777  19.730  26.336  1.00  0.00     0.169 HD
BRANCH  24  26
ATOM     26  C   UNL A   1      32.678  18.719  24.835  1.00  0.00     0.048 A 
ATOM     27  C   UNL A   1      32.533  18.797  23.449  1.00  0.00     0.026 A 
ATOM     28  C   UNL A   1      33.048  17.510  25.412  1.00  0.00     0.111 A 
ATOM     29  C   UNL A   1      32.942  17.730  22.642  1.00  0.00     0.009 A 
ATOM     30  C   UNL A   1      33.527  16.472  24.610  1.00  0.00     0.271 A 
ATOM     31  C   UNL A   1      33.484  16.579  23.218  1.00  0.00     0.086 A 
BRANCH  30  32
ATOM     32  N   UNL A   1      34.139  15.297  25.243  1.00  0.00     0.062 N 
ATOM     33  O   UNL A   1      33.384  14.411  25.664  1.00  0.00    -0.258 OA
ATOM     34  O   UNL A   1      35.376  15.248  25.293  1.00  0.00    -0.258 OA
ENDBRANCH  30  32
ENDBRANCH  24  26
ENDBRANCH  18  22
ENDBRANCH  13  16
ENDBRANCH  11  12
ENDBRANCH   4   6
ENDBRANCH   1   2
BRANCH   1  35
ATOM     35  C   UNL A   1      33.353  29.861  26.704  1.00  0.00     0.023 C 
BRANCH  35  36
ATOM     36  C   UNL A   1      32.836  31.280  26.871  1.00  0.00     0.023 C 
BRANCH  36  37
ATOM     37  C   UNL A   1      33.769  32.227  27.612  1.00  0.00     0.116 C 
BRANCH  37  38
ATOM     38  N   UNL A   1      33.129  33.468  28.029  1.00  0.00    -0.352 N 
ATOM     39  C   UNL A   1      33.451  34.293  29.083  1.00  0.00     0.251 C 
ATOM     40  H   UNL A   1      32.362  33.755  27.484  1.00  0.00     0.163 HD
ATOM     41  O   UNL A   1      32.740  35.254  29.356  1.00  0.00    -0.269 OA
BRANCH  39  42
ATOM     42  C   UNL A   1      34.640  33.983  29.904  1.00  0.00     0.039 A 
ATOM     43  C   UNL A   1      34.488  33.200  31.050  1.00  0.00     0.014 A 
ATOM     44  C   UNL A   1      35.909  34.410  29.503  1.00  0.00     0.014 A 
ATOM     45  C   UNL A   1      35.620  32.776  31.748  1.00  0.00     0.010 A 
ATOM     46  C   UNL A   1      37.038  33.917  30.149  1.00  0.00     0.010 A 
ATOM     47  C   UNL A   1      36.905  33.095  31.279  1.00  0.00    -0.014 A 
BRANCH  47  48
ATOM     48  C   UNL A   1      38.124  32.586  31.955  1.00  0.00     0.031 A 
ATOM     49  C   UNL A   1      39.056  31.659  31.223  1.00  0.00     0.074 A 
ATOM     50  C   UNL A   1      38.357  32.901  33.245  1.00  0.00     0.049 A 
ATOM     51  N   UNL A   1      40.127  31.048  31.660  1.00  0.00    -0.248 NA
ATOM     52  C   UNL A   1      38.721  31.351  29.823  1.00  0.00     0.031 C 
ATOM     53  C   UNL A   1      37.498  33.741  34.084  1.00  0.00     0.029 A 
ATOM     54  N   UNL A   1      39.384  32.543  34.083  1.00  0.00    -0.354 N 
ATOM     55  C   UNL A   1      40.583  30.276  30.599  1.00  0.00     0.074 A 
ATOM     56  C   UNL A   1      39.641  30.449  29.515  1.00  0.00     0.031 C 
ATOM     57  C   UNL A   1      38.045  33.851  35.305  1.00  0.00     0.029 A 
ATOM     58  C   UNL A   1      39.276  33.068  35.348  1.00  0.00     0.049 A 
ATOM     59  H   UNL A   1      40.129  31.963  33.803  1.00  0.00     0.167 HD
ATOM     60  C   UNL A   1      41.700  29.515  30.521  1.00  0.00     0.037 A 
ATOM     61  C   UNL A   1      40.078  32.934  36.423  1.00  0.00     0.037 A 
ATOM     62  C   UNL A   1      42.653  29.372  31.590  1.00  0.00     0.049 A 
ATOM     63  C   UNL A   1      41.329  32.107  36.303  1.00  0.00     0.074 A 
ATOM     64  C   UNL A   1      43.839  28.660  31.596  1.00  0.00     0.029 A 
ATOM     65  N   UNL A   1      42.531  29.959  32.841  1.00  0.00    -0.354 N 
ATOM     66  N   UNL A   1      41.772  31.426  35.273  1.00  0.00    -0.248 NA
ATOM     67  C   UNL A   1      42.195  32.037  37.487  1.00  0.00     0.031 C 
ATOM     68  C   UNL A   1      44.425  28.797  32.860  1.00  0.00     0.029 A 
ATOM     69  C   UNL A   1      43.620  29.624  33.627  1.00  0.00     0.049 A 
ATOM     70  H   UNL A   1      41.782  30.529  33.126  1.00  0.00     0.167 HD
ATOM     71  C   UNL A   1      42.982  30.872  35.675  1.00  0.00     0.074 A 
ATOM     72  C   UNL A   1      43.206  31.305  37.039  1.00  0.00     0.031 C 
ATOM     73  C   UNL A   1      43.832  30.078  34.979  1.00  0.00     0.037 A 
BRANCH  60  74
ATOM     74  C   UNL A   1      41.957  28.797  29.226  1.00  0.00     0.058 A 
ATOM     75  C   UNL A   1      41.324  27.580  28.926  1.00  0.00     0.135 A 
ATOM     76  C   UNL A   1      42.832  29.333  28.268  1.00  0.00     0.135 A 
ATOM     77  F   UNL A   1      40.492  27.012  29.815  1.00  0.00    -0.206 F 
ATOM     78  C   UNL A   1      41.574  26.902  27.738  1.00  0.00     0.059 A 
ATOM     79  C   UNL A   1      43.077  28.686  27.060  1.00  0.00     0.059 A 
ATOM     80  F   UNL A   1      43.465  30.493  28.504  1.00  0.00    -0.206 F 
ATOM     81  C   UNL A   1      42.456  27.462  26.813  1.00  0.00     0.060 A 
BRANCH  81  82
ATOM     82  S   UNL A   1      42.776  26.569  25.277  1.00  0.00     0.124 S 
ATOM     83  O   UNL A   1      41.643  25.648  25.236  1.00  0.00    -0.237 OA
ATOM     84  O   UNL A   1      42.759  27.637  24.283  1.00  0.00    -0.237 OA
ATOM     85  O   UNL A   1      44.079  25.953  25.508  1.00  0.00    -0.744 OA
ENDBRANCH  81  82
ENDBRANCH  60  74
BRANCH  61  86
ATOM     86  C   UNL A   1      39.744  33.625  37.695  1.00  0.00     0.058 A 
ATOM     87  C   UNL A   1      38.759  33.116  38.553  1.00  0.00     0.135 A 
ATOM     88  C   UNL A   1      40.400  34.805  38.080  1.00  0.00     0.135 A 
ATOM     89  F   UNL A   1      38.101  31.992  38.227  1.00  0.00    -0.206 F 
ATOM     90  C   UNL A   1      38.418  33.762  39.737  1.00  0.00     0.059 A 
ATOM     91  C   UNL A   1      40.093  35.457  39.270  1.00  0.00     0.059 A 
ATOM     92  F   UNL A   1      41.364  35.322  37.302  1.00  0.00    -0.206 F 
ATOM     93  C   UNL A   1      39.090  34.934  40.085  1.00  0.00     0.060 A 
BRANCH  93  94
ATOM     94  S   UNL A   1      38.669  35.746  41.643  1.00  0.00     0.124 S 
ATOM     95  O   UNL A   1      38.710  37.152  41.261  1.00  0.00    -0.237 OA
ATOM     96  O   UNL A   1      37.345  35.199  41.929  1.00  0.00    -0.237 OA
ATOM     97  O   UNL A   1      39.727  35.304  42.546  1.00  0.00    -0.744 OA
ENDBRANCH  93  94
ENDBRANCH  61  86
BRANCH  73  98
ATOM     98  C   UNL A   1      45.102  29.660  35.666  1.00  0.00     0.058 A 
ATOM     99  C   UNL A   1      46.270  30.433  35.590  1.00  0.00     0.135 A 
ATOM    100  C   UNL A   1      45.136  28.488  36.437  1.00  0.00     0.135 A 
ATOM    101  F   UNL A   1      46.289  31.560  34.861  1.00  0.00    -0.206 F 
ATOM    102  C   UNL A   1      47.439  30.045  36.237  1.00  0.00     0.059 A 
ATOM    103  C   UNL A   1      46.288  28.093  37.111  1.00  0.00     0.059 A 
ATOM    104  F   UNL A   1      44.041  27.719  36.549  1.00  0.00    -0.206 F 
ATOM    105  C   UNL A   1      47.438  28.871  36.993  1.00  0.00     0.060 A 
BRANCH 105 106
ATOM    106  S   UNL A   1      48.954  28.386  37.845  1.00  0.00     0.124 S 
ATOM    107  O   UNL A   1      49.093  26.995  37.426  1.00  0.00    -0.237 OA
ATOM    108  O   UNL A   1      49.936  29.315  37.295  1.00  0.00    -0.237 OA
ATOM    109  O   UNL A   1      48.629  28.589  39.254  1.00  0.00    -0.744 OA
ENDBRANCH 105 106
ENDBRANCH  73  98
ENDBRANCH  47  48
ENDBRANCH  39  42
ENDBRANCH  37  38
ENDBRANCH  36  37
ENDBRANCH  35  36
ENDBRANCH   1  35
TORSDOF 19
ENDMDL
