MODEL 1
REMARK VINA RESULT:     -11.3      0.000      0.000
REMARK SMILES CC[C@](C)(NC(=O)[C@H]1C[NH2+]Cc2ccccc21)C(=O)NCCCCNC(=O)c1ccc(-c2c3nc(c(-c4c(F)cc(S(=O)(=O)[O-])cc4F)c4ccc([nH]4)c(-c4c(F)cc(S(=O)(=O)[O-])cc4F)c4nc(c(-c5c(F)cc(S(=O)(=O)[O-])cc5F)c5ccc2[nH]5)C=C4)C=C3)cc1
REMARK SMILES IDX 23 1 22 2 21 3 20 4 18 5 19 6 3 8 4 9 2 10 1 11 5 12 6 13
REMARK SMILES IDX 7 15 8 16 9 17 17 18 10 19 12 20 16 21 11 22 13 25 15 26
REMARK SMILES IDX 14 27 24 28 25 29 26 30 27 32 28 33 29 34 93 35 30 36 92 37
REMARK SMILES IDX 31 38 32 39 33 40 86 41 34 42 91 43 85 44 87 45 35 46 90 47
REMARK SMILES IDX 84 48 83 49 36 51 70 52 49 53 69 54 50 55 53 56 68 57 88 58
REMARK SMILES IDX 51 59 52 60 67 62 89 63 54 64 37 65 38 66 47 67 39 68 40 69
REMARK SMILES IDX 46 70 48 71 41 72 42 73 43 74 44 75 45 76 71 77 72 78 81 79
REMARK SMILES IDX 73 80 74 81 80 82 82 83 75 84 76 85 77 86 78 87 79 88 55 89
REMARK SMILES IDX 56 90 65 91 57 92 58 93 64 94 66 95 59 96 60 97 61 98 62 99
REMARK SMILES IDX 63 100
REMARK H PARENT 20 7 5 14 10 23 10 24 25 31 87 50 53 61
REMARK Flexibility Score: inf
ROOT
ATOM      1  C   UNL A   1      34.055  28.195  25.688  1.00  0.00     0.023 C 
ENDROOT
BRANCH   1   2
ATOM      2  C   UNL A   1      33.126  28.881  24.697  1.00  0.00     0.023 C 
BRANCH   2   3
ATOM      3  C   UNL A   1      32.740  28.073  23.462  1.00  0.00     0.116 C 
BRANCH   3   4
ATOM      4  N   UNL A   1      33.599  26.955  23.104  1.00  0.00    -0.354 N 
ATOM      5  C   UNL A   1      33.336  25.613  23.023  1.00  0.00     0.245 C 
ATOM      6  O   UNL A   1      34.086  24.952  22.297  1.00  0.00    -0.272 OA
ATOM      7  H   UNL A   1      34.525  27.204  22.882  1.00  0.00     0.163 HD
BRANCH   5   8
ATOM      8  C   UNL A   1      32.081  24.971  23.676  1.00  0.00     0.116 C 
ATOM      9  C   UNL A   1      30.772  25.644  23.190  1.00  0.00     0.045 C 
BRANCH   8  10
ATOM     10  C   UNL A   1      32.121  25.319  25.209  1.00  0.00     0.035 C 
ATOM     11  C   UNL A   1      30.824  25.601  25.951  1.00  0.00     0.007 C 
ENDBRANCH   8  10
BRANCH   8  12
ATOM     12  N   UNL A   1      31.950  23.522  23.437  1.00  0.00    -0.341 N 
ATOM     13  C   UNL A   1      32.688  22.464  23.914  1.00  0.00     0.234 C 
ATOM     14  H   UNL A   1      31.212  23.270  22.836  1.00  0.00     0.164 HD
ATOM     15  O   UNL A   1      32.655  21.455  23.198  1.00  0.00    -0.274 OA
BRANCH  13  16
ATOM     16  C   UNL A   1      33.370  22.450  25.306  1.00  0.00     0.164 C 
ATOM     17  C   UNL A   1      32.998  21.142  26.064  1.00  0.00     0.279 C 
ATOM     18  C   UNL A   1      34.875  22.574  25.350  1.00  0.00    -0.021 A 
ATOM     19  N   UNL A   1      33.798  19.931  25.796  1.00  0.00    -0.342 N 
ATOM     20  C   UNL A   1      35.633  21.425  25.087  1.00  0.00     0.010 A 
ATOM     21  C   UNL A   1      35.522  23.743  25.772  1.00  0.00     0.005 A 
ATOM     22  C   UNL A   1      34.895  20.133  24.844  1.00  0.00     0.297 C 
ATOM     23  H   UNL A   1      33.177  19.214  25.422  1.00  0.00     0.346 HD
ATOM     24  H   UNL A   1      34.225  19.662  26.683  1.00  0.00     0.346 HD
ATOM     25  C   UNL A   1      37.030  21.502  25.095  1.00  0.00     0.010 A 
ATOM     26  C   UNL A   1      36.912  23.812  25.791  1.00  0.00     0.000 A 
ATOM     27  C   UNL A   1      37.665  22.699  25.429  1.00  0.00     0.001 A 
ENDBRANCH  13  16
ENDBRANCH   8  12
ENDBRANCH   5   8
ENDBRANCH   3   4
ENDBRANCH   2   3
ENDBRANCH   1   2
BRANCH   1  28
ATOM     28  C   UNL A   1      33.656  28.386  27.139  1.00  0.00     0.116 C 
BRANCH  28  29
ATOM     29  N   UNL A   1      33.539  29.792  27.494  1.00  0.00    -0.352 N 
ATOM     30  C   UNL A   1      34.439  30.596  28.144  1.00  0.00     0.251 C 
ATOM     31  H   UNL A   1      32.696  30.227  27.231  1.00  0.00     0.163 HD
ATOM     32  O   UNL A   1      34.092  31.700  28.557  1.00  0.00    -0.269 OA
BRANCH  30  33
ATOM     33  C   UNL A   1      35.813  30.107  28.355  1.00  0.00     0.039 A 
ATOM     34  C   UNL A   1      36.727  30.166  27.303  1.00  0.00     0.014 A 
ATOM     35  C   UNL A   1      36.201  29.626  29.609  1.00  0.00     0.014 A 
ATOM     36  C   UNL A   1      38.051  29.792  27.528  1.00  0.00     0.010 A 
ATOM     37  C   UNL A   1      37.539  29.362  29.858  1.00  0.00     0.010 A 
ATOM     38  C   UNL A   1      38.473  29.420  28.816  1.00  0.00    -0.014 A 
BRANCH  38  39
ATOM     39  C   UNL A   1      39.884  29.059  29.092  1.00  0.00     0.031 A 
ATOM     40  C   UNL A   1      40.815  30.088  29.675  1.00  0.00     0.074 A 
ATOM     41  C   UNL A   1      40.336  27.834  28.759  1.00  0.00     0.049 A 
ATOM     42  N   UNL A   1      42.094  29.997  29.922  1.00  0.00    -0.248 NA
ATOM     43  C   UNL A   1      40.238  31.406  29.991  1.00  0.00     0.031 C 
ATOM     44  C   UNL A   1      39.536  26.778  28.132  1.00  0.00     0.029 A 
ATOM     45  N   UNL A   1      41.579  27.272  28.891  1.00  0.00    -0.354 N 
ATOM     46  C   UNL A   1      42.474  31.241  30.409  1.00  0.00     0.074 A 
ATOM     47  C   UNL A   1      41.309  32.093  30.355  1.00  0.00     0.031 C 
ATOM     48  C   UNL A   1      40.303  25.689  27.961  1.00  0.00     0.029 A 
ATOM     49  C   UNL A   1      41.655  25.982  28.423  1.00  0.00     0.049 A 
ATOM     50  H   UNL A   1      42.345  27.749  29.284  1.00  0.00     0.167 HD
ATOM     51  C   UNL A   1      43.679  31.630  30.890  1.00  0.00     0.037 A 
ATOM     52  C   UNL A   1      42.701  25.136  28.366  1.00  0.00     0.037 A 
ATOM     53  C   UNL A   1      44.825  30.763  30.960  1.00  0.00     0.049 A 
ATOM     54  C   UNL A   1      44.032  25.590  28.902  1.00  0.00     0.074 A 
ATOM     55  C   UNL A   1      46.079  31.035  31.476  1.00  0.00     0.029 A 
ATOM     56  N   UNL A   1      44.857  29.454  30.501  1.00  0.00    -0.354 N 
ATOM     57  N   UNL A   1      44.358  26.750  29.422  1.00  0.00    -0.248 NA
ATOM     58  C   UNL A   1      45.134  24.621  28.854  1.00  0.00     0.031 C 
ATOM     59  C   UNL A   1      46.884  29.910  31.281  1.00  0.00     0.029 A 
ATOM     60  C   UNL A   1      46.115  28.913  30.700  1.00  0.00     0.049 A 
ATOM     61  H   UNL A   1      44.097  28.979  30.093  1.00  0.00     0.167 HD
ATOM     62  C   UNL A   1      45.695  26.640  29.788  1.00  0.00     0.074 A 
ATOM     63  C   UNL A   1      46.111  25.296  29.444  1.00  0.00     0.031 C 
ATOM     64  C   UNL A   1      46.505  27.567  30.357  1.00  0.00     0.037 A 
BRANCH  51  65
ATOM     65  C   UNL A   1      43.811  33.044  31.384  1.00  0.00     0.058 A 
ATOM     66  C   UNL A   1      44.243  34.083  30.543  1.00  0.00     0.135 A 
ATOM     67  C   UNL A   1      43.474  33.373  32.707  1.00  0.00     0.135 A 
ATOM     68  F   UNL A   1      44.596  33.825  29.274  1.00  0.00    -0.206 F 
ATOM     69  C   UNL A   1      44.363  35.390  31.002  1.00  0.00     0.059 A 
ATOM     70  C   UNL A   1      43.556  34.681  33.179  1.00  0.00     0.059 A 
ATOM     71  F   UNL A   1      43.060  32.422  33.557  1.00  0.00    -0.206 F 
ATOM     72  C   UNL A   1      44.015  35.680  32.322  1.00  0.00     0.060 A 
BRANCH  72  73
ATOM     73  S   UNL A   1      44.167  37.385  32.896  1.00  0.00     0.124 S 
ATOM     74  O   UNL A   1      43.142  37.434  33.936  1.00  0.00    -0.237 OA
ATOM     75  O   UNL A   1      45.548  37.432  33.365  1.00  0.00    -0.237 OA
ATOM     76  O   UNL A   1      43.886  38.173  31.701  1.00  0.00    -0.744 OA
ENDBRANCH  72  73
ENDBRANCH  51  65
BRANCH  52  77
ATOM     77  C   UNL A   1      42.525  23.772  27.796  1.00  0.00     0.058 A 
ATOM     78  C   UNL A   1      42.419  22.647  28.627  1.00  0.00     0.135 A 
ATOM     79  C   UNL A   1      42.445  23.567  26.409  1.00  0.00     0.135 A 
ATOM     80  F   UNL A   1      42.493  22.788  29.960  1.00  0.00    -0.206 F 
ATOM     81  C   UNL A   1      42.262  21.366  28.107  1.00  0.00     0.059 A 
ATOM     82  C   UNL A   1      42.258  22.301  25.865  1.00  0.00     0.059 A 
ATOM     83  F   UNL A   1      42.519  24.612  25.570  1.00  0.00    -0.206 F 
ATOM     84  C   UNL A   1      42.181  21.204  26.722  1.00  0.00     0.060 A 
BRANCH  84  85
ATOM     85  S   UNL A   1      41.937  19.542  26.060  1.00  0.00     0.124 S 
ATOM     86  O   UNL A   1      42.784  19.571  24.873  1.00  0.00    -0.237 OA
ATOM     87  O   UNL A   1      42.405  18.703  27.159  1.00  0.00    -0.237 OA
ATOM     88  O   UNL A   1      40.499  19.487  25.809  1.00  0.00    -0.744 OA
ENDBRANCH  84  85
ENDBRANCH  52  77
BRANCH  64  89
ATOM     89  C   UNL A   1      47.914  27.149  30.681  1.00  0.00     0.058 A 
ATOM     90  C   UNL A   1      48.949  27.241  29.739  1.00  0.00     0.135 A 
ATOM     91  C   UNL A   1      48.240  26.705  31.974  1.00  0.00     0.135 A 
ATOM     92  F   UNL A   1      48.689  27.654  28.487  1.00  0.00    -0.206 F 
ATOM     93  C   UNL A   1      50.255  26.883  30.057  1.00  0.00     0.059 A 
ATOM     94  C   UNL A   1      49.545  26.374  32.323  1.00  0.00     0.059 A 
ATOM     95  F   UNL A   1      47.290  26.611  32.917  1.00  0.00    -0.206 F 
ATOM     96  C   UNL A   1      50.543  26.454  31.354  1.00  0.00     0.060 A 
BRANCH  96  97
ATOM     97  S   UNL A   1      52.248  26.029  31.763  1.00  0.00     0.124 S 
ATOM     98  O   UNL A   1      52.142  24.594  32.010  1.00  0.00    -0.237 OA
ATOM     99  O   UNL A   1      52.965  26.412  30.552  1.00  0.00    -0.237 OA
ATOM    100  O   UNL A   1      52.532  26.847  32.939  1.00  0.00    -0.744 OA
ENDBRANCH  96  97
ENDBRANCH  64  89
ENDBRANCH  38  39
ENDBRANCH  30  33
ENDBRANCH  28  29
ENDBRANCH   1  28
TORSDOF 17
ENDMDL
MODEL 2
REMARK VINA RESULT:     -11.2      2.781      3.502
REMARK SMILES CC[C@](C)(NC(=O)[C@H]1C[NH2+]Cc2ccccc21)C(=O)NCCCCNC(=O)c1ccc(-c2c3nc(c(-c4c(F)cc(S(=O)(=O)[O-])cc4F)c4ccc([nH]4)c(-c4c(F)cc(S(=O)(=O)[O-])cc4F)c4nc(c(-c5c(F)cc(S(=O)(=O)[O-])cc5F)c5ccc2[nH]5)C=C4)C=C3)cc1
REMARK SMILES IDX 23 1 22 2 21 3 20 4 18 5 19 6 3 8 4 9 2 10 1 11 5 12 6 13
REMARK SMILES IDX 7 15 8 16 9 17 17 18 10 19 12 20 16 21 11 22 13 25 15 26
REMARK SMILES IDX 14 27 24 28 25 29 26 30 27 32 28 33 29 34 93 35 30 36 92 37
REMARK SMILES IDX 31 38 32 39 33 40 86 41 34 42 91 43 85 44 87 45 35 46 90 47
REMARK SMILES IDX 84 48 83 49 36 51 70 52 49 53 69 54 50 55 53 56 68 57 88 58
REMARK SMILES IDX 51 59 52 60 67 62 89 63 54 64 37 65 38 66 47 67 39 68 40 69
REMARK SMILES IDX 46 70 48 71 41 72 42 73 43 74 44 75 45 76 71 77 72 78 81 79
REMARK SMILES IDX 73 80 74 81 80 82 82 83 75 84 76 85 77 86 78 87 79 88 55 89
REMARK SMILES IDX 56 90 65 91 57 92 58 93 64 94 66 95 59 96 60 97 61 98 62 99
REMARK SMILES IDX 63 100
REMARK H PARENT 20 7 5 14 10 23 10 24 25 31 87 50 53 61
REMARK Flexibility Score: inf
ROOT
ATOM      1  C   UNL A   1      33.585  28.697  24.671  1.00  0.00     0.023 C 
ENDROOT
BRANCH   1   2
ATOM      2  C   UNL A   1      32.110  28.332  24.606  1.00  0.00     0.023 C 
BRANCH   2   3
ATOM      3  C   UNL A   1      31.764  27.040  23.872  1.00  0.00     0.116 C 
BRANCH   3   4
ATOM      4  N   UNL A   1      32.528  26.732  22.674  1.00  0.00    -0.354 N 
ATOM      5  C   UNL A   1      33.236  25.611  22.325  1.00  0.00     0.245 C 
ATOM      6  O   UNL A   1      33.418  25.435  21.116  1.00  0.00    -0.272 OA
ATOM      7  H   UNL A   1      32.539  27.448  21.999  1.00  0.00     0.163 HD
BRANCH   5   8
ATOM      8  C   UNL A   1      33.658  24.538  23.366  1.00  0.00     0.116 C 
ATOM      9  C   UNL A   1      32.450  23.688  23.837  1.00  0.00     0.045 C 
BRANCH   8  10
ATOM     10  C   UNL A   1      34.099  25.297  24.670  1.00  0.00     0.035 C 
ATOM     11  C   UNL A   1      33.424  24.974  25.994  1.00  0.00     0.007 C 
ENDBRANCH   8  10
BRANCH   8  12
ATOM     12  N   UNL A   1      34.696  23.606  22.886  1.00  0.00    -0.341 N 
ATOM     13  C   UNL A   1      35.841  23.150  23.495  1.00  0.00     0.234 C 
ATOM     14  H   UNL A   1      34.543  23.253  21.980  1.00  0.00     0.164 HD
ATOM     15  O   UNL A   1      36.723  22.779  22.709  1.00  0.00    -0.274 OA
BRANCH  13  16
ATOM     16  C   UNL A   1      35.980  22.947  25.025  1.00  0.00     0.164 C 
ATOM     17  C   UNL A   1      35.219  21.661  25.460  1.00  0.00     0.279 C 
ATOM     18  C   UNL A   1      37.375  22.850  25.595  1.00  0.00    -0.021 A 
ATOM     19  N   UNL A   1      35.920  20.367  25.350  1.00  0.00    -0.342 N 
ATOM     20  C   UNL A   1      38.043  21.622  25.482  1.00  0.00     0.010 A 
ATOM     21  C   UNL A   1      37.958  23.883  26.340  1.00  0.00     0.005 A 
ATOM     22  C   UNL A   1      37.298  20.469  24.859  1.00  0.00     0.297 C 
ATOM     23  H   UNL A   1      35.395  19.773  24.708  1.00  0.00     0.346 HD
ATOM     24  H   UNL A   1      35.972  19.982  26.293  1.00  0.00     0.346 HD
ATOM     25  C   UNL A   1      39.345  21.496  25.976  1.00  0.00     0.010 A 
ATOM     26  C   UNL A   1      39.250  23.749  26.842  1.00  0.00     0.000 A 
ATOM     27  C   UNL A   1      39.951  22.565  26.639  1.00  0.00     0.001 A 
ENDBRANCH  13  16
ENDBRANCH   8  12
ENDBRANCH   5   8
ENDBRANCH   3   4
ENDBRANCH   2   3
ENDBRANCH   1   2
BRANCH   1  28
ATOM     28  C   UNL A   1      34.100  28.930  26.078  1.00  0.00     0.116 C 
BRANCH  28  29
ATOM     29  N   UNL A   1      33.797  30.270  26.557  1.00  0.00    -0.352 N 
ATOM     30  C   UNL A   1      34.390  30.980  27.568  1.00  0.00     0.251 C 
ATOM     31  H   UNL A   1      33.064  30.732  26.090  1.00  0.00     0.163 HD
ATOM     32  O   UNL A   1      33.867  32.011  27.985  1.00  0.00    -0.269 OA
BRANCH  30  33
ATOM     33  C   UNL A   1      35.645  30.478  28.155  1.00  0.00     0.039 A 
ATOM     34  C   UNL A   1      36.863  30.888  27.614  1.00  0.00     0.014 A 
ATOM     35  C   UNL A   1      35.608  29.630  29.265  1.00  0.00     0.014 A 
ATOM     36  C   UNL A   1      38.050  30.488  28.227  1.00  0.00     0.010 A 
ATOM     37  C   UNL A   1      36.783  29.327  29.936  1.00  0.00     0.010 A 
ATOM     38  C   UNL A   1      38.017  29.733  29.412  1.00  0.00    -0.014 A 
BRANCH  38  39
ATOM     39  C   UNL A   1      39.263  29.331  30.106  1.00  0.00     0.031 A 
ATOM     40  C   UNL A   1      39.692  30.066  31.348  1.00  0.00     0.074 A 
ATOM     41  C   UNL A   1      40.032  28.355  29.585  1.00  0.00     0.049 A 
ATOM     42  N   UNL A   1      40.779  29.920  32.059  1.00  0.00    -0.248 NA
ATOM     43  C   UNL A   1      38.798  31.131  31.835  1.00  0.00     0.031 C 
ATOM     44  C   UNL A   1      39.742  27.617  28.354  1.00  0.00     0.029 A 
ATOM     45  N   UNL A   1      41.217  27.823  30.019  1.00  0.00    -0.354 N 
ATOM     46  C   UNL A   1      40.704  30.876  33.064  1.00  0.00     0.074 A 
ATOM     47  C   UNL A   1      39.503  31.645  32.831  1.00  0.00     0.031 C 
ATOM     48  C   UNL A   1      40.710  26.708  28.147  1.00  0.00     0.029 A 
ATOM     49  C   UNL A   1      41.708  26.830  29.204  1.00  0.00     0.049 A 
ATOM     50  H   UNL A   1      41.675  28.123  30.837  1.00  0.00     0.167 HD
ATOM     51  C   UNL A   1      41.542  31.072  34.108  1.00  0.00     0.037 A 
ATOM     52  C   UNL A   1      42.841  26.107  29.297  1.00  0.00     0.037 A 
ATOM     53  C   UNL A   1      42.722  30.282  34.342  1.00  0.00     0.049 A 
ATOM     54  C   UNL A   1      43.760  26.345  30.463  1.00  0.00     0.074 A 
ATOM     55  C   UNL A   1      43.615  30.360  35.396  1.00  0.00     0.029 A 
ATOM     56  N   UNL A   1      43.173  29.268  33.509  1.00  0.00    -0.354 N 
ATOM     57  N   UNL A   1      43.641  27.209  31.445  1.00  0.00    -0.248 NA
ATOM     58  C   UNL A   1      44.964  25.508  30.543  1.00  0.00     0.031 C 
ATOM     59  C   UNL A   1      44.633  29.430  35.173  1.00  0.00     0.029 A 
ATOM     60  C   UNL A   1      44.343  28.727  34.013  1.00  0.00     0.049 A 
ATOM     61  H   UNL A   1      42.727  28.975  32.682  1.00  0.00     0.167 HD
ATOM     62  C   UNL A   1      44.737  26.999  32.272  1.00  0.00     0.074 A 
ATOM     63  C   UNL A   1      45.501  25.917  31.685  1.00  0.00     0.031 C 
ATOM     64  C   UNL A   1      45.083  27.643  33.415  1.00  0.00     0.037 A 
BRANCH  51  65
ATOM     65  C   UNL A   1      41.207  32.174  35.076  1.00  0.00     0.058 A 
ATOM     66  C   UNL A   1      41.743  33.465  34.941  1.00  0.00     0.135 A 
ATOM     67  C   UNL A   1      40.315  31.947  36.137  1.00  0.00     0.135 A 
ATOM     68  F   UNL A   1      42.616  33.736  33.957  1.00  0.00    -0.206 F 
ATOM     69  C   UNL A   1      41.431  34.482  35.836  1.00  0.00     0.059 A 
ATOM     70  C   UNL A   1      39.963  32.959  37.026  1.00  0.00     0.059 A 
ATOM     71  F   UNL A   1      39.775  30.732  36.319  1.00  0.00    -0.206 F 
ATOM     72  C   UNL A   1      40.537  34.220  36.876  1.00  0.00     0.060 A 
BRANCH  72  73
ATOM     73  S   UNL A   1      40.135  35.556  38.021  1.00  0.00     0.124 S 
ATOM     74  O   UNL A   1      39.972  36.683  37.107  1.00  0.00    -0.237 OA
ATOM     75  O   UNL A   1      38.912  35.068  38.650  1.00  0.00    -0.237 OA
ATOM     76  O   UNL A   1      41.303  35.620  38.893  1.00  0.00    -0.744 OA
ENDBRANCH  72  73
ENDBRANCH  51  65
BRANCH  52  77
ATOM     77  C   UNL A   1      43.154  25.081  28.265  1.00  0.00     0.058 A 
ATOM     78  C   UNL A   1      42.902  23.720  28.495  1.00  0.00     0.135 A 
ATOM     79  C   UNL A   1      43.700  25.441  27.022  1.00  0.00     0.135 A 
ATOM     80  F   UNL A   1      42.385  23.323  29.668  1.00  0.00    -0.206 F 
ATOM     81  C   UNL A   1      43.199  22.751  27.542  1.00  0.00     0.059 A 
ATOM     82  C   UNL A   1      43.978  24.494  26.042  1.00  0.00     0.059 A 
ATOM     83  F   UNL A   1      43.942  26.731  26.743  1.00  0.00    -0.206 F 
ATOM     84  C   UNL A   1      43.735  23.149  26.316  1.00  0.00     0.060 A 
BRANCH  84  85
ATOM     85  S   UNL A   1      44.078  21.886  25.072  1.00  0.00     0.124 S 
ATOM     86  O   UNL A   1      45.439  21.493  25.420  1.00  0.00    -0.237 OA
ATOM     87  O   UNL A   1      43.039  20.898  25.344  1.00  0.00    -0.237 OA
ATOM     88  O   UNL A   1      43.933  22.608  23.811  1.00  0.00    -0.744 OA
ENDBRANCH  84  85
ENDBRANCH  52  77
BRANCH  64  89
ATOM     89  C   UNL A   1      46.320  27.170  34.129  1.00  0.00     0.058 A 
ATOM     90  C   UNL A   1      46.290  26.097  35.031  1.00  0.00     0.135 A 
ATOM     91  C   UNL A   1      47.563  27.767  33.860  1.00  0.00     0.135 A 
ATOM     92  F   UNL A   1      45.126  25.495  35.328  1.00  0.00    -0.206 F 
ATOM     93  C   UNL A   1      47.444  25.646  35.663  1.00  0.00     0.059 A 
ATOM     94  C   UNL A   1      48.735  27.311  34.455  1.00  0.00     0.059 A 
ATOM     95  F   UNL A   1      47.650  28.790  32.996  1.00  0.00    -0.206 F 
ATOM     96  C   UNL A   1      48.663  26.258  35.365  1.00  0.00     0.060 A 
BRANCH  96  97
ATOM     97  S   UNL A   1      50.158  25.639  36.163  1.00  0.00     0.124 S 
ATOM     98  O   UNL A   1      50.190  26.436  37.385  1.00  0.00    -0.237 OA
ATOM     99  O   UNL A   1      49.855  24.222  36.337  1.00  0.00    -0.237 OA
ATOM    100  O   UNL A   1      51.210  25.934  35.194  1.00  0.00    -0.744 OA
ENDBRANCH  96  97
ENDBRANCH  64  89
ENDBRANCH  38  39
ENDBRANCH  30  33
ENDBRANCH  28  29
ENDBRANCH   1  28
TORSDOF 17
ENDMDL
MODEL 3
REMARK VINA RESULT:     -11.1      4.697     10.279
REMARK SMILES CC[C@](C)(NC(=O)[C@H]1C[NH2+]Cc2ccccc21)C(=O)NCCCCNC(=O)c1ccc(-c2c3nc(c(-c4c(F)cc(S(=O)(=O)[O-])cc4F)c4ccc([nH]4)c(-c4c(F)cc(S(=O)(=O)[O-])cc4F)c4nc(c(-c5c(F)cc(S(=O)(=O)[O-])cc5F)c5ccc2[nH]5)C=C4)C=C3)cc1
REMARK SMILES IDX 23 1 22 2 21 3 20 4 18 5 19 6 3 8 4 9 2 10 1 11 5 12 6 13
REMARK SMILES IDX 7 15 8 16 9 17 17 18 10 19 12 20 16 21 11 22 13 25 15 26
REMARK SMILES IDX 14 27 24 28 25 29 26 30 27 32 28 33 29 34 93 35 30 36 92 37
REMARK SMILES IDX 31 38 32 39 33 40 86 41 34 42 91 43 85 44 87 45 35 46 90 47
REMARK SMILES IDX 84 48 83 49 36 51 70 52 49 53 69 54 50 55 53 56 68 57 88 58
REMARK SMILES IDX 51 59 52 60 67 62 89 63 54 64 37 65 38 66 47 67 39 68 40 69
REMARK SMILES IDX 46 70 48 71 41 72 42 73 43 74 44 75 45 76 71 77 72 78 81 79
REMARK SMILES IDX 73 80 74 81 80 82 82 83 75 84 76 85 77 86 78 87 79 88 55 89
REMARK SMILES IDX 56 90 65 91 57 92 58 93 64 94 66 95 59 96 60 97 61 98 62 99
REMARK SMILES IDX 63 100
REMARK H PARENT 20 7 5 14 10 23 10 24 25 31 87 50 53 61
REMARK Flexibility Score: inf
ROOT
ATOM      1  C   UNL A   1      37.861  23.808  26.017  1.00  0.00     0.023 C 
ENDROOT
BRANCH   1   2
ATOM      2  C   UNL A   1      37.298  22.457  25.602  1.00  0.00     0.023 C 
BRANCH   2   3
ATOM      3  C   UNL A   1      35.907  22.114  26.127  1.00  0.00     0.116 C 
BRANCH   3   4
ATOM      4  N   UNL A   1      35.359  20.819  25.756  1.00  0.00    -0.354 N 
ATOM      5  C   UNL A   1      34.321  20.491  24.924  1.00  0.00     0.245 C 
ATOM      6  O   UNL A   1      34.340  19.350  24.452  1.00  0.00    -0.272 OA
ATOM      7  H   UNL A   1      35.808  20.049  26.173  1.00  0.00     0.163 HD
BRANCH   5   8
ATOM      8  C   UNL A   1      33.259  21.530  24.469  1.00  0.00     0.116 C 
ATOM      9  C   UNL A   1      32.312  20.950  23.388  1.00  0.00     0.045 C 
BRANCH   8  10
ATOM     10  C   UNL A   1      34.021  22.676  23.708  1.00  0.00     0.035 C 
ATOM     11  C   UNL A   1      33.647  23.003  22.271  1.00  0.00     0.007 C 
ENDBRANCH   8  10
BRANCH   8  12
ATOM     12  N   UNL A   1      32.418  22.053  25.563  1.00  0.00    -0.341 N 
ATOM     13  C   UNL A   1      32.256  23.333  26.035  1.00  0.00     0.234 C 
ATOM     14  H   UNL A   1      31.885  21.371  26.032  1.00  0.00     0.164 HD
ATOM     15  O   UNL A   1      31.880  23.399  27.212  1.00  0.00    -0.274 OA
BRANCH  13  16
ATOM     16  C   UNL A   1      32.362  24.599  25.145  1.00  0.00     0.164 C 
ATOM     17  C   UNL A   1      31.095  24.724  24.250  1.00  0.00     0.279 C 
ATOM     18  C   UNL A   1      32.548  25.928  25.837  1.00  0.00    -0.021 A 
ATOM     19  N   UNL A   1      29.901  25.376  24.821  1.00  0.00    -0.342 N 
ATOM     20  C   UNL A   1      31.414  26.542  26.387  1.00  0.00     0.010 A 
ATOM     21  C   UNL A   1      33.767  26.618  25.827  1.00  0.00     0.005 A 
ATOM     22  C   UNL A   1      30.081  25.867  26.191  1.00  0.00     0.297 C 
ATOM     23  H   UNL A   1      29.137  24.702  24.821  1.00  0.00     0.346 HD
ATOM     24  H   UNL A   1      29.710  26.193  24.240  1.00  0.00     0.346 HD
ATOM     25  C   UNL A   1      31.546  27.764  27.056  1.00  0.00     0.010 A 
ATOM     26  C   UNL A   1      33.891  27.840  26.483  1.00  0.00     0.000 A 
ATOM     27  C   UNL A   1      32.787  28.399  27.118  1.00  0.00     0.001 A 
ENDBRANCH  13  16
ENDBRANCH   8  12
ENDBRANCH   5   8
ENDBRANCH   3   4
ENDBRANCH   2   3
ENDBRANCH   1   2
BRANCH   1  28
ATOM     28  C   UNL A   1      39.075  23.718  26.922  1.00  0.00     0.116 C 
BRANCH  28  29
ATOM     29  N   UNL A   1      40.312  24.000  26.208  1.00  0.00    -0.352 N 
ATOM     30  C   UNL A   1      41.106  25.116  26.265  1.00  0.00     0.251 C 
ATOM     31  H   UNL A   1      40.621  23.290  25.600  1.00  0.00     0.163 HD
ATOM     32  O   UNL A   1      41.996  25.280  25.433  1.00  0.00    -0.269 OA
BRANCH  30  33
ATOM     33  C   UNL A   1      40.862  26.115  27.319  1.00  0.00     0.039 A 
ATOM     34  C   UNL A   1      39.991  25.806  28.364  1.00  0.00     0.014 A 
ATOM     35  C   UNL A   1      41.527  27.344  27.286  1.00  0.00     0.014 A 
ATOM     36  C   UNL A   1      39.833  26.714  29.410  1.00  0.00     0.010 A 
ATOM     37  C   UNL A   1      41.453  28.194  28.379  1.00  0.00     0.010 A 
ATOM     38  C   UNL A   1      40.589  27.899  29.442  1.00  0.00    -0.014 A 
BRANCH  38  39
ATOM     39  C   UNL A   1      40.470  28.861  30.563  1.00  0.00     0.031 A 
ATOM     40  C   UNL A   1      41.347  28.700  31.776  1.00  0.00     0.074 A 
ATOM     41  C   UNL A   1      39.536  29.830  30.514  1.00  0.00     0.049 A 
ATOM     42  N   UNL A   1      41.350  29.386  32.888  1.00  0.00    -0.248 NA
ATOM     43  C   UNL A   1      42.328  27.601  31.749  1.00  0.00     0.031 C 
ATOM     44  C   UNL A   1      38.592  30.041  29.414  1.00  0.00     0.029 A 
ATOM     45  N   UNL A   1      39.220  30.814  31.414  1.00  0.00    -0.354 N 
ATOM     46  C   UNL A   1      42.318  28.797  33.692  1.00  0.00     0.074 A 
ATOM     47  C   UNL A   1      42.832  27.655  32.972  1.00  0.00     0.031 C 
ATOM     48  C   UNL A   1      37.822  31.105  29.693  1.00  0.00     0.029 A 
ATOM     49  C   UNL A   1      38.186  31.624  31.007  1.00  0.00     0.049 A 
ATOM     50  H   UNL A   1      39.688  30.929  32.272  1.00  0.00     0.167 HD
ATOM     51  C   UNL A   1      42.764  29.193  34.908  1.00  0.00     0.037 A 
ATOM     52  C   UNL A   1      37.595  32.662  31.629  1.00  0.00     0.037 A 
ATOM     53  C   UNL A   1      42.260  30.348  35.603  1.00  0.00     0.049 A 
ATOM     54  C   UNL A   1      38.103  33.082  32.981  1.00  0.00     0.074 A 
ATOM     55  C   UNL A   1      42.674  30.871  36.814  1.00  0.00     0.029 A 
ATOM     56  N   UNL A   1      41.231  31.159  35.147  1.00  0.00    -0.354 N 
ATOM     57  N   UNL A   1      39.067  32.555  33.701  1.00  0.00    -0.248 NA
ATOM     58  C   UNL A   1      37.453  34.242  33.605  1.00  0.00     0.031 C 
ATOM     59  C   UNL A   1      41.861  31.967  37.116  1.00  0.00     0.029 A 
ATOM     60  C   UNL A   1      40.980  32.166  36.063  1.00  0.00     0.049 A 
ATOM     61  H   UNL A   1      40.749  31.038  34.297  1.00  0.00     0.167 HD
ATOM     62  C   UNL A   1      39.157  33.335  34.847  1.00  0.00     0.074 A 
ATOM     63  C   UNL A   1      38.161  34.379  34.718  1.00  0.00     0.031 C 
ATOM     64  C   UNL A   1      39.988  33.202  35.910  1.00  0.00     0.037 A 
BRANCH  51  65
ATOM     65  C   UNL A   1      43.852  28.379  35.552  1.00  0.00     0.058 A 
ATOM     66  C   UNL A   1      45.210  28.621  35.288  1.00  0.00     0.135 A 
ATOM     67  C   UNL A   1      43.537  27.363  36.469  1.00  0.00     0.135 A 
ATOM     68  F   UNL A   1      45.570  29.567  34.406  1.00  0.00    -0.206 F 
ATOM     69  C   UNL A   1      46.215  27.869  35.886  1.00  0.00     0.059 A 
ATOM     70  C   UNL A   1      44.528  26.619  37.105  1.00  0.00     0.059 A 
ATOM     71  F   UNL A   1      42.257  27.084  36.757  1.00  0.00    -0.206 F 
ATOM     72  C   UNL A   1      45.864  26.870  36.796  1.00  0.00     0.060 A 
BRANCH  72  73
ATOM     73  S   UNL A   1      47.183  25.912  37.571  1.00  0.00     0.124 S 
ATOM     74  O   UNL A   1      48.230  25.985  36.555  1.00  0.00    -0.237 OA
ATOM     75  O   UNL A   1      47.434  26.663  38.795  1.00  0.00    -0.237 OA
ATOM     76  O   UNL A   1      46.582  24.595  37.758  1.00  0.00    -0.744 OA
ENDBRANCH  72  73
ENDBRANCH  51  65
BRANCH  52  77
ATOM     77  C   UNL A   1      36.471  33.381  30.971  1.00  0.00     0.058 A 
ATOM     78  C   UNL A   1      36.690  34.199  29.852  1.00  0.00     0.135 A 
ATOM     79  C   UNL A   1      35.152  33.256  31.437  1.00  0.00     0.135 A 
ATOM     80  F   UNL A   1      37.932  34.355  29.368  1.00  0.00    -0.206 F 
ATOM     81  C   UNL A   1      35.649  34.884  29.232  1.00  0.00     0.059 A 
ATOM     82  C   UNL A   1      34.091  33.906  30.817  1.00  0.00     0.059 A 
ATOM     83  F   UNL A   1      34.884  32.470  32.491  1.00  0.00    -0.206 F 
ATOM     84  C   UNL A   1      34.351  34.729  29.722  1.00  0.00     0.060 A 
BRANCH  84  85
ATOM     85  S   UNL A   1      33.003  35.591  28.885  1.00  0.00     0.124 S 
ATOM     86  O   UNL A   1      32.213  36.068  30.014  1.00  0.00    -0.237 OA
ATOM     87  O   UNL A   1      33.717  36.613  28.128  1.00  0.00    -0.237 OA
ATOM     88  O   UNL A   1      32.383  34.542  28.078  1.00  0.00    -0.744 OA
ENDBRANCH  84  85
ENDBRANCH  52  77
BRANCH  64  89
ATOM     89  C   UNL A   1      39.885  34.230  37.004  1.00  0.00     0.058 A 
ATOM     90  C   UNL A   1      40.483  35.493  36.891  1.00  0.00     0.135 A 
ATOM     91  C   UNL A   1      39.126  33.963  38.156  1.00  0.00     0.135 A 
ATOM     92  F   UNL A   1      41.225  35.797  35.813  1.00  0.00    -0.206 F 
ATOM     93  C   UNL A   1      40.356  36.450  37.893  1.00  0.00     0.059 A 
ATOM     94  C   UNL A   1      38.957  34.916  39.155  1.00  0.00     0.059 A 
ATOM     95  F   UNL A   1      38.521  32.774  38.308  1.00  0.00    -0.206 F 
ATOM     96  C   UNL A   1      39.587  36.152  39.020  1.00  0.00     0.060 A 
BRANCH  96  97
ATOM     97  S   UNL A   1      39.399  37.415  40.295  1.00  0.00     0.124 S 
ATOM     98  O   UNL A   1      40.790  37.756  40.578  1.00  0.00    -0.237 OA
ATOM     99  O   UNL A   1      38.622  38.440  39.606  1.00  0.00    -0.237 OA
ATOM    100  O   UNL A   1      38.695  36.717  41.366  1.00  0.00    -0.744 OA
ENDBRANCH  96  97
ENDBRANCH  64  89
ENDBRANCH  38  39
ENDBRANCH  30  33
ENDBRANCH  28  29
ENDBRANCH   1  28
TORSDOF 17
ENDMDL
