MODEL 1
REMARK VINA RESULT:     -13.2      0.000      0.000
REMARK SMILES Cc1c(CC(=O)NCCCCNC(=O)c2ccc(-c3c4nc(c(-c5c(F)cc(S(=O)(=O)[O-])cc5F)c5ccc([nH]5)c(-c5c(F)cc(S(=O)(=O)[O-])cc5F)c5nc(c(-c6c(F)cc(S(=O)(=O)[O-])cc6F)c6ccc3[nH]6)C=C5)C=C4)cc2)c2ccccc2n1C(=O)c1ccc(Cl)cc1
REMARK SMILES IDX 9 1 8 2 7 3 5 4 6 5 4 7 3 8 1 9 2 10 87 11 81 12 86 13 82 14
REMARK SMILES IDX 85 15 83 16 84 17 88 18 89 19 90 20 91 21 96 22 92 23 95 24
REMARK SMILES IDX 93 25 94 26 10 27 11 28 12 29 13 30 14 32 15 33 16 34 80 35
REMARK SMILES IDX 17 36 79 37 18 38 19 39 20 40 73 41 21 42 78 43 72 44 74 45
REMARK SMILES IDX 22 46 77 47 71 48 70 49 23 51 57 52 36 53 56 54 37 55 40 56
REMARK SMILES IDX 55 57 75 58 38 59 39 60 54 62 76 63 41 64 24 65 25 66 34 67
REMARK SMILES IDX 26 68 27 69 33 70 35 71 28 72 29 73 30 74 31 75 32 76 58 77
REMARK SMILES IDX 59 78 68 79 60 80 61 81 67 82 69 83 62 84 63 85 64 86 65 87
REMARK SMILES IDX 66 88 42 89 43 90 52 91 44 92 45 93 51 94 53 95 46 96 47 97
REMARK SMILES IDX 48 98 49 99 50 100
REMARK H PARENT 7 6 12 31 74 50 40 61
REMARK Flexibility Score: inf
ROOT
ATOM      1  C   UNL A   1      37.881  22.626  25.729  1.00  0.00     0.023 C 
ENDROOT
BRANCH   1   2
ATOM      2  C   UNL A   1      36.834  23.698  25.435  1.00  0.00     0.116 C 
BRANCH   2   3
ATOM      3  N   UNL A   1      35.572  23.422  26.089  1.00  0.00    -0.356 N 
ATOM      4  C   UNL A   1      34.338  23.917  25.779  1.00  0.00     0.224 C 
ATOM      5  O   UNL A   1      33.368  23.538  26.441  1.00  0.00    -0.275 OA
ATOM      6  H   UNL A   1      35.608  22.800  26.851  1.00  0.00     0.163 HD
BRANCH   4   7
ATOM      7  C   UNL A   1      34.172  24.859  24.595  1.00  0.00     0.138 C 
BRANCH   7   8
ATOM      8  C   UNL A   1      32.996  25.786  24.726  1.00  0.00    -0.010 A 
ATOM      9  C   UNL A   1      31.218  24.538  23.290  1.00  0.00     0.065 C 
ATOM     10  C   UNL A   1      31.733  25.643  24.161  1.00  0.00     0.028 A 
ATOM     11  N   UNL A   1      30.966  26.776  24.477  1.00  0.00    -0.280 N 
ATOM     12  C   UNL A   1      32.983  26.990  25.485  1.00  0.00     0.004 A 
ATOM     13  C   UNL A   1      31.706  27.551  25.384  1.00  0.00     0.056 A 
ATOM     14  C   UNL A   1      33.965  27.638  26.268  1.00  0.00     0.010 A 
ATOM     15  C   UNL A   1      31.388  28.704  26.132  1.00  0.00     0.027 A 
ATOM     16  C   UNL A   1      33.662  28.820  26.942  1.00  0.00     0.001 A 
ATOM     17  C   UNL A   1      32.381  29.339  26.883  1.00  0.00     0.002 A 
BRANCH  11  18
ATOM     18  C   UNL A   1      29.660  27.054  23.960  1.00  0.00     0.262 C 
ATOM     19  O   UNL A   1      28.737  26.315  24.256  1.00  0.00    -0.268 OA
BRANCH  18  20
ATOM     20  C   UNL A   1      29.312  28.215  23.120  1.00  0.00     0.040 A 
ATOM     21  C   UNL A   1      30.278  28.899  22.374  1.00  0.00     0.015 A 
ATOM     22  C   UNL A   1      27.976  28.632  23.117  1.00  0.00     0.015 A 
ATOM     23  C   UNL A   1      29.917  30.066  21.696  1.00  0.00     0.021 A 
ATOM     24  C   UNL A   1      27.620  29.792  22.432  1.00  0.00     0.021 A 
ATOM     25  C   UNL A   1      28.595  30.516  21.743  1.00  0.00     0.041 A 
ATOM     26  Cl  UNL A   1      28.155  31.988  20.971  1.00  0.00    -0.084 Cl
ENDBRANCH  18  20
ENDBRANCH  11  18
ENDBRANCH   7   8
ENDBRANCH   4   7
ENDBRANCH   2   3
ENDBRANCH   1   2
BRANCH   1  27
ATOM     27  C   UNL A   1      39.048  23.110  26.603  1.00  0.00     0.023 C 
BRANCH  27  28
ATOM     28  C   UNL A   1      40.128  22.052  26.848  1.00  0.00     0.116 C 
BRANCH  28  29
ATOM     29  N   UNL A   1      41.224  22.135  25.904  1.00  0.00    -0.352 N 
ATOM     30  C   UNL A   1      42.224  23.036  25.669  1.00  0.00     0.251 C 
ATOM     31  H   UNL A   1      41.257  21.364  25.292  1.00  0.00     0.163 HD
ATOM     32  O   UNL A   1      43.068  22.696  24.834  1.00  0.00    -0.269 OA
BRANCH  30  33
ATOM     33  C   UNL A   1      42.331  24.379  26.298  1.00  0.00     0.039 A 
ATOM     34  C   UNL A   1      42.938  24.646  27.525  1.00  0.00     0.014 A 
ATOM     35  C   UNL A   1      41.679  25.430  25.626  1.00  0.00     0.014 A 
ATOM     36  C   UNL A   1      42.812  25.894  28.116  1.00  0.00     0.010 A 
ATOM     37  C   UNL A   1      41.559  26.686  26.209  1.00  0.00     0.010 A 
ATOM     38  C   UNL A   1      42.070  26.892  27.487  1.00  0.00    -0.014 A 
BRANCH  38  39
ATOM     39  C   UNL A   1      41.832  28.110  28.250  1.00  0.00     0.031 A 
ATOM     40  C   UNL A   1      42.904  29.147  28.199  1.00  0.00     0.074 A 
ATOM     41  C   UNL A   1      40.693  28.309  28.943  1.00  0.00     0.049 A 
ATOM     42  N   UNL A   1      43.628  29.614  29.166  1.00  0.00    -0.248 NA
ATOM     43  C   UNL A   1      43.276  29.659  26.872  1.00  0.00     0.031 C 
ATOM     44  C   UNL A   1      39.448  27.534  28.900  1.00  0.00     0.029 A 
ATOM     45  N   UNL A   1      40.383  29.340  29.772  1.00  0.00    -0.354 N 
ATOM     46  C   UNL A   1      44.428  30.609  28.604  1.00  0.00     0.074 A 
ATOM     47  C   UNL A   1      44.254  30.513  27.176  1.00  0.00     0.031 C 
ATOM     48  C   UNL A   1      38.457  28.260  29.464  1.00  0.00     0.029 A 
ATOM     49  C   UNL A   1      39.028  29.470  30.030  1.00  0.00     0.049 A 
ATOM     50  H   UNL A   1      41.061  29.941  30.155  1.00  0.00     0.167 HD
ATOM     51  C   UNL A   1      45.056  31.564  29.347  1.00  0.00     0.037 A 
ATOM     52  C   UNL A   1      38.418  30.551  30.573  1.00  0.00     0.037 A 
ATOM     53  C   UNL A   1      45.145  31.208  30.735  1.00  0.00     0.049 A 
ATOM     54  C   UNL A   1      39.455  31.316  31.317  1.00  0.00     0.074 A 
ATOM     55  C   UNL A   1      45.759  30.191  31.439  1.00  0.00     0.029 A 
ATOM     56  N   UNL A   1      44.261  31.782  31.617  1.00  0.00    -0.354 N 
ATOM     57  N   UNL A   1      40.062  30.876  32.386  1.00  0.00    -0.248 NA
ATOM     58  C   UNL A   1      40.135  32.395  30.616  1.00  0.00     0.031 C 
ATOM     59  C   UNL A   1      44.865  29.890  32.508  1.00  0.00     0.029 A 
ATOM     60  C   UNL A   1      43.783  30.765  32.405  1.00  0.00     0.049 A 
ATOM     61  H   UNL A   1      44.020  32.734  31.673  1.00  0.00     0.167 HD
ATOM     62  C   UNL A   1      41.370  31.328  32.270  1.00  0.00     0.074 A 
ATOM     63  C   UNL A   1      41.332  32.325  31.204  1.00  0.00     0.031 C 
ATOM     64  C   UNL A   1      42.413  30.668  32.856  1.00  0.00     0.037 A 
BRANCH  51  65
ATOM     65  C   UNL A   1      45.333  32.962  28.855  1.00  0.00     0.058 A 
ATOM     66  C   UNL A   1      46.646  33.471  28.857  1.00  0.00     0.135 A 
ATOM     67  C   UNL A   1      44.307  33.908  28.641  1.00  0.00     0.135 A 
ATOM     68  F   UNL A   1      47.695  32.658  29.068  1.00  0.00    -0.206 F 
ATOM     69  C   UNL A   1      46.916  34.834  28.712  1.00  0.00     0.059 A 
ATOM     70  C   UNL A   1      44.556  35.261  28.444  1.00  0.00     0.059 A 
ATOM     71  F   UNL A   1      43.011  33.571  28.714  1.00  0.00    -0.206 F 
ATOM     72  C   UNL A   1      45.859  35.722  28.524  1.00  0.00     0.060 A 
BRANCH  72  73
ATOM     73  S   UNL A   1      46.191  37.493  28.473  1.00  0.00     0.124 S 
ATOM     74  O   UNL A   1      46.624  37.667  27.091  1.00  0.00    -0.237 OA
ATOM     75  O   UNL A   1      44.889  38.057  28.812  1.00  0.00    -0.237 OA
ATOM     76  O   UNL A   1      47.228  37.670  29.485  1.00  0.00    -0.744 OA
ENDBRANCH  72  73
ENDBRANCH  51  65
BRANCH  52  77
ATOM     77  C   UNL A   1      37.144  31.156  30.104  1.00  0.00     0.058 A 
ATOM     78  C   UNL A   1      36.218  31.696  31.011  1.00  0.00     0.135 A 
ATOM     79  C   UNL A   1      36.932  31.461  28.741  1.00  0.00     0.135 A 
ATOM     80  F   UNL A   1      36.361  31.481  32.328  1.00  0.00    -0.206 F 
ATOM     81  C   UNL A   1      35.166  32.520  30.596  1.00  0.00     0.059 A 
ATOM     82  C   UNL A   1      35.885  32.266  28.304  1.00  0.00     0.059 A 
ATOM     83  F   UNL A   1      37.794  31.058  27.796  1.00  0.00    -0.206 F 
ATOM     84  C   UNL A   1      35.019  32.815  29.240  1.00  0.00     0.060 A 
BRANCH  84  85
ATOM     85  S   UNL A   1      33.765  34.007  28.718  1.00  0.00     0.124 S 
ATOM     86  O   UNL A   1      33.234  34.466  29.997  1.00  0.00    -0.237 OA
ATOM     87  O   UNL A   1      34.558  34.977  27.971  1.00  0.00    -0.237 OA
ATOM     88  O   UNL A   1      32.848  33.204  27.913  1.00  0.00    -0.744 OA
ENDBRANCH  84  85
ENDBRANCH  52  77
BRANCH  64  89
ATOM     89  C   UNL A   1      42.104  29.571  33.843  1.00  0.00     0.058 A 
ATOM     90  C   UNL A   1      41.805  28.248  33.472  1.00  0.00     0.135 A 
ATOM     91  C   UNL A   1      42.289  29.823  35.211  1.00  0.00     0.135 A 
ATOM     92  F   UNL A   1      41.723  27.898  32.180  1.00  0.00    -0.206 F 
ATOM     93  C   UNL A   1      41.659  27.231  34.416  1.00  0.00     0.059 A 
ATOM     94  C   UNL A   1      42.177  28.817  36.170  1.00  0.00     0.059 A 
ATOM     95  F   UNL A   1      42.643  31.051  35.626  1.00  0.00    -0.206 F 
ATOM     96  C   UNL A   1      41.852  27.525  35.765  1.00  0.00     0.060 A 
BRANCH  96  97
ATOM     97  S   UNL A   1      41.756  26.183  36.972  1.00  0.00     0.124 S 
ATOM     98  O   UNL A   1      40.389  26.310  37.465  1.00  0.00    -0.237 OA
ATOM     99  O   UNL A   1      42.025  25.001  36.156  1.00  0.00    -0.237 OA
ATOM    100  O   UNL A   1      42.802  26.515  37.936  1.00  0.00    -0.744 OA
ENDBRANCH  96  97
ENDBRANCH  64  89
ENDBRANCH  38  39
ENDBRANCH  30  33
ENDBRANCH  28  29
ENDBRANCH  27  28
ENDBRANCH   1  27
TORSDOF 17
ENDMDL
MODEL 2
REMARK VINA RESULT:     -13.1      2.662      4.119
REMARK SMILES Cc1c(CC(=O)NCCCCNC(=O)c2ccc(-c3c4nc(c(-c5c(F)cc(S(=O)(=O)[O-])cc5F)c5ccc([nH]5)c(-c5c(F)cc(S(=O)(=O)[O-])cc5F)c5nc(c(-c6c(F)cc(S(=O)(=O)[O-])cc6F)c6ccc3[nH]6)C=C5)C=C4)cc2)c2ccccc2n1C(=O)c1ccc(Cl)cc1
REMARK SMILES IDX 9 1 8 2 7 3 5 4 6 5 4 7 3 8 1 9 2 10 87 11 81 12 86 13 82 14
REMARK SMILES IDX 85 15 83 16 84 17 88 18 89 19 90 20 91 21 96 22 92 23 95 24
REMARK SMILES IDX 93 25 94 26 10 27 11 28 12 29 13 30 14 32 15 33 16 34 80 35
REMARK SMILES IDX 17 36 79 37 18 38 19 39 20 40 73 41 21 42 78 43 72 44 74 45
REMARK SMILES IDX 22 46 77 47 71 48 70 49 23 51 57 52 36 53 56 54 37 55 40 56
REMARK SMILES IDX 55 57 75 58 38 59 39 60 54 62 76 63 41 64 24 65 25 66 34 67
REMARK SMILES IDX 26 68 27 69 33 70 35 71 28 72 29 73 30 74 31 75 32 76 58 77
REMARK SMILES IDX 59 78 68 79 60 80 61 81 67 82 69 83 62 84 63 85 64 86 65 87
REMARK SMILES IDX 66 88 42 89 43 90 52 91 44 92 45 93 51 94 53 95 46 96 47 97
REMARK SMILES IDX 48 98 49 99 50 100
REMARK H PARENT 7 6 12 31 74 50 40 61
REMARK Flexibility Score: inf
ROOT
ATOM      1  C   UNL A   1      40.517  21.769  26.795  1.00  0.00     0.023 C 
ENDROOT
BRANCH   1   2
ATOM      2  C   UNL A   1      39.146  22.434  26.703  1.00  0.00     0.116 C 
BRANCH   2   3
ATOM      3  N   UNL A   1      38.592  22.361  25.367  1.00  0.00    -0.356 N 
ATOM      4  C   UNL A   1      37.359  21.913  24.990  1.00  0.00     0.224 C 
ATOM      5  O   UNL A   1      37.056  21.957  23.795  1.00  0.00    -0.275 OA
ATOM      6  H   UNL A   1      39.178  22.675  24.640  1.00  0.00     0.163 HD
BRANCH   4   7
ATOM      7  C   UNL A   1      36.368  21.440  26.044  1.00  0.00     0.138 C 
BRANCH   7   8
ATOM      8  C   UNL A   1      34.944  21.423  25.563  1.00  0.00    -0.010 A 
ATOM      9  C   UNL A   1      34.188  23.841  26.166  1.00  0.00     0.065 C 
ATOM     10  C   UNL A   1      34.014  22.455  25.621  1.00  0.00     0.028 A 
ATOM     11  N   UNL A   1      32.784  21.985  25.132  1.00  0.00    -0.280 N 
ATOM     12  C   UNL A   1      34.303  20.316  24.940  1.00  0.00     0.004 A 
ATOM     13  C   UNL A   1      32.999  20.699  24.612  1.00  0.00     0.056 A 
ATOM     14  C   UNL A   1      34.746  19.013  24.613  1.00  0.00     0.010 A 
ATOM     15  C   UNL A   1      32.173  19.817  23.885  1.00  0.00     0.027 A 
ATOM     16  C   UNL A   1      33.895  18.122  23.962  1.00  0.00     0.001 A 
ATOM     17  C   UNL A   1      32.625  18.527  23.591  1.00  0.00     0.002 A 
BRANCH  11  18
ATOM     18  C   UNL A   1      31.555  22.718  25.160  1.00  0.00     0.262 C 
ATOM     19  O   UNL A   1      30.670  22.361  25.918  1.00  0.00    -0.268 OA
BRANCH  18  20
ATOM     20  C   UNL A   1      31.276  23.931  24.368  1.00  0.00     0.040 A 
ATOM     21  C   UNL A   1      31.779  24.095  23.073  1.00  0.00     0.015 A 
ATOM     22  C   UNL A   1      30.508  24.933  24.972  1.00  0.00     0.015 A 
ATOM     23  C   UNL A   1      31.589  25.315  22.417  1.00  0.00     0.021 A 
ATOM     24  C   UNL A   1      30.314  26.143  24.309  1.00  0.00     0.021 A 
ATOM     25  C   UNL A   1      30.874  26.337  23.045  1.00  0.00     0.041 A 
ATOM     26  Cl  UNL A   1      30.695  27.865  22.276  1.00  0.00    -0.084 Cl
ENDBRANCH  18  20
ENDBRANCH  11  18
ENDBRANCH   7   8
ENDBRANCH   4   7
ENDBRANCH   2   3
ENDBRANCH   1   2
BRANCH   1  27
ATOM     27  C   UNL A   1      40.589  20.383  26.136  1.00  0.00     0.023 C 
BRANCH  27  28
ATOM     28  C   UNL A   1      41.855  19.591  26.477  1.00  0.00     0.116 C 
BRANCH  28  29
ATOM     29  N   UNL A   1      42.850  19.637  25.424  1.00  0.00    -0.352 N 
ATOM     30  C   UNL A   1      43.789  20.546  25.028  1.00  0.00     0.251 C 
ATOM     31  H   UNL A   1      42.851  18.825  24.867  1.00  0.00     0.163 HD
ATOM     32  O   UNL A   1      44.559  20.172  24.139  1.00  0.00    -0.269 OA
BRANCH  30  33
ATOM     33  C   UNL A   1      43.908  21.934  25.548  1.00  0.00     0.039 A 
ATOM     34  C   UNL A   1      44.557  22.298  26.728  1.00  0.00     0.014 A 
ATOM     35  C   UNL A   1      43.225  22.928  24.822  1.00  0.00     0.014 A 
ATOM     36  C   UNL A   1      44.442  23.587  27.226  1.00  0.00     0.010 A 
ATOM     37  C   UNL A   1      43.117  24.224  25.310  1.00  0.00     0.010 A 
ATOM     38  C   UNL A   1      43.671  24.530  26.549  1.00  0.00    -0.014 A 
BRANCH  38  39
ATOM     39  C   UNL A   1      43.451  25.803  27.225  1.00  0.00     0.031 A 
ATOM     40  C   UNL A   1      44.471  26.866  26.987  1.00  0.00     0.074 A 
ATOM     41  C   UNL A   1      42.371  26.023  28.000  1.00  0.00     0.049 A 
ATOM     42  N   UNL A   1      45.258  27.441  27.840  1.00  0.00    -0.248 NA
ATOM     43  C   UNL A   1      44.702  27.272  25.593  1.00  0.00     0.031 C 
ATOM     44  C   UNL A   1      41.161  25.206  28.139  1.00  0.00     0.029 A 
ATOM     45  N   UNL A   1      42.094  27.112  28.764  1.00  0.00    -0.354 N 
ATOM     46  C   UNL A   1      45.962  28.409  27.125  1.00  0.00     0.074 A 
ATOM     47  C   UNL A   1      45.667  28.181  25.732  1.00  0.00     0.031 C 
ATOM     48  C   UNL A   1      40.195  25.945  28.728  1.00  0.00     0.029 A 
ATOM     49  C   UNL A   1      40.763  27.219  29.134  1.00  0.00     0.049 A 
ATOM     50  H   UNL A   1      42.777  27.768  29.031  1.00  0.00     0.167 HD
ATOM     51  C   UNL A   1      46.614  29.447  27.722  1.00  0.00     0.037 A 
ATOM     52  C   UNL A   1      40.159  28.322  29.637  1.00  0.00     0.037 A 
ATOM     53  C   UNL A   1      46.840  29.217  29.122  1.00  0.00     0.049 A 
ATOM     54  C   UNL A   1      41.225  29.185  30.215  1.00  0.00     0.074 A 
ATOM     55  C   UNL A   1      47.556  28.288  29.850  1.00  0.00     0.029 A 
ATOM     56  N   UNL A   1      46.016  29.838  30.029  1.00  0.00    -0.354 N 
ATOM     57  N   UNL A   1      41.943  28.862  31.256  1.00  0.00    -0.248 NA
ATOM     58  C   UNL A   1      41.795  30.220  29.365  1.00  0.00     0.031 C 
ATOM     59  C   UNL A   1      46.774  28.053  31.019  1.00  0.00     0.029 A 
ATOM     60  C   UNL A   1      45.652  28.878  30.942  1.00  0.00     0.049 A 
ATOM     61  H   UNL A   1      45.741  30.782  30.026  1.00  0.00     0.167 HD
ATOM     62  C   UNL A   1      43.215  29.346  30.982  1.00  0.00     0.074 A 
ATOM     63  C   UNL A   1      43.041  30.243  29.844  1.00  0.00     0.031 C 
ATOM     64  C   UNL A   1      44.333  28.775  31.524  1.00  0.00     0.037 A 
BRANCH  51  65
ATOM     65  C   UNL A   1      46.788  30.804  27.090  1.00  0.00     0.058 A 
ATOM     66  C   UNL A   1      48.066  31.387  26.995  1.00  0.00     0.135 A 
ATOM     67  C   UNL A   1      45.699  31.662  26.826  1.00  0.00     0.135 A 
ATOM     68  F   UNL A   1      49.169  30.662  27.243  1.00  0.00    -0.206 F 
ATOM     69  C   UNL A   1      48.246  32.743  26.711  1.00  0.00     0.059 A 
ATOM     70  C   UNL A   1      45.856  33.002  26.492  1.00  0.00     0.059 A 
ATOM     71  F   UNL A   1      44.429  31.259  26.979  1.00  0.00    -0.206 F 
ATOM     72  C   UNL A   1      47.130  33.545  26.479  1.00  0.00     0.060 A 
BRANCH  72  73
ATOM     73  S   UNL A   1      47.350  35.319  26.248  1.00  0.00     0.124 S 
ATOM     74  O   UNL A   1      48.466  35.354  25.310  1.00  0.00    -0.237 OA
ATOM     75  O   UNL A   1      46.052  35.720  25.713  1.00  0.00    -0.237 OA
ATOM     76  O   UNL A   1      47.641  35.801  27.595  1.00  0.00    -0.744 OA
ENDBRANCH  72  73
ENDBRANCH  51  65
BRANCH  52  77
ATOM     77  C   UNL A   1      38.824  28.840  29.238  1.00  0.00     0.058 A 
ATOM     78  C   UNL A   1      37.825  29.088  30.193  1.00  0.00     0.135 A 
ATOM     79  C   UNL A   1      38.593  29.359  27.945  1.00  0.00     0.135 A 
ATOM     80  F   UNL A   1      37.977  28.657  31.454  1.00  0.00    -0.206 F 
ATOM     81  C   UNL A   1      36.681  29.837  29.894  1.00  0.00     0.059 A 
ATOM     82  C   UNL A   1      37.457  30.095  27.621  1.00  0.00     0.059 A 
ATOM     83  F   UNL A   1      39.512  29.245  26.975  1.00  0.00    -0.206 F 
ATOM     84  C   UNL A   1      36.516  30.353  28.608  1.00  0.00     0.060 A 
BRANCH  84  85
ATOM     85  S   UNL A   1      35.126  31.456  28.262  1.00  0.00     0.124 S 
ATOM     86  O   UNL A   1      35.780  32.551  27.554  1.00  0.00    -0.237 OA
ATOM     87  O   UNL A   1      34.254  30.606  27.459  1.00  0.00    -0.237 OA
ATOM     88  O   UNL A   1      34.617  31.788  29.591  1.00  0.00    -0.744 OA
ENDBRANCH  84  85
ENDBRANCH  52  77
BRANCH  64  89
ATOM     89  C   UNL A   1      44.158  27.760  32.625  1.00  0.00     0.058 A 
ATOM     90  C   UNL A   1      43.953  28.099  33.974  1.00  0.00     0.135 A 
ATOM     91  C   UNL A   1      44.018  26.408  32.278  1.00  0.00     0.135 A 
ATOM     92  F   UNL A   1      43.958  29.380  34.370  1.00  0.00    -0.206 F 
ATOM     93  C   UNL A   1      43.660  27.137  34.941  1.00  0.00     0.059 A 
ATOM     94  C   UNL A   1      43.697  25.433  33.221  1.00  0.00     0.059 A 
ATOM     95  F   UNL A   1      44.134  26.027  30.995  1.00  0.00    -0.206 F 
ATOM     96  C   UNL A   1      43.529  25.803  34.553  1.00  0.00     0.060 A 
BRANCH  96  97
ATOM     97  S   UNL A   1      43.054  24.578  35.794  1.00  0.00     0.124 S 
ATOM     98  O   UNL A   1      42.018  23.823  35.100  1.00  0.00    -0.237 OA
ATOM     99  O   UNL A   1      44.306  23.863  36.030  1.00  0.00    -0.237 OA
ATOM    100  O   UNL A   1      42.590  25.390  36.916  1.00  0.00    -0.744 OA
ENDBRANCH  96  97
ENDBRANCH  64  89
ENDBRANCH  38  39
ENDBRANCH  30  33
ENDBRANCH  28  29
ENDBRANCH  27  28
ENDBRANCH   1  27
TORSDOF 17
ENDMDL
MODEL 3
REMARK VINA RESULT:     -13.0      3.347      9.771
REMARK SMILES Cc1c(CC(=O)NCCCCNC(=O)c2ccc(-c3c4nc(c(-c5c(F)cc(S(=O)(=O)[O-])cc5F)c5ccc([nH]5)c(-c5c(F)cc(S(=O)(=O)[O-])cc5F)c5nc(c(-c6c(F)cc(S(=O)(=O)[O-])cc6F)c6ccc3[nH]6)C=C5)C=C4)cc2)c2ccccc2n1C(=O)c1ccc(Cl)cc1
REMARK SMILES IDX 9 1 8 2 7 3 5 4 6 5 4 7 3 8 1 9 2 10 87 11 81 12 86 13 82 14
REMARK SMILES IDX 85 15 83 16 84 17 88 18 89 19 90 20 91 21 96 22 92 23 95 24
REMARK SMILES IDX 93 25 94 26 10 27 11 28 12 29 13 30 14 32 15 33 16 34 80 35
REMARK SMILES IDX 17 36 79 37 18 38 19 39 20 40 73 41 21 42 78 43 72 44 74 45
REMARK SMILES IDX 22 46 77 47 71 48 70 49 23 51 57 52 36 53 56 54 37 55 40 56
REMARK SMILES IDX 55 57 75 58 38 59 39 60 54 62 76 63 41 64 24 65 25 66 34 67
REMARK SMILES IDX 26 68 27 69 33 70 35 71 28 72 29 73 30 74 31 75 32 76 58 77
REMARK SMILES IDX 59 78 68 79 60 80 61 81 67 82 69 83 62 84 63 85 64 86 65 87
REMARK SMILES IDX 66 88 42 89 43 90 52 91 44 92 45 93 51 94 53 95 46 96 47 97
REMARK SMILES IDX 48 98 49 99 50 100
REMARK H PARENT 7 6 12 31 74 50 40 61
REMARK Flexibility Score: inf
ROOT
ATOM      1  C   UNL A   1      32.328  27.409  25.984  1.00  0.00     0.023 C 
ENDROOT
BRANCH   1   2
ATOM      2  C   UNL A   1      31.040  26.609  26.157  1.00  0.00     0.116 C 
BRANCH   2   3
ATOM      3  N   UNL A   1      30.727  25.817  24.985  1.00  0.00    -0.356 N 
ATOM      4  C   UNL A   1      30.971  24.490  24.777  1.00  0.00     0.224 C 
ATOM      5  O   UNL A   1      30.600  23.983  23.715  1.00  0.00    -0.275 OA
ATOM      6  H   UNL A   1      30.282  26.295  24.249  1.00  0.00     0.163 HD
BRANCH   4   7
ATOM      7  C   UNL A   1      31.624  23.656  25.870  1.00  0.00     0.138 C 
BRANCH   7   8
ATOM      8  C   UNL A   1      32.901  22.993  25.436  1.00  0.00    -0.010 A 
ATOM      9  C   UNL A   1      34.538  25.018  25.438  1.00  0.00     0.065 C 
ATOM     10  C   UNL A   1      34.146  23.584  25.251  1.00  0.00     0.028 A 
ATOM     11  N   UNL A   1      35.040  22.614  24.768  1.00  0.00    -0.280 N 
ATOM     12  C   UNL A   1      33.048  21.606  25.151  1.00  0.00     0.004 A 
ATOM     13  C   UNL A   1      34.385  21.373  24.814  1.00  0.00     0.056 A 
ATOM     14  C   UNL A   1      32.138  20.524  25.171  1.00  0.00     0.010 A 
ATOM     15  C   UNL A   1      34.828  20.054  24.585  1.00  0.00     0.027 A 
ATOM     16  C   UNL A   1      32.572  19.234  24.868  1.00  0.00     0.001 A 
ATOM     17  C   UNL A   1      33.907  19.002  24.590  1.00  0.00     0.002 A 
BRANCH  11  18
ATOM     18  C   UNL A   1      36.378  22.875  24.332  1.00  0.00     0.262 C 
ATOM     19  O   UNL A   1      36.561  23.301  23.205  1.00  0.00    -0.268 OA
BRANCH  18  20
ATOM     20  C   UNL A   1      37.585  22.718  25.166  1.00  0.00     0.040 A 
ATOM     21  C   UNL A   1      38.252  21.492  25.270  1.00  0.00     0.015 A 
ATOM     22  C   UNL A   1      38.027  23.838  25.878  1.00  0.00     0.015 A 
ATOM     23  C   UNL A   1      39.315  21.368  26.170  1.00  0.00     0.021 A 
ATOM     24  C   UNL A   1      39.092  23.710  26.768  1.00  0.00     0.021 A 
ATOM     25  C   UNL A   1      39.717  22.471  26.926  1.00  0.00     0.041 A 
ATOM     26  Cl  UNL A   1      40.975  22.311  28.086  1.00  0.00    -0.084 Cl
ENDBRANCH  18  20
ENDBRANCH  11  18
ENDBRANCH   7   8
ENDBRANCH   4   7
ENDBRANCH   2   3
ENDBRANCH   1   2
BRANCH   1  27
ATOM     27  C   UNL A   1      32.630  28.374  27.141  1.00  0.00     0.023 C 
BRANCH  27  28
ATOM     28  C   UNL A   1      33.436  29.610  26.733  1.00  0.00     0.116 C 
BRANCH  28  29
ATOM     29  N   UNL A   1      33.571  30.576  27.805  1.00  0.00    -0.352 N 
ATOM     30  C   UNL A   1      34.626  31.119  28.482  1.00  0.00     0.251 C 
ATOM     31  H   UNL A   1      32.703  30.921  28.116  1.00  0.00     0.163 HD
ATOM     32  O   UNL A   1      34.348  32.027  29.270  1.00  0.00    -0.269 OA
BRANCH  30  33
ATOM     33  C   UNL A   1      36.038  30.666  28.370  1.00  0.00     0.039 A 
ATOM     34  C   UNL A   1      36.444  29.385  27.995  1.00  0.00     0.014 A 
ATOM     35  C   UNL A   1      37.019  31.594  28.768  1.00  0.00     0.014 A 
ATOM     36  C   UNL A   1      37.773  29.005  28.112  1.00  0.00     0.010 A 
ATOM     37  C   UNL A   1      38.353  31.221  28.876  1.00  0.00     0.010 A 
ATOM     38  C   UNL A   1      38.713  29.903  28.611  1.00  0.00    -0.014 A 
BRANCH  38  39
ATOM     39  C   UNL A   1      40.046  29.376  28.875  1.00  0.00     0.031 A 
ATOM     40  C   UNL A   1      40.401  29.154  30.307  1.00  0.00     0.074 A 
ATOM     41  C   UNL A   1      40.906  29.076  27.882  1.00  0.00     0.049 A 
ATOM     42  N   UNL A   1      41.335  29.714  31.008  1.00  0.00    -0.248 NA
ATOM     43  C   UNL A   1      39.534  28.251  31.079  1.00  0.00     0.031 C 
ATOM     44  C   UNL A   1      40.646  28.985  26.441  1.00  0.00     0.029 A 
ATOM     45  N   UNL A   1      42.202  28.679  27.983  1.00  0.00    -0.354 N 
ATOM     46  C   UNL A   1      41.292  29.108  32.264  1.00  0.00     0.074 A 
ATOM     47  C   UNL A   1      40.095  28.304  32.287  1.00  0.00     0.031 C 
ATOM     48  C   UNL A   1      41.665  28.325  25.849  1.00  0.00     0.029 A 
ATOM     49  C   UNL A   1      42.702  28.082  26.837  1.00  0.00     0.049 A 
ATOM     50  H   UNL A   1      42.738  28.804  28.799  1.00  0.00     0.167 HD
ATOM     51  C   UNL A   1      42.324  29.165  33.152  1.00  0.00     0.037 A 
ATOM     52  C   UNL A   1      43.838  27.351  26.748  1.00  0.00     0.037 A 
ATOM     53  C   UNL A   1      43.254  30.216  32.844  1.00  0.00     0.049 A 
ATOM     54  C   UNL A   1      44.702  27.734  27.897  1.00  0.00     0.074 A 
ATOM     55  C   UNL A   1      43.176  31.592  32.776  1.00  0.00     0.029 A 
ATOM     56  N   UNL A   1      44.434  29.885  32.223  1.00  0.00    -0.354 N 
ATOM     57  N   UNL A   1      45.240  28.914  28.045  1.00  0.00    -0.248 NA
ATOM     58  C   UNL A   1      44.610  26.936  29.111  1.00  0.00     0.031 C 
ATOM     59  C   UNL A   1      44.031  31.958  31.696  1.00  0.00     0.029 A 
ATOM     60  C   UNL A   1      44.599  30.784  31.199  1.00  0.00     0.049 A 
ATOM     61  H   UNL A   1      45.041  29.149  32.464  1.00  0.00     0.167 HD
ATOM     62  C   UNL A   1      45.184  29.168  29.409  1.00  0.00     0.074 A 
ATOM     63  C   UNL A   1      44.863  27.881  30.020  1.00  0.00     0.031 C 
ATOM     64  C   UNL A   1      45.136  30.442  29.901  1.00  0.00     0.037 A 
BRANCH  51  65
ATOM     65  C   UNL A   1      42.643  28.072  34.139  1.00  0.00     0.058 A 
ATOM     66  C   UNL A   1      42.613  28.331  35.524  1.00  0.00     0.135 A 
ATOM     67  C   UNL A   1      43.244  26.854  33.755  1.00  0.00     0.135 A 
ATOM     68  F   UNL A   1      42.079  29.469  35.995  1.00  0.00    -0.206 F 
ATOM     69  C   UNL A   1      43.190  27.465  36.455  1.00  0.00     0.059 A 
ATOM     70  C   UNL A   1      43.779  25.953  34.668  1.00  0.00     0.059 A 
ATOM     71  F   UNL A   1      43.426  26.534  32.465  1.00  0.00    -0.206 F 
ATOM     72  C   UNL A   1      43.787  26.286  36.012  1.00  0.00     0.060 A 
BRANCH  72  73
ATOM     73  S   UNL A   1      44.651  25.234  37.194  1.00  0.00     0.124 S 
ATOM     74  O   UNL A   1      43.915  25.513  38.422  1.00  0.00    -0.237 OA
ATOM     75  O   UNL A   1      44.458  23.907  36.619  1.00  0.00    -0.237 OA
ATOM     76  O   UNL A   1      46.021  25.735  37.152  1.00  0.00    -0.744 OA
ENDBRANCH  72  73
ENDBRANCH  51  65
BRANCH  52  77
ATOM     77  C   UNL A   1      43.989  26.068  26.012  1.00  0.00     0.058 A 
ATOM     78  C   UNL A   1      45.175  25.757  25.327  1.00  0.00     0.135 A 
ATOM     79  C   UNL A   1      43.076  25.005  26.191  1.00  0.00     0.135 A 
ATOM     80  F   UNL A   1      46.111  26.700  25.139  1.00  0.00    -0.206 F 
ATOM     81  C   UNL A   1      45.457  24.461  24.880  1.00  0.00     0.059 A 
ATOM     82  C   UNL A   1      43.329  23.712  25.742  1.00  0.00     0.059 A 
ATOM     83  F   UNL A   1      41.945  25.170  26.892  1.00  0.00    -0.206 F 
ATOM     84  C   UNL A   1      44.534  23.441  25.109  1.00  0.00     0.060 A 
BRANCH  84  85
ATOM     85  S   UNL A   1      44.963  21.738  24.680  1.00  0.00     0.124 S 
ATOM     86  O   UNL A   1      46.413  21.744  24.839  1.00  0.00    -0.237 OA
ATOM     87  O   UNL A   1      44.215  20.975  25.673  1.00  0.00    -0.237 OA
ATOM     88  O   UNL A   1      44.486  21.604  23.306  1.00  0.00    -0.744 OA
ENDBRANCH  84  85
ENDBRANCH  52  77
BRANCH  64  89
ATOM     89  C   UNL A   1      45.394  31.587  28.954  1.00  0.00     0.058 A 
ATOM     90  C   UNL A   1      46.679  32.056  28.628  1.00  0.00     0.135 A 
ATOM     91  C   UNL A   1      44.319  32.109  28.219  1.00  0.00     0.135 A 
ATOM     92  F   UNL A   1      47.770  31.531  29.203  1.00  0.00    -0.206 F 
ATOM     93  C   UNL A   1      46.883  33.026  27.646  1.00  0.00     0.059 A 
ATOM     94  C   UNL A   1      44.502  33.056  27.213  1.00  0.00     0.059 A 
ATOM     95  F   UNL A   1      43.073  31.652  28.434  1.00  0.00    -0.206 F 
ATOM     96  C   UNL A   1      45.787  33.517  26.939  1.00  0.00     0.060 A 
BRANCH  96  97
ATOM     97  S   UNL A   1      46.071  34.700  25.603  1.00  0.00     0.124 S 
ATOM     98  O   UNL A   1      45.157  34.225  24.571  1.00  0.00    -0.237 OA
ATOM     99  O   UNL A   1      45.715  35.974  26.224  1.00  0.00    -0.237 OA
ATOM    100  O   UNL A   1      47.492  34.541  25.301  1.00  0.00    -0.744 OA
ENDBRANCH  96  97
ENDBRANCH  64  89
ENDBRANCH  38  39
ENDBRANCH  30  33
ENDBRANCH  28  29
ENDBRANCH  27  28
ENDBRANCH   1  27
TORSDOF 17
ENDMDL
