MODEL 1
REMARK VINA RESULT:     -11.1      0.000      0.000
REMARK SMILES Cc1nc(Nc2ccc(F)cc2)nc(OCC(=O)NCCCCNC(=O)c2ccc(-c3c4nc(c(-c5c(F)cc(S(=O)(=O)[O-])cc5F)c5ccc([nH]5)c(-c5c(F)cc(S(=O)(=O)[O-])cc5F)c5nc(c(-c6c(F)cc(S(=O)(=O)[O-])cc6F)c6ccc3[nH]6)C=C5)C=C4)cc2)c1CCO
REMARK SMILES IDX 20 1 19 2 17 3 18 4 16 6 15 7 14 8 1 9 2 10 3 11 93 12 4 13
REMARK SMILES IDX 13 14 94 15 95 16 96 17 5 19 6 21 7 22 12 23 8 24 11 25 9 26
REMARK SMILES IDX 10 27 21 28 22 29 23 30 24 31 25 32 26 34 27 35 28 36 92 37
REMARK SMILES IDX 29 38 91 39 30 40 31 41 32 42 85 43 33 44 90 45 84 46 86 47
REMARK SMILES IDX 34 48 89 49 83 50 82 51 35 53 69 54 48 55 68 56 49 57 52 58
REMARK SMILES IDX 67 59 87 60 50 61 51 62 66 64 88 65 53 66 36 67 37 68 46 69
REMARK SMILES IDX 38 70 39 71 45 72 47 73 40 74 41 75 42 76 43 77 44 78 70 79
REMARK SMILES IDX 71 80 80 81 72 82 73 83 79 84 81 85 74 86 75 87 76 88 77 89
REMARK SMILES IDX 78 90 54 91 55 92 64 93 56 94 57 95 63 96 65 97 58 98 59 99
REMARK SMILES IDX 60 100 61 101 62 102
REMARK H PARENT 19 5 96 18 5 20 24 33 86 52 52 63
REMARK Flexibility Score: inf
ROOT
ATOM      1  C   UNL A   1      31.650  25.739  25.725  1.00  0.00     0.116 C 
ENDROOT
BRANCH   1   2
ATOM      2  N   UNL A   1      31.143  24.855  26.751  1.00  0.00    -0.353 N 
ATOM      3  C   UNL A   1      30.697  23.579  26.628  1.00  0.00     0.258 C 
ATOM      4  O   UNL A   1      30.365  22.983  27.655  1.00  0.00    -0.271 OA
ATOM      5  H   UNL A   1      31.118  25.230  27.661  1.00  0.00     0.163 HD
BRANCH   3   6
ATOM      6  C   UNL A   1      30.692  22.897  25.252  1.00  0.00     0.331 C 
BRANCH   6   7
ATOM      7  O   UNL A   1      31.722  22.029  24.831  1.00  0.00    -0.467 OA
BRANCH   7   8
ATOM      8  C   UNL A   1      32.852  22.473  24.217  1.00  0.00     0.222 A 
ATOM      9  C   UNL A   1      36.600  22.681  23.914  1.00  0.00     0.067 C 
ATOM     10  C   UNL A   1      35.116  22.819  23.748  1.00  0.00     0.050 A 
ATOM     11  N   UNL A   1      34.779  23.642  22.739  1.00  0.00    -0.218 NA
ATOM     12  C   UNL A   1      34.171  22.252  24.602  1.00  0.00     0.038 A 
ATOM     13  C   UNL A   1      33.495  23.933  22.545  1.00  0.00     0.230 A 
ATOM     14  N   UNL A   1      32.516  23.344  23.236  1.00  0.00    -0.177 NA
BRANCH  12  15
ATOM     15  C   UNL A   1      34.603  21.591  25.885  1.00  0.00     0.071 C 
BRANCH  15  16
ATOM     16  C   UNL A   1      34.236  22.372  27.152  1.00  0.00     0.161 C 
BRANCH  16  17
ATOM     17  O   UNL A   1      33.200  21.765  27.912  1.00  0.00    -0.396 OA
ATOM     18  H   UNL A   1      32.478  21.503  27.322  1.00  0.00     0.210 HD
ENDBRANCH  16  17
ENDBRANCH  15  16
ENDBRANCH  12  15
BRANCH  13  19
ATOM     19  N   UNL A   1      33.158  24.997  21.706  1.00  0.00    -0.324 N 
ATOM     20  H   UNL A   1      33.325  24.865  20.745  1.00  0.00     0.170 HD
BRANCH  19  21
ATOM     21  C   UNL A   1      32.607  26.233  22.075  1.00  0.00     0.041 A 
ATOM     22  C   UNL A   1      33.417  27.281  22.540  1.00  0.00     0.029 A 
ATOM     23  C   UNL A   1      31.214  26.399  22.122  1.00  0.00     0.029 A 
ATOM     24  C   UNL A   1      32.861  28.466  23.027  1.00  0.00     0.041 A 
ATOM     25  C   UNL A   1      30.652  27.576  22.630  1.00  0.00     0.041 A 
ATOM     26  C   UNL A   1      31.481  28.597  23.079  1.00  0.00     0.123 A 
ATOM     27  F   UNL A   1      30.940  29.716  23.581  1.00  0.00    -0.207 F 
ENDBRANCH  19  21
ENDBRANCH  13  19
ENDBRANCH   7   8
ENDBRANCH   6   7
ENDBRANCH   3   6
ENDBRANCH   1   2
BRANCH   1  28
ATOM     28  C   UNL A   1      32.942  26.425  26.151  1.00  0.00     0.023 C 
BRANCH  28  29
ATOM     29  C   UNL A   1      32.769  27.794  26.814  1.00  0.00     0.023 C 
BRANCH  29  30
ATOM     30  C   UNL A   1      33.930  28.769  26.648  1.00  0.00     0.116 C 
BRANCH  30  31
ATOM     31  N   UNL A   1      33.748  30.013  27.376  1.00  0.00    -0.352 N 
ATOM     32  C   UNL A   1      34.627  30.657  28.213  1.00  0.00     0.251 C 
ATOM     33  H   UNL A   1      32.877  30.455  27.253  1.00  0.00     0.163 HD
ATOM     34  O   UNL A   1      34.273  31.664  28.819  1.00  0.00    -0.269 OA
BRANCH  32  35
ATOM     35  C   UNL A   1      35.982  30.102  28.412  1.00  0.00     0.039 A 
ATOM     36  C   UNL A   1      36.881  30.132  27.344  1.00  0.00     0.014 A 
ATOM     37  C   UNL A   1      36.374  29.593  29.654  1.00  0.00     0.014 A 
ATOM     38  C   UNL A   1      38.198  29.714  27.540  1.00  0.00     0.010 A 
ATOM     39  C   UNL A   1      37.705  29.244  29.865  1.00  0.00     0.010 A 
ATOM     40  C   UNL A   1      38.631  29.303  28.813  1.00  0.00    -0.014 A 
BRANCH  40  41
ATOM     41  C   UNL A   1      40.050  28.939  29.057  1.00  0.00     0.031 A 
ATOM     42  C   UNL A   1      40.988  29.934  29.680  1.00  0.00     0.074 A 
ATOM     43  C   UNL A   1      40.502  27.727  28.677  1.00  0.00     0.049 A 
ATOM     44  N   UNL A   1      42.269  29.821  29.921  1.00  0.00    -0.248 NA
ATOM     45  C   UNL A   1      40.419  31.236  30.063  1.00  0.00     0.031 C 
ATOM     46  C   UNL A   1      39.695  26.688  28.030  1.00  0.00     0.029 A 
ATOM     47  N   UNL A   1      41.748  27.162  28.777  1.00  0.00    -0.354 N 
ATOM     48  C   UNL A   1      42.659  31.033  30.479  1.00  0.00     0.074 A 
ATOM     49  C   UNL A   1      41.492  31.889  30.485  1.00  0.00     0.031 C 
ATOM     50  C   UNL A   1      40.457  25.602  27.827  1.00  0.00     0.029 A 
ATOM     51  C   UNL A   1      41.814  25.878  28.287  1.00  0.00     0.049 A 
ATOM     52  H   UNL A   1      42.523  27.631  29.163  1.00  0.00     0.167 HD
ATOM     53  C   UNL A   1      43.869  31.389  30.969  1.00  0.00     0.037 A 
ATOM     54  C   UNL A   1      42.851  25.019  28.217  1.00  0.00     0.037 A 
ATOM     55  C   UNL A   1      45.020  30.523  30.979  1.00  0.00     0.049 A 
ATOM     56  C   UNL A   1      44.193  25.446  28.745  1.00  0.00     0.074 A 
ATOM     57  C   UNL A   1      46.281  30.780  31.484  1.00  0.00     0.029 A 
ATOM     58  N   UNL A   1      45.048  29.234  30.466  1.00  0.00    -0.354 N 
ATOM     59  N   UNL A   1      44.535  26.584  29.301  1.00  0.00    -0.248 NA
ATOM     60  C   UNL A   1      45.292  24.475  28.637  1.00  0.00     0.031 C 
ATOM     61  C   UNL A   1      47.085  29.661  31.241  1.00  0.00     0.029 A 
ATOM     62  C   UNL A   1      46.311  28.689  30.628  1.00  0.00     0.049 A 
ATOM     63  H   UNL A   1      44.284  28.775  30.048  1.00  0.00     0.167 HD
ATOM     64  C   UNL A   1      45.879  26.458  29.630  1.00  0.00     0.074 A 
ATOM     65  C   UNL A   1      46.287  25.130  29.221  1.00  0.00     0.031 C 
ATOM     66  C   UNL A   1      46.701  27.362  30.218  1.00  0.00     0.037 A 
BRANCH  53  67
ATOM     67  C   UNL A   1      44.008  32.766  31.555  1.00  0.00     0.058 A 
ATOM     68  C   UNL A   1      44.427  33.846  30.761  1.00  0.00     0.135 A 
ATOM     69  C   UNL A   1      43.776  33.008  32.919  1.00  0.00     0.135 A 
ATOM     70  F   UNL A   1      44.657  33.673  29.450  1.00  0.00    -0.206 F 
ATOM     71  C   UNL A   1      44.619  35.114  31.301  1.00  0.00     0.059 A 
ATOM     72  C   UNL A   1      43.935  34.274  33.475  1.00  0.00     0.059 A 
ATOM     73  F   UNL A   1      43.353  32.015  33.718  1.00  0.00    -0.206 F 
ATOM     74  C   UNL A   1      44.370  35.318  32.659  1.00  0.00     0.060 A 
BRANCH  74  75
ATOM     75  S   UNL A   1      44.587  36.977  33.337  1.00  0.00     0.124 S 
ATOM     76  O   UNL A   1      45.662  36.770  34.301  1.00  0.00    -0.237 OA
ATOM     77  O   UNL A   1      44.936  37.750  32.148  1.00  0.00    -0.237 OA
ATOM     78  O   UNL A   1      43.279  37.282  33.908  1.00  0.00    -0.744 OA
ENDBRANCH  74  75
ENDBRANCH  53  67
BRANCH  54  79
ATOM     79  C   UNL A   1      42.643  23.656  27.660  1.00  0.00     0.058 A 
ATOM     80  C   UNL A   1      42.425  22.549  28.494  1.00  0.00     0.135 A 
ATOM     81  C   UNL A   1      42.702  23.430  26.277  1.00  0.00     0.135 A 
ATOM     82  F   UNL A   1      42.369  22.708  29.825  1.00  0.00    -0.206 F 
ATOM     83  C   UNL A   1      42.301  21.263  27.979  1.00  0.00     0.059 A 
ATOM     84  C   UNL A   1      42.556  22.156  25.735  1.00  0.00     0.059 A 
ATOM     85  F   UNL A   1      42.896  24.460  25.439  1.00  0.00    -0.206 F 
ATOM     86  C   UNL A   1      42.374  21.076  26.598  1.00  0.00     0.060 A 
BRANCH  86  87
ATOM     87  S   UNL A   1      42.234  19.396  25.950  1.00  0.00     0.124 S 
ATOM     88  O   UNL A   1      40.796  19.290  25.726  1.00  0.00    -0.237 OA
ATOM     89  O   UNL A   1      43.061  19.463  24.750  1.00  0.00    -0.237 OA
ATOM     90  O   UNL A   1      42.764  18.572  27.031  1.00  0.00    -0.744 OA
ENDBRANCH  86  87
ENDBRANCH  54  79
BRANCH  66  91
ATOM     91  C   UNL A   1      48.123  26.950  30.478  1.00  0.00     0.058 A 
ATOM     92  C   UNL A   1      48.481  26.367  31.705  1.00  0.00     0.135 A 
ATOM     93  C   UNL A   1      49.144  27.209  29.552  1.00  0.00     0.135 A 
ATOM     94  F   UNL A   1      47.543  26.103  32.629  1.00  0.00    -0.206 F 
ATOM     95  C   UNL A   1      49.805  26.079  32.013  1.00  0.00     0.059 A 
ATOM     96  C   UNL A   1      50.474  26.903  29.828  1.00  0.00     0.059 A 
ATOM     97  F   UNL A   1      48.852  27.753  28.360  1.00  0.00    -0.206 F 
ATOM     98  C   UNL A   1      50.797  26.354  31.069  1.00  0.00     0.060 A 
BRANCH  98  99
ATOM     99  S   UNL A   1      52.510  25.972  31.486  1.00  0.00     0.124 S 
ATOM    100  O   UNL A   1      52.395  24.618  32.016  1.00  0.00    -0.237 OA
ATOM    101  O   UNL A   1      53.177  26.093  30.192  1.00  0.00    -0.237 OA
ATOM    102  O   UNL A   1      52.860  27.001  32.461  1.00  0.00    -0.744 OA
ENDBRANCH  98  99
ENDBRANCH  66  91
ENDBRANCH  40  41
ENDBRANCH  32  35
ENDBRANCH  30  31
ENDBRANCH  29  30
ENDBRANCH  28  29
ENDBRANCH   1  28
TORSDOF 21
ENDMDL
MODEL 2
REMARK VINA RESULT:     -11.0      0.409      8.091
REMARK SMILES Cc1nc(Nc2ccc(F)cc2)nc(OCC(=O)NCCCCNC(=O)c2ccc(-c3c4nc(c(-c5c(F)cc(S(=O)(=O)[O-])cc5F)c5ccc([nH]5)c(-c5c(F)cc(S(=O)(=O)[O-])cc5F)c5nc(c(-c6c(F)cc(S(=O)(=O)[O-])cc6F)c6ccc3[nH]6)C=C5)C=C4)cc2)c1CCO
REMARK SMILES IDX 20 1 19 2 17 3 18 4 16 6 15 7 14 8 1 9 2 10 3 11 93 12 4 13
REMARK SMILES IDX 13 14 94 15 95 16 96 17 5 19 6 21 7 22 12 23 8 24 11 25 9 26
REMARK SMILES IDX 10 27 21 28 22 29 23 30 24 31 25 32 26 34 27 35 28 36 92 37
REMARK SMILES IDX 29 38 91 39 30 40 31 41 32 42 85 43 33 44 90 45 84 46 86 47
REMARK SMILES IDX 34 48 89 49 83 50 82 51 35 53 69 54 48 55 68 56 49 57 52 58
REMARK SMILES IDX 67 59 87 60 50 61 51 62 66 64 88 65 53 66 36 67 37 68 46 69
REMARK SMILES IDX 38 70 39 71 45 72 47 73 40 74 41 75 42 76 43 77 44 78 70 79
REMARK SMILES IDX 71 80 80 81 72 82 73 83 79 84 81 85 74 86 75 87 76 88 77 89
REMARK SMILES IDX 78 90 54 91 55 92 64 93 56 94 57 95 63 96 65 97 58 98 59 99
REMARK SMILES IDX 60 100 61 101 62 102
REMARK H PARENT 19 5 96 18 5 20 24 33 86 52 52 63
REMARK Flexibility Score: inf
ROOT
ATOM      1  C   UNL A   1      31.423  25.716  25.800  1.00  0.00     0.116 C 
ENDROOT
BRANCH   1   2
ATOM      2  N   UNL A   1      30.903  24.800  26.790  1.00  0.00    -0.353 N 
ATOM      3  C   UNL A   1      30.601  23.483  26.654  1.00  0.00     0.258 C 
ATOM      4  O   UNL A   1      30.225  22.872  27.656  1.00  0.00    -0.271 OA
ATOM      5  H   UNL A   1      30.747  25.184  27.683  1.00  0.00     0.163 HD
BRANCH   3   6
ATOM      6  C   UNL A   1      30.806  22.785  25.301  1.00  0.00     0.331 C 
BRANCH   6   7
ATOM      7  O   UNL A   1      31.919  21.960  25.034  1.00  0.00    -0.467 OA
BRANCH   7   8
ATOM      8  C   UNL A   1      33.023  22.406  24.375  1.00  0.00     0.222 A 
ATOM      9  C   UNL A   1      36.756  22.667  23.952  1.00  0.00     0.067 C 
ATOM     10  C   UNL A   1      35.265  22.776  23.827  1.00  0.00     0.050 A 
ATOM     11  N   UNL A   1      34.883  23.565  22.808  1.00  0.00    -0.218 NA
ATOM     12  C   UNL A   1      34.356  22.217  24.725  1.00  0.00     0.038 A 
ATOM     13  C   UNL A   1      33.589  23.829  22.645  1.00  0.00     0.230 A 
ATOM     14  N   UNL A   1      32.642  23.244  23.381  1.00  0.00    -0.177 NA
BRANCH  12  15
ATOM     15  C   UNL A   1      34.837  21.599  26.012  1.00  0.00     0.071 C 
BRANCH  15  16
ATOM     16  C   UNL A   1      34.326  22.296  27.277  1.00  0.00     0.161 C 
BRANCH  16  17
ATOM     17  O   UNL A   1      33.167  21.687  27.831  1.00  0.00    -0.396 OA
ATOM     18  H   UNL A   1      32.586  22.371  28.196  1.00  0.00     0.210 HD
ENDBRANCH  16  17
ENDBRANCH  15  16
ENDBRANCH  12  15
BRANCH  13  19
ATOM     19  N   UNL A   1      33.209  24.865  21.788  1.00  0.00    -0.324 N 
ATOM     20  H   UNL A   1      33.336  24.703  20.825  1.00  0.00     0.170 HD
BRANCH  19  21
ATOM     21  C   UNL A   1      32.667  26.109  22.142  1.00  0.00     0.041 A 
ATOM     22  C   UNL A   1      33.481  27.147  22.622  1.00  0.00     0.029 A 
ATOM     23  C   UNL A   1      31.276  26.294  22.157  1.00  0.00     0.029 A 
ATOM     24  C   UNL A   1      32.930  28.340  23.094  1.00  0.00     0.041 A 
ATOM     25  C   UNL A   1      30.719  27.479  22.649  1.00  0.00     0.041 A 
ATOM     26  C   UNL A   1      31.551  28.491  23.114  1.00  0.00     0.123 A 
ATOM     27  F   UNL A   1      31.014  29.618  23.601  1.00  0.00    -0.207 F 
ENDBRANCH  19  21
ENDBRANCH  13  19
ENDBRANCH   7   8
ENDBRANCH   6   7
ENDBRANCH   3   6
ENDBRANCH   1   2
BRANCH   1  28
ATOM     28  C   UNL A   1      32.732  26.354  26.246  1.00  0.00     0.023 C 
BRANCH  28  29
ATOM     29  C   UNL A   1      32.617  27.790  26.767  1.00  0.00     0.023 C 
BRANCH  29  30
ATOM     30  C   UNL A   1      33.931  28.488  27.099  1.00  0.00     0.116 C 
BRANCH  30  31
ATOM     31  N   UNL A   1      33.754  29.822  27.647  1.00  0.00    -0.352 N 
ATOM     32  C   UNL A   1      34.665  30.609  28.309  1.00  0.00     0.251 C 
ATOM     33  H   UNL A   1      32.859  30.217  27.527  1.00  0.00     0.163 HD
ATOM     34  O   UNL A   1      34.316  31.686  28.785  1.00  0.00    -0.269 OA
BRANCH  32  35
ATOM     35  C   UNL A   1      36.051  30.128  28.485  1.00  0.00     0.039 A 
ATOM     36  C   UNL A   1      36.932  30.218  27.405  1.00  0.00     0.014 A 
ATOM     37  C   UNL A   1      36.488  29.630  29.716  1.00  0.00     0.014 A 
ATOM     38  C   UNL A   1      38.272  29.871  27.580  1.00  0.00     0.010 A 
ATOM     39  C   UNL A   1      37.839  29.353  29.906  1.00  0.00     0.010 A 
ATOM     40  C   UNL A   1      38.745  29.473  28.842  1.00  0.00    -0.014 A 
BRANCH  40  41
ATOM     41  C   UNL A   1      40.186  29.185  29.064  1.00  0.00     0.031 A 
ATOM     42  C   UNL A   1      40.744  27.831  28.728  1.00  0.00     0.074 A 
ATOM     43  C   UNL A   1      40.977  30.129  29.609  1.00  0.00     0.049 A 
ATOM     44  N   UNL A   1      41.957  27.374  28.902  1.00  0.00    -0.248 NA
ATOM     45  C   UNL A   1      39.814  26.854  28.140  1.00  0.00     0.031 C 
ATOM     46  C   UNL A   1      40.542  31.470  30.010  1.00  0.00     0.029 A 
ATOM     47  N   UNL A   1      42.313  30.109  29.922  1.00  0.00    -0.354 N 
ATOM     48  C   UNL A   1      41.936  26.060  28.449  1.00  0.00     0.074 A 
ATOM     49  C   UNL A   1      40.575  25.773  28.050  1.00  0.00     0.031 C 
ATOM     50  C   UNL A   1      41.598  32.154  30.479  1.00  0.00     0.029 A 
ATOM     51  C   UNL A   1      42.775  31.291  30.454  1.00  0.00     0.049 A 
ATOM     52  H   UNL A   1      42.888  29.322  29.779  1.00  0.00     0.167 HD
ATOM     53  C   UNL A   1      42.962  25.183  28.348  1.00  0.00     0.037 A 
ATOM     54  C   UNL A   1      44.007  31.641  30.874  1.00  0.00     0.037 A 
ATOM     55  C   UNL A   1      44.319  25.483  28.727  1.00  0.00     0.049 A 
ATOM     56  C   UNL A   1      45.126  30.641  30.775  1.00  0.00     0.074 A 
ATOM     57  C   UNL A   1      45.435  24.673  28.631  1.00  0.00     0.029 A 
ATOM     58  N   UNL A   1      44.742  26.687  29.270  1.00  0.00    -0.354 N 
ATOM     59  N   UNL A   1      45.095  29.414  30.313  1.00  0.00    -0.248 NA
ATOM     60  C   UNL A   1      46.448  31.070  31.254  1.00  0.00     0.031 C 
ATOM     61  C   UNL A   1      46.528  25.372  29.152  1.00  0.00     0.029 A 
ATOM     62  C   UNL A   1      46.103  26.635  29.529  1.00  0.00     0.049 A 
ATOM     63  H   UNL A   1      44.164  27.463  29.445  1.00  0.00     0.167 HD
ATOM     64  C   UNL A   1      46.394  28.932  30.422  1.00  0.00     0.074 A 
ATOM     65  C   UNL A   1      47.190  30.004  30.986  1.00  0.00     0.031 C 
ATOM     66  C   UNL A   1      46.883  27.713  30.087  1.00  0.00     0.037 A 
BRANCH  53  67
ATOM     67  C   UNL A   1      42.664  23.821  27.785  1.00  0.00     0.058 A 
ATOM     68  C   UNL A   1      42.503  22.713  28.632  1.00  0.00     0.135 A 
ATOM     69  C   UNL A   1      42.588  23.603  26.400  1.00  0.00     0.135 A 
ATOM     70  F   UNL A   1      42.559  22.866  29.964  1.00  0.00    -0.206 F 
ATOM     71  C   UNL A   1      42.288  21.435  28.124  1.00  0.00     0.059 A 
ATOM     72  C   UNL A   1      42.346  22.338  25.871  1.00  0.00     0.059 A 
ATOM     73  F   UNL A   1      42.713  24.631  25.545  1.00  0.00    -0.206 F 
ATOM     74  C   UNL A   1      42.210  21.258  26.742  1.00  0.00     0.060 A 
BRANCH  74  75
ATOM     75  S   UNL A   1      41.891  19.601  26.100  1.00  0.00     0.124 S 
ATOM     76  O   UNL A   1      42.293  18.761  27.224  1.00  0.00    -0.237 OA
ATOM     77  O   UNL A   1      40.459  19.651  25.822  1.00  0.00    -0.237 OA
ATOM     78  O   UNL A   1      42.747  19.526  24.920  1.00  0.00    -0.744 OA
ENDBRANCH  74  75
ENDBRANCH  53  67
BRANCH  54  79
ATOM     79  C   UNL A   1      44.249  33.016  31.388  1.00  0.00     0.058 A 
ATOM     80  C   UNL A   1      44.142  33.316  32.754  1.00  0.00     0.135 A 
ATOM     81  C   UNL A   1      44.550  34.067  30.509  1.00  0.00     0.135 A 
ATOM     82  F   UNL A   1      43.846  32.350  33.637  1.00  0.00    -0.206 F 
ATOM     83  C   UNL A   1      44.297  34.615  33.228  1.00  0.00     0.059 A 
ATOM     84  C   UNL A   1      44.735  35.370  30.961  1.00  0.00     0.059 A 
ATOM     85  F   UNL A   1      44.675  33.824  29.195  1.00  0.00    -0.206 F 
ATOM     86  C   UNL A   1      44.588  35.636  32.322  1.00  0.00     0.060 A 
BRANCH  86  87
ATOM     87  S   UNL A   1      44.763  37.319  32.953  1.00  0.00     0.124 S 
ATOM     88  O   UNL A   1      45.679  37.116  34.071  1.00  0.00    -0.237 OA
ATOM     89  O   UNL A   1      45.316  38.021  31.799  1.00  0.00    -0.237 OA
ATOM     90  O   UNL A   1      43.400  37.688  33.316  1.00  0.00    -0.744 OA
ENDBRANCH  86  87
ENDBRANCH  54  79
BRANCH  66  91
ATOM     91  C   UNL A   1      48.350  27.465  30.297  1.00  0.00     0.058 A 
ATOM     92  C   UNL A   1      49.278  27.801  29.298  1.00  0.00     0.135 A 
ATOM     93  C   UNL A   1      48.829  26.816  31.446  1.00  0.00     0.135 A 
ATOM     94  F   UNL A   1      48.873  28.418  28.176  1.00  0.00    -0.206 F 
ATOM     95  C   UNL A   1      50.626  27.483  29.421  1.00  0.00     0.059 A 
ATOM     96  C   UNL A   1      50.178  26.512  31.602  1.00  0.00     0.059 A 
ATOM     97  F   UNL A   1      47.984  26.485  32.434  1.00  0.00    -0.206 F 
ATOM     98  C   UNL A   1      51.066  26.833  30.576  1.00  0.00     0.060 A 
BRANCH  98  99
ATOM     99  S   UNL A   1      52.819  26.428  30.719  1.00  0.00     0.124 S 
ATOM    100  O   UNL A   1      52.786  25.265  31.599  1.00  0.00    -0.237 OA
ATOM    101  O   UNL A   1      53.189  26.163  29.331  1.00  0.00    -0.237 OA
ATOM    102  O   UNL A   1      53.401  27.637  31.295  1.00  0.00    -0.744 OA
ENDBRANCH  98  99
ENDBRANCH  66  91
ENDBRANCH  40  41
ENDBRANCH  32  35
ENDBRANCH  30  31
ENDBRANCH  29  30
ENDBRANCH  28  29
ENDBRANCH   1  28
TORSDOF 21
ENDMDL
MODEL 3
REMARK VINA RESULT:     -10.7      2.500      3.202
REMARK SMILES Cc1nc(Nc2ccc(F)cc2)nc(OCC(=O)NCCCCNC(=O)c2ccc(-c3c4nc(c(-c5c(F)cc(S(=O)(=O)[O-])cc5F)c5ccc([nH]5)c(-c5c(F)cc(S(=O)(=O)[O-])cc5F)c5nc(c(-c6c(F)cc(S(=O)(=O)[O-])cc6F)c6ccc3[nH]6)C=C5)C=C4)cc2)c1CCO
REMARK SMILES IDX 20 1 19 2 17 3 18 4 16 6 15 7 14 8 1 9 2 10 3 11 93 12 4 13
REMARK SMILES IDX 13 14 94 15 95 16 96 17 5 19 6 21 7 22 12 23 8 24 11 25 9 26
REMARK SMILES IDX 10 27 21 28 22 29 23 30 24 31 25 32 26 34 27 35 28 36 92 37
REMARK SMILES IDX 29 38 91 39 30 40 31 41 32 42 85 43 33 44 90 45 84 46 86 47
REMARK SMILES IDX 34 48 89 49 83 50 82 51 35 53 69 54 48 55 68 56 49 57 52 58
REMARK SMILES IDX 67 59 87 60 50 61 51 62 66 64 88 65 53 66 36 67 37 68 46 69
REMARK SMILES IDX 38 70 39 71 45 72 47 73 40 74 41 75 42 76 43 77 44 78 70 79
REMARK SMILES IDX 71 80 80 81 72 82 73 83 79 84 81 85 74 86 75 87 76 88 77 89
REMARK SMILES IDX 78 90 54 91 55 92 64 93 56 94 57 95 63 96 65 97 58 98 59 99
REMARK SMILES IDX 60 100 61 101 62 102
REMARK H PARENT 19 5 96 18 5 20 24 33 86 52 52 63
REMARK Flexibility Score: inf
ROOT
ATOM      1  C   UNL A   1      31.170  26.086  25.967  1.00  0.00     0.116 C 
ENDROOT
BRANCH   1   2
ATOM      2  N   UNL A   1      31.609  25.078  26.905  1.00  0.00    -0.353 N 
ATOM      3  C   UNL A   1      31.511  23.727  26.808  1.00  0.00     0.258 C 
ATOM      4  O   UNL A   1      32.013  23.047  27.705  1.00  0.00    -0.271 OA
ATOM      5  H   UNL A   1      32.038  25.417  27.724  1.00  0.00     0.163 HD
BRANCH   3   6
ATOM      6  C   UNL A   1      30.858  23.091  25.571  1.00  0.00     0.331 C 
BRANCH   6   7
ATOM      7  O   UNL A   1      31.582  22.306  24.650  1.00  0.00    -0.467 OA
BRANCH   7   8
ATOM      8  C   UNL A   1      32.694  22.759  24.012  1.00  0.00     0.222 A 
ATOM      9  C   UNL A   1      36.415  22.767  23.429  1.00  0.00     0.067 C 
ATOM     10  C   UNL A   1      34.937  23.023  23.408  1.00  0.00     0.050 A 
ATOM     11  N   UNL A   1      34.589  24.001  22.554  1.00  0.00    -0.218 NA
ATOM     12  C   UNL A   1      34.017  22.401  24.251  1.00  0.00     0.038 A 
ATOM     13  C   UNL A   1      33.320  24.399  22.510  1.00  0.00     0.230 A 
ATOM     14  N   UNL A   1      32.353  23.782  23.192  1.00  0.00    -0.177 NA
BRANCH  12  15
ATOM     15  C   UNL A   1      34.491  21.537  25.391  1.00  0.00     0.071 C 
BRANCH  15  16
ATOM     16  C   UNL A   1      34.028  20.078  25.312  1.00  0.00     0.161 C 
BRANCH  16  17
ATOM     17  O   UNL A   1      32.821  19.827  26.019  1.00  0.00    -0.396 OA
ATOM     18  H   UNL A   1      32.076  19.833  25.398  1.00  0.00     0.210 HD
ENDBRANCH  16  17
ENDBRANCH  15  16
ENDBRANCH  12  15
BRANCH  13  19
ATOM     19  N   UNL A   1      33.004  25.592  21.856  1.00  0.00    -0.324 N 
ATOM     20  H   UNL A   1      33.327  25.682  20.930  1.00  0.00     0.170 HD
BRANCH  19  21
ATOM     21  C   UNL A   1      32.277  26.678  22.366  1.00  0.00     0.041 A 
ATOM     22  C   UNL A   1      30.875  26.709  22.303  1.00  0.00     0.029 A 
ATOM     23  C   UNL A   1      32.948  27.822  22.825  1.00  0.00     0.029 A 
ATOM     24  C   UNL A   1      30.157  27.842  22.693  1.00  0.00     0.041 A 
ATOM     25  C   UNL A   1      32.233  28.967  23.197  1.00  0.00     0.041 A 
ATOM     26  C   UNL A   1      30.845  28.966  23.127  1.00  0.00     0.123 A 
ATOM     27  F   UNL A   1      30.165  30.069  23.467  1.00  0.00    -0.207 F 
ENDBRANCH  19  21
ENDBRANCH  13  19
ENDBRANCH   7   8
ENDBRANCH   6   7
ENDBRANCH   3   6
ENDBRANCH   1   2
BRANCH   1  28
ATOM     28  C   UNL A   1      31.394  27.496  26.498  1.00  0.00     0.023 C 
BRANCH  28  29
ATOM     29  C   UNL A   1      32.746  27.733  27.177  1.00  0.00     0.023 C 
BRANCH  29  30
ATOM     30  C   UNL A   1      33.721  28.634  26.428  1.00  0.00     0.116 C 
BRANCH  30  31
ATOM     31  N   UNL A   1      33.558  30.044  26.737  1.00  0.00    -0.352 N 
ATOM     32  C   UNL A   1      34.362  30.857  27.499  1.00  0.00     0.251 C 
ATOM     33  H   UNL A   1      32.764  30.477  26.347  1.00  0.00     0.163 HD
ATOM     34  O   UNL A   1      34.024  32.014  27.729  1.00  0.00    -0.269 OA
BRANCH  32  35
ATOM     35  C   UNL A   1      35.609  30.314  28.075  1.00  0.00     0.039 A 
ATOM     36  C   UNL A   1      36.803  30.489  27.373  1.00  0.00     0.014 A 
ATOM     37  C   UNL A   1      35.606  29.673  29.318  1.00  0.00     0.014 A 
ATOM     38  C   UNL A   1      38.007  30.081  27.949  1.00  0.00     0.010 A 
ATOM     39  C   UNL A   1      36.815  29.332  29.920  1.00  0.00     0.010 A 
ATOM     40  C   UNL A   1      38.027  29.535  29.243  1.00  0.00    -0.014 A 
BRANCH  40  41
ATOM     41  C   UNL A   1      39.309  29.177  29.904  1.00  0.00     0.031 A 
ATOM     42  C   UNL A   1      39.762  29.924  31.127  1.00  0.00     0.074 A 
ATOM     43  C   UNL A   1      40.083  28.210  29.374  1.00  0.00     0.049 A 
ATOM     44  N   UNL A   1      40.871  29.794  31.808  1.00  0.00    -0.248 NA
ATOM     45  C   UNL A   1      38.861  30.968  31.640  1.00  0.00     0.031 C 
ATOM     46  C   UNL A   1      39.767  27.438  28.169  1.00  0.00     0.029 A 
ATOM     47  N   UNL A   1      41.295  27.708  29.778  1.00  0.00    -0.354 N 
ATOM     48  C   UNL A   1      40.804  30.738  32.825  1.00  0.00     0.074 A 
ATOM     49  C   UNL A   1      39.573  31.476  32.636  1.00  0.00     0.031 C 
ATOM     50  C   UNL A   1      40.741  26.538  27.955  1.00  0.00     0.029 A 
ATOM     51  C   UNL A   1      41.769  26.695  28.978  1.00  0.00     0.049 A 
ATOM     52  H   UNL A   1      41.781  28.043  30.566  1.00  0.00     0.167 HD
ATOM     53  C   UNL A   1      41.672  30.952  33.841  1.00  0.00     0.037 A 
ATOM     54  C   UNL A   1      42.904  25.972  29.059  1.00  0.00     0.037 A 
ATOM     55  C   UNL A   1      42.885  30.199  34.035  1.00  0.00     0.049 A 
ATOM     56  C   UNL A   1      43.867  26.244  30.182  1.00  0.00     0.074 A 
ATOM     57  C   UNL A   1      43.814  30.317  35.052  1.00  0.00     0.029 A 
ATOM     58  N   UNL A   1      43.333  29.187  33.197  1.00  0.00    -0.354 N 
ATOM     59  N   UNL A   1      43.771  27.118  31.155  1.00  0.00    -0.248 NA
ATOM     60  C   UNL A   1      45.093  25.434  30.220  1.00  0.00     0.031 C 
ATOM     61  C   UNL A   1      44.846  29.404  34.810  1.00  0.00     0.029 A 
ATOM     62  C   UNL A   1      44.535  28.684  33.668  1.00  0.00     0.049 A 
ATOM     63  H   UNL A   1      42.867  28.874  32.390  1.00  0.00     0.167 HD
ATOM     64  C   UNL A   1      44.909  26.948  31.934  1.00  0.00     0.074 A 
ATOM     65  C   UNL A   1      45.676  25.880  31.325  1.00  0.00     0.031 C 
ATOM     66  C   UNL A   1      45.285  27.616  33.052  1.00  0.00     0.037 A 
BRANCH  53  67
ATOM     67  C   UNL A   1      41.336  32.028  34.835  1.00  0.00     0.058 A 
ATOM     68  C   UNL A   1      40.497  31.759  35.928  1.00  0.00     0.135 A 
ATOM     69  C   UNL A   1      41.805  33.342  34.677  1.00  0.00     0.135 A 
ATOM     70  F   UNL A   1      40.025  30.519  36.131  1.00  0.00    -0.206 F 
ATOM     71  C   UNL A   1      40.127  32.758  36.823  1.00  0.00     0.059 A 
ATOM     72  C   UNL A   1      41.469  34.351  35.576  1.00  0.00     0.059 A 
ATOM     73  F   UNL A   1      42.628  33.648  33.661  1.00  0.00    -0.206 F 
ATOM     74  C   UNL A   1      40.619  34.051  36.639  1.00  0.00     0.060 A 
BRANCH  74  75
ATOM     75  S   UNL A   1      40.161  35.328  37.830  1.00  0.00     0.124 S 
ATOM     76  O   UNL A   1      41.363  35.416  38.653  1.00  0.00    -0.237 OA
ATOM     77  O   UNL A   1      39.895  36.473  36.965  1.00  0.00    -0.237 OA
ATOM     78  O   UNL A   1      38.986  34.768  38.491  1.00  0.00    -0.744 OA
ENDBRANCH  74  75
ENDBRANCH  53  67
BRANCH  54  79
ATOM     79  C   UNL A   1      43.166  24.895  28.067  1.00  0.00     0.058 A 
ATOM     80  C   UNL A   1      42.886  23.550  28.354  1.00  0.00     0.135 A 
ATOM     81  C   UNL A   1      43.743  25.191  26.823  1.00  0.00     0.135 A 
ATOM     82  F   UNL A   1      42.343  23.211  29.533  1.00  0.00    -0.206 F 
ATOM     83  C   UNL A   1      43.196  22.534  27.456  1.00  0.00     0.059 A 
ATOM     84  C   UNL A   1      44.039  24.195  25.896  1.00  0.00     0.059 A 
ATOM     85  F   UNL A   1      44.016  26.464  26.498  1.00  0.00    -0.206 F 
ATOM     86  C   UNL A   1      43.777  22.867  26.232  1.00  0.00     0.060 A 
BRANCH  86  87
ATOM     87  S   UNL A   1      44.193  21.532  25.088  1.00  0.00     0.124 S 
ATOM     88  O   UNL A   1      44.176  22.231  23.807  1.00  0.00    -0.237 OA
ATOM     89  O   UNL A   1      45.508  21.118  25.569  1.00  0.00    -0.237 OA
ATOM     90  O   UNL A   1      43.120  20.566  25.292  1.00  0.00    -0.744 OA
ENDBRANCH  86  87
ENDBRANCH  54  79
BRANCH  66  91
ATOM     91  C   UNL A   1      46.573  27.209  33.712  1.00  0.00     0.058 A 
ATOM     92  C   UNL A   1      47.791  27.780  33.306  1.00  0.00     0.135 A 
ATOM     93  C   UNL A   1      46.614  26.194  34.680  1.00  0.00     0.135 A 
ATOM     94  F   UNL A   1      47.808  28.751  32.379  1.00  0.00    -0.206 F 
ATOM     95  C   UNL A   1      49.005  27.342  33.821  1.00  0.00     0.059 A 
ATOM     96  C   UNL A   1      47.817  25.759  35.229  1.00  0.00     0.059 A 
ATOM     97  F   UNL A   1      45.477  25.625  35.109  1.00  0.00    -0.206 F 
ATOM     98  C   UNL A   1      49.009  26.328  34.780  1.00  0.00     0.060 A 
BRANCH  98  99
ATOM     99  S   UNL A   1      50.595  25.773  35.438  1.00  0.00     0.124 S 
ATOM    100  O   UNL A   1      50.181  24.996  36.601  1.00  0.00    -0.237 OA
ATOM    101  O   UNL A   1      51.140  25.004  34.322  1.00  0.00    -0.237 OA
ATOM    102  O   UNL A   1      51.296  27.020  35.731  1.00  0.00    -0.744 OA
ENDBRANCH  98  99
ENDBRANCH  66  91
ENDBRANCH  40  41
ENDBRANCH  32  35
ENDBRANCH  30  31
ENDBRANCH  29  30
ENDBRANCH  28  29
ENDBRANCH   1  28
TORSDOF 21
ENDMDL
